data_PCOD9185016
_publ_section_title
;
Structure prediction by ZEFSAII (Michael W. Deem and Ramdas Pophale) SiO2 
 PCOD9185016
Probable space group: C 2/M
;
_chemical_formula_sum "Si O2"
_cell_formula_units_Z 64
_cell_length_a 31.651990
_cell_length_b 24.549692
_cell_length_c 9.390016
_cell_angle_alpha 90.000000
_cell_angle_beta 153.367800
_cell_angle_gamma 90.000000
_cell_volume 3270.731302
_symmetry_space_group_name_H-M "C 2/M"
_symmetry_group_IT_number 12
_symmetry_cell_setting 'monoclinic'
loop_
_space_group_symop_operation_xyz
x,y,z
-x,y,-z
-x,-y,-z
x,-y,z
1/2+x,1/2+y,z
1/2-x,1/2+y,-z
1/2-x,1/2-y,-z
1/2+x,1/2-y,z
loop_
_atom_site_type_symbol
_atom_site_label
_atom_site_fract_x
_atom_site_fract_y
_atom_site_fract_z
Si Si1 0.823992 0.062850 0.286922
Si Si2 0.897064 0.333633 0.120195
Si Si3 0.901687 0.134416 0.284357
Si Si4 0.993040 0.671203 0.810356
Si Si5 0.220075 0.437748 0.242697
Si Si6 0.381987 0.938120 0.483697
Si Si7 0.249228 0.062186 0.330405
Si Si8 0.155718 0.255850 0.806401
O O1 0.891894 0.101861 0.403694
O O2 0.808551 0.074563 0.406674
O O3 0.852512 0.000000 0.354887
O O4 0.717542 0.068179 0.900368
O O5 0.832817 0.292772 0.017450
O O6 0.000000 0.327652 0.500000
O O7 0.912311 0.322466 0.998581
O O8 0.859758 0.394164 0.029323
O O9 0.880767 0.197228 0.253436
O O10 0.000000 0.128160 0.500000
O O11 0.821571 0.106440 0.945532
O O12 0.952454 0.610257 0.660063
O O13 0.918646 0.713508 0.519583
O O14 0.000000 0.678852 0.000000
O O15 0.191638 0.500000 0.124927
O O16 0.242992 0.433783 0.477819
O O17 0.348881 0.931843 0.548789
O O18 0.416764 0.000000 0.566090
O O19 0.217284 0.000000 0.198250
O O20 0.250000 0.250000 0.000000
#
# Coordination Sequence:
#
# PCOD9185016 Si02
#       8
#     8   8   8   8   8   8   8   8
#     4   9  18  33  55  82 110 141 180 221 264 320
#     4  10  21  36  54  81 115 145 182 224 265 315
#     4  11  21  37  59  79 102 138 184 230 275 327
#     4  11  22  36  55  83 117 142 174 232 282 310
#     4  10  19  34  55  81 115 149 180 217 265 320
#     4   9  17  32  54  80 112 153 190 210 248 325
#     4   9  19  35  56  83 112 142 181 225 267 319
#     4  11  23  42  61  76 103 147 191 225 269 331
#
# _framework density 19.567488999999998
#
# number of rings (size 3 to 8) (size 9 to 14) (size 15 to 20)
#    0.000    2.000    0.000    6.750    0.000    2.000 
#    0.000    6.875    0.000    2.250    0.000    0.000 
#    0.000    0.000    0.000    0.000    0.000    0.000 
#
# Total GULP energy -178638.987068 kJ/mol
# GULP energy per Si atom -5582.468346 kJ/mol
# Density = 1.952295 g / cm^3
# Si number density = 19.567489 Si / 1000 Ang^3
#
#
#
# Elastic Constant Matrix: (Units=GPa)
#
#
# Indices 1 2 3 4 5 6 
#
# 1 157.9652 53.5571 16.6728 0.0000 -4.1274 0.0000
# 2 53.5571 110.7172 28.3519 0.0000 1.8497 0.0000
# 3 16.6728 28.3519 15.2165 0.0000 1.1853 0.0000
# 4 0.0000 0.0000 0.0000 -7.4552 0.0000 -20.4587
# 5 -4.1274 1.8497 1.1853 0.0000 27.8342 0.0000
# 6 0.0000 0.0000 0.0000 -20.4587 0.0000 13.8040
#
#
#
# Elastic Compliance Matrix: (Units=1/GPa)
#
#
# Indices 1 2 3 4 5 6 
#
# 1 0.007695 -0.002981 -0.002992 0.000000 0.001467 0.000000
# 2 -0.002981 0.018430 -0.031046 0.000000 -0.000345 0.000000
# 3 -0.002992 -0.031046 0.127139 0.000000 -0.003795 0.000000
# 4 0.000000 0.000000 0.000000 -0.026471 0.000000 -0.039233
# 5 0.001467 -0.000345 -0.003795 0.000000 0.036329 0.000000
# 6 0.000000 0.000000 0.000000 -0.039233 0.000000 0.014297
#
#
# Mechanical properties :
#
#
# Convention : Reuss Voigt Hill
#
# Bulk Modulus (GPa) = 12.62216 53.45140 33.03678
# Shear Modulus (GPa) = 17.99432 19.19107 18.59269
#
# Velocity S-wave (km/s) = 3.03579 3.13511 3.08585
# Velocity P-wave (km/s) = 4.33042 6.36246 5.44213
#
# Compressibility (1/GPa) = 0.07922574
#
# Stress axis : x y z
#
# Youngs Moduli (GPa) = 129.95062 54.26005 7.86539
#
# Poissons Ratio (x) = 0.16173 0.02354
# Poissons Ratio (y) = 0.38734 0.24419
# Poissons Ratio (z) = 0.38886 1.68457
#
# Static dielectric constant tensor:
#      x y z
#    x 1.749340 0.000000 -0.027540 
#    y 0.000000 1.679950 0.000000 
#    z -0.027540 0.000000 1.679680 
# 
# From -- ./inp_files/113667.got.cif
#   From: 2010.05.17/outbox.cif.g08.bks.cpg/sg12_57_cif.got.tgz:113667.got - 2010.06.03 13:09:07.
