data_PCOD9185793
_publ_section_title
;
Structure prediction by ZEFSAII (Michael W. Deem and Ramdas Pophale) SiO2 
 PCOD9185793
Probable space group: C 2/M
;
_chemical_formula_sum "Si O2"
_cell_formula_units_Z 56
_cell_length_a 23.388684
_cell_length_b 15.056352
_cell_length_c 14.555621
_cell_angle_alpha 90.000000
_cell_angle_beta 31.699427
_cell_angle_gamma 90.000000
_cell_volume 2693.385658
_symmetry_space_group_name_H-M "C 2/M"
_symmetry_group_IT_number 12
_symmetry_cell_setting 'monoclinic'
loop_
_space_group_symop_operation_xyz
x,y,z
-x,y,-z
-x,-y,-z
x,-y,z
1/2+x,1/2+y,z
1/2-x,1/2+y,-z
1/2-x,1/2-y,-z
1/2+x,1/2-y,z
loop_
_atom_site_type_symbol
_atom_site_label
_atom_site_fract_x
_atom_site_fract_y
_atom_site_fract_z
Si Si1 0.821466 0.404055 0.599352
Si Si2 0.120537 0.283282 0.309824
Si Si3 0.222432 0.146847 0.546979
Si Si4 0.630758 0.900341 0.821310
Si Si5 0.568348 0.900192 0.204449
Si Si6 0.166443 0.272800 0.929590
Si Si7 0.481384 0.605004 0.915493
O O1 0.793850 0.500000 0.677213
O O2 0.835771 0.334517 0.660204
O O3 0.742986 0.382321 0.623500
O O4 0.939979 0.408542 0.392934
O O5 0.108927 0.349912 0.240693
O O6 0.000000 0.247981 0.500000
O O7 0.224020 0.220336 0.157962
O O8 0.250000 0.250000 0.500000
O O9 0.307257 0.101491 0.361008
O O10 0.094961 0.125919 0.707176
O O11 0.646000 0.000000 0.839487
O O12 0.500000 0.884610 0.000000
O O13 0.683030 0.821670 0.809781
O O14 0.585690 0.838096 0.093873
O O15 0.614062 0.000000 0.133473
O O16 0.108208 0.176926 0.996095
O O17 0.455841 0.500000 0.937415
O O18 0.500000 0.619068 0.000000
#
# Coordination Sequence:
#
# PCOD9185793 Si02
#       7
#     8   8   8   8   8   8   8
#     4  10  19  34  58  83 109 144 189 242 294 341
#     4  10  22  39  59  84 110 145 198 256 309 358
#     4  12  22  36  59  89 126 165 202 242 295 364
#     4  11  23  39  61  92 128 165 208 251 294 357
#     4  10  21  38  60  86 113 146 196 253 304 354
#     4  12  23  39  61  85 119 162 199 244 305 371
#     4  11  24  40  59  89 128 165 203 249 307 374
#
# _framework density 20.791675000000001
#
# number of rings (size 3 to 8) (size 9 to 14) (size 15 to 20)
#    0.000    1.143    0.000    8.143    0.000    7.429 
#    0.000    0.000    0.000    1.714    0.000    0.000 
#    0.000    0.000    0.000    0.000    0.000    0.000 
#
# Total GULP energy -156273.922135 kJ/mol
# GULP energy per Si atom -5581.211505 kJ/mol
# Density = 2.074435 g / cm^3
# Si number density = 20.791675 Si / 1000 Ang^3
#
#
#
# Elastic Constant Matrix: (Units=GPa)
#
#
# Indices 1 2 3 4 5 6 
#
# 1 66.2575 8.8849 23.0595 0.0000 -14.3746 0.0000
# 2 8.8849 89.2534 13.3935 0.0000 -10.4039 0.0000
# 3 23.0595 13.3935 111.4520 0.0000 -10.8167 0.0000
# 4 0.0000 0.0000 0.0000 15.6532 0.0000 5.3600
# 5 -14.3746 -10.4039 -10.8167 0.0000 35.8674 0.0000
# 6 0.0000 0.0000 0.0000 5.3600 0.0000 5.4624
#
#
#
# Elastic Compliance Matrix: (Units=1/GPa)
#
#
# Indices 1 2 3 4 5 6 
#
# 1 0.017496 -0.000603 -0.002971 0.000000 0.005941 0.000000
# 2 -0.000603 0.011749 -0.001009 0.000000 0.002862 0.000000
# 3 -0.002971 -0.001009 0.009853 0.000000 0.001488 0.000000
# 4 0.000000 0.000000 0.000000 0.096214 0.000000 -0.094412
# 5 0.005941 0.002862 0.001488 0.000000 0.031540 0.000000
# 6 0.000000 0.000000 0.000000 -0.094412 0.000000 0.275715
#
#
# Mechanical properties :
#
#
# Convention : Reuss Voigt Hill
#
# Bulk Modulus (GPa) = 33.40997 39.73764 36.57380
# Shear Modulus (GPa) = 10.82927 26.17158 18.50042
#
# Velocity S-wave (km/s) = 2.28468 3.55174 2.98619
# Velocity P-wave (km/s) = 4.80245 5.99780 5.43310
#
# Compressibility (1/GPa) = 0.02993118
#
# Stress axis : x y z
#
# Youngs Moduli (GPa) = 57.15457 85.11231 101.49340
#
# Poissons Ratio (x) = 0.05135 0.30153
# Poissons Ratio (y) = 0.03449 0.10244
# Poissons Ratio (z) = 0.16980 0.08591
#
# Static dielectric constant tensor:
#      x y z
#    x 1.775390 0.000000 -0.074250 
#    y 0.000000 1.808290 0.000000 
#    z -0.074250 0.000000 1.901420 
# 
# From -- ./inp_files/240898.got.cif
#   From: 2010.05.17/outbox.cif.g08.bks.cpg/sg12_121_cif.got.tgz:240898.got - 2010.06.03 13:09:07.
