data_PCOD9185726
_publ_section_title
;
Structure prediction by ZEFSAII (Michael W. Deem and Ramdas Pophale) SiO2 
 PCOD9185726
Probable space group: C 2/M
;
_chemical_formula_sum "Si O2"
_cell_formula_units_Z 48
_cell_length_a 24.971835
_cell_length_b 13.794922
_cell_length_c 15.336035
_cell_angle_alpha 90.000000
_cell_angle_beta 27.409542
_cell_angle_gamma 90.000000
_cell_volume 2432.028796
_symmetry_space_group_name_H-M "C 2/M"
_symmetry_group_IT_number 12
_symmetry_cell_setting 'monoclinic'
loop_
_space_group_symop_operation_xyz
x,y,z
-x,y,-z
-x,-y,-z
x,-y,z
1/2+x,1/2+y,z
1/2-x,1/2+y,-z
1/2-x,1/2-y,-z
1/2+x,1/2-y,z
loop_
_atom_site_type_symbol
_atom_site_label
_atom_site_fract_x
_atom_site_fract_y
_atom_site_fract_z
Si Si1 0.652940 0.116668 0.057473
Si Si2 0.597448 0.116494 0.651318
Si Si3 0.637394 0.884072 0.279847
Si Si4 0.137191 0.611952 0.788757
Si Si5 0.614352 0.390866 0.391619
Si Si6 0.212302 0.269202 0.334839
O O1 0.535354 0.149895 0.177952
O O2 0.658598 0.150157 0.149889
O O3 0.640960 0.000000 0.081140
O O4 0.771583 0.131158 0.832176
O O5 0.648968 0.142616 0.671020
O O6 0.679256 0.156958 0.457881
O O7 0.594372 0.000000 0.654241
O O8 0.500000 0.869099 0.500000
O O9 0.713707 0.829564 0.242641
O O10 0.658329 0.000000 0.254879
O O11 0.180412 0.500000 0.739948
O O12 0.188030 0.694838 0.777857
O O13 0.000000 0.606096 0.000000
O O14 0.500000 0.386360 0.500000
O O15 0.625155 0.500000 0.409697
O O16 0.608319 0.308523 0.472381
#
# Coordination Sequence:
#
# PCOD9185726 Si02
#       6
#     8   8   8   8   8   8
#     4   9  18  36  60  83 113 155 197 237 284 344
#     4  10  20  36  61  87 112 146 192 244 296 347
#     4  10  19  34  57  89 124 154 189 235 291 354
#     4  10  22  41  61  82 111 152 201 247 290 345
#     4  10  22  38  53  78 119 160 196 236 288 347
#     4  12  21  34  57  89 115 146 191 246 293 345
#
# _framework density 19.736609000000001
#
# number of rings (size 3 to 8) (size 9 to 14) (size 15 to 20)
#    0.000    1.833    1.667    3.000    0.000    3.333 
#    3.000    0.000    0.000    2.000    0.000    0.000 
#    0.000    0.000    0.000    0.000    0.000    0.000 
#
# Total GULP energy -133806.011832 kJ/mol
# GULP energy per Si atom -5575.250493 kJ/mol
# Density = 1.969169 g / cm^3
# Si number density = 19.736609 Si / 1000 Ang^3
#
#
#
# Elastic Constant Matrix: (Units=GPa)
#
#
# Indices 1 2 3 4 5 6 
#
# 1 141.9350 48.8408 24.7273 0.0000 -5.9984 0.0000
# 2 48.8408 62.5674 3.3406 0.0000 -2.2548 0.0000
# 3 24.7273 3.3406 25.7759 0.0000 -10.4313 0.0000
# 4 0.0000 0.0000 0.0000 7.9361 0.0000 10.9277
# 5 -5.9984 -2.2548 -10.4313 0.0000 28.3707 0.0000
# 6 0.0000 0.0000 0.0000 10.9277 0.0000 101.6412
#
#
#
# Elastic Compliance Matrix: (Units=1/GPa)
#
#
# Indices 1 2 3 4 5 6 
#
# 1 0.011934 -0.008799 -0.011243 0.000000 -0.002310 0.000000
# 2 -0.008799 0.022590 0.006446 0.000000 0.002305 0.000000
# 3 -0.011243 0.006446 0.056381 0.000000 0.018865 0.000000
# 4 0.000000 0.000000 0.000000 0.147903 0.000000 -0.015901
# 5 -0.002310 0.002305 0.018865 0.000000 0.041879 0.000000
# 6 0.000000 0.000000 0.000000 -0.015901 0.000000 0.011548
#
#
# Mechanical properties :
#
#
# Convention : Reuss Voigt Hill
#
# Bulk Modulus (GPa) = 15.69528 42.67731 29.18630
# Shear Modulus (GPa) = 14.67715 37.81424 26.24569
#
# Velocity S-wave (km/s) = 2.72996 4.38190 3.65059
# Velocity P-wave (km/s) = 4.23161 6.87545 5.70869
#
# Compressibility (1/GPa) = 0.06371343
#
# Stress axis : x y z
#
# Youngs Moduli (GPa) = 83.79079 44.26667 17.73647
#
# Poissons Ratio (x) = 0.38951 0.19942
# Poissons Ratio (y) = 0.73729 -0.11434
# Poissons Ratio (z) = 0.94210 -0.28536
#
# Static dielectric constant tensor:
#      x y z
#    x 1.775880 0.000000 0.038440 
#    y 0.000000 1.712750 0.000000 
#    z 0.038440 0.000000 1.717560 
# 
# From -- ./inp_files/143167.got.cif
#   From: 2010.05.17/outbox.cif.g08.bks.cpg/sg12_72_cif.got.tgz:143167.got - 2010.06.03 13:09:07.
