data_PCOD9185660
_publ_section_title
;
Structure prediction by ZEFSAII (Michael W. Deem and Ramdas Pophale) SiO2 
 PCOD9185660
Probable space group: C 2/M
;
_chemical_formula_sum "Si O2"
_cell_formula_units_Z 56
_cell_length_a 22.454000
_cell_length_b 12.788929
_cell_length_c 10.016387
_cell_angle_alpha 90.000000
_cell_angle_beta 102.187869
_cell_angle_gamma 90.000000
_cell_volume 2811.501101
_symmetry_space_group_name_H-M "C 2/M"
_symmetry_group_IT_number 12
_symmetry_cell_setting 'monoclinic'
loop_
_space_group_symop_operation_xyz
x,y,z
-x,y,-z
-x,-y,-z
x,-y,z
1/2+x,1/2+y,z
1/2-x,1/2+y,-z
1/2-x,1/2-y,-z
1/2+x,1/2-y,z
loop_
_atom_site_type_symbol
_atom_site_label
_atom_site_fract_x
_atom_site_fract_y
_atom_site_fract_z
Si Si1 0.314572 0.700864 0.572069
Si Si2 0.357537 0.286844 0.318347
Si Si3 0.069976 0.685817 0.007138
Si Si4 0.648417 0.617984 0.968440
Si Si5 0.548197 0.117913 0.701076
Si Si6 0.247815 0.617221 0.785342
Si Si7 0.906023 0.615178 0.693100
O O1 0.250000 0.750000 0.500000
O O2 0.342668 0.655080 0.449366
O O3 0.298550 0.631254 0.692513
O O4 0.360164 0.794571 0.630246
O O5 0.358482 0.362651 0.192339
O O6 0.417382 0.212918 0.354984
O O7 0.303688 0.203304 0.261021
O O8 0.109172 0.790526 0.015844
O O9 0.071503 0.627287 0.865955
O O10 0.090059 0.619578 0.144008
O O11 0.000000 0.714725 0.000000
O O12 0.629218 0.500000 0.993733
O O13 0.716827 0.629967 0.058068
O O14 0.475040 0.131102 0.672552
O O15 0.560765 0.000000 0.657068
O O16 0.222286 0.500000 0.765691
O O17 0.885075 0.500000 0.640340
#
# Coordination Sequence:
#
# PCOD9185660 Si02
#       7
#     8   8   8   8   8   8   8
#     4  10  22  37  54  78 111 150 188 226 270 329
#     4  10  21  36  55  81 118 146 181 232 284 335
#     4   9  17  32  55  84 116 148 183 234 281 328
#     4  10  20  35  57  81 108 146 192 236 279 327
#     4   9  18  32  55  87 117 148 181 226 285 341
#     4  10  20  37  59  78 105 146 191 234 277 332
#     4  10  19  34  57  85 117 149 188 228 277 338
#
# _framework density 19.918184
#
# number of rings (size 3 to 8) (size 9 to 14) (size 15 to 20)
#    0.000    2.286    1.429    1.286    0.000    6.000 
#    0.000    3.571    0.000    0.000    0.000    4.000 
#    0.000    0.000    0.000    0.000    0.000    0.000 
#
# Total GULP energy -156220.488627 kJ/mol
# GULP energy per Si atom -5579.303165 kJ/mol
# Density = 1.987285 g / cm^3
# Si number density = 19.918184 Si / 1000 Ang^3
#
#
#
# Elastic Constant Matrix: (Units=GPa)
#
#
# Indices 1 2 3 4 5 6 
#
# 1 42.3176 17.7114 8.7122 0.0000 -0.9202 0.0000
# 2 17.7114 74.7163 -4.6489 0.0000 10.3869 0.0000
# 3 8.7122 -4.6489 56.4495 0.0000 0.2588 0.0000
# 4 0.0000 0.0000 0.0000 -4.0011 0.0000 -1.7562
# 5 -0.9202 10.3869 0.2588 0.0000 30.3128 0.0000
# 6 0.0000 0.0000 0.0000 -1.7562 0.0000 22.4733
#
#
#
# Elastic Compliance Matrix: (Units=1/GPa)
#
#
# Indices 1 2 3 4 5 6 
#
# 1 0.027801 -0.007370 -0.004913 0.000000 0.003411 0.000000
# 2 -0.007370 0.016086 0.002489 0.000000 -0.005757 0.000000
# 3 -0.004913 0.002489 0.018684 0.000000 -0.001161 0.000000
# 4 0.000000 0.000000 0.000000 -0.241642 0.000000 -0.018883
# 5 0.003411 -0.005757 -0.001161 0.000000 0.035076 0.000000
# 6 0.000000 0.000000 0.000000 -0.018883 0.000000 0.043022
#
#
# Mechanical properties :
#
#
# Convention : Reuss Voigt Hill
#
# Bulk Modulus (GPa) = 23.26598 24.11478 23.69038
# Shear Modulus (GPa) = -74.56362 19.87092 -27.34635
#
# Velocity S-wave (km/s) = -6.12505 3.16195 -3.70933
# Velocity P-wave (km/s) = 6.18995 5.04616 2.53493
#
# Compressibility (1/GPa) = 0.04298120
#
# Stress axis : x y z
#
# Youngs Moduli (GPa) = 35.96961 62.16496 53.52313
#
# Poissons Ratio (x) = 0.45817 0.26298
# Poissons Ratio (y) = 0.26510 -0.13320
# Poissons Ratio (z) = 0.17673 -0.15471
#
# Static dielectric constant tensor:
#      x y z
#    x 1.695420 0.000000 -0.028900 
#    y 0.000000 1.653170 0.000000 
#    z -0.028900 0.000000 1.757070 
# 
# From -- ./inp_files/165031.got.cif
#   From: 2010.05.17/outbox.cif.g08.bks.cpg/sg12_83_cif.got.tgz:165031.got - 2010.06.03 13:09:07.
