data_PCOD9185161
_publ_section_title
;
Structure prediction by ZEFSAII (Michael W. Deem and Ramdas Pophale) SiO2 
 PCOD9185161
Probable space group: C 2/M
;
_chemical_formula_sum "Si O2"
_cell_formula_units_Z 48
_cell_length_a 15.789885
_cell_length_b 7.404808
_cell_length_c 16.697906
_cell_angle_alpha 90.000000
_cell_angle_beta 82.432655
_cell_angle_gamma 90.000000
_cell_volume 1935.333605
_symmetry_space_group_name_H-M "C 2/M"
_symmetry_group_IT_number 12
_symmetry_cell_setting 'monoclinic'
loop_
_space_group_symop_operation_xyz
x,y,z
-x,y,-z
-x,-y,-z
x,-y,z
1/2+x,1/2+y,z
1/2-x,1/2+y,-z
1/2-x,1/2-y,-z
1/2+x,1/2-y,z
loop_
_atom_site_type_symbol
_atom_site_label
_atom_site_fract_x
_atom_site_fract_y
_atom_site_fract_z
Si Si1 0.784074 0.721098 0.859597
Si Si2 0.619885 0.779786 0.312171
Si Si3 0.556176 0.206072 0.063979
Si Si4 0.653812 0.785261 0.486819
Si Si5 0.573354 0.782525 0.659933
Si Si6 0.893962 0.789602 0.172737
O O1 0.784215 0.500000 0.862168
O O2 0.821876 0.777623 0.768761
O O3 0.685083 0.778446 0.871482
O O4 0.853743 0.783157 0.916539
O O5 0.642322 0.715646 0.398510
O O6 0.522653 0.723974 0.310605
O O7 0.623270 0.000000 0.311908
O O8 0.485283 0.200986 0.143368
O O9 0.574878 0.000000 0.037372
O O10 0.500000 0.291773 0.000000
O O11 0.750000 0.750000 0.500000
O O12 0.599275 0.715354 0.568777
O O13 0.636269 0.000000 0.484490
O O14 0.628349 0.727709 0.730254
O O15 0.576327 0.000000 0.656700
O O16 0.904705 0.000000 0.154678
#
# Coordination Sequence:
#
# PCOD9185161 Si02
#       6
#     8   8   8   8   8   8
#     4   9  18  34  57  83 113 150 186 224 277 339
#     4   9  16  31  55  77 103 144 193 231 267 325
#     4  10  21  40  64  86 111 148 191 229 272 338
#     4  10  20  32  50  78 108 145 190 236 279 327
#     4  10  19  34  56  79 107 147 197 236 269 330
#     4  11  22  36  58  87 117 148 184 231 289 338
#
# _framework density 24.801925000000001
#
# number of rings (size 3 to 8) (size 9 to 14) (size 15 to 20)
#    0.000    2.167    1.667    2.000    0.000    5.000 
#    0.000    2.500    0.000    2.000    0.000    0.000 
#    0.000    0.000    0.000    0.000    0.000    0.000 
#
# Total GULP energy -134101.033128 kJ/mol
# GULP energy per Si atom -5587.543047 kJ/mol
# Density = 2.474547 g / cm^3
# Si number density = 24.801925 Si / 1000 Ang^3
#
#
#
# Elastic Constant Matrix: (Units=GPa)
#
#
# Indices 1 2 3 4 5 6 
#
# 1 84.7427 -0.5731 -4.5066 0.0000 42.3600 0.0000
# 2 -0.5731 91.8190 0.8686 0.0000 0.0475 0.0000
# 3 -4.5066 0.8686 103.8310 0.0000 38.3023 0.0000
# 4 0.0000 0.0000 0.0000 6.2866 0.0000 1.8377
# 5 42.3600 0.0475 38.3023 0.0000 51.7751 0.0000
# 6 0.0000 0.0000 0.0000 1.8377 0.0000 3.7630
#
#
#
# Elastic Compliance Matrix: (Units=1/GPa)
#
#
# Indices 1 2 3 4 5 6 
#
# 1 0.030241 0.000071 0.014357 0.000000 -0.035363 0.000000
# 2 0.000071 0.010892 -0.000086 0.000000 -0.000004 0.000000
# 3 0.014357 -0.000086 0.020063 0.000000 -0.026589 0.000000
# 4 0.000000 0.000000 0.000000 0.185558 0.000000 -0.090619
# 5 -0.035363 -0.000004 -0.026589 0.000000 0.067917 0.000000
# 6 0.000000 0.000000 0.000000 -0.090619 0.000000 0.310002
#
#
# Mechanical properties :
#
#
# Convention : Reuss Voigt Hill
#
# Bulk Modulus (GPa) = 11.12583 30.21894 20.67238
# Shear Modulus (GPa) = 7.98786 31.33851 19.66318
#
# Velocity S-wave (km/s) = 1.79657 3.55850 2.81874
# Velocity P-wave (km/s) = 2.96634 5.39393 4.35279
#
# Compressibility (1/GPa) = 0.08988097
#
# Stress axis : x y z
#
# Youngs Moduli (GPa) = 33.06727 91.80835 49.84235
#
# Poissons Ratio (x) = -0.00654 -0.71560
# Poissons Ratio (y) = -0.00236 0.00431
# Poissons Ratio (z) = -0.47475 0.00793
#
# Static dielectric constant tensor:
#      x y z
#    x 1.938040 0.000000 -0.004650 
#    y 0.000000 2.014520 0.000000 
#    z -0.004650 0.000000 2.064080 
# 
# From -- ./inp_files/267699.got.cif
#   From: 2010.05.17/outbox.cif.g08.bks.cpg/sg12_134_cif.got.tgz:267699.got - 2010.06.03 13:09:07.
