data_PCOD9185834
_publ_section_title
;
Structure prediction by ZEFSAII (Michael W. Deem and Ramdas Pophale) SiO2 
 PCOD9185834
Probable space group: C 2/M
;
_chemical_formula_sum "Si O2"
_cell_formula_units_Z 48
_cell_length_a 10.245114
_cell_length_b 14.319883
_cell_length_c 16.434764
_cell_angle_alpha 90.000000
_cell_angle_beta 104.396113
_cell_angle_gamma 90.000000
_cell_volume 2335.415806
_symmetry_space_group_name_H-M "C 2/M"
_symmetry_group_IT_number 12
_symmetry_cell_setting 'monoclinic'
loop_
_space_group_symop_operation_xyz
x,y,z
-x,y,-z
-x,-y,-z
x,-y,z
1/2+x,1/2+y,z
1/2-x,1/2+y,-z
1/2-x,1/2-y,-z
1/2+x,1/2-y,z
loop_
_atom_site_type_symbol
_atom_site_label
_atom_site_fract_x
_atom_site_fract_y
_atom_site_fract_z
Si Si1 0.229429 0.774088 0.121909
Si Si2 0.475978 0.157943 0.079826
Si Si3 0.821804 0.111461 0.722578
Si Si4 0.134156 0.888252 0.767031
Si Si5 0.439849 0.885919 0.405613
Si Si6 0.102612 0.609817 0.275300
O O1 0.318102 0.825216 0.068279
O O2 0.076820 0.745599 0.081343
O O3 0.222670 0.836017 0.202458
O O4 0.312477 0.678790 0.153384
O O5 0.529286 0.124968 0.176863
O O6 0.500000 0.102233 0.000000
O O7 0.716013 0.136589 0.635959
O O8 0.977701 0.131873 0.727663
O O9 0.811108 0.000000 0.735018
O O10 0.241040 0.863596 0.712435
O O11 0.147661 0.000000 0.785743
O O12 0.500000 0.852176 0.500000
O O13 0.524212 0.850237 0.340383
O O14 0.447332 0.000000 0.408215
O O15 0.102532 0.500000 0.288505
#
# Coordination Sequence:
#
# PCOD9185834 Si02
#       6
#     8   8   8   8   8   8
#     4  11  20  36  57  81 114 148 190 235 283 332
#     4  11  22  34  53  80 111 150 190 230 281 335
#     4  10  19  34  58  84 111 150 189 227 281 341
#     4   9  19  35  57  81 110 152 192 228 282 337
#     4   9  17  31  55  86 115 144 184 233 282 334
#     4   9  18  34  55  79 110 148 188 233 282 332
#
# _framework density 20.553084999999999
#
# number of rings (size 3 to 8) (size 9 to 14) (size 15 to 20)
#    0.000    2.167    3.333    0.500    0.000    0.333 
#    0.000    0.833    0.000   18.000    0.000    0.000 
#    0.000    0.000    0.000    0.000    0.000    0.000 
#
# Total GULP energy -133714.524533 kJ/mol
# GULP energy per Si atom -5571.438522 kJ/mol
# Density = 2.050631 g / cm^3
# Si number density = 20.553085 Si / 1000 Ang^3
#
#
#
# Elastic Constant Matrix: (Units=GPa)
#
#
# Indices 1 2 3 4 5 6 
#
# 1 146.3254 14.2806 55.6165 0.0000 1.8254 0.0000
# 2 14.2806 50.1346 11.5762 0.0000 4.1497 0.0000
# 3 55.6165 11.5762 122.9700 0.0000 4.4760 0.0000
# 4 0.0000 0.0000 0.0000 19.8668 0.0000 -2.0516
# 5 1.8254 4.1497 4.4760 0.0000 28.2382 0.0000
# 6 0.0000 0.0000 0.0000 -2.0516 0.0000 11.6724
#
#
#
# Elastic Compliance Matrix: (Units=1/GPa)
#
#
# Indices 1 2 3 4 5 6 
#
# 1 0.008370 -0.001564 -0.003648 0.000000 0.000267 0.000000
# 2 -0.001564 0.020890 -0.001158 0.000000 -0.002785 0.000000
# 3 -0.003648 -0.001158 0.009934 0.000000 -0.001169 0.000000
# 4 0.000000 0.000000 0.000000 0.051266 0.000000 0.009011
# 5 0.000267 -0.002785 -0.001169 0.000000 0.035990 0.000000
# 6 0.000000 0.000000 0.000000 0.009011 0.000000 0.087256
#
#
# Mechanical properties :
#
#
# Convention : Reuss Voigt Hill
#
# Bulk Modulus (GPa) = 37.80201 53.59739 45.69970
# Shear Modulus (GPa) = 21.25288 27.81928 24.53608
#
# Velocity S-wave (km/s) = 3.21915 3.68303 3.45888
# Velocity P-wave (km/s) = 5.67887 6.64984 6.18345
#
# Compressibility (1/GPa) = 0.02645362
#
# Stress axis : x y z
#
# Youngs Moduli (GPa) = 119.47498 47.87059 100.66933
#
# Poissons Ratio (x) = 0.07487 0.36724
# Poissons Ratio (y) = 0.18685 0.11656
# Poissons Ratio (z) = 0.43585 0.05543
#
# Static dielectric constant tensor:
#      x y z
#    x 1.762620 0.000000 0.001860 
#    y 0.000000 1.763370 0.000000 
#    z 0.001860 0.000000 1.773620 
# 
# From -- ./inp_files/204573.got.cif
#   From: 2010.05.17/outbox.cif.g08.bks.cpg/sg12_103_cif.got.tgz:204573.got - 2010.06.03 13:09:07.
