data_PCOD9185704
_publ_section_title
;
Structure prediction by ZEFSAII (Michael W. Deem and Ramdas Pophale) SiO2 
 PCOD9185704
Probable space group: C 2/M
;
_chemical_formula_sum "Si O2"
_cell_formula_units_Z 48
_cell_length_a 18.506083
_cell_length_b 13.624393
_cell_length_c 17.016738
_cell_angle_alpha 90.000000
_cell_angle_beta 30.291505
_cell_angle_gamma 90.000000
_cell_volume 2164.126880
_symmetry_space_group_name_H-M "C 2/M"
_symmetry_group_IT_number 12
_symmetry_cell_setting 'monoclinic'
loop_
_space_group_symop_operation_xyz
x,y,z
-x,y,-z
-x,-y,-z
x,-y,z
1/2+x,1/2+y,z
1/2-x,1/2+y,-z
1/2-x,1/2-y,-z
1/2+x,1/2-y,z
loop_
_atom_site_type_symbol
_atom_site_label
_atom_site_fract_x
_atom_site_fract_y
_atom_site_fract_z
Si Si1 0.255499 0.777067 0.342665
Si Si2 0.926373 0.888861 0.371798
Si Si3 0.542575 0.885940 0.552022
Si Si4 0.474186 0.108727 0.911499
Si Si5 0.833134 0.891743 0.717566
Si Si6 0.094312 0.711707 0.173115
O O1 0.194984 0.669994 0.418655
O O2 0.416483 0.805097 0.169081
O O3 0.162499 0.813653 0.355466
O O4 0.215073 0.848283 0.453331
O O5 0.048316 0.888509 0.325963
O O6 0.986196 0.803228 0.260000
O O7 0.913406 0.000000 0.354486
O O8 0.500000 0.882859 0.500000
O O9 0.433027 0.827229 0.712616
O O10 0.549511 0.000000 0.568286
O O11 0.444543 0.122925 0.847530
O O12 0.533006 0.000000 0.873904
O O13 0.321255 0.117256 0.096523
O O14 0.842098 0.000000 0.671925
O O15 0.250000 0.750000 0.000000
#
# Coordination Sequence:
#
# PCOD9185704 Si02
#       6
#     8   8   8   8   8   8
#     4  11  21  36  59  89 123 158 198 253 307 372
#     4  10  20  34  56  86 116 151 203 251 299 359
#     4  10  23  42  66  92 123 169 217 256 301 365
#     4  11  23  37  58  90 126 163 201 252 320 377
#     4  10  19  34  57  87 122 161 200 248 311 373
#     4  11  22  39  62  87 119 163 209 259 305 365
#
# _framework density 22.179845
#
# number of rings (size 3 to 8) (size 9 to 14) (size 15 to 20)
#    0.000    1.500    1.667    5.000    0.000    6.000 
#    0.000    2.500    0.000    2.000    0.000    0.000 
#    0.000    0.000    0.000    0.000    0.000    0.000 
#
# Total GULP energy -134070.055661 kJ/mol
# GULP energy per Si atom -5586.252319 kJ/mol
# Density = 2.212936 g / cm^3
# Si number density = 22.179845 Si / 1000 Ang^3
#
#
#
# Elastic Constant Matrix: (Units=GPa)
#
#
# Indices 1 2 3 4 5 6 
#
# 1 46.9354 4.3898 15.9969 0.0002 6.8389 -0.0001
# 2 4.3898 155.8843 45.1682 0.0004 8.0580 -0.0002
# 3 15.9969 45.1682 134.3767 0.0006 -6.9020 -0.0004
# 4 0.0002 0.0004 0.0006 27.7713 -0.0004 1.7756
# 5 6.8389 8.0580 -6.9020 -0.0004 40.6185 0.0002
# 6 -0.0001 -0.0002 -0.0004 1.7756 0.0002 24.4364
#
#
#
# Elastic Compliance Matrix: (Units=1/GPa)
#
#
# Indices 1 2 3 4 5 6 
#
# 1 0.022983 0.000493 -0.003133 0.000000 -0.004500 0.000000
# 2 0.000493 0.007256 -0.002598 0.000000 -0.001964 0.000000
# 3 -0.003133 -0.002598 0.008819 0.000000 0.002541 0.000000
# 4 0.000000 0.000000 0.000000 0.036176 0.000000 -0.002629
# 5 -0.004500 -0.001964 0.002541 0.000000 0.026198 0.000000
# 6 0.000000 0.000000 0.000000 -0.002629 0.000000 0.041113
#
#
# Mechanical properties :
#
#
# Convention : Reuss Voigt Hill
#
# Bulk Modulus (GPa) = 34.98817 52.03402 43.51110
# Shear Modulus (GPa) = 30.75992 36.67468 33.71730
#
# Velocity S-wave (km/s) = 3.72807 4.07075 3.90318
# Velocity P-wave (km/s) = 5.86006 6.75320 6.32242
#
# Compressibility (1/GPa) = 0.02858109
#
# Stress axis : x y z
#
# Youngs Moduli (GPa) = 43.51001 137.82570 113.39586
#
# Poissons Ratio (x) = -0.06797 0.35526
# Poissons Ratio (y) = -0.02146 0.29465
# Poissons Ratio (z) = 0.13631 0.35813
#
# Static dielectric constant tensor:
#      x y z
#    x 1.878380 0.000000 -0.015590 
#    y 0.000000 1.814320 0.000000 
#    z -0.015590 0.000000 1.810040 
# 
# From -- ./inp_files/283983.got.cif
#   From: 2010.05.17/outbox.cif.g08.bks.cpg/sg12_142_cif.got.tgz:283983.got - 2010.06.03 13:09:07.
