data_PCOD9185356
_publ_section_title
;
Structure prediction by ZEFSAII (Michael W. Deem and Ramdas Pophale) SiO2 
 PCOD9185356
Probable space group: C 2/M
;
_chemical_formula_sum "Si O2"
_cell_formula_units_Z 48
_cell_length_a 14.566423
_cell_length_b 13.765695
_cell_length_c 9.342640
_cell_angle_alpha 90.000000
_cell_angle_beta 71.649171
_cell_angle_gamma 90.000000
_cell_volume 1778.090857
_symmetry_space_group_name_H-M "C 2/M"
_symmetry_group_IT_number 12
_symmetry_cell_setting 'monoclinic'
loop_
_space_group_symop_operation_xyz
x,y,z
-x,y,-z
-x,-y,-z
x,-y,z
1/2+x,1/2+y,z
1/2-x,1/2+y,-z
1/2-x,1/2-y,-z
1/2+x,1/2-y,z
loop_
_atom_site_type_symbol
_atom_site_label
_atom_site_fract_x
_atom_site_fract_y
_atom_site_fract_z
Si Si1 0.606109 0.102472 0.099977
Si Si2 0.256631 0.681912 0.703752
Si Si3 0.421753 0.317522 0.425135
Si Si4 0.914271 0.818807 0.882886
Si Si5 0.910785 0.602295 0.367309
Si Si6 0.197863 0.104747 0.813931
O O1 0.595710 0.210561 0.044364
O O2 0.518653 0.100586 0.255313
O O3 0.705627 0.101343 0.137153
O O4 0.599903 0.000000 0.021507
O O5 0.320433 0.646117 0.536964
O O6 0.328296 0.673235 0.804730
O O7 0.161527 0.617329 0.730876
O O8 0.215198 0.793197 0.722019
O O9 0.500000 0.354690 0.500000
O O10 0.482525 0.331168 0.248068
O O11 0.405578 0.201455 0.457433
O O12 0.886877 0.886814 0.026848
O O13 0.890316 0.500000 0.452123
O O14 0.187789 0.000000 0.742100
#
# Coordination Sequence:
#
# PCOD9185356 Si02
#       6
#     8   8   8   8   8   8
#     4   8  15  30  52  77 103 133 173 221 274 328
#     4  10  19  34  56  85 115 146 186 236 288 333
#     4   9  19  36  59  80 107 150 193 232 276 333
#     4   9  18  35  56  80 112 150 189 230 277 333
#     4  10  20  33  53  84 117 145 178 231 294 342
#     4  10  20  36  59  84 111 149 195 235 274 330
#
# _framework density 26.995245000000001
#
# number of rings (size 3 to 8) (size 9 to 14) (size 15 to 20)
#    0.000    2.667    0.000    3.500    0.000    1.667 
#    0.000   10.833    0.000   25.000    0.000    0.000 
#    0.000    0.000    0.000    0.000    0.000    0.000 
#
# Total GULP energy -134001.688454 kJ/mol
# GULP energy per Si atom -5583.403686 kJ/mol
# Density = 2.693380 g / cm^3
# Si number density = 26.995245 Si / 1000 Ang^3
#
#
#
# Elastic Constant Matrix: (Units=GPa)
#
#
# Indices 1 2 3 4 5 6 
#
# 1 102.9674 -8.3961 61.0901 0.0000 -5.1490 0.0000
# 2 -8.3961 88.9902 19.9858 0.0000 -1.7620 0.0000
# 3 61.0901 19.9858 140.7757 0.0000 -22.9501 0.0000
# 4 0.0000 0.0000 0.0000 -11.9599 0.0000 75.6753
# 5 -5.1490 -1.7620 -22.9501 0.0000 48.6469 0.0000
# 6 0.0000 0.0000 0.0000 75.6753 0.0000 -127.5057
#
#
#
# Elastic Compliance Matrix: (Units=1/GPa)
#
#
# Indices 1 2 3 4 5 6 
#
# 1 0.013794 0.002760 -0.006634 0.000000 -0.001570 0.000000
# 2 0.002760 0.012166 -0.003039 0.000000 -0.000701 0.000000
# 3 -0.006634 -0.003039 0.011138 0.000000 0.004442 0.000000
# 4 0.000000 0.000000 0.000000 0.030346 0.000000 0.018010
# 5 -0.001570 -0.000701 0.004442 0.000000 0.022460 0.000000
# 6 0.000000 0.000000 0.000000 0.018010 0.000000 0.002846
#
#
# Mechanical properties :
#
#
# Convention : Reuss Voigt Hill
#
# Bulk Modulus (GPa) = 42.96889 53.12145 48.04517
# Shear Modulus (GPa) = 43.73145 -0.82683 21.45231
#
# Velocity S-wave (km/s) = 4.02925 -0.55403 2.82205
# Velocity P-wave (km/s) = 6.13174 4.39449 5.33431
#
# Compressibility (1/GPa) = 0.02327265
#
# Stress axis : x y z
#
# Youngs Moduli (GPa) = 72.49435 82.19413 89.78312
#
# Poissons Ratio (x) = -0.22687 0.59560
# Poissons Ratio (y) = -0.20010 0.27288
# Poissons Ratio (z) = 0.48091 0.24982
#
# Static dielectric constant tensor:
#      x y z
#    x 2.124160 0.000000 0.020960 
#    y 0.000000 2.147320 0.000000 
#    z 0.020960 0.000000 2.053750 
# 
# From -- ./inp_files/143557.got.cif
#   From: 2010.05.17/outbox.cif.g08.bks.cpg/sg12_72_cif.got.tgz:143557.got - 2010.06.03 13:09:07.
