data_PCOD9185095
_publ_section_title
;
Structure prediction by ZEFSAII (Michael W. Deem and Ramdas Pophale) SiO2 
 PCOD9185095
Probable space group: C 2/M
;
_chemical_formula_sum "Si O2"
_cell_formula_units_Z 32
_cell_length_a 21.376091
_cell_length_b 8.107951
_cell_length_c 27.457307
_cell_angle_alpha 90.000000
_cell_angle_beta 157.078231
_cell_angle_gamma 90.000000
_cell_volume 1853.428018
_symmetry_space_group_name_H-M "C 2/M"
_symmetry_group_IT_number 12
_symmetry_cell_setting 'monoclinic'
loop_
_space_group_symop_operation_xyz
x,y,z
-x,y,-z
-x,-y,-z
x,-y,z
1/2+x,1/2+y,z
1/2-x,1/2+y,-z
1/2-x,1/2-y,-z
1/2+x,1/2-y,z
loop_
_atom_site_type_symbol
_atom_site_label
_atom_site_fract_x
_atom_site_fract_y
_atom_site_fract_z
Si Si1 0.503048 0.689414 0.358092
Si Si2 0.019726 0.000000 0.933510
Si Si3 0.929974 0.814596 0.124070
Si Si4 0.640599 0.810252 0.358213
Si Si5 0.771049 0.500000 0.199847
O O1 0.452330 0.500000 0.331787
O O2 0.554234 0.704402 0.338004
O O3 0.669817 0.725532 0.506187
O O4 0.376727 0.833695 0.278167
O O5 0.027366 0.155453 0.901963
O O6 0.862052 0.000000 0.853203
O O7 0.173540 0.000000 0.078936
O O8 0.054553 0.711896 0.245012
O O9 0.934846 0.000000 0.148542
O O10 0.750000 0.750000 0.000000
O O11 0.624162 0.000000 0.362628
#
# Coordination Sequence:
#
# PCOD9185095 Si02
#       5
#     8   4   8   8   4
#     4  10  21  34  60  88 113 154 192 238 291 337
#     4   9  24  37  57  87 111 160 196 232 295 352
#     4  10  20  34  55  82 115 148 187 236 293 336
#     4  10  19  34  55  90 119 143 195 242 286 343
#     4  11  20  43  61  77 125 151 198 241 280 355
#
# _framework density 17.265304
#
# number of rings (size 3 to 8) (size 9 to 14) (size 15 to 20)
#    0.750    1.250    1.250    3.000    3.500    0.000 
#    0.000    8.750    0.000    3.000    0.000    0.000 
#    0.000    0.000    0.000    0.000    0.000    0.000 
#
# Total GULP energy -89131.992442 kJ/mol
# GULP energy per Si atom -5570.749528 kJ/mol
# Density = 1.722601 g / cm^3
# Si number density = 17.265304 Si / 1000 Ang^3
#
#
#
# Elastic Constant Matrix: (Units=GPa)
#
#
# Indices 1 2 3 4 5 6 
#
# 1 74.4776 25.0150 62.7122 -0.0014 -6.3286 0.0000
# 2 25.0150 89.3358 50.3665 -0.0036 16.6698 -0.0001
# 3 62.7122 50.3665 130.1827 -0.0056 -4.9556 -0.0004
# 4 -0.0014 -0.0036 -0.0056 32.6435 -0.0009 -2.2983
# 5 -6.3286 16.6698 -4.9556 -0.0009 24.4131 -0.0002
# 6 0.0000 -0.0001 -0.0004 -2.2983 -0.0002 24.7778
#
#
#
# Elastic Compliance Matrix: (Units=1/GPa)
#
#
# Indices 1 2 3 4 5 6 
#
# 1 0.023058 -0.001566 -0.010313 -0.000001 0.004953 0.000000
# 2 -0.001566 0.018096 -0.006785 0.000000 -0.014140 0.000000
# 3 -0.010313 -0.006785 0.015469 0.000002 0.005099 0.000000
# 4 -0.000001 0.000000 0.000002 0.030835 0.000001 0.002860
# 5 0.004953 -0.014140 0.005099 0.000001 0.052936 0.000000
# 6 0.000000 0.000000 0.000000 0.002860 0.000000 0.040624
#
#
# Mechanical properties :
#
#
# Convention : Reuss Voigt Hill
#
# Bulk Modulus (GPa) = 51.82972 63.35375 57.59173
# Shear Modulus (GPa) = 22.24434 26.76037 24.50236
#
# Velocity S-wave (km/s) = 3.59330 3.94121 3.77127
# Velocity P-wave (km/s) = 6.87754 7.58187 7.23828
#
# Compressibility (1/GPa) = 0.01929395
#
# Stress axis : x y z
#
# Youngs Moduli (GPa) = 43.36981 55.26098 64.64743
#
# Poissons Ratio (x) = 0.08656 0.66669
# Poissons Ratio (y) = 0.06794 0.43862
# Poissons Ratio (z) = 0.44726 0.37494
#
# Static dielectric constant tensor:
#      x y z
#    x 1.576590 0.000000 -0.045040 
#    y 0.000000 1.619140 0.000000 
#    z -0.045040 0.000000 1.672320 
# 
# From -- ./inp_files/171251.got.cif
#   From: 2010.05.17/outbox.cif.g08.bks.cpg/sg12_86_cif.got.tgz:171251.got - 2010.06.03 13:09:07.
