data_PCOD9185679
_publ_section_title
;
Structure prediction by ZEFSAII (Michael W. Deem and Ramdas Pophale) SiO2 
 PCOD9185679
Probable space group: C 2/M
;
_chemical_formula_sum "Si O2"
_cell_formula_units_Z 64
_cell_length_a 22.683059
_cell_length_b 14.011787
_cell_length_c 26.385753
_cell_angle_alpha 90.000000
_cell_angle_beta 23.586105
_cell_angle_gamma 90.000000
_cell_volume 3355.538857
_symmetry_space_group_name_H-M "C 2/M"
_symmetry_group_IT_number 12
_symmetry_cell_setting 'monoclinic'
loop_
_space_group_symop_operation_xyz
x,y,z
-x,y,-z
-x,-y,-z
x,-y,z
1/2+x,1/2+y,z
1/2-x,1/2+y,-z
1/2-x,1/2-y,-z
1/2+x,1/2-y,z
loop_
_atom_site_type_symbol
_atom_site_label
_atom_site_fract_x
_atom_site_fract_y
_atom_site_fract_z
Si Si1 0.159923 0.389669 0.999235
Si Si2 0.418403 0.732926 0.380802
Si Si3 0.353930 0.386699 0.744677
Si Si4 0.602071 0.397234 0.968607
Si Si5 0.059933 0.774188 0.824876
Si Si6 0.534450 0.612352 0.196321
Si Si7 0.065113 0.610064 0.332323
Si Si8 0.864927 0.760365 0.639830
O O1 0.116393 0.500000 0.029392
O O2 0.243458 0.366330 0.879433
O O3 0.287735 0.381513 0.941212
O O4 0.021076 0.325329 0.122945
O O5 0.250000 0.750000 0.500000
O O6 0.483916 0.654470 0.368673
O O7 0.484954 0.689053 0.277162
O O8 0.474164 0.830993 0.362282
O O9 0.357134 0.500000 0.735858
O O10 0.312468 0.331842 0.725895
O O11 0.586913 0.500000 0.007297
O O12 0.768236 0.387283 0.819784
O O13 0.500000 0.398932 0.000000
O O14 0.542379 0.314999 0.050181
O O15 0.041123 0.850094 0.794790
O O16 0.225513 0.763573 0.714455
O O17 0.499369 0.500000 0.235264
O O18 0.019163 0.500000 0.374258
O O19 0.072436 0.667713 0.379373
O O20 0.000000 0.799602 0.500000
#
# Coordination Sequence:
#
# PCOD9185679 Si02
#       8
#     8   8   8   8   8   8   8   8
#     4   9  20  39  63  91 117 149 200 252 297 355
#     4  10  21  38  62  86 115 152 209 250 282 347
#     4   9  20  41  65  84 114 158 201 250 305 351
#     4  10  19  34  57  86 116 148 193 237 291 358
#     4  12  22  35  63  89 122 161 193 240 306 356
#     4  10  22  39  60  90 123 155 193 242 305 362
#     4  10  22  40  61  87 119 155 196 250 302 352
#     4  11  25  39  55  86 125 158 202 245 290 356
#
# _framework density 19.072942000000001
#
# number of rings (size 3 to 8) (size 9 to 14) (size 15 to 20)
#    0.000    1.875    1.250    4.125    3.500    2.500 
#    0.000    3.125    0.000    0.000    0.000    0.000 
#    0.000    0.000    0.000    0.000    0.000    0.000 
#
# Total GULP energy -178300.337076 kJ/mol
# GULP energy per Si atom -5571.885534 kJ/mol
# Density = 1.902953 g / cm^3
# Si number density = 19.072942 Si / 1000 Ang^3
#
#
#
# Elastic Constant Matrix: (Units=GPa)
#
#
# Indices 1 2 3 4 5 6 
#
# 1 94.1471 26.9258 18.8114 -0.0002 -25.4525 -0.0002
# 2 26.9258 92.0566 16.5012 0.0003 -15.9303 0.0015
# 3 18.8114 16.5012 39.7308 -0.0022 -23.6720 0.0019
# 4 -0.0002 0.0003 -0.0022 28.8859 -0.0001 -19.2109
# 5 -25.4525 -15.9303 -23.6720 -0.0001 25.3335 0.0003
# 6 -0.0002 0.0015 0.0019 -19.2109 0.0003 46.5691
#
#
#
# Elastic Compliance Matrix: (Units=1/GPa)
#
#
# Indices 1 2 3 4 5 6 
#
# 1 0.015246 -0.002118 0.004498 0.000001 0.018189 0.000000
# 2 -0.002118 0.012506 -0.001745 -0.000001 0.004105 -0.000001
# 3 0.004498 -0.001745 0.058212 0.000004 0.057816 -0.000001
# 4 0.000001 -0.000001 0.000004 0.047708 0.000004 0.019681
# 5 0.018189 0.004105 0.057816 0.000004 0.114353 -0.000002
# 6 0.000000 -0.000001 -0.000001 0.019681 -0.000002 0.029592
#
#
# Mechanical properties :
#
#
# Convention : Reuss Voigt Hill
#
# Bulk Modulus (GPa) = 11.46348 38.93459 25.19904
# Shear Modulus (GPa) = 16.37065 31.07077 23.72071
#
# Velocity S-wave (km/s) = 2.93288 4.04053 3.53042
# Velocity P-wave (km/s) = 4.18240 6.49813 5.46434
#
# Compressibility (1/GPa) = 0.08723353
#
# Stress axis : x y z
#
# Youngs Moduli (GPa) = 65.59090 79.96412 17.17863
#
# Poissons Ratio (x) = 0.16937 -0.07728
# Poissons Ratio (y) = 0.13893 0.02998
# Poissons Ratio (z) = -0.29505 0.13956
#
# Static dielectric constant tensor:
#      x y z
#    x 1.782740 0.000000 0.021590 
#    y 0.000000 1.744240 0.000000 
#    z 0.021590 0.000000 1.653410 
# 
# From -- ./inp_files/344003.got.cif
#   From: 2010.05.17/outbox.cif.g08.bks.cpg/sg12_173_cif.got.tgz:344003.got - 2010.06.03 13:09:07.
