data_PCOD9185354
_publ_section_title
;
Structure prediction by ZEFSAII (Michael W. Deem and Ramdas Pophale) SiO2 
 PCOD9185354
Probable space group: C 2/M
;
_chemical_formula_sum "Si O2"
_cell_formula_units_Z 64
_cell_length_a 12.408821
_cell_length_b 13.937393
_cell_length_c 19.609614
_cell_angle_alpha 90.000000
_cell_angle_beta 89.730657
_cell_angle_gamma 90.000000
_cell_volume 3391.378889
_symmetry_space_group_name_H-M "C 2/M"
_symmetry_group_IT_number 12
_symmetry_cell_setting 'monoclinic'
loop_
_space_group_symop_operation_xyz
x,y,z
-x,y,-z
-x,-y,-z
x,-y,z
1/2+x,1/2+y,z
1/2-x,1/2+y,-z
1/2-x,1/2-y,-z
1/2+x,1/2-y,z
loop_
_atom_site_type_symbol
_atom_site_label
_atom_site_fract_x
_atom_site_fract_y
_atom_site_fract_z
Si Si1 0.740276 0.889375 0.052688
Si Si2 0.449417 0.387899 0.641299
Si Si3 0.605462 0.200666 0.302919
Si Si4 0.543505 0.888164 0.159280
Si Si5 0.459867 0.884667 0.423690
Si Si6 0.597721 0.780083 0.946593
Si Si7 0.772584 0.883876 0.534544
Si Si8 0.295652 0.614182 0.380179
O O1 0.651231 0.881967 0.112650
O O2 0.838211 0.817707 0.066571
O O3 0.772658 0.000000 0.046075
O O4 0.679968 0.852271 0.984617
O O5 0.427804 0.500000 0.655384
O O6 0.408206 0.315101 0.698511
O O7 0.381849 0.360131 0.573708
O O8 0.576634 0.376710 0.629756
O O9 0.569162 0.152332 0.233407
O O10 0.528778 0.164550 0.364899
O O11 0.724673 0.168779 0.324988
O O12 0.452673 0.827986 0.120092
O O13 0.512810 0.000000 0.163035
O O14 0.500000 0.861462 0.500000
O O15 0.333828 0.857938 0.422868
O O16 0.470625 0.000000 0.415848
O O17 0.500000 0.763595 0.000000
O O18 0.767002 0.850541 0.456586
O O19 0.771179 0.000000 0.529271
O O20 0.269137 0.500000 0.375843
#
# Coordination Sequence:
#
# PCOD9185354 Si02
#       8
#     8   8   8   8   8   8   8   8
#     4   9  18  35  62  92 124 160 194 231 276 328
#     4  10  24  41  56  77 109 147 190 244 303 358
#     4  12  24  36  59  83 113 151 202 240 294 353
#     4  10  21  38  59  86 118 154 195 237 282 338
#     4  10  19  34  56  85 115 142 185 253 312 351
#     4   9  18  35  61  93 125 154 191 234 277 330
#     4   9  18  36  58  77 105 141 184 240 307 365
#     4  10  20  38  60  81 106 140 186 244 301 363
#
# _framework density 18.871381
#
# number of rings (size 3 to 8) (size 9 to 14) (size 15 to 20)
#    0.000    2.125    1.250    1.875    1.750    5.750 
#    0.000    1.875    0.000    3.000    0.000    0.000 
#    0.000    0.000    0.000    0.000    0.000    0.000 
#
# Total GULP energy -178787.261205 kJ/mol
# GULP energy per Si atom -5587.101913 kJ/mol
# Density = 1.882843 g / cm^3
# Si number density = 18.871381 Si / 1000 Ang^3
#
#
#
# Elastic Constant Matrix: (Units=GPa)
#
#
# Indices 1 2 3 4 5 6 
#
# 1 106.7486 60.3508 46.0194 0.0000 29.8076 0.0000
# 2 60.3508 129.7871 57.1715 0.0000 14.0174 0.0000
# 3 46.0194 57.1715 97.0122 0.0000 27.4357 0.0000
# 4 0.0000 0.0000 0.0000 23.6016 0.0000 -4.4523
# 5 29.8076 14.0174 27.4357 0.0000 18.6100 0.0000
# 6 0.0000 0.0000 0.0000 -4.4523 0.0000 31.7889
#
#
#
# Elastic Compliance Matrix: (Units=1/GPa)
#
#
# Indices 1 2 3 4 5 6 
#
# 1 0.022243 -0.008500 0.004670 0.000000 -0.036108 0.000000
# 2 -0.008500 0.013701 -0.008531 0.000000 0.015871 0.000000
# 3 0.004670 -0.008531 0.023013 0.000000 -0.034981 0.000000
# 4 0.000000 0.000000 0.000000 0.043520 0.000000 0.006095
# 5 -0.036108 0.015871 -0.034981 0.000000 0.151184 0.000000
# 6 0.000000 0.000000 0.000000 0.006095 0.000000 0.032311
#
#
# Mechanical properties :
#
#
# Convention : Reuss Voigt Hill
#
# Bulk Modulus (GPa) = 29.21017 73.40348 51.30682
# Shear Modulus (GPa) = 15.52285 26.13384 20.82834
#
# Velocity S-wave (km/s) = 2.87114 3.72538 3.32580
# Velocity P-wave (km/s) = 5.14815 7.58194 6.48032
#
# Compressibility (1/GPa) = 0.03423465
#
# Stress axis : x y z
#
# Youngs Moduli (GPa) = 44.95834 72.98674 43.45397
#
# Poissons Ratio (x) = 0.62039 -0.20291
# Poissons Ratio (y) = 0.38215 0.37069
# Poissons Ratio (z) = -0.20994 0.62262
#
# Static dielectric constant tensor:
#      x y z
#    x 1.653010 0.000000 0.002800 
#    y 0.000000 1.700170 0.000000 
#    z 0.002800 0.000000 1.614450 
# 
# From -- ./inp_files/263345.got.cif
#   From: 2010.05.17/outbox.cif.g08.bks.cpg/sg12_132_cif.got.tgz:263345.got - 2010.06.03 13:09:07.
