data_PCOD9185835
_publ_section_title
;
Structure prediction by ZEFSAII (Michael W. Deem and Ramdas Pophale) SiO2 
 PCOD9185835
Probable space group: C 2/M
;
_chemical_formula_sum "Si O2"
_cell_formula_units_Z 50
_cell_length_a 30.415917
_cell_length_b 7.414963
_cell_length_c 12.681482
_cell_angle_alpha 90.000000
_cell_angle_beta 125.866990
_cell_angle_gamma 90.000000
_cell_volume 2317.758966
_symmetry_space_group_name_H-M "C 2/M"
_symmetry_group_IT_number 12
_symmetry_cell_setting 'monoclinic'
loop_
_space_group_symop_operation_xyz
x,y,z
-x,y,-z
-x,-y,-z
x,-y,z
1/2+x,1/2+y,z
1/2-x,1/2+y,-z
1/2-x,1/2-y,-z
1/2+x,1/2-y,z
loop_
_atom_site_type_symbol
_atom_site_label
_atom_site_fract_x
_atom_site_fract_y
_atom_site_fract_z
Si Si1 0.910340 0.215641 0.289730
Si Si2 0.118189 0.707900 0.189812
Si Si3 0.439443 0.704180 0.679202
Si Si4 0.238825 0.715284 0.361181
Si Si5 0.500000 0.000000 0.500000
Si Si6 0.941223 0.215914 0.107304
Si Si7 0.845706 0.781478 0.395652
O O1 0.903904 0.251022 0.156305
O O2 0.859226 0.254717 0.293344
O O3 0.958464 0.341312 0.397954
O O4 0.922788 0.000000 0.318257
O O5 0.124116 0.500000 0.231620
O O6 0.089628 0.800426 0.248527
O O7 0.178285 0.782789 0.252283
O O8 0.082281 0.714319 0.034770
O O9 0.449537 0.500000 0.655409
O O10 0.498651 0.787163 0.779365
O O11 0.397047 0.786567 0.537013
O O12 0.237731 0.500000 0.342769
O O13 0.250000 0.750000 0.500000
O O14 0.289101 0.786130 0.363193
O O15 0.945889 0.000000 0.099690
O O16 0.845191 0.000000 0.408693
#
# Coordination Sequence:
#
# PCOD9185835 Si02
#       7
#     8   8   8   8   2   8   8
#     4  10  22  41  61  90 125 165 207 248 304 366
#     4  11  23  36  54  85 121 153 194 249 304 358
#     4  10  19  34  58  84 111 153 197 236 292 366
#     4  10  20  37  59  86 114 153 196 252 308 357
#     4  12  22  36  64  94 126 164 202 252 306 346
#     4  10  22  39  59  81 116 161 205 239 290 372
#     4   9  18  37  63  84 117 155 198 249 303 361
#
# _framework density 21.572562999999999
#
# number of rings (size 3 to 8) (size 9 to 14) (size 15 to 20)
#    0.000    1.920    1.600    2.160    1.120    5.760 
#    5.760    0.800    0.000    0.000    0.000    0.000 
#    0.000    0.000    0.000    0.000    0.000    0.000 
#
# Total GULP energy -139366.890499 kJ/mol
# GULP energy per Si atom -5574.675620 kJ/mol
# Density = 2.152346 g / cm^3
# Si number density = 21.572563 Si / 1000 Ang^3
#
#
#
# Elastic Constant Matrix: (Units=GPa)
#
#
# Indices 1 2 3 4 5 6 
#
# 1 -138.0341 -18.6360 155.9545 0.0000 48.7600 0.0000
# 2 -18.6360 79.0930 -3.5986 0.0000 0.3099 0.0000
# 3 155.9545 -3.5986 6.7025 0.0000 -25.9238 0.0000
# 4 0.0000 0.0000 0.0000 18.5603 0.0000 -9.7521
# 5 48.7600 0.3099 -25.9238 0.0000 23.0002 0.0000
# 6 0.0000 0.0000 0.0000 -9.7521 0.0000 25.8848
#
#
#
# Elastic Compliance Matrix: (Units=1/GPa)
#
#
# Indices 1 2 3 4 5 6 
#
# 1 0.000587 0.000367 0.005447 0.000000 0.004890 0.000000
# 2 0.000367 0.012799 0.001591 0.000000 0.000843 0.000000
# 3 0.005447 0.001591 0.006380 0.000000 -0.004378 0.000000
# 4 0.000000 0.000000 0.000000 0.067176 0.000000 0.025309
# 5 0.004890 0.000843 -0.004378 0.000000 0.028166 0.000000
# 6 0.000000 0.000000 0.000000 0.025309 0.000000 0.048168
#
#
# Mechanical properties :
#
#
# Convention : Reuss Voigt Hill
#
# Bulk Modulus (GPa) = 28.92223 23.91124 26.41674
# Shear Modulus (GPa) = 31.25155 1.09182 16.17168
#
# Velocity S-wave (km/s) = 3.81027 0.71219 2.74093
# Velocity P-wave (km/s) = 5.72657 3.43285 4.72113
#
# Compressibility (1/GPa) = 0.03457548
#
# Stress axis : x y z
#
# Youngs Moduli (GPa) = 1703.12653 78.13176 156.74196
#
# Poissons Ratio (x) = -0.02868 -0.85376
# Poissons Ratio (y) = -0.62507 -0.24935
# Poissons Ratio (z) = -9.27679 -0.12429
#
# Static dielectric constant tensor:
#      x y z
#    x 1.813420 0.000000 -0.003140 
#    y 0.000000 1.847130 0.000000 
#    z -0.003140 0.000000 1.711220 
# 
# From -- ./inp_files/180147.got.cif
#   From: 2010.05.17/outbox.cif.g08.bks.cpg/sg12_91_cif.got.tgz:180147.got - 2010.06.03 13:09:07.
