data_PCOD9185907
_publ_section_title
;
Structure prediction by ZEFSAII (Michael W. Deem and Ramdas Pophale) SiO2 
 PCOD9185907
Probable space group: C 2/M
;
_chemical_formula_sum "Si O2"
_cell_formula_units_Z 56
_cell_length_a 9.354712
_cell_length_b 18.617552
_cell_length_c 28.260887
_cell_angle_alpha 90.000000
_cell_angle_beta 142.007387
_cell_angle_gamma 90.000000
_cell_volume 3029.766001
_symmetry_space_group_name_H-M "C 2/M"
_symmetry_group_IT_number 12
_symmetry_cell_setting 'monoclinic'
loop_
_space_group_symop_operation_xyz
x,y,z
-x,y,-z
-x,-y,-z
x,-y,z
1/2+x,1/2+y,z
1/2-x,1/2+y,-z
1/2-x,1/2-y,-z
1/2+x,1/2-y,z
loop_
_atom_site_type_symbol
_atom_site_label
_atom_site_fract_x
_atom_site_fract_y
_atom_site_fract_z
Si Si1 0.673373 0.823215 0.199077
Si Si2 0.877835 0.581756 0.363596
Si Si3 0.776200 0.084643 0.065940
Si Si4 0.211106 0.177143 0.019642
Si Si5 0.979059 0.917968 0.340934
Si Si6 0.055149 0.826235 0.217195
Si Si7 0.302164 0.825708 0.489065
O O1 0.441036 0.840628 0.109468
O O2 0.755025 0.884110 0.257090
O O3 0.878944 0.813657 0.214652
O O4 0.632429 0.748996 0.215640
O O5 0.928354 0.500000 0.362867
O O6 0.677887 0.579342 0.352039
O O7 0.770883 0.628375 0.293445
O O8 0.092643 0.620840 0.444297
O O9 0.916744 0.128357 0.141899
O O10 0.818316 0.000000 0.081655
O O11 0.500000 0.097629 0.000000
O O12 0.841312 0.114933 0.031603
O O13 0.250000 0.250000 0.000000
O O14 0.000000 0.188848 0.000000
O O15 0.081904 0.864121 0.407060
O O16 0.944917 0.000000 0.348595
O O17 0.500000 0.816485 0.500000
O O18 0.250000 0.750000 0.500000
#
# Coordination Sequence:
#
# PCOD9185907 Si02
#       7
#     8   8   8   8   8   8   8
#     4  11  22  35  59  83 111 149 189 235 282 337
#     4   9  18  33  56  83 112 145 186 231 274 325
#     4  11  23  39  59  83 112 148 191 237 288 344
#     4  12  23  39  61  85 114 150 193 237 288 341
#     4   9  19  35  56  84 113 146 188 233 277 329
#     4  11  21  36  57  85 112 147 190 234 283 334
#     4  10  19  34  58  86 113 145 185 227 276 329
#
# _framework density 18.483276
#
# number of rings (size 3 to 8) (size 9 to 14) (size 15 to 20)
#    0.000    1.571    2.857    3.000    0.000    3.143 
#    0.000    0.000    0.000    3.429    0.000    0.000 
#    0.000    0.000    0.000    0.000    0.000    0.000 
#
# Total GULP energy -156400.208494 kJ/mol
# GULP energy per Si atom -5585.721732 kJ/mol
# Density = 1.844121 g / cm^3
# Si number density = 18.483276 Si / 1000 Ang^3
#
#
#
# Elastic Constant Matrix: (Units=GPa)
#
#
# Indices 1 2 3 4 5 6 
#
# 1 69.0303 32.2227 21.2946 0.0001 -6.8918 0.0000
# 2 32.2227 110.1666 43.6050 0.0000 -12.8304 -0.0002
# 3 21.2946 43.6050 123.5522 0.0009 -13.0160 0.0002
# 4 0.0001 0.0000 0.0009 27.3357 0.0003 5.8693
# 5 -6.8918 -12.8304 -13.0160 0.0003 19.1829 0.0000
# 6 0.0000 -0.0002 0.0002 5.8693 0.0000 8.8777
#
#
#
# Elastic Compliance Matrix: (Units=1/GPa)
#
#
# Indices 1 2 3 4 5 6 
#
# 1 0.017078 -0.004235 -0.001186 0.000000 0.002499 0.000000
# 2 -0.004235 0.012043 -0.003050 0.000000 0.004464 0.000000
# 3 -0.001186 -0.003050 0.009816 0.000000 0.004195 0.000000
# 4 0.000000 0.000000 0.000000 0.042634 -0.000001 -0.028187
# 5 0.002499 0.004464 0.004195 -0.000001 0.058859 0.000000
# 6 0.000000 0.000000 0.000000 -0.028187 0.000000 0.131277
#
#
# Mechanical properties :
#
#
# Convention : Reuss Voigt Hill
#
# Bulk Modulus (GPa) = 45.46203 55.22152 50.34178
# Shear Modulus (GPa) = 16.89291 24.78771 20.84031
#
# Velocity S-wave (km/s) = 3.02645 3.66606 3.36150
# Velocity P-wave (km/s) = 6.07143 6.91819 6.50859
#
# Compressibility (1/GPa) = 0.02199638
#
# Stress axis : x y z
#
# Youngs Moduli (GPa) = 58.55326 83.03576 101.86960
#
# Poissons Ratio (x) = 0.35166 0.12078
# Poissons Ratio (y) = 0.24797 0.31072
# Poissons Ratio (z) = 0.06942 0.25327
#
# Static dielectric constant tensor:
#      x y z
#    x 1.625190 0.000000 0.002370 
#    y 0.000000 1.615000 0.000000 
#    z 0.002370 0.000000 1.638960 
# 
# From -- ./inp_files/356712.got.cif
#   From: 2010.05.17/outbox.cif.g08.bks.cpg/sg12_179_cif.got.tgz:356712.got - 2010.06.03 13:09:07.
