data_PCOD9185928
_publ_section_title
;
Structure prediction by ZEFSAII (Michael W. Deem and Ramdas Pophale) SiO2 
 PCOD9185928
Probable space group: C 2/M
;
_chemical_formula_sum "Si O2"
_cell_formula_units_Z 56
_cell_length_a 28.401580
_cell_length_b 13.683796
_cell_length_c 9.964533
_cell_angle_alpha 90.000000
_cell_angle_beta 127.399466
_cell_angle_gamma 90.000000
_cell_volume 3076.496070
_symmetry_space_group_name_H-M "C 2/M"
_symmetry_group_IT_number 12
_symmetry_cell_setting 'monoclinic'
loop_
_space_group_symop_operation_xyz
x,y,z
-x,y,-z
-x,-y,-z
x,-y,z
1/2+x,1/2+y,z
1/2-x,1/2+y,-z
1/2-x,1/2-y,-z
1/2+x,1/2-y,z
loop_
_atom_site_type_symbol
_atom_site_label
_atom_site_fract_x
_atom_site_fract_y
_atom_site_fract_z
Si Si1 0.492212 0.385149 0.143736
Si Si2 0.136973 0.615880 0.554426
Si Si3 0.743279 0.618129 0.082076
Si Si4 0.553981 0.721416 0.490903
Si Si5 0.142797 0.883582 0.118517
Si Si6 0.814928 0.230023 0.554599
Si Si7 0.824645 0.882966 0.294725
O O1 0.507069 0.500000 0.186844
O O2 0.532070 0.322320 0.311466
O O3 0.500000 0.362157 0.000000
O O4 0.422676 0.371331 0.054816
O O5 0.131452 0.500000 0.530567
O O6 0.191329 0.639025 0.750417
O O7 0.079238 0.670159 0.510366
O O8 0.155383 0.670423 0.448615
O O9 0.739197 0.500000 0.073565
O O10 0.693953 0.649894 0.104914
O O11 0.723692 0.649140 0.899753
O O12 0.500000 0.716989 0.500000
O O13 0.610593 0.657225 0.634204
O O14 0.148882 0.824398 0.266682
O O15 0.150437 0.000000 0.158713
O O16 0.750000 0.250000 0.500000
O O17 0.811585 0.161420 0.417757
O O18 0.826057 0.000000 0.303371
#
# Coordination Sequence:
#
# PCOD9185928 Si02
#       7
#     8   8   8   8   8   8   8
#     4  10  20  35  56  83 118 152 180 222 280 346
#     4  10  22  40  59  78 112 153 196 237 280 334
#     4   9  18  35  57  82 111 149 182 222 286 344
#     4  11  23  37  57  87 109 146 195 237 281 328
#     4  10  19  34  58  86 117 148 181 225 286 348
#     4  11  21  34  56  90 115 151 185 228 280 334
#     4  10  21  36  57  87 122 146 178 232 290 345
#
# _framework density 18.202527
#
# number of rings (size 3 to 8) (size 9 to 14) (size 15 to 20)
#    0.000    1.857    1.429    3.429    0.000    6.571 
#    2.571    0.000    0.000    3.857    0.000    0.000 
#    0.000    0.000    0.000    0.000    0.000    0.000 
#
# Total GULP energy -156362.855603 kJ/mol
# GULP energy per Si atom -5584.387700 kJ/mol
# Density = 1.816110 g / cm^3
# Si number density = 18.202527 Si / 1000 Ang^3
#
#
#
# Elastic Constant Matrix: (Units=GPa)
#
#
# Indices 1 2 3 4 5 6 
#
# 1 98.1684 21.5370 23.0785 0.0000 0.8248 0.0000
# 2 21.5370 97.0907 39.0727 0.0000 0.1423 0.0000
# 3 23.0785 39.0727 102.9285 0.0000 0.2548 0.0000
# 4 0.0000 0.0000 0.0000 31.6534 0.0000 6.9305
# 5 0.8248 0.1423 0.2548 0.0000 24.2691 0.0000
# 6 0.0000 0.0000 0.0000 6.9305 0.0000 20.9194
#
#
#
# Elastic Compliance Matrix: (Units=1/GPa)
#
#
# Indices 1 2 3 4 5 6 
#
# 1 0.010991 -0.001707 -0.001816 0.000000 -0.000344 0.000000
# 2 -0.001707 0.012422 -0.004333 0.000000 0.000031 0.000000
# 3 -0.001816 -0.004333 0.011767 0.000000 -0.000036 0.000000
# 4 0.000000 0.000000 0.000000 0.034063 0.000000 -0.011285
# 5 -0.000344 0.000031 -0.000036 0.000000 0.041217 0.000000
# 6 0.000000 0.000000 0.000000 -0.011285 0.000000 0.051541
#
#
# Mechanical properties :
#
#
# Convention : Reuss Voigt Hill
#
# Bulk Modulus (GPa) = 51.36211 51.72933 51.54572
# Shear Modulus (GPa) = 27.14424 29.66834 28.40629
#
# Velocity S-wave (km/s) = 3.86584 4.04158 3.95469
# Velocity P-wave (km/s) = 6.94295 7.08941 7.01656
#
# Compressibility (1/GPa) = 0.01946961
#
# Stress axis : x y z
#
# Youngs Moduli (GPa) = 90.98552 80.50294 84.98024
#
# Poissons Ratio (x) = 0.13741 0.15428
# Poissons Ratio (y) = 0.15530 0.36821
# Poissons Ratio (z) = 0.16519 0.34881
#
# Static dielectric constant tensor:
#      x y z
#    x 1.632220 0.000000 0.005510 
#    y 0.000000 1.632860 0.000000 
#    z 0.005510 0.000000 1.620780 
# 
# From -- ./inp_files/111562.got.cif
#   From: 2010.05.17/outbox.cif.g08.bks.cpg/sg12_56_cif.got.tgz:111562.got - 2010.06.03 13:09:07.
