data_PCOD9185454
_publ_section_title
;
Structure prediction by ZEFSAII (Michael W. Deem and Ramdas Pophale) SiO2 
 PCOD9185454
Probable space group: C 2/M
;
_chemical_formula_sum "Si O2"
_cell_formula_units_Z 64
_cell_length_a 20.776295
_cell_length_b 8.960443
_cell_length_c 22.222058
_cell_angle_alpha 90.000000
_cell_angle_beta 122.282491
_cell_angle_gamma 90.000000
_cell_volume 3497.494111
_symmetry_space_group_name_H-M "C 2/M"
_symmetry_group_IT_number 12
_symmetry_cell_setting 'monoclinic'
loop_
_space_group_symop_operation_xyz
x,y,z
-x,y,-z
-x,-y,-z
x,-y,z
1/2+x,1/2+y,z
1/2-x,1/2+y,-z
1/2-x,1/2-y,-z
1/2+x,1/2-y,z
loop_
_atom_site_type_symbol
_atom_site_label
_atom_site_fract_x
_atom_site_fract_y
_atom_site_fract_z
Si Si1 0.203903 0.679379 0.564077
Si Si2 0.528222 0.180740 0.694159
Si Si3 0.854340 0.321046 0.598748
Si Si4 0.931839 0.681607 0.422198
Si Si5 0.962156 0.327493 0.914254
Si Si6 0.660621 0.678627 0.837111
Si Si7 0.108436 0.178683 0.941563
Si Si8 0.681965 0.321712 0.107119
O O1 0.210182 0.500000 0.569237
O O2 0.163365 0.717817 0.480036
O O3 0.287378 0.749038 0.604143
O O4 0.148496 0.729694 0.589881
O O5 0.439868 0.222867 0.658317
O O6 0.552418 0.223439 0.638354
O O7 0.585224 0.259590 0.767910
O O8 0.534025 0.000000 0.702372
O O9 0.849489 0.500000 0.600461
O O10 0.932549 0.500000 0.424265
O O11 0.000000 0.731613 0.500000
O O12 0.950096 0.500000 0.892880
O O13 0.882338 0.242281 0.880441
O O14 0.025477 0.254029 0.903338
O O15 0.000000 0.320412 0.000000
O O16 0.664909 0.500000 0.834947
O O17 0.653840 0.720664 0.904298
O O18 0.735166 0.751021 0.844848
O O19 0.098032 0.000000 0.936539
O O20 0.153321 0.217677 0.025065
O O21 0.685368 0.500000 0.113896
#
# Coordination Sequence:
#
# PCOD9185454 Si02
#       8
#     8   8   8   8   8   8   8   8
#     4   9  16  28  51  79 101 125 161 207 255 301
#     4  10  20  35  54  74 100 137 179 217 261 315
#     4   9  17  30  49  74 103 130 159 203 254 308
#     4   9  15  29  54  79  99 127 171 216 252 298
#     4   9  17  30  52  82 111 136 167 214 268 316
#     4  11  23  37  52  75 109 144 178 221 272 319
#     4   9  19  35  55  79 106 140 181 224 266 315
#     4  10  19  34  57  81 106 138 180 224 266 317
#
# _framework density 18.298814
#
# number of rings (size 3 to 8) (size 9 to 14) (size 15 to 20)
#    0.000    2.500    1.250    1.500    0.000    3.500 
#    0.000    1.875    0.000    5.250    0.000    0.000 
#    0.000    0.000    0.000    0.000    0.000    0.000 
#
# Total GULP energy -178497.415518 kJ/mol
# GULP energy per Si atom -5578.044235 kJ/mol
# Density = 1.825717 g / cm^3
# Si number density = 18.298814 Si / 1000 Ang^3
#
#
#
# Elastic Constant Matrix: (Units=GPa)
#
#
# Indices 1 2 3 4 5 6 
#
# 1 111.8740 24.4762 19.9098 0.0000 37.4945 0.0000
# 2 24.4762 17.5279 15.5699 0.0000 15.4232 0.0000
# 3 19.9098 15.5699 41.0071 0.0000 24.7613 0.0000
# 4 0.0000 0.0000 0.0000 21.2430 0.0000 6.7911
# 5 37.4945 15.4232 24.7613 0.0000 31.3480 0.0000
# 6 0.0000 0.0000 0.0000 6.7911 0.0000 31.0122
#
#
#
# Elastic Compliance Matrix: (Units=1/GPa)
#
#
# Indices 1 2 3 4 5 6 
#
# 1 0.017682 -0.014217 0.010247 0.000000 -0.022248 0.000000
# 2 -0.014217 0.117761 -0.025032 0.000000 -0.021161 0.000000
# 3 0.010247 -0.025032 0.055214 0.000000 -0.043553 0.000000
# 4 0.000000 0.000000 0.000000 0.050618 0.000000 -0.011084
# 5 -0.022248 -0.021161 -0.043553 0.000000 0.103324 0.000000
# 6 0.000000 0.000000 0.000000 -0.011084 0.000000 0.034673
#
#
# Mechanical properties :
#
#
# Convention : Reuss Voigt Hill
#
# Bulk Modulus (GPa) = 7.53849 32.25788 19.89819
# Shear Modulus (GPa) = 10.38435 24.08417 17.23426
#
# Velocity S-wave (km/s) = 2.38478 3.63183 3.07224
# Velocity P-wave (km/s) = 3.42221 5.93747 4.84588
#
# Compressibility (1/GPa) = 0.13265258
#
# Stress axis : x y z
#
# Youngs Moduli (GPa) = 56.55482 8.49176 18.11133
#
# Poissons Ratio (x) = 0.12073 -0.18559
# Poissons Ratio (y) = 0.80406 0.45337
# Poissons Ratio (z) = -0.57954 0.21257
#
# Static dielectric constant tensor:
#      x y z
#    x 1.624670 0.000000 -0.003930 
#    y 0.000000 1.612050 0.000000 
#    z -0.003930 0.000000 1.626820 
# 
# From -- ./inp_files/346281.got.cif
#   From: 2010.05.17/outbox.cif.g08.bks.cpg/sg12_174_cif.got.tgz:346281.got - 2010.06.03 13:09:07.
