data_PCOD9185536
_publ_section_title
;
Structure prediction by ZEFSAII (Michael W. Deem and Ramdas Pophale) SiO2 
 PCOD9185536
Probable space group: C 2/M
;
_chemical_formula_sum "Si O2"
_cell_formula_units_Z 56
_cell_length_a 14.687569
_cell_length_b 9.585871
_cell_length_c 22.960670
_cell_angle_alpha 90.000000
_cell_angle_beta 125.237121
_cell_angle_gamma 90.000000
_cell_volume 2640.380445
_symmetry_space_group_name_H-M "C 2/M"
_symmetry_group_IT_number 12
_symmetry_cell_setting 'monoclinic'
loop_
_space_group_symop_operation_xyz
x,y,z
-x,y,-z
-x,-y,-z
x,-y,z
1/2+x,1/2+y,z
1/2-x,1/2+y,-z
1/2-x,1/2-y,-z
1/2+x,1/2-y,z
loop_
_atom_site_type_symbol
_atom_site_label
_atom_site_fract_x
_atom_site_fract_y
_atom_site_fract_z
Si Si1 0.495179 0.343233 0.667834
Si Si2 0.050092 0.157609 0.079123
Si Si3 0.342317 0.839792 0.786852
Si Si4 0.737808 0.838982 0.554028
Si Si5 0.676166 0.657014 0.930542
Si Si6 0.573704 0.160236 0.798678
Si Si7 0.852648 0.836785 0.377439
O O1 0.533793 0.500000 0.699028
O O2 0.363081 0.339115 0.626301
O O3 0.550552 0.226817 0.727797
O O4 0.531432 0.324311 0.614317
O O5 0.138138 0.245156 0.149201
O O6 0.943554 0.146999 0.082209
O O7 0.091084 0.000000 0.081544
O O8 0.000000 0.216850 0.000000
O O9 0.455859 0.835318 0.790344
O O10 0.241554 0.802142 0.706164
O O11 0.325154 0.000000 0.798751
O O12 0.750000 0.750000 0.500000
O O13 0.660853 0.761875 0.572503
O O14 0.705643 0.000000 0.531192
O O15 0.719591 0.500000 0.938478
O O16 0.657534 0.741560 0.864686
O O17 0.750000 0.750000 0.000000
O O18 0.609894 0.000000 0.809709
O O19 0.836502 0.000000 0.388066
#
# Coordination Sequence:
#
# PCOD9185536 Si02
#       7
#     8   8   8   8   8   8   8
#     4  10  22  39  62  91 122 157 200 245 298 357
#     4   9  19  34  51  73 105 145 188 237 291 344
#     4   9  18  33  55  80 107 146 190 237 292 348
#     4  11  24  42  65  92 124 163 200 244 301 358
#     4  10  20  34  52  75 108 149 193 243 298 356
#     4  10  19  34  57  82 111 150 196 245 298 356
#     4  10  21  40  63  90 122 156 198 247 297 356
#
# _framework density 21.209064999999999
#
# number of rings (size 3 to 8) (size 9 to 14) (size 15 to 20)
#    0.000    2.143    1.429    1.286    0.000    4.857 
#    0.000    5.714    0.000    0.000    0.000    0.000 
#    0.000    0.000    0.000    0.000    0.000    0.000 
#
# Total GULP energy -156417.209589 kJ/mol
# GULP energy per Si atom -5586.328914 kJ/mol
# Density = 2.116079 g / cm^3
# Si number density = 21.209065 Si / 1000 Ang^3
#
#
#
# Elastic Constant Matrix: (Units=GPa)
#
#
# Indices 1 2 3 4 5 6 
#
# 1 55.4778 20.8375 -5.6632 0.0000 -13.8748 0.0000
# 2 20.8375 134.4790 47.2037 0.0000 -24.0319 0.0000
# 3 -5.6632 47.2037 51.8198 0.0000 -19.9540 0.0000
# 4 0.0000 0.0000 0.0000 37.3232 0.0000 -10.0519
# 5 -13.8748 -24.0319 -19.9540 0.0000 30.3347 0.0000
# 6 0.0000 0.0000 0.0000 -10.0519 0.0000 19.8753
#
#
#
# Elastic Compliance Matrix: (Units=1/GPa)
#
#
# Indices 1 2 3 4 5 6 
#
# 1 0.026196 -0.006361 0.015174 0.000000 0.016924 0.000000
# 2 -0.006361 0.012660 -0.012703 0.000000 -0.001236 0.000000
# 3 0.015174 -0.012703 0.041951 0.000000 0.024472 0.000000
# 4 0.000000 0.000000 0.000000 0.031018 0.000000 0.015687
# 5 0.016924 -0.001236 0.024472 0.000000 0.055824 0.000000
# 6 0.000000 0.000000 0.000000 0.015687 0.000000 0.058247
#
#
# Mechanical properties :
#
#
# Convention : Reuss Voigt Hill
#
# Bulk Modulus (GPa) = 13.69375 40.72584 27.20980
# Shear Modulus (GPa) = 19.37845 29.46655 24.42250
#
# Velocity S-wave (km/s) = 3.02601 3.73143 3.39708
# Velocity P-wave (km/s) = 4.32198 6.14886 5.31451
#
# Compressibility (1/GPa) = 0.07302600
#
# Stress axis : x y z
#
# Youngs Moduli (GPa) = 38.17385 78.99021 23.83751
#
# Poissons Ratio (x) = 0.50245 -0.36171
# Poissons Ratio (y) = 0.24282 0.30281
# Poissons Ratio (z) = -0.57925 1.00343
#
# Static dielectric constant tensor:
#      x y z
#    x 1.811690 0.000000 0.013000 
#    y 0.000000 1.759200 0.000000 
#    z 0.013000 0.000000 1.763380 
# 
# From -- ./inp_files/339078.got.cif
#   From: 2010.05.17/outbox.cif.g08.bks.cpg/sg12_170_cif.got.tgz:339078.got - 2010.06.03 13:09:07.
