data_PCOD9185938
_publ_section_title
;
Structure prediction by ZEFSAII (Michael W. Deem and Ramdas Pophale) SiO2 
 PCOD9185938
Probable space group: C 2/M
;
_chemical_formula_sum "Si O2"
_cell_formula_units_Z 64
_cell_length_a 19.071494
_cell_length_b 15.183314
_cell_length_c 14.872892
_cell_angle_alpha 90.000000
_cell_angle_beta 138.984193
_cell_angle_gamma 90.000000
_cell_volume 2826.359643
_symmetry_space_group_name_H-M "C 2/M"
_symmetry_group_IT_number 12
_symmetry_cell_setting 'monoclinic'
loop_
_space_group_symop_operation_xyz
x,y,z
-x,y,-z
-x,-y,-z
x,-y,z
1/2+x,1/2+y,z
1/2-x,1/2+y,-z
1/2-x,1/2-y,-z
1/2+x,1/2-y,z
loop_
_atom_site_type_symbol
_atom_site_label
_atom_site_fract_x
_atom_site_fract_y
_atom_site_fract_z
Si Si1 0.394298 0.895783 0.946116
Si Si2 0.261177 0.836236 0.348507
Si Si3 0.828313 0.848747 0.352628
Si Si4 0.958312 0.893883 0.790399
Si Si5 0.145742 0.608123 0.891633
Si Si6 0.473067 0.400867 0.344552
Si Si7 0.677440 0.606301 0.074453
Si Si8 0.016446 0.398521 0.416146
O O1 0.287894 0.885582 0.783769
O O2 0.413439 0.000000 0.976516
O O3 0.500000 0.858437 0.000000
O O4 0.371906 0.858993 0.024346
O O5 0.307365 0.738925 0.387923
O O6 0.152544 0.847094 0.297463
O O7 0.233823 0.862122 0.219348
O O8 0.357699 0.894439 0.479555
O O9 0.914232 0.902573 0.493762
O O10 0.891596 0.838934 0.319321
O O11 0.001593 0.877480 0.732514
O O12 0.941295 0.000000 0.783647
O O13 0.054418 0.866615 0.948944
O O14 0.145882 0.500000 0.895912
O O15 0.255504 0.633687 0.948455
O O16 0.052212 0.637519 0.732688
O O17 0.425421 0.500000 0.299992
O O18 0.678297 0.500000 0.077128
O O19 0.980089 0.500000 0.389120
O O20 0.000000 0.357900 0.500000
#
# Coordination Sequence:
#
# PCOD9185938 Si02
#       8
#     8   8   8   8   8   8   8   8
#     4  10  21  39  61  85 115 153 202 258 311 365
#     4  12  24  36  57  90 130 164 193 244 315 381
#     4  11  24  40  62  88 122 162 203 254 312 369
#     4  10  22  40  65  94 122 158 210 264 311 362
#     4   9  18  33  59  89 112 148 202 258 307 352
#     4  10  22  44  71  92 112 155 219 271 306 356
#     4  10  19  36  61  86 118 160 208 253 297 362
#     4  10  19  34  58  86 121 161 204 247 294 367
#
# _framework density 22.643968000000001
#
# number of rings (size 3 to 8) (size 9 to 14) (size 15 to 20)
#    0.000    1.750    1.250    3.750    1.750    5.500 
#    0.000    7.500    0.000    0.000    0.000    0.000 
#    0.000    0.000    0.000    0.000    0.000    0.000 
#
# Total GULP energy -178880.552082 kJ/mol
# GULP energy per Si atom -5590.017253 kJ/mol
# Density = 2.259243 g / cm^3
# Si number density = 22.643968 Si / 1000 Ang^3
#
#
#
# Elastic Constant Matrix: (Units=GPa)
#
#
# Indices 1 2 3 4 5 6 
#
# 1 72.3067 10.9866 27.7204 0.0000 17.1197 0.0000
# 2 10.9866 38.8344 -9.7147 0.0000 2.5035 0.0000
# 3 27.7204 -9.7147 95.3630 0.0000 21.3238 0.0000
# 4 0.0000 0.0000 0.0000 -6.5423 0.0000 -18.5964
# 5 17.1197 2.5035 21.3238 0.0000 38.2070 0.0000
# 6 0.0000 0.0000 0.0000 -18.5964 0.0000 33.9840
#
#
#
# Elastic Compliance Matrix: (Units=1/GPa)
#
#
# Indices 1 2 3 4 5 6 
#
# 1 0.017660 -0.005833 -0.004620 0.000000 -0.004952 0.000000
# 2 -0.005833 0.028815 0.005106 0.000000 -0.002124 0.000000
# 3 -0.004620 0.005106 0.013667 0.000000 -0.005892 0.000000
# 4 0.000000 0.000000 0.000000 -0.059814 0.000000 -0.032731
# 5 -0.004952 -0.002124 -0.005892 0.000000 0.031820 0.000000
# 6 0.000000 0.000000 0.000000 -0.032731 0.000000 0.011515
#
#
# Mechanical properties :
#
#
# Convention : Reuss Voigt Hill
#
# Bulk Modulus (GPa) = 20.22362 29.38765 24.80563
# Shear Modulus (GPa) = 70.58265 24.96386 47.77325
#
# Velocity S-wave (km/s) = 5.58912 3.32392 4.59819
# Velocity P-wave (km/s) = 7.11348 5.26665 6.25856
#
# Compressibility (1/GPa) = 0.04944714
#
# Stress axis : x y z
#
# Youngs Moduli (GPa) = 56.62494 34.70455 73.16944
#
# Poissons Ratio (x) = 0.20242 0.33807
# Poissons Ratio (y) = 0.33028 -0.37359
# Poissons Ratio (z) = 0.26162 -0.17720
#
# Static dielectric constant tensor:
#      x y z
#    x 1.828130 0.000000 -0.005130 
#    y 0.000000 1.875020 0.000000 
#    z -0.005130 0.000000 1.827750 
# 
# From -- ./inp_files/226869.got.cif
#   From: 2010.05.17/outbox.cif.g08.bks.cpg/sg12_114_cif.got.tgz:226869.got - 2010.06.03 13:09:07.
