data_PCOD9185526
_publ_section_title
;
Structure prediction by ZEFSAII (Michael W. Deem and Ramdas Pophale) SiO2 
 PCOD9185526
Probable space group: C 2/M
;
_chemical_formula_sum "Si O2"
_cell_formula_units_Z 64
_cell_length_a 20.961790
_cell_length_b 7.657571
_cell_length_c 34.311056
_cell_angle_alpha 90.000000
_cell_angle_beta 33.412601
_cell_angle_gamma 90.000000
_cell_volume 3032.776675
_symmetry_space_group_name_H-M "C 2/M"
_symmetry_group_IT_number 12
_symmetry_cell_setting 'monoclinic'
loop_
_space_group_symop_operation_xyz
x,y,z
-x,y,-z
-x,-y,-z
x,-y,z
1/2+x,1/2+y,z
1/2-x,1/2+y,-z
1/2-x,1/2-y,-z
1/2+x,1/2-y,z
loop_
_atom_site_type_symbol
_atom_site_label
_atom_site_fract_x
_atom_site_fract_y
_atom_site_fract_z
Si Si1 0.652141 0.207828 0.309522
Si Si2 0.376073 0.788995 0.918155
Si Si3 0.894844 0.706370 0.155831
Si Si4 0.872631 0.710841 0.079827
Si Si5 0.861614 0.703175 0.838474
Si Si6 0.757437 0.290510 0.450670
Si Si7 0.014746 0.714521 0.302321
Si Si8 0.978519 0.209948 0.467328
O O1 0.784388 0.270861 0.240020
O O2 0.583273 0.273516 0.306147
O O3 0.580823 0.253560 0.384542
O O4 0.655603 0.000000 0.304975
O O5 0.484838 0.723511 0.888172
O O6 0.384322 0.721262 0.869567
O O7 0.384737 0.000000 0.912378
O O8 0.250000 0.750000 0.000000
O O9 0.913426 0.500000 0.140556
O O10 0.861289 0.775636 0.130122
O O11 0.860416 0.500000 0.084998
O O12 0.773726 0.784968 0.102674
O O13 0.000000 0.755024 0.000000
O O14 0.896021 0.500000 0.822780
O O15 0.925990 0.777295 0.767688
O O16 0.757493 0.500000 0.446215
O O17 0.750000 0.250000 0.500000
O O18 0.881560 0.228294 0.372187
O O19 0.642941 0.221606 0.487865
O O20 0.017784 0.500000 0.301317
O O21 0.000000 0.276138 0.500000
O O22 0.969065 0.000000 0.474466
#
# Coordination Sequence:
#
# PCOD9185526 Si02
#       8
#     8   8   8   8   8   8   8   8
#     4  11  21  36  59  84 115 150 186 236 287 333
#     4  10  22  39  60  83 113 152 189 234 285 340
#     4  10  21  37  57  83 114 150 190 228 282 346
#     4  10  20  34  54  80 111 145 182 228 278 329
#     4  10  20  36  57  82 109 142 186 230 275 329
#     4  10  19  34  57  82 110 147 187 228 275 329
#     4   9  18  33  54  81 111 142 181 230 280 324
#     4  10  22  38  58  86 118 152 190 232 281 340
#
# _framework density 21.102775000000001
#
# number of rings (size 3 to 8) (size 9 to 14) (size 15 to 20)
#    0.000    2.000    2.500    1.125    0.000    3.500 
#    0.000    4.375    0.000    0.000    0.000    0.000 
#    0.000    0.000    0.000    0.000    0.000    0.000 
#
# Total GULP energy -178738.189138 kJ/mol
# GULP energy per Si atom -5585.568411 kJ/mol
# Density = 2.105474 g / cm^3
# Si number density = 21.102775 Si / 1000 Ang^3
#
#
#
# Elastic Constant Matrix: (Units=GPa)
#
#
# Indices 1 2 3 4 5 6 
#
# 1 111.5785 1.5221 15.5086 0.0018 1.0266 0.0580
# 2 1.5221 37.5814 -11.4663 -0.0008 2.4942 -0.0264
# 3 15.5086 -11.4663 83.5244 -0.0180 -1.5382 0.0023
# 4 0.0018 -0.0008 -0.0180 14.8394 -0.0098 4.7306
# 5 1.0266 2.4942 -1.5382 -0.0098 40.8194 -0.0001
# 6 0.0580 -0.0264 0.0023 4.7306 -0.0001 6.8596
#
#
#
# Elastic Compliance Matrix: (Units=1/GPa)
#
#
# Indices 1 2 3 4 5 6 
#
# 1 0.009234 -0.000921 -0.001845 0.000028 -0.000246 -0.000101
# 2 -0.000921 0.027963 0.003981 -0.000040 -0.001535 0.000141
# 3 -0.001845 0.003981 0.012867 0.000010 0.000288 0.000020
# 4 0.000028 -0.000040 0.000010 0.086378 0.000023 -0.059569
# 5 -0.000246 -0.001535 0.000288 0.000023 0.024609 -0.000019
# 6 -0.000101 0.000141 0.000020 -0.059569 -0.000019 0.186862
#
#
# Mechanical properties :
#
#
# Convention : Reuss Voigt Hill
#
# Bulk Modulus (GPa) = 19.04974 27.09036 23.07005
# Shear Modulus (GPa) = 13.77485 27.64499 20.70992
#
# Velocity S-wave (km/s) = 2.55767 3.62334 3.13610
# Velocity P-wave (km/s) = 4.21532 5.51090 4.90607
#
# Compressibility (1/GPa) = 0.05249417
#
# Stress axis : x y z
#
# Youngs Moduli (GPa) = 108.29934 35.76164 77.71768
#
# Poissons Ratio (x) = 0.03293 0.14342
# Poissons Ratio (y) = 0.09972 -0.30943
# Poissons Ratio (z) = 0.19986 -0.14238
#
# Static dielectric constant tensor:
#      x y z
#    x 1.754470 -0.000040 -0.000530 
#    y -0.000040 1.797780 -0.000020 
#    z -0.000530 -0.000020 1.741220 
# 
# From -- ./inp_files/378131.got.cif
#   From: 2010.05.17/outbox.cif.g08.bks.cpg/sg12_190_cif.got.tgz:378131.got - 2010.06.03 13:09:07.
