data_PCOD9185654
_publ_section_title
;
Structure prediction by ZEFSAII (Michael W. Deem and Ramdas Pophale) SiO2 
 PCOD9185654
Probable space group: C 2/M
;
_chemical_formula_sum "Si O2"
_cell_formula_units_Z 56
_cell_length_a 14.520456
_cell_length_b 19.297038
_cell_length_c 8.434798
_cell_angle_alpha 90.000000
_cell_angle_beta 92.067523
_cell_angle_gamma 90.000000
_cell_volume 2361.906915
_symmetry_space_group_name_H-M "C 2/M"
_symmetry_group_IT_number 12
_symmetry_cell_setting 'monoclinic'
loop_
_space_group_symop_operation_xyz
x,y,z
-x,y,-z
-x,-y,-z
x,-y,z
1/2+x,1/2+y,z
1/2-x,1/2+y,-z
1/2-x,1/2-y,-z
1/2+x,1/2-y,z
loop_
_atom_site_type_symbol
_atom_site_label
_atom_site_fract_x
_atom_site_fract_y
_atom_site_fract_z
Si Si1 0.470201 0.352858 0.180871
Si Si2 0.349537 0.925195 0.237770
Si Si3 0.654653 0.383154 0.315636
Si Si4 0.211272 0.880482 0.684348
Si Si5 0.684821 0.761752 0.147149
Si Si6 0.899111 0.574377 0.613554
Si Si7 0.008844 0.307504 0.793884
O O1 0.548148 0.397659 0.274364
O O2 0.372052 0.388735 0.199949
O O3 0.461762 0.272123 0.243861
O O4 0.500000 0.349051 0.000000
O O5 0.238589 0.920670 0.231459
O O6 0.373373 0.923512 0.427157
O O7 0.404467 0.859422 0.172404
O O8 0.375922 0.000000 0.169420
O O9 0.673273 0.385298 0.503871
O O10 0.663300 0.307079 0.241806
O O11 0.256126 0.806914 0.727880
O O12 0.302613 0.926165 0.700992
O O13 0.582453 0.792340 0.101996
O O14 0.750000 0.750000 0.000000
O O15 0.945532 0.500000 0.649650
O O16 0.955102 0.643036 0.662596
#
# Coordination Sequence:
#
# PCOD9185654 Si02
#       7
#     8   8   8   8   8   8   8
#     4  11  23  39  60  84 116 154 194 248 312 362
#     4  10  20  35  56  85 123 158 190 237 292 347
#     4  10  21  35  56  84 113 150 198 248 294 348
#     4  10  19  34  57  85 115 148 199 250 287 342
#     4  10  20  35  56  82 119 160 192 233 293 355
#     4   9  19  35  56  85 120 158 193 232 289 350
#     4  10  20  32  56  86 112 149 192 228 277 352
#
# _framework density 23.709655999999999
#
# number of rings (size 3 to 8) (size 9 to 14) (size 15 to 20)
#    0.000    2.000    0.000    4.286    0.000    8.000 
#    0.000    0.714    0.000   22.286    0.000    0.000 
#    0.000    0.000    0.000    0.000    0.000    0.000 
#
# Total GULP energy -156070.170645 kJ/mol
# GULP energy per Si atom -5573.934666 kJ/mol
# Density = 2.365569 g / cm^3
# Si number density = 23.709656 Si / 1000 Ang^3
#
#
#
# Elastic Constant Matrix: (Units=GPa)
#
#
# Indices 1 2 3 4 5 6 
#
# 1 175.0771 31.1578 4.6858 0.0000 -31.2247 0.0000
# 2 31.1578 63.1752 19.3518 0.0000 -4.6482 0.0000
# 3 4.6858 19.3518 26.3568 0.0000 -12.0088 0.0000
# 4 0.0000 0.0000 0.0000 -4.0023 0.0000 -11.1503
# 5 -31.2247 -4.6482 -12.0088 0.0000 26.8928 0.0000
# 6 0.0000 0.0000 0.0000 -11.1503 0.0000 3.0861
#
#
#
# Elastic Compliance Matrix: (Units=1/GPa)
#
#
# Indices 1 2 3 4 5 6 
#
# 1 0.008960 -0.006211 0.009062 0.000000 0.013377 0.000000
# 2 -0.006211 0.025071 -0.023370 0.000000 -0.013313 0.000000
# 3 0.009062 -0.023370 0.070859 0.000000 0.038124 0.000000
# 4 0.000000 0.000000 0.000000 -0.022579 0.000000 -0.081579
# 5 0.013377 -0.013313 0.038124 0.000000 0.067439 0.000000
# 6 0.000000 0.000000 0.000000 -0.081579 0.000000 0.029282
#
#
# Mechanical properties :
#
#
# Convention : Reuss Voigt Hill
#
# Bulk Modulus (GPa) = 15.66098 41.66663 28.66380
# Shear Modulus (GPa) = 20.71647 19.15622 19.93634
#
# Velocity S-wave (km/s) = 2.95914 2.84553 2.90289
# Velocity P-wave (km/s) = 4.27727 5.32991 4.83234
#
# Compressibility (1/GPa) = 0.06385298
#
# Stress axis : x y z
#
# Youngs Moduli (GPa) = 111.60421 39.88651 14.11259
#
# Poissons Ratio (x) = 0.24773 -0.12789
# Poissons Ratio (y) = 0.69315 0.32981
# Poissons Ratio (z) = -1.01134 0.93213
#
# Static dielectric constant tensor:
#      x y z
#    x 2.035080 0.000000 0.021480 
#    y 0.000000 1.797560 0.000000 
#    z 0.021480 0.000000 1.960410 
# 
# From -- ./inp_files/64067.got.cif
#   From: 2010.05.17/outbox.cif.g08.bks.cpg/sg12_33_cif.got.tgz:64067.got - 2010.06.03 13:09:07.
