data_PCOD9185706
_publ_section_title
;
Structure prediction by ZEFSAII (Michael W. Deem and Ramdas Pophale) SiO2 
 PCOD9185706
Probable space group: C 2/M
;
_chemical_formula_sum "Si O2"
_cell_formula_units_Z 52
_cell_length_a 10.853201
_cell_length_b 21.360770
_cell_length_c 12.084727
_cell_angle_alpha 90.000000
_cell_angle_beta 63.265102
_cell_angle_gamma 90.000000
_cell_volume 2502.133580
_symmetry_space_group_name_H-M "C 2/M"
_symmetry_group_IT_number 12
_symmetry_cell_setting 'monoclinic'
loop_
_space_group_symop_operation_xyz
x,y,z
-x,y,-z
-x,-y,-z
x,-y,z
1/2+x,1/2+y,z
1/2-x,1/2+y,-z
1/2-x,1/2-y,-z
1/2+x,1/2-y,z
loop_
_atom_site_type_symbol
_atom_site_label
_atom_site_fract_x
_atom_site_fract_y
_atom_site_fract_z
Si Si1 0.062099 0.426030 0.740254
Si Si2 0.303393 0.429497 0.957234
Si Si3 0.500000 0.094977 0.000000
Si Si4 0.728230 0.116080 0.218435
Si Si5 0.194333 0.148616 0.469202
Si Si6 0.042915 0.926554 0.700092
Si Si7 0.153948 0.277308 0.396911
O O1 0.080057 0.500000 0.762483
O O2 0.918593 0.419259 0.731860
O O3 0.190562 0.399588 0.620235
O O4 0.042640 0.383172 0.858630
O O5 0.348588 0.500000 0.969608
O O6 0.406534 0.406025 0.821483
O O7 0.299329 0.389367 0.070259
O O8 0.147689 0.433870 0.974800
O O9 0.828479 0.085315 0.268723
O O10 0.692011 0.186492 0.269967
O O11 0.071809 0.110658 0.576533
O O12 0.167134 0.202573 0.390295
O O13 0.251269 0.190142 0.548823
O O14 0.030095 0.000000 0.681685
O O15 0.000000 0.291650 0.500000
#
# Coordination Sequence:
#
# PCOD9185706 Si02
#       7
#     8   8   4   8   8   8   8
#     4  11  20  35  61  91 120 151 193 247 302 353
#     4  10  19  34  57  87 124 156 187 237 303 367
#     4  10  21  36  56  82 120 160 190 230 291 362
#     4  10  19  34  60  89 117 158 192 242 299 350
#     4  10  22  36  58  83 116 157 195 239 292 349
#     4  10  20  34  56  92 125 150 188 241 306 366
#     4  10  20  39  57  78 114 159 202 239 284 341
#
# _framework density 20.782264000000001
#
# number of rings (size 3 to 8) (size 9 to 14) (size 15 to 20)
#    0.000    1.846    1.538    4.615    0.000    2.462 
#    0.000    2.308   10.154    6.462    0.000    0.000 
#    0.000    0.000    0.000    0.000    0.000    0.000 
#
# Total GULP energy -144872.829862 kJ/mol
# GULP energy per Si atom -5572.031918 kJ/mol
# Density = 2.073496 g / cm^3
# Si number density = 20.782264 Si / 1000 Ang^3
#
#
#
# Elastic Constant Matrix: (Units=GPa)
#
#
# Indices 1 2 3 4 5 6 
#
# 1 40.5951 25.1202 46.9055 0.0000 8.9520 0.0000
# 2 25.1202 86.6205 65.5138 0.0000 -9.3489 0.0000
# 3 46.9055 65.5138 155.7305 0.0000 -27.9642 0.0000
# 4 0.0000 0.0000 0.0000 8.3769 0.0000 22.9801
# 5 8.9520 -9.3489 -27.9642 0.0000 33.1515 0.0000
# 6 0.0000 0.0000 0.0000 22.9801 0.0000 -7.7624
#
#
#
# Elastic Compliance Matrix: (Units=1/GPa)
#
#
# Indices 1 2 3 4 5 6 
#
# 1 0.064608 -0.004277 -0.024761 0.000000 -0.039539 0.000000
# 2 -0.004277 0.017275 -0.005771 0.000000 0.001158 0.000000
# 3 -0.024761 -0.005771 0.020288 0.000000 0.022173 0.000000
# 4 0.000000 0.000000 0.000000 0.013088 0.000000 0.038745
# 5 -0.039539 0.001158 0.022173 0.000000 0.059871 0.000000
# 6 0.000000 0.000000 0.000000 0.038745 0.000000 -0.014124
#
#
# Mechanical properties :
#
#
# Convention : Reuss Voigt Hill
#
# Bulk Modulus (GPa) = 30.71749 62.00279 46.36014
# Shear Modulus (GPa) = 20.70605 16.44697 18.57651
#
# Velocity S-wave (km/s) = 3.15990 2.81623 2.99300
# Velocity P-wave (km/s) = 5.30339 6.36192 5.85662
#
# Compressibility (1/GPa) = 0.03255474
#
# Stress axis : x y z
#
# Youngs Moduli (GPa) = 15.47786 57.88777 49.28914
#
# Poissons Ratio (x) = 0.24758 1.22042
# Poissons Ratio (y) = 0.06620 0.28445
# Poissons Ratio (z) = 0.38324 0.33408
#
# Static dielectric constant tensor:
#      x y z
#    x 1.789400 0.000000 0.026590 
#    y 0.000000 1.731720 0.000000 
#    z 0.026590 0.000000 1.750260 
# 
# From -- ./inp_files/133819.got.cif
#   From: 2010.05.17/outbox.cif.g08.bks.cpg/sg12_67_cif.got.tgz:133819.got - 2010.06.03 13:09:07.
