data_PCOD9185236
_publ_section_title
;
Structure prediction by ZEFSAII (Michael W. Deem and Ramdas Pophale) SiO2 
 PCOD9185236
Probable space group: C 2/M
;
_chemical_formula_sum "Si O2"
_cell_formula_units_Z 64
_cell_length_a 23.851844
_cell_length_b 11.660958
_cell_length_c 13.053137
_cell_angle_alpha 90.000000
_cell_angle_beta 107.984924
_cell_angle_gamma 90.000000
_cell_volume 3453.142705
_symmetry_space_group_name_H-M "C 2/M"
_symmetry_group_IT_number 12
_symmetry_cell_setting 'monoclinic'
loop_
_space_group_symop_operation_xyz
x,y,z
-x,y,-z
-x,-y,-z
x,-y,z
1/2+x,1/2+y,z
1/2-x,1/2+y,-z
1/2-x,1/2-y,-z
1/2+x,1/2-y,z
loop_
_atom_site_type_symbol
_atom_site_label
_atom_site_fract_x
_atom_site_fract_y
_atom_site_fract_z
Si Si1 0.187584 0.371108 0.399384
Si Si2 0.004481 0.869428 0.380289
Si Si3 0.837600 0.267252 0.051901
Si Si4 0.552156 0.132460 0.318216
Si Si5 0.758016 0.876637 0.872100
Si Si6 0.788731 0.713014 0.363558
Si Si7 0.132930 0.868402 0.733501
Si Si8 0.535642 0.866845 0.923693
O O1 0.207774 0.500000 0.390572
O O2 0.120459 0.358950 0.324541
O O3 0.187606 0.350187 0.522211
O O4 0.233295 0.286594 0.372039
O O5 0.038535 0.751415 0.371215
O O6 0.000000 0.872967 0.500000
O O7 0.937647 0.856400 0.301876
O O8 0.025940 0.000000 0.360704
O O9 0.797777 0.364094 0.083288
O O10 0.840669 0.171579 0.143181
O O11 0.903063 0.305511 0.063411
O O12 0.803097 0.220544 0.934045
O O13 0.507147 0.135849 0.198179
O O14 0.545958 0.000000 0.360197
O O15 0.734825 0.862250 0.743958
O O16 0.786578 0.000000 0.900788
O O17 0.839081 0.791436 0.340330
O O18 0.147103 0.000000 0.720843
O O19 0.549365 0.000000 0.954548
O O20 0.500000 0.817834 0.000000
#
# Coordination Sequence:
#
# PCOD9185236 Si02
#       8
#     8   8   8   8   8   8   8   8
#     4  10  21  38  58  82 114 149 190 238 283 337
#     4  10  20  35  56  83 116 152 189 231 283 342
#     4  10  20  36  58  82 111 146 184 231 282 346
#     4  10  21  38  59  85 116 151 194 239 285 339
#     4  10  21  36  56  83 113 146 185 234 285 337
#     4  10  21  36  57  83 112 147 187 234 287 338
#     4  10  19  34  56  81 110 145 187 231 278 337
#     4  10  21  37  59  84 113 149 186 235 287 339
#
# _framework density 18.533840999999999
#
# number of rings (size 3 to 8) (size 9 to 14) (size 15 to 20)
#    0.000    2.000    1.250    2.250    1.750    0.250 
#    0.000    5.000    0.000    1.875    0.000    0.000 
#    0.000    0.000    0.000    0.000    0.000    0.000 
#
# Total GULP energy -178305.428158 kJ/mol
# GULP energy per Si atom -5572.044630 kJ/mol
# Density = 1.849166 g / cm^3
# Si number density = 18.533841 Si / 1000 Ang^3
#
#
#
# Elastic Constant Matrix: (Units=GPa)
#
#
# Indices 1 2 3 4 5 6 
#
# 1 79.1329 24.6842 13.6559 0.0000 6.4927 0.0000
# 2 24.6842 94.2795 4.5441 0.0000 -5.3904 0.0000
# 3 13.6559 4.5441 32.3578 0.0000 1.2338 0.0000
# 4 0.0000 0.0000 0.0000 6.9600 0.0000 -2.7860
# 5 6.4927 -5.3904 1.2338 0.0000 25.9942 0.0000
# 6 0.0000 0.0000 0.0000 -2.7860 0.0000 9.1967
#
#
#
# Elastic Compliance Matrix: (Units=1/GPa)
#
#
# Indices 1 2 3 4 5 6 
#
# 1 0.015211 -0.003957 -0.005698 0.000000 -0.004349 0.000000
# 2 -0.003957 0.011846 -0.000125 0.000000 0.003451 0.000000
# 3 -0.005698 -0.000125 0.033334 0.000000 -0.000185 0.000000
# 4 0.000000 0.000000 0.000000 0.163505 0.000000 0.049531
# 5 -0.004349 0.003451 -0.000185 0.000000 0.040281 0.000000
# 6 0.000000 0.000000 0.000000 0.049531 0.000000 0.123739
#
#
# Mechanical properties :
#
#
# Convention : Reuss Voigt Hill
#
# Bulk Modulus (GPa) = 24.49118 32.39319 28.44218
# Shear Modulus (GPa) = 11.87403 19.28924 15.58163
#
# Velocity S-wave (km/s) = 2.53389 3.22958 2.90265
# Velocity P-wave (km/s) = 4.66945 5.60560 5.15880
#
# Compressibility (1/GPa) = 0.04083103
#
# Stress axis : x y z
#
# Youngs Moduli (GPa) = 65.74027 84.41646 29.99947
#
# Poissons Ratio (x) = 0.33401 0.17094
# Poissons Ratio (y) = 0.26011 0.00376
# Poissons Ratio (z) = 0.37460 0.01058
#
# Static dielectric constant tensor:
#      x y z
#    x 1.615330 0.000000 0.013400 
#    y 0.000000 1.660670 0.000000 
#    z 0.013400 0.000000 1.656240 
# 
# From -- ./inp_files/175322.got.cif
#   From: 2010.05.17/outbox.cif.g08.bks.cpg/sg12_88_cif.got.tgz:175322.got - 2010.06.03 13:09:07.
