data_PCOD9185003
_publ_section_title
;
Structure prediction by ZEFSAII (Michael W. Deem and Ramdas Pophale) SiO2 
 PCOD9185003
Probable space group: C 2/M
;
_chemical_formula_sum "Si O2"
_cell_formula_units_Z 56
_cell_length_a 19.484335
_cell_length_b 8.848336
_cell_length_c 18.149425
_cell_angle_alpha 90.000000
_cell_angle_beta 92.883839
_cell_angle_gamma 90.000000
_cell_volume 3125.069785
_symmetry_space_group_name_H-M "C 2/M"
_symmetry_group_IT_number 12
_symmetry_cell_setting 'monoclinic'
loop_
_space_group_symop_operation_xyz
x,y,z
-x,y,-z
-x,-y,-z
x,-y,z
1/2+x,1/2+y,z
1/2-x,1/2+y,-z
1/2-x,1/2-y,-z
1/2+x,1/2-y,z
loop_
_atom_site_type_symbol
_atom_site_label
_atom_site_fract_x
_atom_site_fract_y
_atom_site_fract_z
Si Si1 0.746476 0.678087 0.579907
Si Si2 0.957591 0.681452 0.071988
Si Si3 0.807179 0.825453 0.053465
Si Si4 0.497894 0.680619 0.767575
Si Si5 0.262629 0.830320 0.189665
Si Si6 0.852937 0.176197 0.700264
Si Si7 0.860610 0.821790 0.305730
O O1 0.756378 0.500000 0.574084
O O2 0.750000 0.750000 0.500000
O O3 0.806116 0.741754 0.637010
O O4 0.672056 0.702455 0.615319
O O5 0.957319 0.500000 0.077167
O O6 0.880363 0.742561 0.057009
O O7 0.985982 0.746449 0.151546
O O8 0.000000 0.723533 0.000000
O O9 0.775691 0.799645 0.132192
O O10 0.817003 0.000000 0.035881
O O11 0.750000 0.750000 0.000000
O O12 0.490419 0.500000 0.780130
O O13 0.428166 0.736362 0.724760
O O14 0.560718 0.700194 0.713504
O O15 0.190146 0.819627 0.226158
O O16 0.319212 0.797263 0.254283
O O17 0.270743 0.000000 0.158815
O O18 0.859025 0.000000 0.678210
O O19 0.844821 0.000000 0.287078
#
# Coordination Sequence:
#
# PCOD9185003 Si02
#       7
#     8   8   8   8   8   8   8
#     4  10  20  36  59  86 116 150 189 233 286 340
#     4  11  25  42  58  84 118 154 196 245 299 348
#     4  12  25  40  58  80 110 149 195 244 294 347
#     4  10  20  37  60  85 114 152 194 237 288 346
#     4  10  19  34  55  81 110 144 185 234 285 337
#     4   9  20  36  57  86 116 148 189 230 280 344
#     4   9  18  34  57  83 109 146 189 231 279 339
#
# _framework density 17.919599000000002
#
# number of rings (size 3 to 8) (size 9 to 14) (size 15 to 20)
#    0.000    1.857    1.429    2.571    2.000    2.857 
#    0.000    0.714    0.000    4.286    0.000    0.000 
#    0.000    0.000    0.000    0.000    0.000    0.000 
#
# Total GULP energy -156056.777744 kJ/mol
# GULP energy per Si atom -5573.456348 kJ/mol
# Density = 1.787881 g / cm^3
# Si number density = 17.919599 Si / 1000 Ang^3
#
#
#
# Elastic Constant Matrix: (Units=GPa)
#
#
# Indices 1 2 3 4 5 6 
#
# 1 135.0031 42.6324 66.9440 0.0000 4.4799 0.0000
# 2 42.6324 56.6386 39.4503 0.0000 -4.4684 0.0000
# 3 66.9440 39.4503 111.2350 0.0000 -9.6518 0.0000
# 4 0.0000 0.0000 0.0000 35.0881 0.0000 0.4599
# 5 4.4799 -4.4684 -9.6518 0.0000 16.0984 0.0000
# 6 0.0000 0.0000 0.0000 0.4599 0.0000 11.8438
#
#
#
# Elastic Compliance Matrix: (Units=1/GPa)
#
#
# Indices 1 2 3 4 5 6 
#
# 1 0.012697 -0.005844 -0.006346 0.000000 -0.008960 0.000000
# 2 -0.005844 0.026177 -0.005270 0.000000 0.005733 0.000000
# 3 -0.006346 -0.005270 0.015512 0.000000 0.009603 0.000000
# 4 0.000000 0.000000 0.000000 0.028514 0.000000 -0.001107
# 5 -0.008960 0.005733 0.009603 0.000000 0.071960 0.000000
# 6 0.000000 0.000000 0.000000 -0.001107 0.000000 0.084475
#
#
# Mechanical properties :
#
#
# Convention : Reuss Voigt Hill
#
# Bulk Modulus (GPa) = 51.37059 66.77000 59.07030
# Shear Modulus (GPa) = 17.80989 22.86273 20.33631
#
# Velocity S-wave (km/s) = 3.15600 3.57578 3.37243
# Velocity P-wave (km/s) = 6.48151 7.37496 6.94262
#
# Compressibility (1/GPa) = 0.01946639
#
# Stress axis : x y z
#
# Youngs Moduli (GPa) = 78.75992 38.20137 64.46827
#
# Poissons Ratio (x) = 0.22323 0.40913
# Poissons Ratio (y) = 0.46024 0.33973
# Poissons Ratio (z) = 0.49983 0.20131
#
# Static dielectric constant tensor:
#      x y z
#    x 1.624350 0.000000 -0.030230 
#    y 0.000000 1.612370 0.000000 
#    z -0.030230 0.000000 1.560530 
# 
# From -- ./inp_files/280450.got.cif
#   From: 2010.05.17/outbox.cif.g08.bks.cpg/sg12_141_cif.got.tgz:280450.got - 2010.06.03 13:09:07.
