data_PCOD9185743
_publ_section_title
;
Structure prediction by ZEFSAII (Michael W. Deem and Ramdas Pophale) SiO2 
 PCOD9185743
Probable space group: C 2/M
;
_chemical_formula_sum "Si O2"
_cell_formula_units_Z 48
_cell_length_a 27.701058
_cell_length_b 16.057802
_cell_length_c 11.944077
_cell_angle_alpha 90.000000
_cell_angle_beta 30.317799
_cell_angle_gamma 90.000000
_cell_volume 2681.950728
_symmetry_space_group_name_H-M "C 2/M"
_symmetry_group_IT_number 12
_symmetry_cell_setting 'monoclinic'
loop_
_space_group_symop_operation_xyz
x,y,z
-x,y,-z
-x,-y,-z
x,-y,z
1/2+x,1/2+y,z
1/2-x,1/2+y,-z
1/2-x,1/2-y,-z
1/2+x,1/2-y,z
loop_
_atom_site_type_symbol
_atom_site_label
_atom_site_fract_x
_atom_site_fract_y
_atom_site_fract_z
Si Si1 0.989777 0.500000 0.712534
Si Si2 0.729763 0.832754 0.971663
Si Si3 0.610217 0.592090 0.745738
Si Si4 0.704741 0.715438 0.704667
Si Si5 0.157264 0.500000 0.204780
Si Si6 0.558373 0.817614 0.140709
Si Si7 0.867476 0.785961 0.510721
O O1 0.914034 0.500000 0.760656
O O2 0.972291 0.413986 0.814058
O O3 0.092273 0.500000 0.445639
O O4 0.717018 0.915286 0.071136
O O5 0.631431 0.819178 0.099047
O O6 0.750000 0.750000 0.000000
O O7 0.817061 0.838615 0.709198
O O8 0.644861 0.500000 0.646227
O O9 0.664257 0.627470 0.746497
O O10 0.618683 0.653880 0.623571
O O11 0.500000 0.589170 0.000000
O O12 0.750000 0.750000 0.500000
O O13 0.787370 0.718815 0.631976
O O14 0.619615 0.775572 0.918233
O O15 0.464674 0.761210 0.347399
#
# Coordination Sequence:
#
# PCOD9185743 Si02
#       7
#     4   8   8   8   4   8   8
#     4   9  18  32  56  81  99 148 177 230 282 312
#     4  10  21  35  57  84 111 151 186 227 284 326
#     4  10  19  34  58  79 104 147 187 223 270 329
#     4   9  19  35  52  80 109 142 181 227 277 322
#     4   9  18  34  54  79 112 133 191 230 267 335
#     4  10  19  36  56  80 113 142 191 230 269 343
#     4  10  20  34  59  79 112 149 182 227 282 323
#
# _framework density 17.89742
#
# number of rings (size 3 to 8) (size 9 to 14) (size 15 to 20)
#    0.000    2.333    1.667    1.000    1.167    2.000 
#   10.500    0.000    7.333    5.000    0.000    0.000 
#    0.000    0.000    0.000    0.000    0.000    0.000 
#
# Total GULP energy -133687.511651 kJ/mol
# GULP energy per Si atom -5570.312985 kJ/mol
# Density = 1.785668 g / cm^3
# Si number density = 17.897420 Si / 1000 Ang^3
#
#
#
# Elastic Constant Matrix: (Units=GPa)
#
#
# Indices 1 2 3 4 5 6 
#
# 1 28.6150 39.0868 29.5754 0.0000 -6.2766 0.0000
# 2 39.0868 139.3097 47.9594 0.0000 -7.9846 0.0000
# 3 29.5754 47.9594 106.0050 0.0000 -11.8946 0.0000
# 4 0.0000 0.0000 0.0000 14.6264 0.0000 1.6948
# 5 -6.2766 -7.9846 -11.8946 0.0000 23.3284 0.0000
# 6 0.0000 0.0000 0.0000 1.6948 0.0000 23.7872
#
#
#
# Elastic Compliance Matrix: (Units=1/GPa)
#
#
# Indices 1 2 3 4 5 6 
#
# 1 0.069038 -0.014923 -0.011666 0.000000 0.007519 0.000000
# 2 -0.014923 0.011751 -0.001222 0.000000 -0.000616 0.000000
# 3 -0.011666 -0.001222 0.013621 0.000000 0.003388 0.000000
# 4 0.000000 0.000000 0.000000 0.068939 0.000000 -0.004912
# 5 0.007519 -0.000616 0.003388 0.000000 0.046406 0.000000
# 6 0.000000 0.000000 0.000000 -0.004912 0.000000 0.042389
#
#
# Mechanical properties :
#
#
# Convention : Reuss Voigt Hill
#
# Bulk Modulus (GPa) = 25.78155 56.35256 41.06706
# Shear Modulus (GPa) = 15.59109 22.83559 19.21334
#
# Velocity S-wave (km/s) = 2.95470 3.57587 3.28002
# Velocity P-wave (km/s) = 5.10655 6.97165 6.11068
#
# Compressibility (1/GPa) = 0.03878742
#
# Stress axis : x y z
#
# Youngs Moduli (GPa) = 14.48477 85.10180 73.41371
#
# Poissons Ratio (x) = 1.26998 0.85647
# Poissons Ratio (y) = 0.21616 0.08970
# Poissons Ratio (z) = 0.16898 0.10399
#
# Static dielectric constant tensor:
#      x y z
#    x 1.622920 0.000000 -0.008990 
#    y 0.000000 1.627430 0.000000 
#    z -0.008990 0.000000 1.591470 
# 
# From -- ./inp_files/183716.got.cif
#   From: 2010.05.17/outbox.cif.g08.bks.cpg/sg12_92_cif.got.tgz:183716.got - 2010.06.03 13:09:07.
