data_PCOD9185544
_publ_section_title
;
Structure prediction by ZEFSAII (Michael W. Deem and Ramdas Pophale) SiO2 
 PCOD9185544
Probable space group: C 2/M
;
_chemical_formula_sum "Si O2"
_cell_formula_units_Z 40
_cell_length_a 14.100077
_cell_length_b 10.256693
_cell_length_c 17.128385
_cell_angle_alpha 90.000000
_cell_angle_beta 46.735448
_cell_angle_gamma 90.000000
_cell_volume 1803.823733
_symmetry_space_group_name_H-M "C 2/M"
_symmetry_group_IT_number 12
_symmetry_cell_setting 'monoclinic'
loop_
_space_group_symop_operation_xyz
x,y,z
-x,y,-z
-x,-y,-z
x,-y,z
1/2+x,1/2+y,z
1/2-x,1/2+y,-z
1/2-x,1/2-y,-z
1/2+x,1/2-y,z
loop_
_atom_site_type_symbol
_atom_site_label
_atom_site_fract_x
_atom_site_fract_y
_atom_site_fract_z
Si Si1 0.896318 0.647760 0.856215
Si Si2 0.859327 0.852542 0.750471
Si Si3 0.021954 0.855354 0.079235
Si Si4 0.820047 0.274559 0.291436
Si Si5 0.104742 0.852108 0.511400
O O1 0.851611 0.500000 0.887051
O O2 0.833716 0.734412 0.823442
O O3 0.892606 0.736886 0.935816
O O4 0.053415 0.645317 0.753744
O O5 0.764856 0.842822 0.728917
O O6 0.009969 0.834011 0.638257
O O7 0.847598 0.000000 0.789315
O O8 0.889985 0.843516 0.205914
O O9 0.073946 0.000000 0.062560
O O10 0.000000 0.837627 0.000000
O O11 0.720969 0.257188 0.419377
O O12 0.000000 0.847337 0.500000
O O13 0.158058 0.000000 0.484256
#
# Coordination Sequence:
#
# PCOD9185544 Si02
#       5
#     8   8   8   8   8
#     4  10  21  35  55  84 113 140 181 230 271 318
#     4  10  19  34  57  82 113 151 184 216 263 325
#     4   9  20  39  60  80 105 140 182 228 278 329
#     4   9  19  34  58  80 108 146 181 224 270 317
#     4   8  14  28  51  79 109 145 184 216 256 318
#
# _framework density 22.175115999999999
#
# number of rings (size 3 to 8) (size 9 to 14) (size 15 to 20)
#    1.200    1.600    0.000    3.600    0.000    2.000 
#    0.000    2.000    0.000    3.600    0.000    0.000 
#    0.000    0.000    0.000    0.000    0.000    0.000 
#
# Total GULP energy -111334.834924 kJ/mol
# GULP energy per Si atom -5566.741746 kJ/mol
# Density = 2.212464 g / cm^3
# Si number density = 22.175116 Si / 1000 Ang^3
#
#
#
# Elastic Constant Matrix: (Units=GPa)
#
#
# Indices 1 2 3 4 5 6 
#
# 1 65.0726 31.3907 16.7077 0.0000 -11.1202 0.0000
# 2 31.3907 163.5325 37.3301 0.0000 18.2450 0.0000
# 3 16.7077 37.3301 87.0114 0.0000 -19.0588 0.0000
# 4 0.0000 0.0000 0.0000 3.9093 0.0000 17.9583
# 5 -11.1202 18.2450 -19.0588 0.0000 41.6359 0.0000
# 6 0.0000 0.0000 0.0000 17.9583 0.0000 -35.6808
#
#
#
# Elastic Compliance Matrix: (Units=1/GPa)
#
#
# Indices 1 2 3 4 5 6 
#
# 1 0.018645 -0.004266 -0.000278 0.000000 0.006722 0.000000
# 2 -0.004266 0.008735 -0.004464 0.000000 -0.007010 0.000000
# 3 -0.000278 -0.004464 0.015419 0.000000 0.008940 0.000000
# 4 0.000000 0.000000 0.000000 0.077233 0.000000 0.038872
# 5 0.006722 -0.007010 0.008940 0.000000 0.032977 0.000000
# 6 0.000000 0.000000 0.000000 0.038872 0.000000 -0.008462
#
#
# Mechanical properties :
#
#
# Convention : Reuss Voigt Hill
#
# Bulk Modulus (GPa) = 40.34716 54.05258 47.19987
# Shear Modulus (GPa) = 29.26987 17.31875 23.29431
#
# Velocity S-wave (km/s) = 3.63704 2.79767 3.24461
# Velocity P-wave (km/s) = 5.98930 5.90459 5.94710
#
# Compressibility (1/GPa) = 0.02478489
#
# Stress axis : x y z
#
# Youngs Moduli (GPa) = 53.63331 114.48330 64.85299
#
# Poissons Ratio (x) = 0.48833 0.01802
# Poissons Ratio (y) = 0.22877 0.28950
# Poissons Ratio (z) = 0.01490 0.51105
#
# Static dielectric constant tensor:
#      x y z
#    x 1.838310 0.000000 -0.024550 
#    y 0.000000 1.768870 0.000000 
#    z -0.024550 0.000000 1.884770 
# 
# From -- ./inp_files/268041.got.cif
#   From: 2010.05.17/outbox.cif.g08.bks.cpg/sg12_135_cif.got.tgz:268041.got - 2010.06.03 13:09:07.
