data_PCOD9185632
_publ_section_title
;
Structure prediction by ZEFSAII (Michael W. Deem and Ramdas Pophale) SiO2 
 PCOD9185632
Probable space group: C 2/M
;
_chemical_formula_sum "Si O2"
_cell_formula_units_Z 16
_cell_length_a 5.114464
_cell_length_b 19.342425
_cell_length_c 11.475339
_cell_angle_alpha 90.000000
_cell_angle_beta 36.132121
_cell_angle_gamma 90.000000
_cell_volume 669.376272
_symmetry_space_group_name_H-M "C 2/M"
_symmetry_group_IT_number 12
_symmetry_cell_setting 'monoclinic'
loop_
_space_group_symop_operation_xyz
x,y,z
-x,y,-z
-x,-y,-z
x,-y,z
1/2+x,1/2+y,z
1/2-x,1/2+y,-z
1/2-x,1/2-y,-z
1/2+x,1/2-y,z
loop_
_atom_site_type_symbol
_atom_site_label
_atom_site_fract_x
_atom_site_fract_y
_atom_site_fract_z
Si Si1 0.966551 0.213717 0.261053
Si Si2 0.507877 0.423857 0.358805
O O1 0.500000 0.217315 0.500000
O O2 0.793689 0.228368 0.194583
O O3 0.176985 0.140513 0.222475
O O4 0.500000 0.407636 0.500000
O O5 0.720350 0.500000 0.267377
O O6 0.000000 0.430132 0.500000
#
# Coordination Sequence:
#
# PCOD9185632 Si02
#       2
#     8   8
#     4  10  19  34  57  84 117 160 209 261 317 379
#     4   9  15  22  35  61 102 151 200 251 308 370
#
# _framework density 23.902847999999999
#
# number of rings (size 3 to 8) (size 9 to 14) (size 15 to 20)
#    0.000    2.500    0.000    6.500    0.000    0.500 
#    0.000    5.000    0.000    9.500    0.000    0.000 
#    0.000    6.000    0.000    8.500    0.000   33.000 
#
# Total GULP energy -44585.581035 kJ/mol
# GULP energy per Si atom -5573.197629 kJ/mol
# Density = 2.384844 g / cm^3
# Si number density = 23.902848 Si / 1000 Ang^3
#
#
#
# Elastic Constant Matrix: (Units=GPa)
#
#
# Indices 1 2 3 4 5 6 
#
# 1 174.1862 63.8376 20.6698 0.0000 27.5661 0.0000
# 2 63.8376 192.8446 -1.7990 0.0000 16.0272 0.0000
# 3 20.6698 -1.7990 78.6949 0.0000 3.4807 0.0000
# 4 0.0000 0.0000 0.0000 -23.6369 0.0000 -4.5545
# 5 27.5661 16.0272 3.4807 0.0000 17.4106 0.0000
# 6 0.0000 0.0000 0.0000 -4.5545 0.0000 36.2825
#
#
#
# Elastic Compliance Matrix: (Units=1/GPa)
#
#
# Indices 1 2 3 4 5 6 
#
# 1 0.008414 -0.001866 -0.001755 0.000000 -0.011253 0.000000
# 2 -0.001866 0.006039 0.000750 0.000000 -0.002754 0.000000
# 3 -0.001755 0.000750 0.013210 0.000000 -0.000553 0.000000
# 4 0.000000 0.000000 0.000000 -0.041308 0.000000 -0.005185
# 5 -0.011253 -0.002754 -0.000553 0.000000 0.077899 0.000000
# 6 0.000000 0.000000 0.000000 -0.005185 0.000000 0.026911
#
#
# Mechanical properties :
#
#
# Convention : Reuss Voigt Hill
#
# Bulk Modulus (GPa) = 45.61916 67.90472 56.76194
# Shear Modulus (GPa) = 47.97777 30.21239 39.09508
#
# Velocity S-wave (km/s) = 4.48504 3.55909 4.04862
# Velocity P-wave (km/s) = 6.77845 6.73497 6.75674
#
# Compressibility (1/GPa) = 0.02192061
#
# Stress axis : x y z
#
# Youngs Moduli (GPa) = 118.84728 165.58250 75.70101
#
# Poissons Ratio (x) = 0.30906 0.13285
# Poissons Ratio (y) = 0.22183 -0.05679
# Poissons Ratio (z) = 0.20858 -0.12421
#
# Static dielectric constant tensor:
#      x y z
#    x 1.825080 0.000000 0.001720 
#    y 0.000000 2.076780 0.000000 
#    z 0.001720 0.000000 1.992480 
# 
# From -- ./inp_files/114755.got.cif
#   From: 2010.05.17/outbox.cif.g08.bks.cpg/sg12_58_cif.got.tgz:114755.got - 2010.06.03 13:09:07.
