data_PCOD9185400
_publ_section_title
;
Structure prediction by ZEFSAII (Michael W. Deem and Ramdas Pophale) SiO2 
 PCOD9185400
Probable space group: C 2/M
;
_chemical_formula_sum "Si O2"
_cell_formula_units_Z 56
_cell_length_a 17.635648
_cell_length_b 21.214075
_cell_length_c 22.896125
_cell_angle_alpha 90.000000
_cell_angle_beta 18.974308
_cell_angle_gamma 90.000000
_cell_volume 2785.181122
_symmetry_space_group_name_H-M "C 2/M"
_symmetry_group_IT_number 12
_symmetry_cell_setting 'monoclinic'
loop_
_space_group_symop_operation_xyz
x,y,z
-x,y,-z
-x,-y,-z
x,-y,z
1/2+x,1/2+y,z
1/2-x,1/2+y,-z
1/2-x,1/2-y,-z
1/2+x,1/2-y,z
loop_
_atom_site_type_symbol
_atom_site_label
_atom_site_fract_x
_atom_site_fract_y
_atom_site_fract_z
Si Si1 0.832617 0.570505 0.778243
Si Si2 0.346856 0.292242 0.483873
Si Si3 0.847494 0.069903 0.910904
Si Si4 0.124949 0.071457 0.588762
Si Si5 0.083400 0.113783 0.847733
Si Si6 0.839366 0.249672 0.174477
Si Si7 0.442441 0.196009 0.873546
O O1 0.767300 0.500000 0.844690
O O2 0.751840 0.579951 0.770882
O O3 0.105696 0.577900 0.587141
O O4 0.672393 0.614726 0.934784
O O5 0.250000 0.250000 0.500000
O O6 0.412207 0.364538 0.419923
O O7 0.580831 0.263130 0.340361
O O8 0.145872 0.294802 0.678574
O O9 0.957722 0.073546 0.766579
O O10 0.051784 0.080407 0.809462
O O11 0.745357 0.000000 0.994085
O O12 0.672228 0.127266 0.048410
O O13 0.101570 0.000000 0.579835
O O14 0.163757 0.185199 0.786333
O O15 0.954292 0.297924 0.136333
O O16 0.000000 0.243477 0.000000
O O17 0.250000 0.250000 0.000000
#
# Coordination Sequence:
#
# PCOD9185400 Si02
#       7
#     8   8   8   8   8   8   8
#     4  10  19  34  56  88 126 169 212 259 320 394
#     4  12  26  43  68  97 132 178 226 278 333 390
#     4  11  23  41  66  95 129 171 217 272 334 395
#     4  10  23  42  64  93 129 171 219 273 332 392
#     4  11  20  34  57  89 128 167 211 259 322 394
#     4  12  24  42  65  96 133 173 218 273 333 395
#     4  12  25  45  66  96 133 176 223 278 329 393
#
# _framework density 20.106411999999999
#
# number of rings (size 3 to 8) (size 9 to 14) (size 15 to 20)
#    0.000    0.857    2.857    6.429    0.000    2.286 
#    2.571    2.857    0.000    4.286    0.000    0.000 
#    0.000    0.000    0.000    0.000    0.000    0.000 
#
# Total GULP energy -156485.675480 kJ/mol
# GULP energy per Si atom -5588.774124 kJ/mol
# Density = 2.006065 g / cm^3
# Si number density = 20.106412 Si / 1000 Ang^3
#
#
#
# Elastic Constant Matrix: (Units=GPa)
#
#
# Indices 1 2 3 4 5 6 
#
# 1 72.5426 34.5682 6.0103 -0.0937 -5.7645 -0.1056
# 2 34.5682 139.1397 48.2868 0.0994 -9.2715 -0.1079
# 3 6.0103 48.2868 71.9662 0.1494 -8.1358 -0.5230
# 4 -0.0937 0.0994 0.1494 27.8401 0.0102 1.2400
# 5 -5.7645 -9.2715 -8.1358 0.0102 31.6018 -0.1235
# 6 -0.1056 -0.1079 -0.5230 1.2400 -0.1235 24.5531
#
#
#
# Elastic Compliance Matrix: (Units=1/GPa)
#
#
# Indices 1 2 3 4 5 6 
#
# 1 0.015928 -0.004482 0.001913 0.000054 0.002083 0.000097
# 2 -0.004482 0.010672 -0.006721 -0.000012 0.000583 -0.000112
# 3 0.001913 -0.006721 0.018606 -0.000088 0.003169 0.000395
# 4 0.000054 -0.000012 -0.000088 0.036001 -0.000035 -0.001820
# 5 0.002083 0.000583 0.003169 -0.000035 0.033011 0.000247
# 6 0.000097 -0.000112 0.000395 -0.001820 0.000247 0.040830
#
#
# Mechanical properties :
#
#
# Convention : Reuss Voigt Hill
#
# Bulk Modulus (GPa) = 37.55656 51.26434 44.41045
# Shear Modulus (GPa) = 27.39662 29.78455 28.59058
#
# Velocity S-wave (km/s) = 3.69532 3.85300 3.77498
# Velocity P-wave (km/s) = 6.07673 6.73395 6.41376
#
# Compressibility (1/GPa) = 0.02662651
#
# Stress axis : x y z
#
# Youngs Moduli (GPa) = 62.78171 93.70463 53.74476
#
# Poissons Ratio (x) = 0.42002 -0.10284
# Poissons Ratio (y) = 0.28141 0.36122
# Poissons Ratio (z) = -0.12013 0.62979
#
# Static dielectric constant tensor:
#      x y z
#    x 1.719190 0.000230 0.002420 
#    y 0.000230 1.766030 -0.000070 
#    z 0.002420 -0.000070 1.684680 
# 
# From -- ./inp_files/344750.got.cif
#   From: 2010.05.17/outbox.cif.g08.bks.cpg/sg12_173_cif.got.tgz:344750.got - 2010.06.03 13:09:07.
