data_PCOD9185635
_publ_section_title
;
Structure prediction by ZEFSAII (Michael W. Deem and Ramdas Pophale) SiO2 
 PCOD9185635
Probable space group: C 2/M
;
_chemical_formula_sum "Si O2"
_cell_formula_units_Z 56
_cell_length_a 15.827481
_cell_length_b 8.737395
_cell_length_c 27.853076
_cell_angle_alpha 90.000000
_cell_angle_beta 133.221993
_cell_angle_gamma 90.000000
_cell_volume 2806.849759
_symmetry_space_group_name_H-M "C 2/M"
_symmetry_group_IT_number 12
_symmetry_cell_setting 'monoclinic'
loop_
_space_group_symop_operation_xyz
x,y,z
-x,y,-z
-x,-y,-z
x,-y,z
1/2+x,1/2+y,z
1/2-x,1/2+y,-z
1/2-x,1/2-y,-z
1/2+x,1/2-y,z
loop_
_atom_site_type_symbol
_atom_site_label
_atom_site_fract_x
_atom_site_fract_y
_atom_site_fract_z
Si Si1 0.392253 0.675878 0.430073
Si Si2 0.708882 0.185123 0.287214
Si Si3 0.852746 0.316602 0.072019
Si Si4 0.808753 0.683491 0.165225
Si Si5 0.103178 0.182493 0.150148
Si Si6 0.969548 0.818770 0.704429
Si Si7 0.690042 0.825835 0.431127
O O1 0.500000 0.750559 0.500000
O O2 0.427672 0.500000 0.432210
O O3 0.330786 0.739008 0.358348
O O4 0.288198 0.670987 0.427966
O O5 0.676915 0.255235 0.223879
O O6 0.607636 0.236677 0.284486
O O7 0.710207 0.000000 0.285563
O O8 0.850537 0.500000 0.069299
O O9 0.833680 0.270513 0.120220
O O10 0.977241 0.257512 0.102990
O O11 0.750000 0.250000 0.000000
O O12 0.826856 0.500000 0.176141
O O13 0.678756 0.716215 0.132255
O O14 0.900040 0.766402 0.235267
O O15 0.090520 0.000000 0.149657
O O16 0.917010 0.765784 0.633174
O O17 0.957884 0.000000 0.704731
O O18 0.750000 0.750000 0.500000
O O19 0.655859 0.000000 0.428384
#
# Coordination Sequence:
#
# PCOD9185635 Si02
#       7
#     8   8   8   8   8   8   8
#     4   8  16  31  51  75 106 147 194 243 297 360
#     4  10  19  34  57  84 118 159 201 254 318 371
#     4  11  24  44  69  94 129 171 207 256 317 374
#     4  10  23  42  64  92 129 167 205 255 317 373
#     4  11  23  40  64  95 126 162 210 258 309 375
#     4  11  21  35  59  85 114 158 211 260 310 374
#     4  10  20  34  53  78 113 154 199 254 315 374
#
# _framework density 19.951193
#
# number of rings (size 3 to 8) (size 9 to 14) (size 15 to 20)
#    0.000    1.857    1.429    3.857    0.000    3.429 
#    0.000    4.286    0.000   14.571    0.000    0.000 
#    0.000    0.000    0.000    0.000    0.000    0.000 
#
# Total GULP energy -156359.229409 kJ/mol
# GULP energy per Si atom -5584.258193 kJ/mol
# Density = 1.990578 g / cm^3
# Si number density = 19.951193 Si / 1000 Ang^3
#
#
#
# Elastic Constant Matrix: (Units=GPa)
#
#
# Indices 1 2 3 4 5 6 
#
# 1 75.0361 33.4407 42.1821 0.0000 17.6527 0.0000
# 2 33.4407 59.0402 38.2351 0.0000 4.0107 0.0000
# 3 42.1821 38.2351 143.6818 0.0000 23.7464 0.0000
# 4 0.0000 0.0000 0.0000 36.0336 0.0000 -0.3796
# 5 17.6527 4.0107 23.7464 0.0000 23.5397 0.0000
# 6 0.0000 0.0000 0.0000 -0.3796 0.0000 18.3385
#
#
#
# Elastic Compliance Matrix: (Units=1/GPa)
#
#
# Indices 1 2 3 4 5 6 
#
# 1 0.021979 -0.010617 -0.001443 0.000000 -0.013218 0.000000
# 2 -0.010617 0.025707 -0.005180 0.000000 0.008807 0.000000
# 3 -0.001443 -0.005180 0.010125 0.000000 -0.008250 0.000000
# 4 0.000000 0.000000 0.000000 0.027758 0.000000 0.000575
# 5 -0.013218 0.008807 -0.008250 0.000000 0.059215 0.000000
# 6 0.000000 0.000000 0.000000 0.000575 0.000000 0.054542
#
#
# Mechanical properties :
#
#
# Convention : Reuss Voigt Hill
#
# Bulk Modulus (GPa) = 42.85758 56.16377 49.51068
# Shear Modulus (GPa) = 20.69685 26.50903 23.60294
#
# Velocity S-wave (km/s) = 3.22432 3.64908 3.44326
# Velocity P-wave (km/s) = 5.94891 6.77983 6.37792
#
# Compressibility (1/GPa) = 0.02333309
#
# Stress axis : x y z
#
# Youngs Moduli (GPa) = 45.49767 38.89980 98.76404
#
# Poissons Ratio (x) = 0.41299 0.14250
# Poissons Ratio (y) = 0.48304 0.51155
# Poissons Ratio (z) = 0.06565 0.20148
#
# Static dielectric constant tensor:
#      x y z
#    x 1.720850 0.000000 -0.004080 
#    y 0.000000 1.678720 0.000000 
#    z -0.004080 0.000000 1.706770 
# 
# From -- ./inp_files/377764.got.cif
#   From: 2010.05.17/outbox.cif.g08.bks.cpg/sg12_189_cif.got.tgz:377764.got - 2010.06.03 13:09:07.
