data_PCOD9185859
_publ_section_title
;
Structure prediction by ZEFSAII (Michael W. Deem and Ramdas Pophale) SiO2 
 PCOD9185859
Probable space group: C 2/M
;
_chemical_formula_sum "Si O2"
_cell_formula_units_Z 44
_cell_length_a 5.294939
_cell_length_b 18.829822
_cell_length_c 21.802263
_cell_angle_alpha 90.000000
_cell_angle_beta 81.731786
_cell_angle_gamma 90.000000
_cell_volume 2151.151251
_symmetry_space_group_name_H-M "C 2/M"
_symmetry_group_IT_number 12
_symmetry_cell_setting 'monoclinic'
loop_
_space_group_symop_operation_xyz
x,y,z
-x,y,-z
-x,-y,-z
x,-y,z
1/2+x,1/2+y,z
1/2-x,1/2+y,-z
1/2-x,1/2-y,-z
1/2+x,1/2-y,z
loop_
_atom_site_type_symbol
_atom_site_label
_atom_site_fract_x
_atom_site_fract_y
_atom_site_fract_z
Si Si1 0.738521 0.778412 0.929043
Si Si2 0.500000 0.702082 0.500000
Si Si3 0.951142 0.921960 0.929837
Si Si4 0.415864 0.300017 0.637839
Si Si5 0.366746 0.085064 0.820218
Si Si6 0.402816 0.413556 0.745941
O O1 0.512098 0.747797 0.897791
O O2 0.739105 0.862655 0.929465
O O3 0.750000 0.750000 0.000000
O O4 0.250000 0.750000 0.500000
O O5 0.540600 0.667232 0.432110
O O6 0.210896 0.898143 0.887573
O O7 0.876935 0.000000 0.908879
O O8 0.000000 0.925933 0.000000
O O9 0.658861 0.248730 0.644775
O O10 0.396123 0.364416 0.686313
O O11 0.652833 0.108351 0.794595
O O12 0.162343 0.102674 0.774039
O O13 0.385678 0.000000 0.820883
O O14 0.394359 0.500000 0.735587
#
# Coordination Sequence:
#
# PCOD9185859 Si02
#       6
#     8   4   8   8   8   8
#     4  10  20  38  55  73 106 134 158 200 275 327
#     4   8  16  30  51  82 113 154 178 222 274 312
#     4  10  20  38  62  84 103 137 187 232 271 335
#     4  10  19  34  58  84 118 146 191 228 266 317
#     4   9  20  37  56  80 108 140 183 228 278 332
#     4  10  20  38  58  78 111 150 181 224 280 324
#
# _framework density 20.454165
#
# number of rings (size 3 to 8) (size 9 to 14) (size 15 to 20)
#    0.000    2.364    1.818    1.091    0.000    1.455 
#    0.000   10.455    0.000    0.000    0.000   11.455 
#    0.000    0.000    0.000    0.000    0.000    0.000 
#
# Total GULP energy -122667.987394 kJ/mol
# GULP energy per Si atom -5575.817609 kJ/mol
# Density = 2.040761 g / cm^3
# Si number density = 20.454165 Si / 1000 Ang^3
#
#
#
# Elastic Constant Matrix: (Units=GPa)
#
#
# Indices 1 2 3 4 5 6 
#
# 1 118.5436 26.2319 7.4371 0.0000 2.3493 0.0000
# 2 26.2319 90.9261 25.7366 0.0000 -2.1327 0.0000
# 3 7.4371 25.7366 124.5498 0.0000 -0.2409 0.0000
# 4 0.0000 0.0000 0.0000 56.8034 0.0000 -2.4781
# 5 2.3493 -2.1327 -0.2409 0.0000 19.1050 0.0000
# 6 0.0000 0.0000 0.0000 -2.4781 0.0000 17.7222
#
#
#
# Elastic Compliance Matrix: (Units=1/GPa)
#
#
# Indices 1 2 3 4 5 6 
#
# 1 0.009049 -0.002644 0.000003 0.000000 -0.001408 0.000000
# 2 -0.002644 0.012485 -0.002419 0.000000 0.001688 0.000000
# 3 0.000003 -0.002419 0.008528 0.000000 -0.000163 0.000000
# 4 0.000000 0.000000 0.000000 0.017713 0.000000 0.002477
# 5 -0.001408 0.001688 -0.000163 0.000000 0.052702 0.000000
# 6 0.000000 0.000000 0.000000 0.002477 0.000000 0.056773
#
#
# Mechanical properties :
#
#
# Convention : Reuss Voigt Hill
#
# Bulk Modulus (GPa) = 50.14461 50.31452 50.22957
# Shear Modulus (GPa) = 28.73299 37.03373 32.88336
#
# Velocity S-wave (km/s) = 3.75207 4.25970 4.01391
# Velocity P-wave (km/s) = 6.58327 6.98895 6.78914
#
# Compressibility (1/GPa) = 0.01994232
#
# Stress axis : x y z
#
# Youngs Moduli (GPa) = 110.51458 80.09557 117.25812
#
# Poissons Ratio (x) = 0.21181 -0.00040
# Poissons Ratio (y) = 0.29225 0.28361
# Poissons Ratio (z) = -0.00038 0.19373
#
# Static dielectric constant tensor:
#      x y z
#    x 1.797660 0.000000 -0.018240 
#    y 0.000000 1.765640 0.000000 
#    z -0.018240 0.000000 1.778310 
# 
# From -- ./inp_files/252877.got.cif
#   From: 2010.05.17/outbox.cif.g08.bks.cpg/sg12_127_cif.got.tgz:252877.got - 2010.06.03 13:09:07.
