data_PCOD9185181
_publ_section_title
;
Structure prediction by ZEFSAII (Michael W. Deem and Ramdas Pophale) SiO2 
 PCOD9185181
Probable space group: C 2/M
;
_chemical_formula_sum "Si O2"
_cell_formula_units_Z 48
_cell_length_a 31.498359
_cell_length_b 14.168658
_cell_length_c 8.294580
_cell_angle_alpha 90.000000
_cell_angle_beta 42.899855
_cell_angle_gamma 90.000000
_cell_volume 2519.874598
_symmetry_space_group_name_H-M "C 2/M"
_symmetry_group_IT_number 12
_symmetry_cell_setting 'monoclinic'
loop_
_space_group_symop_operation_xyz
x,y,z
-x,y,-z
-x,-y,-z
x,-y,z
1/2+x,1/2+y,z
1/2-x,1/2+y,-z
1/2-x,1/2-y,-z
1/2+x,1/2-y,z
loop_
_atom_site_type_symbol
_atom_site_label
_atom_site_fract_x
_atom_site_fract_y
_atom_site_fract_z
Si Si1 0.536823 0.799782 0.669534
Si Si2 0.563557 0.394373 0.424105
Si Si3 0.711179 0.893572 0.375189
Si Si4 0.650386 0.109631 0.194082
Si Si5 0.903961 0.314324 0.142392
Si Si6 0.664151 0.286866 0.928612
O O1 0.547384 0.691778 0.587360
O O2 0.579464 0.867064 0.442297
O O3 0.564566 0.800612 0.771827
O O4 0.465033 0.833014 0.863771
O O5 0.500000 0.401868 0.500000
O O6 0.577332 0.500000 0.450440
O O7 0.620985 0.356300 0.156142
O O8 0.689111 0.872133 0.252587
O O9 0.651789 0.885432 0.659166
O O10 0.766452 0.825884 0.274575
O O11 0.734671 0.000000 0.310792
O O12 0.658338 0.000000 0.127630
O O13 0.666455 0.185293 0.012267
O O14 0.869252 0.228504 0.149860
#
# Coordination Sequence:
#
# PCOD9185181 Si02
#       6
#     8   8   8   8   8   8
#     4   9  19  37  56  79 113 144 176 221 274 319
#     4  10  19  34  56  80 105 140 183 224 264 314
#     4  10  21  37  54  79 110 147 183 220 269 327
#     4   9  20  36  58  82 107 139 183 227 272 320
#     4  10  20  35  55  78 111 148 177 218 270 324
#     4  11  20  35  58  80 111 142 181 226 272 315
#
# _framework density 19.048569000000001
#
# number of rings (size 3 to 8) (size 9 to 14) (size 15 to 20)
#    0.000    2.167    1.667    1.500    0.000    1.333 
#    0.000    7.500    0.000    1.000    0.000    0.000 
#    0.000    0.000    0.000    0.000    0.000    0.000 
#
# Total GULP energy -133665.914861 kJ/mol
# GULP energy per Si atom -5569.413119 kJ/mol
# Density = 1.900521 g / cm^3
# Si number density = 19.048569 Si / 1000 Ang^3
#
#
#
# Elastic Constant Matrix: (Units=GPa)
#
#
# Indices 1 2 3 4 5 6 
#
# 1 44.7801 18.4068 31.2550 0.0000 -24.7296 0.0000
# 2 18.4068 69.5240 31.2043 0.0000 -16.7556 0.0000
# 3 31.2550 31.2043 72.0396 0.0000 -23.5496 0.0000
# 4 0.0000 0.0000 0.0000 13.8080 0.0000 -7.8333
# 5 -24.7296 -16.7556 -23.5496 0.0000 26.3249 0.0000
# 6 0.0000 0.0000 0.0000 -7.8333 0.0000 41.0844
#
#
#
# Elastic Compliance Matrix: (Units=1/GPa)
#
#
# Indices 1 2 3 4 5 6 
#
# 1 0.050221 0.000223 -0.009069 0.000000 0.039207 0.000000
# 2 0.000223 0.018623 -0.005964 0.000000 0.006727 0.000000
# 3 -0.009069 -0.005964 0.023140 0.000000 0.008385 0.000000
# 4 0.000000 0.000000 0.000000 0.081205 0.000000 0.015483
# 5 0.039207 0.006727 0.008385 0.000000 0.086601 0.000000
# 6 0.000000 0.000000 0.000000 0.015483 0.000000 0.027292
#
#
# Mechanical properties :
#
#
# Convention : Reuss Voigt Hill
#
# Bulk Modulus (GPa) = 16.03473 38.67510 27.35491
# Shear Modulus (GPa) = 14.81521 23.27530 19.04526
#
# Velocity S-wave (km/s) = 2.79186 3.49935 3.16543
# Velocity P-wave (km/s) = 4.33921 6.05597 5.26799
#
# Compressibility (1/GPa) = 0.06236464
#
# Stress axis : x y z
#
# Youngs Moduli (GPa) = 19.91183 53.69806 43.21436
#
# Poissons Ratio (x) = -0.01198 0.39191
# Poissons Ratio (y) = -0.00444 0.25774
# Poissons Ratio (z) = 0.18058 0.32026
#
# Static dielectric constant tensor:
#      x y z
#    x 1.664950 0.000000 0.012030 
#    y 0.000000 1.642280 0.000000 
#    z 0.012030 0.000000 1.693760 
# 
# From -- ./inp_files/111492.got.cif
#   From: 2010.05.17/outbox.cif.g08.bks.cpg/sg12_56_cif.got.tgz:111492.got - 2010.06.03 13:09:07.
