data_PCOD9185825
_publ_section_title
;
Structure prediction by ZEFSAII (Michael W. Deem and Ramdas Pophale) SiO2 
 PCOD9185825
Probable space group: C 2/M
;
_chemical_formula_sum "Si O2"
_cell_formula_units_Z 56
_cell_length_a 19.742884
_cell_length_b 9.059749
_cell_length_c 19.002747
_cell_angle_alpha 90.000000
_cell_angle_beta 114.444887
_cell_angle_gamma 90.000000
_cell_volume 3094.255639
_symmetry_space_group_name_H-M "C 2/M"
_symmetry_group_IT_number 12
_symmetry_cell_setting 'monoclinic'
loop_
_space_group_symop_operation_xyz
x,y,z
-x,y,-z
-x,-y,-z
x,-y,z
1/2+x,1/2+y,z
1/2-x,1/2+y,-z
1/2-x,1/2-y,-z
1/2+x,1/2-y,z
loop_
_atom_site_type_symbol
_atom_site_label
_atom_site_fract_x
_atom_site_fract_y
_atom_site_fract_z
Si Si1 0.820942 0.822717 0.492670
Si Si2 0.966353 0.328083 0.057840
Si Si3 0.545357 0.675290 0.804327
Si Si4 0.517862 0.324443 0.374920
Si Si5 0.628359 0.175324 0.628339
Si Si6 0.693046 0.174657 0.809720
Si Si7 0.291253 0.829636 0.953890
O O1 0.750000 0.750000 0.500000
O O2 0.898504 0.788289 0.566340
O O3 0.833960 0.758038 0.420429
O O4 0.812416 0.000000 0.487168
O O5 0.989160 0.500000 0.075487
O O6 0.985606 0.240907 0.136729
O O7 0.878029 0.323722 0.007911
O O8 0.000000 0.268164 0.000000
O O9 0.555583 0.500000 0.814799
O O10 0.495907 0.704895 0.713712
O O11 0.624150 0.752610 0.821811
O O12 0.506137 0.500000 0.381763
O O13 0.454173 0.238426 0.390750
O O14 0.675686 0.198909 0.720186
O O15 0.624088 0.000000 0.613239
O O16 0.766860 0.248795 0.871943
O O17 0.693839 0.000000 0.823647
O O18 0.268072 0.000000 0.939973
O O19 0.250000 0.750000 0.000000
#
# Coordination Sequence:
#
# PCOD9185825 Si02
#       7
#     8   8   8   8   8   8   8
#     4  11  23  40  60  83 118 154 187 230 284 341
#     4  10  22  39  55  76 112 151 186 230 279 330
#     4  10  19  34  58  84 110 143 186 232 279 335
#     4   9  20  38  60  86 114 146 185 234 286 334
#     4  10  21  37  60  88 116 147 190 236 278 334
#     4  10  20  35  56  84 115 146 183 234 282 326
#     4  11  21  34  57  83 112 147 188 233 280 332
#
# _framework density 18.098051999999999
#
# number of rings (size 3 to 8) (size 9 to 14) (size 15 to 20)
#    0.000    1.857    1.429    2.571    0.000    6.000 
#    2.571    0.000    0.000    0.000    0.000    0.000 
#    0.000    0.000    0.000    0.000    0.000    0.000 
#
# Total GULP energy -156341.503726 kJ/mol
# GULP energy per Si atom -5583.625133 kJ/mol
# Density = 1.805686 g / cm^3
# Si number density = 18.098052 Si / 1000 Ang^3
#
#
#
# Elastic Constant Matrix: (Units=GPa)
#
#
# Indices 1 2 3 4 5 6 
#
# 1 84.5647 52.0871 56.1346 0.0000 -23.7966 0.0000
# 2 52.0871 94.9543 70.6338 0.0000 -11.6734 0.0000
# 3 56.1346 70.6338 109.4679 0.0000 -17.0260 0.0000
# 4 0.0000 0.0000 0.0000 33.8369 0.0000 -4.9217
# 5 -23.7966 -11.6734 -17.0260 0.0000 31.2769 0.0000
# 6 0.0000 0.0000 0.0000 -4.9217 0.0000 26.1214
#
#
#
# Elastic Compliance Matrix: (Units=1/GPa)
#
#
# Indices 1 2 3 4 5 6 
#
# 1 0.023266 -0.007308 -0.005338 0.000000 0.012068 0.000000
# 2 -0.007308 0.022554 -0.011319 0.000000 -0.003304 0.000000
# 3 -0.005338 -0.011319 0.019542 0.000000 0.002352 0.000000
# 4 0.000000 0.000000 0.000000 0.030386 0.000000 0.005725
# 5 0.012068 -0.003304 0.002352 0.000000 0.041201 0.000000
# 6 0.000000 0.000000 0.000000 0.005725 0.000000 0.039362
#
#
# Mechanical properties :
#
#
# Convention : Reuss Voigt Hill
#
# Bulk Modulus (GPa) = 57.36880 71.85533 64.61207
# Shear Modulus (GPa) = 21.73407 25.58913 23.66160
#
# Velocity S-wave (km/s) = 3.46917 3.76429 3.61974
# Velocity P-wave (km/s) = 6.91481 7.66046 7.29716
#
# Compressibility (1/GPa) = 0.01743108
#
# Stress axis : x y z
#
# Youngs Moduli (GPa) = 42.98068 44.33783 51.17158
#
# Poissons Ratio (x) = 0.32402 0.27317
# Poissons Ratio (y) = 0.31410 0.57923
# Poissons Ratio (z) = 0.22945 0.50188
#
# Static dielectric constant tensor:
#      x y z
#    x 1.590340 0.000000 0.004890 
#    y 0.000000 1.611030 0.000000 
#    z 0.004890 0.000000 1.636940 
# 
# From -- ./inp_files/275690.got.cif
#   From: 2010.05.17/outbox.cif.g08.bks.cpg/sg12_138_cif.got.tgz:275690.got - 2010.06.03 13:09:07.
