data_PCOD9185955
_publ_section_title
;
Structure prediction by ZEFSAII (Michael W. Deem and Ramdas Pophale) SiO2 
 PCOD9185955
Probable space group: C 2/M
;
_chemical_formula_sum "Si O2"
_cell_formula_units_Z 56
_cell_length_a 19.718962
_cell_length_b 8.532390
_cell_length_c 21.449185
_cell_angle_alpha 90.000000
_cell_angle_beta 55.532474
_cell_angle_gamma 90.000000
_cell_volume 2975.283329
_symmetry_space_group_name_H-M "C 2/M"
_symmetry_group_IT_number 12
_symmetry_cell_setting 'monoclinic'
loop_
_space_group_symop_operation_xyz
x,y,z
-x,y,-z
-x,-y,-z
x,-y,z
1/2+x,1/2+y,z
1/2-x,1/2+y,-z
1/2-x,1/2-y,-z
1/2+x,1/2-y,z
loop_
_atom_site_type_symbol
_atom_site_label
_atom_site_fract_x
_atom_site_fract_y
_atom_site_fract_z
Si Si1 0.508872 0.185037 0.197760
Si Si2 0.659246 0.318284 0.051761
Si Si3 0.422355 0.809944 0.498197
Si Si4 0.257117 0.309773 0.364349
Si Si5 0.902140 0.679196 0.040914
Si Si6 0.138810 0.186927 0.807295
Si Si7 0.914742 0.811593 0.362194
O O1 0.600951 0.228785 0.130763
O O2 0.447072 0.272183 0.182237
O O3 0.481974 0.241159 0.280070
O O4 0.495960 0.000000 0.198011
O O5 0.660788 0.500000 0.067326
O O6 0.750000 0.250000 0.000000
O O7 0.620705 0.291421 0.003620
O O8 0.500000 0.761364 0.500000
O O9 0.334673 0.756988 0.572264
O O10 0.427039 0.747145 0.425579
O O11 0.422071 0.000000 0.496317
O O12 0.256648 0.500000 0.364678
O O13 0.291794 0.262296 0.278639
O O14 0.325534 0.262300 0.380100
O O15 0.880666 0.500000 0.035087
O O16 0.859464 0.728196 0.127507
O O17 0.000000 0.685922 0.000000
O O18 0.143770 0.000000 0.813595
O O19 0.918544 0.000000 0.357694
#
# Coordination Sequence:
#
# PCOD9185955 Si02
#       7
#     8   8   8   8   8   8   8
#     4  11  21  37  60  87 117 150 193 242 293 350
#     4  12  25  42  62  86 119 158 199 243 294 350
#     4  10  20  36  57  82 115 151 186 231 289 351
#     4   8  17  34  56  83 112 145 188 237 286 342
#     4  11  22  37  60  88 120 155 198 245 292 349
#     4  10  19  34  58  87 116 150 195 247 298 346
#     4  10  20  36  59  84 111 146 191 239 285 342
#
# _framework density 18.821738
#
# number of rings (size 3 to 8) (size 9 to 14) (size 15 to 20)
#    0.000    1.714    1.429    5.143    0.000    0.857 
#    2.571    3.571    0.000    0.000    0.000    0.000 
#    0.000    0.000    0.000    0.000    0.000    0.000 
#
# Total GULP energy -156403.699812 kJ/mol
# GULP energy per Si atom -5585.846422 kJ/mol
# Density = 1.877890 g / cm^3
# Si number density = 18.821738 Si / 1000 Ang^3
#
#
#
# Elastic Constant Matrix: (Units=GPa)
#
#
# Indices 1 2 3 4 5 6 
#
# 1 79.9232 7.6954 65.3482 0.0003 -16.0943 0.0001
# 2 7.6954 37.7331 9.6940 0.0005 -1.0277 0.0000
# 3 65.3482 9.6940 143.8966 0.0000 -13.3049 0.0000
# 4 0.0003 0.0005 0.0000 19.9741 0.0000 19.2525
# 5 -16.0943 -1.0277 -13.3049 0.0000 25.7874 0.0000
# 6 0.0001 0.0000 0.0000 19.2525 0.0000 -0.2282
#
#
#
# Elastic Compliance Matrix: (Units=1/GPa)
#
#
# Indices 1 2 3 4 5 6 
#
# 1 0.021811 -0.001905 -0.008952 0.000000 0.008918 0.000000
# 2 -0.001905 0.027136 -0.001021 0.000000 -0.000635 -0.000001
# 3 -0.008952 -0.001021 0.011092 0.000000 0.000095 0.000000
# 4 0.000000 0.000000 0.000000 0.000608 0.000000 0.051310
# 5 0.008918 -0.000635 0.000095 0.000000 0.044368 0.000000
# 6 0.000000 -0.000001 0.000000 0.051310 0.000000 -0.053234
#
#
# Mechanical properties :
#
#
# Convention : Reuss Voigt Hill
#
# Bulk Modulus (GPa) = 27.56262 47.44758 37.50510
# Shear Modulus (GPa) = 57.05587 21.02768 39.04178
#
# Velocity S-wave (km/s) = 5.51177 3.34608 4.55938
# Velocity P-wave (km/s) = 7.42846 6.33972 6.90558
#
# Compressibility (1/GPa) = 0.03628103
#
# Stress axis : x y z
#
# Youngs Moduli (GPa) = 45.84883 36.85192 90.15100
#
# Poissons Ratio (x) = 0.07022 0.80704
# Poissons Ratio (y) = 0.08736 0.09209
# Poissons Ratio (z) = 0.41044 0.03764
#
# Static dielectric constant tensor:
#      x y z
#    x 1.131860 0.000000 0.027740 
#    y 0.000000 1.631650 0.000000 
#    z 0.027740 0.000000 1.639110 
# 
# From -- ./inp_files/280972.got.cif
#   From: 2010.05.17/outbox.cif.g08.bks.cpg/sg12_141_cif.got.tgz:280972.got - 2010.06.03 13:09:07.
