data_PCOD9185604
_publ_section_title
;
Structure prediction by ZEFSAII (Michael W. Deem and Ramdas Pophale) SiO2 
 PCOD9185604
Probable space group: C 2/M
;
_chemical_formula_sum "Si O2"
_cell_formula_units_Z 48
_cell_length_a 18.151551
_cell_length_b 13.705124
_cell_length_c 26.253234
_cell_angle_alpha 90.000000
_cell_angle_beta 18.268068
_cell_angle_gamma 90.000000
_cell_volume 2047.227871
_symmetry_space_group_name_H-M "C 2/M"
_symmetry_group_IT_number 12
_symmetry_cell_setting 'monoclinic'
loop_
_space_group_symop_operation_xyz
x,y,z
-x,y,-z
-x,-y,-z
x,-y,z
1/2+x,1/2+y,z
1/2-x,1/2+y,-z
1/2-x,1/2-y,-z
1/2+x,1/2-y,z
loop_
_atom_site_type_symbol
_atom_site_label
_atom_site_fract_x
_atom_site_fract_y
_atom_site_fract_z
Si Si1 0.671919 0.606674 0.729863
Si Si2 0.584358 0.315968 0.683147
Si Si3 0.217835 0.602422 0.185208
Si Si4 0.018536 0.197380 0.359627
Si Si5 0.772208 0.830872 0.679740
Si Si6 0.659462 0.850716 0.110164
O O1 0.761897 0.500000 0.686863
O O2 0.675095 0.611843 0.666379
O O3 0.779546 0.711222 0.675220
O O4 0.407277 0.617049 0.925117
O O5 0.531277 0.354235 0.661609
O O6 0.364051 0.262496 0.855749
O O7 0.778517 0.230055 0.545879
O O8 0.145932 0.500000 0.256929
O O9 0.124540 0.698425 0.273145
O O10 0.134437 0.600331 0.181571
O O11 0.500000 0.607733 0.000000
O O12 0.189648 0.143451 0.286330
O O13 0.542538 0.863191 0.799539
O O14 0.000000 0.866600 0.500000
#
# Coordination Sequence:
#
# PCOD9185604 Si02
#       6
#     8   8   8   8   8   8
#     4  11  22  36  57  86 122 151 185 240 300 347
#     4   9  19  36  55  81 112 151 196 233 280 333
#     4  10  21  36  56  84 119 154 189 236 295 350
#     4  10  19  34  57  84 112 146 194 240 281 335
#     4  11  20  36  59  87 116 149 194 237 285 341
#     4  10  20  37  58  82 116 157 197 233 275 344
#
# _framework density 23.446339999999999
#
# number of rings (size 3 to 8) (size 9 to 14) (size 15 to 20)
#    0.000    1.833    3.333    3.500    0.000    4.333 
#    0.000    0.000    0.000    5.000    0.000    0.000 
#    0.000    0.000    0.000    0.000    0.000    0.000 
#
# Total GULP energy -133903.962220 kJ/mol
# GULP energy per Si atom -5579.331759 kJ/mol
# Density = 2.339298 g / cm^3
# Si number density = 23.446340 Si / 1000 Ang^3
#
#
#
# Elastic Constant Matrix: (Units=GPa)
#
#
# Indices 1 2 3 4 5 6 
#
# 1 203.6610 -8.6050 20.7290 0.0184 -2.4003 -0.0280
# 2 -8.6050 37.4055 2.3226 -0.0706 3.0762 -0.0380
# 3 20.7290 2.3226 99.7189 -0.1649 -1.0851 -0.0133
# 4 0.0184 -0.0706 -0.1649 -35.9987 -0.0109 25.4041
# 5 -2.4003 3.0762 -1.0851 -0.0109 33.8310 -0.0066
# 6 -0.0280 -0.0380 -0.0133 25.4041 -0.0066 -33.8178
#
#
#
# Elastic Compliance Matrix: (Units=1/GPa)
#
#
# Indices 1 2 3 4 5 6 
#
# 1 0.005074 0.001217 -0.001081 0.000003 0.000215 -0.000003
# 2 0.001217 0.027270 -0.000915 -0.000148 -0.002423 -0.000142
# 3 -0.001081 -0.000915 0.010278 -0.000101 0.000336 -0.000078
# 4 0.000003 -0.000148 -0.000101 -0.059117 -0.000017 -0.044409
# 5 0.000215 -0.002423 0.000336 -0.000017 0.029805 -0.000016
# 6 -0.000003 -0.000142 -0.000078 -0.044409 -0.000016 -0.062930
#
#
# Mechanical properties :
#
#
# Convention : Reuss Voigt Hill
#
# Bulk Modulus (GPa) = 24.35235 41.07538 32.71386
# Shear Modulus (GPa) = -145.45256 14.55882 -65.44687
#
# Velocity S-wave (km/s) = -7.88486 2.49457 -5.28905
# Velocity P-wave (km/s) = 8.51386 5.08469 4.82865
#
# Compressibility (1/GPa) = 0.04106380
#
# Stress axis : x y z
#
# Youngs Moduli (GPa) = 197.08087 36.67092 97.29860
#
# Poissons Ratio (x) = -0.04462 0.10516
# Poissons Ratio (y) = -0.23979 0.08900
# Poissons Ratio (z) = 0.21300 0.03354
#
# Static dielectric constant tensor:
#      x y z
#    x 1.934310 0.000010 -0.019000 
#    y 0.000010 1.914640 0.000150 
#    z -0.019000 0.000150 1.945460 
# 
# From -- ./inp_files/364353.got.cif
#   From: 2010.05.17/outbox.cif.g08.bks.cpg/sg12_183_cif.got.tgz:364353.got - 2010.06.03 13:09:07.
