data_PCOD9185035
_publ_section_title
;
Structure prediction by ZEFSAII (Michael W. Deem and Ramdas Pophale) SiO2 
 PCOD9185035
Probable space group: C 2/M
;
_chemical_formula_sum "Si O2"
_cell_formula_units_Z 56
_cell_length_a 30.805031
_cell_length_b 8.864285
_cell_length_c 22.467856
_cell_angle_alpha 90.000000
_cell_angle_beta 32.719391
_cell_angle_gamma 90.000000
_cell_volume 3316.216293
_symmetry_space_group_name_H-M "C 2/M"
_symmetry_group_IT_number 12
_symmetry_cell_setting 'monoclinic'
loop_
_space_group_symop_operation_xyz
x,y,z
-x,y,-z
-x,-y,-z
x,-y,z
1/2+x,1/2+y,z
1/2-x,1/2+y,-z
1/2-x,1/2-y,-z
1/2+x,1/2-y,z
loop_
_atom_site_type_symbol
_atom_site_label
_atom_site_fract_x
_atom_site_fract_y
_atom_site_fract_z
Si Si1 0.834830 0.318980 0.113844
Si Si2 0.340865 0.679319 0.234361
Si Si3 0.485284 0.819849 0.139065
Si Si4 0.247426 0.819465 0.095364
Si Si5 0.789384 0.319854 0.513749
Si Si6 0.041035 0.179782 0.700238
Si Si7 0.620182 0.820786 0.158614
O O1 0.830074 0.500000 0.127960
O O2 0.820469 0.235821 0.192140
O O3 0.773920 0.277246 0.131149
O O4 0.925040 0.285672 0.986898
O O5 0.355367 0.500000 0.217921
O O6 0.419957 0.763497 0.167146
O O7 0.269194 0.711590 0.363352
O O8 0.468391 0.740256 0.221370
O O9 0.479004 0.000000 0.154474
O O10 0.171074 0.734773 0.156461
O O11 0.233908 0.000000 0.108639
O O12 0.322529 0.788160 0.964536
O O13 0.795752 0.500000 0.499172
O O14 0.750000 0.250000 0.500000
O O15 0.877110 0.249097 0.419727
O O16 0.963283 0.236200 0.754211
O O17 0.045590 0.000000 0.695628
O O18 0.606929 0.000000 0.175719
#
# Coordination Sequence:
#
# PCOD9185035 Si02
#       7
#     8   8   8   8   8   8   8
#     4  10  21  37  56  80 113 153 187 221 273 332
#     4  11  24  38  54  81 112 146 189 231 275 328
#     4  11  21  36  56  80 112 151 187 224 274 331
#     4   9  18  34  54  81 113 145 184 224 269 331
#     4  11  23  39  58  80 109 146 187 234 278 326
#     4  12  23  35  56  84 113 146 185 231 280 328
#     4  10  19  34  55  82 113 146 181 224 279 330
#
# _framework density 16.886714999999999
#
# number of rings (size 3 to 8) (size 9 to 14) (size 15 to 20)
#    0.000    1.429    2.857    3.429    0.000    5.714 
#    0.000    0.000    0.000    0.857    0.000    6.000 
#    0.000    0.000    0.000    0.000    0.000    0.000 
#
# Total GULP energy -156470.459093 kJ/mol
# GULP energy per Si atom -5588.230682 kJ/mol
# Density = 1.684828 g / cm^3
# Si number density = 16.886715 Si / 1000 Ang^3
#
#
#
# Elastic Constant Matrix: (Units=GPa)
#
#
# Indices 1 2 3 4 5 6 
#
# 1 133.7212 51.5666 50.9812 0.0030 -2.3300 -0.0009
# 2 51.5666 66.0313 40.9821 0.0051 1.5064 -0.0027
# 3 50.9812 40.9821 51.6555 0.0035 0.0686 0.0005
# 4 0.0030 0.0051 0.0035 26.5351 -0.0015 -0.8765
# 5 -2.3300 1.5064 0.0686 -0.0015 24.0508 0.0016
# 6 -0.0009 -0.0027 0.0005 -0.8765 0.0016 33.6184
#
#
#
# Elastic Compliance Matrix: (Units=1/GPa)
#
#
# Indices 1 2 3 4 5 6 
#
# 1 0.012599 -0.004245 -0.009068 0.000001 0.001512 0.000000
# 2 -0.004245 0.031344 -0.020675 -0.000003 -0.002316 0.000003
# 3 -0.009068 -0.020675 0.044711 -0.000001 0.000289 -0.000003
# 4 0.000001 -0.000003 -0.000001 0.037718 0.000003 0.000983
# 5 0.001512 -0.002316 0.000289 0.000003 0.041869 -0.000002
# 6 0.000000 0.000003 -0.000003 0.000983 -0.000002 0.029771
#
#
# Mechanical properties :
#
#
# Convention : Reuss Voigt Hill
#
# Bulk Modulus (GPa) = 48.36105 59.82974 54.09540
# Shear Modulus (GPa) = 18.32286 24.03274 21.17780
#
# Velocity S-wave (km/s) = 3.29758 3.77659 3.54518
# Velocity P-wave (km/s) = 6.57262 7.38403 6.99011
#
# Compressibility (1/GPa) = 0.02067780
#
# Stress axis : x y z
#
# Youngs Moduli (GPa) = 79.37098 31.90393 22.36563
#
# Poissons Ratio (x) = 0.13544 0.20282
# Poissons Ratio (y) = 0.33695 0.46240
# Poissons Ratio (z) = 0.71978 0.65960
#
# Static dielectric constant tensor:
#      x y z
#    x 1.558090 0.000000 -0.003330 
#    y 0.000000 1.564580 0.000000 
#    z -0.003330 0.000000 1.548930 
# 
# From -- ./inp_files/237835.got.cif
#   From: 2010.05.17/outbox.cif.g08.bks.cpg/sg12_119_cif.got.tgz:237835.got - 2010.06.03 13:09:07.
