data_PCOD9185940
_publ_section_title
;
Structure prediction by ZEFSAII (Michael W. Deem and Ramdas Pophale) SiO2 
 PCOD9185940
Probable space group: C 2/M
;
_chemical_formula_sum "Si O2"
_cell_formula_units_Z 64
_cell_length_a 15.130307
_cell_length_b 29.382148
_cell_length_c 13.066298
_cell_angle_alpha 90.000000
_cell_angle_beta 33.745245
_cell_angle_gamma 90.000000
_cell_volume 3226.776338
_symmetry_space_group_name_H-M "C 2/M"
_symmetry_group_IT_number 12
_symmetry_cell_setting 'monoclinic'
loop_
_space_group_symop_operation_xyz
x,y,z
-x,y,-z
-x,-y,-z
x,-y,z
1/2+x,1/2+y,z
1/2-x,1/2+y,-z
1/2-x,1/2-y,-z
1/2+x,1/2-y,z
loop_
_atom_site_type_symbol
_atom_site_label
_atom_site_fract_x
_atom_site_fract_y
_atom_site_fract_z
Si Si1 0.314023 0.861892 0.064673
Si Si2 0.813065 0.948023 0.151115
Si Si3 0.305008 0.200277 0.481078
Si Si4 0.820822 0.051576 0.899994
Si Si5 0.190021 0.154676 0.802084
Si Si6 0.192757 0.360648 0.707340
Si Si7 0.689230 0.203006 0.109507
Si Si8 0.616241 0.448245 0.485911
O O1 0.276761 0.913745 0.074719
O O2 0.247461 0.846048 0.237939
O O3 0.503143 0.855846 0.887832
O O4 0.250832 0.834073 0.030011
O O5 0.751493 0.898806 0.253203
O O6 0.751425 0.000000 0.238055
O O7 0.796058 0.943294 0.044640
O O8 0.000000 0.949479 0.000000
O O9 0.250000 0.250000 0.500000
O O10 0.238801 0.180276 0.650945
O O11 0.245825 0.167501 0.447050
O O12 0.497313 0.201844 0.299279
O O13 0.005168 0.058558 0.692209
O O14 0.782072 0.000000 0.908052
O O15 0.252223 0.185628 0.836549
O O16 0.000000 0.152544 0.000000
O O17 0.243712 0.412606 0.648405
O O18 0.750000 0.250000 0.000000
O O19 0.500000 0.441004 0.500000
O O20 0.671625 0.500000 0.429101
#
# Coordination Sequence:
#
# PCOD9185940 Si02
#       8
#     8   8   8   8   8   8   8   8
#     4  10  21  40  59  88 118 159 207 249 312 370
#     4   9  19  35  59  91 123 164 211 258 310 369
#     4  11  26  45  63  93 127 162 210 261 317 379
#     4  10  19  34  58  86 122 158 204 256 301 363
#     4  11  23  41  68  97 130 167 212 262 318 380
#     4  10  23  39  60  83 124 163 198 255 306 373
#     4  11  24  43  68  91 122 163 209 264 323 375
#     4  10  20  34  54  87 122 157 200 252 299 352
#
# _framework density 19.834036999999999
#
# number of rings (size 3 to 8) (size 9 to 14) (size 15 to 20)
#    0.000    1.750    2.500    1.125    5.250    1.500 
#    0.000    1.250    0.000    2.250    0.000    0.000 
#    0.000    0.000    0.000    0.000    0.000    0.000 
#
# Total GULP energy -178392.039774 kJ/mol
# GULP energy per Si atom -5574.751243 kJ/mol
# Density = 1.978889 g / cm^3
# Si number density = 19.834037 Si / 1000 Ang^3
#
#
#
# Elastic Constant Matrix: (Units=GPa)
#
#
# Indices 1 2 3 4 5 6 
#
# 1 81.9860 42.5729 35.5354 0.0000 37.1739 0.0000
# 2 42.5729 119.6321 51.6913 0.0000 28.6607 0.0000
# 3 35.5354 51.6913 77.3870 -0.0001 33.4126 0.0001
# 4 0.0000 0.0000 -0.0001 26.5177 0.0000 2.0950
# 5 37.1739 28.6607 33.4126 0.0000 32.9172 0.0000
# 6 0.0000 0.0000 0.0001 2.0950 0.0000 30.9016
#
#
#
# Elastic Compliance Matrix: (Units=1/GPa)
#
#
# Indices 1 2 3 4 5 6 
#
# 1 0.026082 -0.003569 0.003174 0.000000 -0.029569 0.000000
# 2 -0.003569 0.012547 -0.006703 0.000000 -0.000090 0.000000
# 3 0.003174 -0.006703 0.026649 0.000000 -0.024798 0.000000
# 4 0.000000 0.000000 0.000000 0.037914 0.000000 -0.002570
# 5 -0.029569 -0.000090 -0.024798 0.000000 0.089021 0.000000
# 6 0.000000 0.000000 0.000000 -0.002570 0.000000 0.032535
#
#
# Mechanical properties :
#
#
# Convention : Reuss Voigt Hill
#
# Bulk Modulus (GPa) = 19.57665 59.84493 39.71079
# Shear Modulus (GPa) = 19.53345 28.01434 23.77389
#
# Velocity S-wave (km/s) = 3.14163 3.76232 3.46590
# Velocity P-wave (km/s) = 4.80119 7.00798 6.00679
#
# Compressibility (1/GPa) = 0.05108127
#
# Stress axis : x y z
#
# Youngs Moduli (GPa) = 38.34081 79.70065 37.52523
#
# Poissons Ratio (x) = 0.28447 -0.11911
# Poissons Ratio (y) = 0.13685 0.25154
# Poissons Ratio (z) = -0.12170 0.53425
#
# Static dielectric constant tensor:
#      x y z
#    x 1.701640 0.000000 0.014020 
#    y 0.000000 1.736310 0.000000 
#    z 0.014020 0.000000 1.714840 
# 
# From -- ./inp_files/149728.got.cif
#   From: 2010.05.17/outbox.cif.g08.bks.cpg/sg12_75_cif.got.tgz:149728.got - 2010.06.03 13:09:07.
