data_PCOD9185796
_publ_section_title
;
Structure prediction by ZEFSAII (Michael W. Deem and Ramdas Pophale) SiO2 
 PCOD9185796
Probable space group: C 2/M
;
_chemical_formula_sum "Si O2"
_cell_formula_units_Z 58
_cell_length_a 28.806235
_cell_length_b 9.440769
_cell_length_c 9.917224
_cell_angle_alpha 90.000000
_cell_angle_beta 89.810979
_cell_angle_gamma 90.000000
_cell_volume 2697.004245
_symmetry_space_group_name_H-M "C 2/M"
_symmetry_group_IT_number 12
_symmetry_cell_setting 'monoclinic'
loop_
_space_group_symop_operation_xyz
x,y,z
-x,y,-z
-x,-y,-z
x,-y,z
1/2+x,1/2+y,z
1/2-x,1/2+y,-z
1/2-x,1/2-y,-z
1/2+x,1/2-y,z
loop_
_atom_site_type_symbol
_atom_site_label
_atom_site_fract_x
_atom_site_fract_y
_atom_site_fract_z
Si Si1 0.165778 0.162824 0.535915
Si Si2 0.000000 0.000000 0.000000
Si Si3 0.210869 0.838653 0.834062
Si Si4 0.420057 0.164236 0.364502
Si Si5 0.007379 0.156127 0.281968
Si Si6 0.302270 0.166254 0.704158
Si Si7 0.372832 0.162478 0.070685
Si Si8 0.591410 0.835059 0.203624
O O1 0.189966 0.162896 0.682004
O O2 0.119023 0.255609 0.548538
O O3 0.198853 0.236128 0.426927
O O4 0.155614 0.000000 0.500147
O O5 0.003076 0.878984 0.876681
O O6 0.263636 0.789120 0.813330
O O7 0.174793 0.747316 0.918180
O O8 0.210848 0.000000 0.883719
O O9 0.467316 0.251620 0.351245
O O10 0.398467 0.164901 0.213371
O O11 0.425949 0.000000 0.406409
O O12 0.055531 0.240133 0.284249
O O13 0.011434 0.000000 0.344194
O O14 0.355077 0.176041 0.753274
O O15 0.292769 0.000000 0.672805
O O16 0.361520 0.000000 0.036915
O O17 0.406313 0.214711 0.952124
O O18 0.577176 0.000000 0.211864
#
# Coordination Sequence:
#
# PCOD9185796 Si02
#       8
#     8   2   8   8   8   8   8   8
#     4  10  20  35  56  83 111 140 183 235 282 324
#     4   8  20  32  54  80 110 144 174 220 272 314
#     4   9  19  35  55  81 108 142 180 232 282 322
#     4  10  19  34  58  83 110 143 182 228 276 324
#     4  10  20  34  53  81 111 142 180 222 272 321
#     4  10  21  37  56  77 109 148 189 227 273 329
#     4   9  19  33  52  80 110 141 180 224 272 327
#     4  10  21  37  54  77 112 152 186 223 267 331
#
# _framework density 21.505343
#
# number of rings (size 3 to 8) (size 9 to 14) (size 15 to 20)
#    0.414    1.931    0.000    2.483    0.000    3.310 
#    0.000    3.448    0.000    4.138    0.000    0.000 
#    0.000    0.000    0.000    0.000    0.000    0.000 
#
# Total GULP energy -161691.701391 kJ/mol
# GULP energy per Si atom -5575.575910 kJ/mol
# Density = 2.145640 g / cm^3
# Si number density = 21.505343 Si / 1000 Ang^3
#
#
#
# Elastic Constant Matrix: (Units=GPa)
#
#
# Indices 1 2 3 4 5 6 
#
# 1 144.5910 80.0512 8.8564 0.0000 -29.3064 0.0000
# 2 80.0512 113.6063 11.2058 0.0000 -17.4699 0.0000
# 3 8.8564 11.2058 35.8059 0.0000 0.1816 0.0000
# 4 0.0000 0.0000 0.0000 17.1532 0.0000 -12.0718
# 5 -29.3064 -17.4699 0.1816 0.0000 22.6920 0.0000
# 6 0.0000 0.0000 0.0000 -12.0718 0.0000 32.5567
#
#
#
# Elastic Compliance Matrix: (Units=1/GPa)
#
#
# Indices 1 2 3 4 5 6 
#
# 1 0.013596 -0.007689 -0.001016 0.000000 0.011648 0.000000
# 2 -0.007689 0.014704 -0.002707 0.000000 0.001412 0.000000
# 3 -0.001016 -0.002707 0.029045 0.000000 -0.003628 0.000000
# 4 0.000000 0.000000 0.000000 0.078883 0.000000 0.029249
# 5 0.011648 0.001412 -0.003628 0.000000 0.060227 0.000000
# 6 0.000000 0.000000 0.000000 0.029249 0.000000 0.041561
#
#
# Mechanical properties :
#
#
# Convention : Reuss Voigt Hill
#
# Bulk Modulus (GPa) = 28.96703 54.91443 41.94073
# Shear Modulus (GPa) = 18.35891 27.40637 22.88264
#
# Velocity S-wave (km/s) = 2.92497 3.57374 3.26551
# Velocity P-wave (km/s) = 4.99061 6.52836 5.81058
#
# Compressibility (1/GPa) = 0.03452201
#
# Stress axis : x y z
#
# Youngs Moduli (GPa) = 73.55121 68.00688 34.42908
#
# Poissons Ratio (x) = 0.52290 0.03497
# Poissons Ratio (y) = 0.56553 0.09321
# Poissons Ratio (z) = 0.07470 0.18411
#
# Static dielectric constant tensor:
#      x y z
#    x 1.762340 0.000000 0.043300 
#    y 0.000000 1.745290 0.000000 
#    z 0.043300 0.000000 1.818890 
# 
# From -- ./inp_files/180952.got.cif
#   From: 2010.05.17/outbox.cif.g08.bks.cpg/sg12_91_cif.got.tgz:180952.got - 2010.06.03 13:09:07.
