data_PCOD9185219
_publ_section_title
;
Structure prediction by ZEFSAII (Michael W. Deem and Ramdas Pophale) SiO2 
 PCOD9185219
Probable space group: C 2/M
;
_chemical_formula_sum "Si O2"
_cell_formula_units_Z 56
_cell_length_a 8.746691
_cell_length_b 23.107718
_cell_length_c 14.979262
_cell_angle_alpha 90.000000
_cell_angle_beta 130.047030
_cell_angle_gamma 90.000000
_cell_volume 2317.639340
_symmetry_space_group_name_H-M "C 2/M"
_symmetry_group_IT_number 12
_symmetry_cell_setting 'monoclinic'
loop_
_space_group_symop_operation_xyz
x,y,z
-x,y,-z
-x,-y,-z
x,-y,z
1/2+x,1/2+y,z
1/2-x,1/2+y,-z
1/2-x,1/2-y,-z
1/2+x,1/2-y,z
loop_
_atom_site_type_symbol
_atom_site_label
_atom_site_fract_x
_atom_site_fract_y
_atom_site_fract_z
Si Si1 0.330319 0.633795 0.792882
Si Si2 0.863287 0.666181 0.022026
Si Si3 0.826437 0.735744 0.172331
Si Si4 0.266859 0.063495 0.082165
Si Si5 0.594129 0.888624 0.444054
Si Si6 0.487330 0.659933 0.664094
Si Si7 0.772842 0.435981 0.687036
O O1 0.344267 0.694434 0.850761
O O2 0.322192 0.578862 0.854752
O O3 0.454508 0.631866 0.749670
O O4 0.096546 0.640294 0.673855
O O5 0.943332 0.694733 0.144596
O O6 0.713149 0.617316 0.999726
O O7 0.774787 0.716698 0.928742
O O8 0.000000 0.635272 0.000000
O O9 0.942067 0.774599 0.288455
O O10 0.507879 0.066294 0.184769
O O11 0.213854 0.000000 0.031270
O O12 0.500000 0.914807 0.500000
O O13 0.771306 0.844845 0.536612
O O14 0.686368 0.930261 0.403732
O O15 0.639958 0.618013 0.669372
O O16 0.686228 0.500000 0.673682
#
# Coordination Sequence:
#
# PCOD9185219 Si02
#       7
#     8   8   8   8   8   8   8
#     4   9  20  38  57  81 114 153 191 225 281 345
#     4  10  19  34  56  81 108 143 189 233 281 339
#     4  10  21  35  55  81 112 148 187 234 285 339
#     4   9  19  37  59  82 113 150 188 233 283 340
#     4   9  20  37  56  82 115 150 188 228 279 341
#     4  11  21  35  57  83 113 147 189 239 283 327
#     4  10  21  37  58  85 115 149 191 237 282 329
#
# _framework density 24.162517000000001
#
# number of rings (size 3 to 8) (size 9 to 14) (size 15 to 20)
#    0.000    2.286    0.000    2.143    0.000    5.143 
#    0.000    6.429    0.000    0.857    0.000    0.000 
#    0.000    0.000    0.000    0.000    0.000    0.000 
#
# Total GULP energy -156348.972929 kJ/mol
# GULP energy per Si atom -5583.891890 kJ/mol
# Density = 2.410752 g / cm^3
# Si number density = 24.162517 Si / 1000 Ang^3
#
#
#
# Elastic Constant Matrix: (Units=GPa)
#
#
# Indices 1 2 3 4 5 6 
#
# 1 125.1537 34.7388 14.6882 0.0000 -20.7892 0.0000
# 2 34.7388 136.4825 20.1159 0.0000 -17.7794 0.0000
# 3 14.6882 20.1159 59.9611 0.0000 -7.9757 0.0000
# 4 0.0000 0.0000 0.0000 20.6973 0.0000 4.7885
# 5 -20.7892 -17.7794 -7.9757 0.0000 40.1907 0.0000
# 6 0.0000 0.0000 0.0000 4.7885 0.0000 20.5809
#
#
#
# Elastic Compliance Matrix: (Units=1/GPa)
#
#
# Indices 1 2 3 4 5 6 
#
# 1 0.009226 -0.001678 -0.001192 0.000000 0.003793 0.000000
# 2 -0.001678 0.008376 -0.002076 0.000000 0.002425 0.000000
# 3 -0.001192 -0.002076 0.017935 0.000000 0.002024 0.000000
# 4 0.000000 0.000000 0.000000 0.051064 0.000000 -0.011881
# 5 0.003793 0.002425 0.002024 0.000000 0.028318 0.000000
# 6 0.000000 0.000000 0.000000 -0.011881 0.000000 0.051353
#
#
# Mechanical properties :
#
#
# Convention : Reuss Voigt Hill
#
# Bulk Modulus (GPa) = 38.99662 51.18701 45.09182
# Shear Modulus (GPa) = 27.06876 33.09740 30.08308
#
# Velocity S-wave (km/s) = 3.35069 3.70507 3.53233
# Velocity P-wave (km/s) = 5.58067 6.28760 5.94465
#
# Compressibility (1/GPa) = 0.02564325
#
# Stress axis : x y z
#
# Youngs Moduli (GPa) = 108.38831 119.38732 55.75582
#
# Poissons Ratio (x) = 0.20038 0.06648
# Poissons Ratio (y) = 0.18192 0.11577
# Poissons Ratio (z) = 0.12924 0.24789
#
# Static dielectric constant tensor:
#      x y z
#    x 2.055600 0.000000 0.073340 
#    y 0.000000 1.920970 0.000000 
#    z 0.073340 0.000000 2.024670 
# 
# From -- ./inp_files/198995.got.cif
#   From: 2010.05.17/outbox.cif.g08.bks.cpg/sg12_100_cif.got.tgz:198995.got - 2010.06.03 13:09:07.
