data_PCOD9185917
_publ_section_title
;
Structure prediction by ZEFSAII (Michael W. Deem and Ramdas Pophale) SiO2 
 PCOD9185917
Probable space group: C 2/M
;
_chemical_formula_sum "Si O2"
_cell_formula_units_Z 56
_cell_length_a 18.369639
_cell_length_b 13.976829
_cell_length_c 14.756483
_cell_angle_alpha 90.000000
_cell_angle_beta 127.232381
_cell_angle_gamma 90.000000
_cell_volume 3016.531166
_symmetry_space_group_name_H-M "C 2/M"
_symmetry_group_IT_number 12
_symmetry_cell_setting 'monoclinic'
loop_
_space_group_symop_operation_xyz
x,y,z
-x,y,-z
-x,-y,-z
x,-y,z
1/2+x,1/2+y,z
1/2-x,1/2+y,-z
1/2-x,1/2-y,-z
1/2+x,1/2-y,z
loop_
_atom_site_type_symbol
_atom_site_label
_atom_site_fract_x
_atom_site_fract_y
_atom_site_fract_z
Si Si1 0.985926 0.384603 0.627163
Si Si2 0.659552 0.188447 0.027211
Si Si3 0.274012 0.114791 0.733975
Si Si4 0.221751 0.105217 0.040179
Si Si5 0.180531 0.392214 0.692445
Si Si6 0.479952 0.112114 0.833854
Si Si7 0.193002 0.741081 0.549619
O O1 0.966302 0.500000 0.601630
O O2 0.006452 0.371287 0.749095
O O3 0.902753 0.312666 0.543077
O O4 0.076011 0.362513 0.636054
O O5 0.717441 0.164825 0.161174
O O6 0.662816 0.298522 0.998225
O O7 0.704860 0.123234 0.983434
O O8 0.553838 0.161438 0.953231
O O9 0.373616 0.136618 0.765474
O O10 0.198459 0.158986 0.609045
O O11 0.264409 0.000000 0.736613
O O12 0.270545 0.106244 0.174207
O O13 0.178817 0.000000 0.995464
O O14 0.177169 0.500000 0.655218
O O15 0.231880 0.329104 0.657103
O O16 0.486970 0.000000 0.858202
O O17 0.250000 0.750000 0.500000
#
# Coordination Sequence:
#
# PCOD9185917 Si02
#       7
#     8   8   8   8   8   8   8
#     4  10  20  37  62  89 115 146 195 252 298 340
#     4  11  20  35  59  86 118 152 184 236 296 352
#     4  11  23  37  55  84 117 154 195 238 292 355
#     4  10  20  34  57  88 117 147 188 236 287 350
#     4  10  20  38  62  88 115 147 194 247 295 342
#     4  10  19  34  58  86 114 147 191 244 295 347
#     4  12  23  36  55  84 119 154 191 238 298 350
#
# _framework density 18.56437
#
# number of rings (size 3 to 8) (size 9 to 14) (size 15 to 20)
#    0.000    1.429    4.286    2.571    0.000    2.857 
#    0.000    0.000    0.000    6.000    0.000    0.000 
#    0.000    0.000    0.000    0.000    0.000    0.000 
#
# Total GULP energy -156019.417423 kJ/mol
# GULP energy per Si atom -5572.122051 kJ/mol
# Density = 1.852212 g / cm^3
# Si number density = 18.564370 Si / 1000 Ang^3
#
#
#
# Elastic Constant Matrix: (Units=GPa)
#
#
# Indices 1 2 3 4 5 6 
#
# 1 67.2481 30.2945 9.3511 0.0000 -18.8431 0.0000
# 2 30.2945 87.9199 13.0521 0.0000 -5.1211 0.0000
# 3 9.3511 13.0521 57.8647 0.0000 -11.4710 0.0000
# 4 0.0000 0.0000 0.0000 18.6298 0.0000 -2.7913
# 5 -18.8431 -5.1211 -11.4710 0.0000 36.9865 0.0000
# 6 0.0000 0.0000 0.0000 -2.7913 0.0000 15.9257
#
#
#
# Elastic Compliance Matrix: (Units=1/GPa)
#
#
# Indices 1 2 3 4 5 6 
#
# 1 0.020467 -0.006504 0.000051 0.000000 0.009542 0.000000
# 2 -0.006504 0.013861 -0.002506 0.000000 -0.002172 0.000000
# 3 0.000051 -0.002506 0.018939 0.000000 0.005553 0.000000
# 4 0.000000 0.000000 0.000000 0.055125 0.000000 0.009662
# 5 0.009542 -0.002172 0.005553 0.000000 0.033320 0.000000
# 6 0.000000 0.000000 0.000000 0.009662 0.000000 0.064485
#
#
# Mechanical properties :
#
#
# Convention : Reuss Voigt Hill
#
# Bulk Modulus (GPa) = 28.28879 35.38089 31.83484
# Shear Modulus (GPa) = 21.19566 24.99742 23.09654
#
# Velocity S-wave (km/s) = 3.38263 3.67349 3.53105
# Velocity P-wave (km/s) = 5.52517 6.09036 5.81464
#
# Compressibility (1/GPa) = 0.03534969
#
# Stress axis : x y z
#
# Youngs Moduli (GPa) = 48.85913 72.14694 52.79981
#
# Poissons Ratio (x) = 0.46925 -0.00271
# Poissons Ratio (y) = 0.31778 0.13231
# Poissons Ratio (z) = -0.00250 0.18079
#
# Static dielectric constant tensor:
#      x y z
#    x 1.646370 0.000000 -0.007890 
#    y 0.000000 1.673980 0.000000 
#    z -0.007890 0.000000 1.696530 
# 
# From -- ./inp_files/223935.got.cif
#   From: 2010.05.17/outbox.cif.g08.bks.cpg/sg12_112_cif.got.tgz:223935.got - 2010.06.03 13:09:07.
