data_PCOD9185530
_publ_section_title
;
Structure prediction by ZEFSAII (Michael W. Deem and Ramdas Pophale) SiO2 
 PCOD9185530
Probable space group: C 2/M
;
_chemical_formula_sum "Si O2"
_cell_formula_units_Z 64
_cell_length_a 20.372822
_cell_length_b 7.473937
_cell_length_c 30.650376
_cell_angle_alpha 90.000000
_cell_angle_beta 142.854698
_cell_angle_gamma 90.000000
_cell_volume 2818.105029
_symmetry_space_group_name_H-M "C 2/M"
_symmetry_group_IT_number 12
_symmetry_cell_setting 'monoclinic'
loop_
_space_group_symop_operation_xyz
x,y,z
-x,y,-z
-x,-y,-z
x,-y,z
1/2+x,1/2+y,z
1/2-x,1/2+y,-z
1/2-x,1/2-y,-z
1/2+x,1/2-y,z
loop_
_atom_site_type_symbol
_atom_site_label
_atom_site_fract_x
_atom_site_fract_y
_atom_site_fract_z
Si Si1 0.526648 0.217143 0.220424
Si Si2 0.428564 0.705109 0.501058
Si Si3 0.061782 0.781385 0.395245
Si Si4 0.691670 0.709819 0.383847
Si Si5 0.868713 0.291047 0.811989
Si Si6 0.048400 0.217166 0.978842
Si Si7 0.789660 0.707079 0.112831
Si Si8 0.172563 0.217249 0.766560
O O1 0.590063 0.266601 0.297840
O O2 0.593969 0.284181 0.214514
O O3 0.402481 0.284487 0.154648
O O4 0.522171 0.000000 0.216653
O O5 0.500000 0.786517 0.500000
O O6 0.467843 0.500000 0.526389
O O7 0.434929 0.782847 0.553256
O O8 0.300723 0.705128 0.422670
O O9 0.156441 0.718945 0.412686
O O10 0.946908 0.732308 0.312763
O O11 0.067828 0.000000 0.398813
O O12 0.714340 0.500000 0.399626
O O13 0.844821 0.500000 0.791658
O O14 0.968633 0.275976 0.898384
O O15 0.763030 0.217383 0.780328
O O16 0.050170 0.000000 0.980301
O O17 0.171898 0.283515 0.038575
O O18 0.000000 0.274727 0.000000
O O19 0.786994 0.500000 0.097538
O O20 0.800445 0.714680 0.170982
O O21 0.176954 0.000000 0.771151
#
# Coordination Sequence:
#
# PCOD9185530 Si02
#       8
#     8   8   8   8   8   8   8   8
#     4  10  22  39  58  83 114 146 189 235 281 335
#     4  10  22  39  62  87 115 152 189 226 276 332
#     4   9  19  36  58  85 113 146 188 230 275 329
#     4  11  22  38  60  84 116 150 185 230 279 331
#     4  10  22  36  56  84 112 145 187 238 284 330
#     4  10  20  35  55  79 113 151 187 230 283 341
#     4  10  20  36  57  81 111 147 188 233 279 333
#     4  10  19  34  57  82 111 143 185 236 279 325
#
# _framework density 22.710296
#
# number of rings (size 3 to 8) (size 9 to 14) (size 15 to 20)
#    0.000    2.000    2.500    0.750    1.750    2.000 
#    0.000    1.250    0.000    0.000    0.000    0.000 
#    0.000    0.000    0.000    0.000    0.000    0.000 
#
# Total GULP energy -178841.195638 kJ/mol
# GULP energy per Si atom -5588.787364 kJ/mol
# Density = 2.265861 g / cm^3
# Si number density = 22.710296 Si / 1000 Ang^3
#
#
#
# Elastic Constant Matrix: (Units=GPa)
#
#
# Indices 1 2 3 4 5 6 
#
# 1 153.3217 1.7610 19.6084 -0.0001 14.9507 0.0010
# 2 1.7610 69.1035 -10.7440 -0.0002 2.1220 0.0017
# 3 19.6084 -10.7440 54.6862 0.0001 19.1779 0.0003
# 4 -0.0001 -0.0002 0.0001 8.6624 0.0000 -4.7012
# 5 14.9507 2.1220 19.1779 0.0000 41.6650 -0.0002
# 6 0.0010 0.0017 0.0003 -4.7012 -0.0002 18.0100
#
#
#
# Elastic Compliance Matrix: (Units=1/GPa)
#
#
# Indices 1 2 3 4 5 6 
#
# 1 0.006937 -0.000447 -0.002039 0.000000 -0.001528 0.000000
# 2 -0.000447 0.015180 0.004004 -0.000001 -0.002456 -0.000002
# 3 -0.002039 0.004004 0.023395 -0.000001 -0.010241 -0.000001
# 4 0.000000 -0.000001 -0.000001 0.134494 0.000000 0.035107
# 5 -0.001528 -0.002456 -0.010241 0.000000 0.029388 0.000001
# 6 0.000000 -0.000002 -0.000001 0.035107 0.000001 0.064689
#
#
# Mechanical properties :
#
#
# Convention : Reuss Voigt Hill
#
# Bulk Modulus (GPa) = 20.59823 33.15134 26.87478
# Shear Modulus (GPa) = 17.40756 31.43323 24.42039
#
# Velocity S-wave (km/s) = 2.77159 3.72438 3.28273
# Velocity P-wave (km/s) = 4.39681 5.75533 5.12132
#
# Compressibility (1/GPa) = 0.04854787
#
# Stress axis : x y z
#
# Youngs Moduli (GPa) = 144.15099 65.87453 42.74358
#
# Poissons Ratio (x) = 0.02944 0.08717
# Poissons Ratio (y) = 0.06443 -0.17114
# Poissons Ratio (z) = 0.29399 -0.26375
#
# Static dielectric constant tensor:
#      x y z
#    x 1.847060 0.000000 0.019200 
#    y 0.000000 1.863640 0.000000 
#    z 0.019200 0.000000 1.791330 
# 
# From -- ./inp_files/378423.got.cif
#   From: 2010.05.17/outbox.cif.g08.bks.cpg/sg12_190_cif.got.tgz:378423.got - 2010.06.03 13:09:07.
