data_PCOD9185537
_publ_section_title
;
Structure prediction by ZEFSAII (Michael W. Deem and Ramdas Pophale) SiO2 
 PCOD9185537
Probable space group: C 2/M
;
_chemical_formula_sum "Si O2"
_cell_formula_units_Z 56
_cell_length_a 17.410335
_cell_length_b 8.053014
_cell_length_c 17.474241
_cell_angle_alpha 90.000000
_cell_angle_beta 76.277278
_cell_angle_gamma 90.000000
_cell_volume 2380.053088
_symmetry_space_group_name_H-M "C 2/M"
_symmetry_group_IT_number 12
_symmetry_cell_setting 'monoclinic'
loop_
_space_group_symop_operation_xyz
x,y,z
-x,y,-z
-x,-y,-z
x,-y,z
1/2+x,1/2+y,z
1/2-x,1/2+y,-z
1/2-x,1/2-y,-z
1/2+x,1/2-y,z
loop_
_atom_site_type_symbol
_atom_site_label
_atom_site_fract_x
_atom_site_fract_y
_atom_site_fract_z
Si Si1 0.412561 0.813700 0.128341
Si Si2 0.070064 0.698079 0.163311
Si Si3 0.188900 0.190038 0.379324
Si Si4 0.326984 0.312076 0.284773
Si Si5 0.252066 0.197217 0.911576
Si Si6 0.478607 0.309708 0.657848
Si Si7 0.366894 0.698749 0.450732
O O1 0.501565 0.738392 0.119179
O O2 0.379367 0.808415 0.223111
O O3 0.333895 0.745076 0.104126
O O4 0.422960 0.000000 0.096577
O O5 0.072637 0.500000 0.149677
O O6 0.160831 0.763326 0.136616
O O7 0.038434 0.729533 0.256490
O O8 0.234107 0.283158 0.299865
O O9 0.099668 0.181988 0.372349
O O10 0.179295 0.270365 0.466110
O O11 0.220673 0.000000 0.375186
O O12 0.348608 0.500000 0.260077
O O13 0.331293 0.282573 0.374560
O O14 0.255863 0.000000 0.901742
O O15 0.250000 0.250000 0.000000
O O16 0.504595 0.500000 0.669199
O O17 0.545690 0.235224 0.587139
O O18 0.370725 0.500000 0.466789
#
# Coordination Sequence:
#
# PCOD9185537 Si02
#       7
#     8   8   8   8   8   8   8
#     4  11  23  42  67  94 125 166 209 251 303 365
#     4  10  23  42  65  92 127 166 203 250 308 364
#     4  10  20  33  52  78 111 155 203 255 313 369
#     4  11  21  35  55  81 115 154 200 254 306 361
#     4  11  25  46  70 100 134 165 199 244 298 362
#     4  10  19  34  57  82 111 151 203 254 302 362
#     4   9  18  33  52  77 110 151 200 253 307 363
#
# _framework density 23.528887999999998
#
# number of rings (size 3 to 8) (size 9 to 14) (size 15 to 20)
#    0.000    1.714    1.429    3.000    0.000    6.857 
#    0.000    4.286    0.000    1.714    0.000    0.000 
#    0.000    0.000    0.000    0.000    0.000    0.000 
#
# Total GULP energy -155981.737103 kJ/mol
# GULP energy per Si atom -5570.776325 kJ/mol
# Density = 2.347533 g / cm^3
# Si number density = 23.528888 Si / 1000 Ang^3
#
#
#
# Elastic Constant Matrix: (Units=GPa)
#
#
# Indices 1 2 3 4 5 6 
#
# 1 123.9242 10.7381 33.1509 0.0000 13.5263 0.0000
# 2 10.7381 33.6152 -6.4004 0.0000 4.8680 0.0000
# 3 33.1509 -6.4004 49.7923 0.0000 13.3651 0.0000
# 4 0.0000 0.0000 0.0000 23.3081 0.0000 5.5891
# 5 13.5263 4.8680 13.3651 0.0000 28.2097 0.0000
# 6 0.0000 0.0000 0.0000 5.5891 0.0000 19.5942
#
#
#
# Elastic Compliance Matrix: (Units=1/GPa)
#
#
# Indices 1 2 3 4 5 6 
#
# 1 0.010540 -0.004674 -0.007422 0.000000 -0.000731 0.000000
# 2 -0.004674 0.034299 0.009748 0.000000 -0.008296 0.000000
# 3 -0.007422 0.009748 0.029529 0.000000 -0.012114 0.000000
# 4 0.000000 0.000000 0.000000 0.046054 0.000000 -0.013136
# 5 -0.000731 -0.008296 -0.012114 0.000000 0.042970 0.000000
# 6 0.000000 0.000000 0.000000 -0.013136 0.000000 0.054783
#
#
# Mechanical properties :
#
#
# Convention : Reuss Voigt Hill
#
# Bulk Modulus (GPa) = 14.35316 31.36767 22.86042
# Shear Modulus (GPa) = 20.31741 25.54526 22.93133
#
# Velocity S-wave (km/s) = 2.94174 3.29857 3.12525
# Velocity P-wave (km/s) = 4.20142 5.27900 4.77073
#
# Compressibility (1/GPa) = 0.06967106
#
# Stress axis : x y z
#
# Youngs Moduli (GPa) = 94.87998 29.15547 33.86471
#
# Poissons Ratio (x) = 0.13628 0.25134
# Poissons Ratio (y) = 0.44348 -0.33010
# Poissons Ratio (z) = 0.70418 -0.28419
#
# Static dielectric constant tensor:
#      x y z
#    x 2.135500 0.000000 0.005990 
#    y 0.000000 2.155240 0.000000 
#    z 0.005990 0.000000 1.869780 
# 
# From -- ./inp_files/275229.got.cif
#   From: 2010.05.17/outbox.cif.g08.bks.cpg/sg12_138_cif.got.tgz:275229.got - 2010.06.03 13:09:07.
