data_PCOD9185103
_publ_section_title
;
Structure prediction by ZEFSAII (Michael W. Deem and Ramdas Pophale) SiO2 
 PCOD9185103
Probable space group: C 2/M
;
_chemical_formula_sum "Si O2"
_cell_formula_units_Z 64
_cell_length_a 18.459170
_cell_length_b 21.817141
_cell_length_c 18.362201
_cell_angle_alpha 90.000000
_cell_angle_beta 31.243560
_cell_angle_gamma 90.000000
_cell_volume 3835.587301
_symmetry_space_group_name_H-M "C 2/M"
_symmetry_group_IT_number 12
_symmetry_cell_setting 'monoclinic'
loop_
_space_group_symop_operation_xyz
x,y,z
-x,y,-z
-x,-y,-z
x,-y,z
1/2+x,1/2+y,z
1/2-x,1/2+y,-z
1/2-x,1/2-y,-z
1/2+x,1/2-y,z
loop_
_atom_site_type_symbol
_atom_site_label
_atom_site_fract_x
_atom_site_fract_y
_atom_site_fract_z
Si Si1 0.337555 0.620373 0.150784
Si Si2 0.390198 0.176010 0.859579
Si Si3 0.847814 0.195727 0.823897
Si Si4 0.418052 0.928334 0.721428
Si Si5 0.719693 0.072939 0.403379
Si Si6 0.333557 0.221335 0.317971
Si Si7 0.164041 0.266154 0.850783
Si Si8 0.148381 0.841829 0.597520
O O1 0.226730 0.585717 0.195103
O O2 0.288334 0.605715 0.274971
O O3 0.326913 0.692886 0.142844
O O4 0.500000 0.602623 0.000000
O O5 0.385917 0.233075 0.807308
O O6 0.422438 0.114958 0.787919
O O7 0.510939 0.194242 0.811886
O O8 0.247284 0.174501 0.026830
O O9 0.759523 0.197342 0.825786
O O10 0.989911 0.157758 0.705870
O O11 0.554087 0.913465 0.554931
O O12 0.426901 0.000000 0.731801
O O13 0.795034 0.098139 0.411116
O O14 0.735280 0.000000 0.381701
O O15 0.288834 0.224554 0.273046
O O16 0.240987 0.179219 0.449846
O O17 0.337780 0.287879 0.353214
O O18 0.000000 0.282269 0.000000
#
# Coordination Sequence:
#
# PCOD9185103 Si02
#       8
#     8   8   8   8   8   8   8   8
#     4  11  24  36  54  82 118 149 189 225 263 325
#     4  10  19  35  54  80 108 143 183 231 269 326
#     4  10  21  32  55  81 112 140 179 228 284 323
#     4  11  23  39  57  78 110 156 195 223 266 323
#     4  11  23  40  57  76 111 155 191 224 272 329
#     4  10  19  34  56  75 113 141 180 229 276 327
#     4  11  20  34  55  85 112 154 178 217 284 344
#     4  10  21  35  52  85 106 140 185 234 273 318
#
# _framework density 16.685841
#
# number of rings (size 3 to 8) (size 9 to 14) (size 15 to 20)
#    0.000    1.500    5.000    0.750    1.750    2.500 
#    2.250    0.000    0.000    0.000    0.000    5.250 
#    0.000    0.000    0.000    0.000    0.000    0.000 
#
# Total GULP energy -178546.987713 kJ/mol
# GULP energy per Si atom -5579.593366 kJ/mol
# Density = 1.664786 g / cm^3
# Si number density = 16.685841 Si / 1000 Ang^3
#
#
#
# Elastic Constant Matrix: (Units=GPa)
#
#
# Indices 1 2 3 4 5 6 
#
# 1 69.7284 3.2385 7.9315 0.0030 -5.4104 -0.0004
# 2 3.2385 23.3188 11.0064 -0.0010 0.8252 -0.0006
# 3 7.9315 11.0064 45.1838 0.0032 -14.9939 -0.0008
# 4 0.0030 -0.0010 0.0032 13.2607 -0.0028 0.7315
# 5 -5.4104 0.8252 -14.9939 -0.0028 29.5968 0.0006
# 6 -0.0004 -0.0006 -0.0008 0.7315 0.0006 15.3285
#
#
#
# Elastic Compliance Matrix: (Units=1/GPa)
#
#
# Indices 1 2 3 4 5 6 
#
# 1 0.014737 -0.001347 -0.001626 -0.000003 0.001908 0.000000
# 2 -0.001347 0.050568 -0.015184 0.000006 -0.009348 0.000001
# 3 -0.001626 -0.015184 0.031444 -0.000005 0.016056 0.000001
# 4 -0.000003 0.000006 -0.000005 0.075610 0.000004 -0.003608
# 5 0.001908 -0.009348 0.016056 0.000004 0.042531 -0.000001
# 6 0.000000 0.000001 0.000001 -0.003608 -0.000001 0.065410
#
#
# Mechanical properties :
#
#
# Convention : Reuss Voigt Hill
#
# Bulk Modulus (GPa) = 16.54631 20.28710 18.41670
# Shear Modulus (GPa) = 14.84743 19.37416 17.11079
#
# Velocity S-wave (km/s) = 2.98623 3.41121 3.20577
# Velocity P-wave (km/s) = 4.67204 5.26306 4.97633
#
# Compressibility (1/GPa) = 0.06043643
#
# Stress axis : x y z
#
# Youngs Moduli (GPa) = 67.85698 19.77518 31.80272
#
# Poissons Ratio (x) = 0.02663 0.05170
# Poissons Ratio (y) = 0.09139 0.48289
# Poissons Ratio (z) = 0.11031 0.30026
#
# Static dielectric constant tensor:
#      x y z
#    x 1.563540 0.000000 -0.014820 
#    y 0.000000 1.536950 0.000000 
#    z -0.014820 0.000000 1.576890 
# 
# From -- ./inp_files/77532.got.cif
#   From: 2010.05.17/outbox.cif.g08.bks.cpg/sg12_39_cif.got.tgz:77532.got - 2010.06.03 13:09:07.
