data_PCOD9185981
_publ_section_title
;
Structure prediction by ZEFSAII (Michael W. Deem and Ramdas Pophale) SiO2 
 PCOD9185981
Probable space group: C 2/M
;
_chemical_formula_sum "Si O2"
_cell_formula_units_Z 48
_cell_length_a 10.398334
_cell_length_b 14.350905
_cell_length_c 30.054830
_cell_angle_alpha 90.000000
_cell_angle_beta 34.102113
_cell_angle_gamma 90.000000
_cell_volume 2514.573212
_symmetry_space_group_name_H-M "C 2/M"
_symmetry_group_IT_number 12
_symmetry_cell_setting 'monoclinic'
loop_
_space_group_symop_operation_xyz
x,y,z
-x,y,-z
-x,-y,-z
x,-y,z
1/2+x,1/2+y,z
1/2-x,1/2+y,-z
1/2-x,1/2-y,-z
1/2+x,1/2-y,z
loop_
_atom_site_type_symbol
_atom_site_label
_atom_site_fract_x
_atom_site_fract_y
_atom_site_fract_z
Si Si1 0.069696 0.228403 0.870536
Si Si2 0.063140 0.793433 0.612249
Si Si3 0.645634 0.397577 0.678584
Si Si4 0.049431 0.751144 0.770722
Si Si5 0.374262 0.109107 0.988238
Si Si6 0.689039 0.895951 0.538292
O O1 0.993128 0.321071 0.919243
O O2 0.063091 0.249002 0.819868
O O3 0.323022 0.203572 0.815794
O O4 0.884636 0.147811 0.933021
O O5 0.090720 0.830746 0.653722
O O6 0.174220 0.862619 0.544462
O O7 0.188612 0.692904 0.571384
O O8 0.790774 0.785644 0.682412
O O9 0.553449 0.500000 0.695897
O O10 0.545173 0.356422 0.752785
O O11 0.920127 0.402222 0.603284
O O12 0.381897 0.000000 0.973851
O O13 0.500000 0.120114 0.000000
O O14 0.760255 0.000000 0.532782
#
# Coordination Sequence:
#
# PCOD9185981 Si02
#       6
#     8   8   8   8   8   8
#     4  11  22  42  64  93 127 157 194 254 298 360
#     4  10  19  34  58  88 120 157 208 257 305 350
#     4  10  20  35  61  89 116 160 215 254 293 360
#     4  11  22  38  60  90 126 163 193 245 314 355
#     4  10  22  41  69  94 117 162 207 238 291 368
#     4   9  19  35  57  84 116 162 213 257 302 361
#
# _framework density 19.088726999999999
#
# number of rings (size 3 to 8) (size 9 to 14) (size 15 to 20)
#    0.000    1.833    3.333    1.000    0.000    2.667 
#    0.000    3.333    0.000   23.000    0.000    0.000 
#    0.000    0.000    0.000    0.000    0.000    0.000 
#
# Total GULP energy -133859.076910 kJ/mol
# GULP energy per Si atom -5577.461538 kJ/mol
# Density = 1.904528 g / cm^3
# Si number density = 19.088727 Si / 1000 Ang^3
#
#
#
# Elastic Constant Matrix: (Units=GPa)
#
#
# Indices 1 2 3 4 5 6 
#
# 1 89.1962 35.2026 29.5420 -0.0005 20.3855 0.0002
# 2 35.2026 128.1067 26.7729 -0.0011 18.5120 0.0001
# 3 29.5420 26.7729 83.4392 -0.0025 7.4408 0.0000
# 4 -0.0005 -0.0011 -0.0025 4.2245 0.0004 5.2394
# 5 20.3855 18.5120 7.4408 0.0004 26.5754 -0.0001
# 6 0.0002 0.0001 0.0000 5.2394 -0.0001 12.8521
#
#
#
# Elastic Compliance Matrix: (Units=1/GPa)
#
#
# Indices 1 2 3 4 5 6 
#
# 1 0.015478 -0.002075 -0.003984 0.000001 -0.009312 -0.000001
# 2 -0.002075 0.009412 -0.001890 0.000003 -0.004436 -0.000001
# 3 -0.003984 -0.001890 0.013960 0.000014 0.000464 -0.000006
# 4 0.000001 0.000003 0.000014 0.478783 -0.000014 -0.195184
# 5 -0.009312 -0.004436 0.000464 -0.000014 0.047732 0.000007
# 6 -0.000001 -0.000001 -0.000006 -0.195184 0.000007 0.157378
#
#
# Mechanical properties :
#
#
# Convention : Reuss Voigt Hill
#
# Bulk Modulus (GPa) = 43.56734 53.75301 48.66017
# Shear Modulus (GPa) = 6.69980 22.67872 14.68926
#
# Velocity S-wave (km/s) = 1.87548 3.45058 2.77704
# Velocity P-wave (km/s) = 5.25005 6.64048 5.98578
#
# Compressibility (1/GPa) = 0.02295298
#
# Stress axis : x y z
#
# Youngs Moduli (GPa) = 64.60867 106.24630 71.63173
#
# Poissons Ratio (x) = 0.22046 0.28537
# Poissons Ratio (y) = 0.13406 0.13537
# Poissons Ratio (z) = 0.25739 0.20079
#
# Static dielectric constant tensor:
#      x y z
#    x 1.658640 0.000000 -0.021390 
#    y 0.000000 1.685930 0.000000 
#    z -0.021390 0.000000 1.675020 
# 
# From -- ./inp_files/356291.got.cif
#   From: 2010.05.17/outbox.cif.g08.bks.cpg/sg12_179_cif.got.tgz:356291.got - 2010.06.03 13:09:07.
