data_PCOD9185709
_publ_section_title
;
Structure prediction by ZEFSAII (Michael W. Deem and Ramdas Pophale) SiO2 
 PCOD9185709
Probable space group: C 2/M
;
_chemical_formula_sum "Si O2"
_cell_formula_units_Z 64
_cell_length_a 18.863889
_cell_length_b 19.015967
_cell_length_c 10.034330
_cell_angle_alpha 90.000000
_cell_angle_beta 79.332836
_cell_angle_gamma 90.000000
_cell_volume 3537.263375
_symmetry_space_group_name_H-M "C 2/M"
_symmetry_group_IT_number 12
_symmetry_cell_setting 'monoclinic'
loop_
_space_group_symop_operation_xyz
x,y,z
-x,y,-z
-x,-y,-z
x,-y,z
1/2+x,1/2+y,z
1/2-x,1/2+y,-z
1/2-x,1/2-y,-z
1/2+x,1/2-y,z
loop_
_atom_site_type_symbol
_atom_site_label
_atom_site_fract_x
_atom_site_fract_y
_atom_site_fract_z
Si Si1 0.065737 0.855411 0.375826
Si Si2 0.275053 0.576548 0.015331
Si Si3 0.789364 0.420033 0.668177
Si Si4 0.937356 0.113067 0.926671
Si Si5 0.721991 0.814957 0.813873
Si Si6 0.716293 0.418641 0.416134
Si Si7 0.143182 0.286567 0.267527
Si Si8 0.580502 0.221906 0.004781
O O1 0.045483 0.885151 0.236631
O O2 0.134973 0.897484 0.406536
O O3 0.093342 0.775083 0.345458
O O4 0.000000 0.859254 0.500000
O O5 0.247550 0.500000 0.978848
O O6 0.250231 0.585689 0.175634
O O7 0.361064 0.576894 0.975065
O O8 0.248147 0.638759 0.930593
O O9 0.818744 0.500000 0.647723
O O10 0.734177 0.410732 0.565547
O O11 0.846109 0.356306 0.649344
O O12 0.924704 0.194302 0.972772
O O13 0.000000 0.085155 0.000000
O O14 0.733118 0.865577 0.683862
O O15 0.778368 0.750663 0.779983
O O16 0.640464 0.792737 0.871948
O O17 0.728661 0.500000 0.375124
O O18 0.110350 0.306284 0.135215
O O19 0.500000 0.196044 0.000000
#
# Coordination Sequence:
#
# PCOD9185709 Si02
#       8
#     8   8   8   8   8   8   8   8
#     4  10  22  37  55  87 115 156 192 234 283 340
#     4  11  20  34  58  84 111 153 195 237 283 338
#     4  10  22  37  58  83 111 146 189 242 291 339
#     4  10  21  36  53  82 120 152 187 236 287 345
#     4  11  19  35  63  86 111 151 196 240 281 337
#     4  10  22  40  57  83 119 152 192 237 287 339
#     4  10  19  39  59  84 116 149 194 240 284 340
#     4  10  19  34  57  88 116 145 181 237 300 334
#
# _framework density 18.093083
#
# number of rings (size 3 to 8) (size 9 to 14) (size 15 to 20)
#    0.000    1.750    5.000    1.500    1.750    2.500 
#    9.000    0.000    0.000    3.750    0.000    0.000 
#    0.000    0.000    0.000    0.000    0.000    0.000 
#
# Total GULP energy -178547.567451 kJ/mol
# GULP energy per Si atom -5579.611483 kJ/mol
# Density = 1.805190 g / cm^3
# Si number density = 18.093083 Si / 1000 Ang^3
#
#
#
# Elastic Constant Matrix: (Units=GPa)
#
#
# Indices 1 2 3 4 5 6 
#
# 1 69.7068 11.8248 10.6553 0.0000 0.1246 0.0000
# 2 11.8248 70.0067 24.9039 0.0000 22.2917 0.0000
# 3 10.6553 24.9039 56.8105 0.0000 8.5802 0.0000
# 4 0.0000 0.0000 0.0000 10.9258 0.0000 1.2095
# 5 0.1246 22.2917 8.5802 0.0000 20.6164 0.0000
# 6 0.0000 0.0000 0.0000 1.2095 0.0000 10.6006
#
#
#
# Elastic Compliance Matrix: (Units=1/GPa)
#
#
# Indices 1 2 3 4 5 6 
#
# 1 0.015194 -0.003155 -0.002100 0.000000 0.004193 0.000000
# 2 -0.003155 0.024858 -0.006668 0.000000 -0.024084 0.000000
# 3 -0.002100 -0.006668 0.021158 0.000000 -0.001583 0.000000
# 4 0.000000 0.000000 0.000000 0.092697 0.000000 -0.010576
# 5 0.004193 -0.024084 -0.001583 0.000000 0.075179 0.000000
# 6 0.000000 0.000000 0.000000 -0.010576 0.000000 0.095541
#
#
# Mechanical properties :
#
#
# Convention : Reuss Voigt Hill
#
# Bulk Modulus (GPa) = 26.76268 32.36579 29.56423
# Shear Modulus (GPa) = 13.85315 18.37123 16.11219
#
# Velocity S-wave (km/s) = 2.77006 3.18995 2.98739
# Velocity P-wave (km/s) = 5.00547 5.61204 5.31741
#
# Compressibility (1/GPa) = 0.03736547
#
# Stress axis : x y z
#
# Youngs Moduli (GPa) = 65.81333 40.22856 47.26243
#
# Poissons Ratio (x) = 0.12690 0.09927
# Poissons Ratio (y) = 0.20761 0.31514
# Poissons Ratio (z) = 0.13823 0.26824
#
# Static dielectric constant tensor:
#      x y z
#    x 1.609240 0.000000 0.010720 
#    y 0.000000 1.661690 0.000000 
#    z 0.010720 0.000000 1.621890 
# 
# From -- ./inp_files/77504.got.cif
#   From: 2010.05.17/outbox.cif.g08.bks.cpg/sg12_39_cif.got.tgz:77504.got - 2010.06.03 13:09:07.
