data_PCOD9185334
_publ_section_title
;
Structure prediction by ZEFSAII (Michael W. Deem and Ramdas Pophale) SiO2 
 PCOD9185334
Probable space group: C 2/M
;
_chemical_formula_sum "Si O2"
_cell_formula_units_Z 64
_cell_length_a 23.691175
_cell_length_b 11.309082
_cell_length_c 29.661779
_cell_angle_alpha 90.000000
_cell_angle_beta 155.095541
_cell_angle_gamma 90.000000
_cell_volume 3346.593727
_symmetry_space_group_name_H-M "C 2/M"
_symmetry_group_IT_number 12
_symmetry_cell_setting 'monoclinic'
loop_
_space_group_symop_operation_xyz
x,y,z
-x,y,-z
-x,-y,-z
x,-y,z
1/2+x,1/2+y,z
1/2-x,1/2+y,-z
1/2-x,1/2-y,-z
1/2+x,1/2-y,z
loop_
_atom_site_type_symbol
_atom_site_label
_atom_site_fract_x
_atom_site_fract_y
_atom_site_fract_z
Si Si1 0.965610 0.133253 0.682904
Si Si2 0.139267 0.865607 0.485530
Si Si3 0.601550 0.868788 0.889835
Si Si4 0.844109 0.633494 0.371108
Si Si5 0.653393 0.292931 0.312273
Si Si6 0.857080 0.634842 0.919992
Si Si7 0.239556 0.758567 0.915067
Si Si8 0.340425 0.365749 0.307645
O O1 0.103272 0.197561 0.793320
O O2 0.886822 0.186746 0.583323
O O3 0.886890 0.132602 0.672833
O O4 0.999392 0.000000 0.693429
O O5 0.246476 0.802539 0.593986
O O6 0.996175 0.863241 0.406681
O O7 0.184895 0.000000 0.512335
O O8 0.482405 0.771883 0.803101
O O9 0.692476 0.852308 0.910801
O O10 0.544573 0.000000 0.850482
O O11 0.698973 0.844725 0.002441
O O12 0.831534 0.500000 0.341575
O O13 0.737718 0.641635 0.335002
O O14 0.815598 0.750808 0.320595
O O15 0.000000 0.643120 0.500000
O O16 0.844848 0.500000 0.930233
O O17 0.841577 0.733059 0.947522
O O18 0.746659 0.645968 0.800848
O O19 0.000000 0.643282 0.000000
O O20 0.312287 0.500000 0.305946
#
# Coordination Sequence:
#
# PCOD9185334 Si02
#       8
#     8   8   8   8   8   8   8   8
#     4  10  19  34  58  82 109 145 190 242 292 346
#     4  10  19  34  56  84 116 144 184 246 298 341
#     4  10  22  37  58  87 118 153 192 244 300 354
#     4  11  24  42  59  82 122 164 201 241 296 364
#     4  11  22  36  56  84 114 154 196 240 288 357
#     4  10  20  35  61  90 117 149 198 256 300 345
#     4  10  20  37  59  83 115 150 188 240 298 360
#     4  10  21  38  62  89 114 153 203 249 298 349
#
# _framework density 19.123922
#
# number of rings (size 3 to 8) (size 9 to 14) (size 15 to 20)
#    0.000    1.750    2.500    2.250    1.750    1.250 
#    0.000    1.250    0.000    1.500    0.000    0.000 
#    0.000    0.000    0.000    0.000    0.000    0.000 
#
# Total GULP energy -178280.305351 kJ/mol
# GULP energy per Si atom -5571.259542 kJ/mol
# Density = 1.908040 g / cm^3
# Si number density = 19.123922 Si / 1000 Ang^3
#
#
#
# Elastic Constant Matrix: (Units=GPa)
#
#
# Indices 1 2 3 4 5 6 
#
# 1 83.2201 28.4071 9.8421 -0.0010 5.3236 -0.0002
# 2 28.4071 85.3743 19.8301 0.0023 -11.6803 -0.0004
# 3 9.8421 19.8301 59.2305 0.0037 -2.9521 -0.0005
# 4 -0.0010 0.0023 0.0037 11.7130 0.0004 -10.1519
# 5 5.3236 -11.6803 -2.9521 0.0004 27.5165 -0.0003
# 6 -0.0002 -0.0004 -0.0005 -10.1519 -0.0003 7.0959
#
#
#
# Elastic Compliance Matrix: (Units=1/GPa)
#
#
# Indices 1 2 3 4 5 6 
#
# 1 0.014226 -0.005225 -0.000867 -0.000011 -0.005063 -0.000015
# 2 -0.005225 0.015331 -0.003911 0.000008 0.007099 0.000012
# 3 -0.000867 -0.003911 0.018360 0.000017 0.000477 0.000026
# 4 -0.000011 0.000008 0.000017 -0.355746 0.000007 -0.508954
# 5 -0.005063 0.007099 0.000477 0.000007 0.040386 0.000011
# 6 -0.000015 0.000012 0.000026 -0.508954 0.000011 -0.587218
#
#
# Mechanical properties :
#
#
# Convention : Reuss Voigt Hill
#
# Bulk Modulus (GPa) = 35.82629 38.22038 37.02334
# Shear Modulus (GPa) = -6.05804 20.58146 7.26171
#
# Velocity S-wave (km/s) = -1.78176 3.28413 1.95075
# Velocity P-wave (km/s) = 3.81334 5.86598 4.94729
#
# Compressibility (1/GPa) = 0.02791246
#
# Stress axis : x y z
#
# Youngs Moduli (GPa) = 70.29248 65.22616 54.46515
#
# Poissons Ratio (x) = 0.34080 0.04722
# Poissons Ratio (y) = 0.36727 0.21300
# Poissons Ratio (z) = 0.06094 0.25509
#
# Static dielectric constant tensor:
#      x y z
#    x 1.716770 0.000000 0.010360 
#    y 0.000000 1.693230 0.000000 
#    z 0.010360 0.000000 1.652770 
# 
# From -- ./inp_files/366043.got.cif
#   From: 2010.05.17/outbox.cif.g08.bks.cpg/sg12_184_cif.got.tgz:366043.got - 2010.06.03 13:09:07.
