data_PCOD9185559
_publ_section_title
;
Structure prediction by ZEFSAII (Michael W. Deem and Ramdas Pophale) SiO2 
 PCOD9185559
Probable space group: C 2/M
;
_chemical_formula_sum "Si O2"
_cell_formula_units_Z 40
_cell_length_a 23.324932
_cell_length_b 8.667311
_cell_length_c 11.739477
_cell_angle_alpha 90.000000
_cell_angle_beta 72.099058
_cell_angle_gamma 90.000000
_cell_volume 2258.411564
_symmetry_space_group_name_H-M "C 2/M"
_symmetry_group_IT_number 12
_symmetry_cell_setting 'monoclinic'
loop_
_space_group_symop_operation_xyz
x,y,z
-x,y,-z
-x,-y,-z
x,-y,z
1/2+x,1/2+y,z
1/2-x,1/2+y,-z
1/2-x,1/2-y,-z
1/2+x,1/2-y,z
loop_
_atom_site_type_symbol
_atom_site_label
_atom_site_fract_x
_atom_site_fract_y
_atom_site_fract_z
Si Si1 0.052749 0.816297 0.324306
Si Si2 0.216602 0.814594 0.855377
Si Si3 0.844133 0.316225 0.889256
Si Si4 0.305585 0.685540 0.393413
Si Si5 0.423326 0.184532 0.442428
O O1 0.097989 0.767299 0.197334
O O2 0.078427 0.751074 0.428090
O O3 0.986559 0.743031 0.352388
O O4 0.047418 0.000000 0.335271
O O5 0.285073 0.774832 0.849804
O O6 0.203346 0.772289 0.733619
O O7 0.210727 0.000000 0.870779
O O8 0.172833 0.734622 0.972915
O O9 0.852485 0.500000 0.877951
O O10 0.306592 0.500000 0.400818
O O11 0.250000 0.750000 0.500000
O O12 0.367026 0.753757 0.405997
O O13 0.422768 0.000000 0.448229
#
# Coordination Sequence:
#
# PCOD9185559 Si02
#       5
#     8   8   8   8   8
#     4  11  21  36  58  82 109 143 183 224 272 327
#     4   9  20  36  54  79 111 145 181 222 267 320
#     4  10  19  34  57  83 110 142 181 224 271 321
#     4  11  22  37  57  82 113 147 183 223 272 325
#     4  11  22  37  56  81 112 143 182 228 273 322
#
# _framework density 17.711563999999999
#
# number of rings (size 3 to 8) (size 9 to 14) (size 15 to 20)
#    0.000    1.600    0.000    7.200    0.000    4.000 
#    0.000    1.000    0.000    6.000    0.000    0.000 
#    0.000    0.000    0.000    0.000    0.000    0.000 
#
# Total GULP energy -111779.059072 kJ/mol
# GULP energy per Si atom -5588.952954 kJ/mol
# Density = 1.767125 g / cm^3
# Si number density = 17.711564 Si / 1000 Ang^3
#
#
#
# Elastic Constant Matrix: (Units=GPa)
#
#
# Indices 1 2 3 4 5 6 
#
# 1 115.3464 49.6856 87.7223 0.0000 10.1757 0.0000
# 2 49.6856 98.4517 56.4030 0.0000 2.2777 0.0000
# 3 87.7223 56.4030 124.8616 0.0000 -5.5725 0.0000
# 4 0.0000 0.0000 0.0000 32.0023 0.0000 -4.8124
# 5 10.1757 2.2777 -5.5725 0.0000 25.0649 0.0000
# 6 0.0000 0.0000 0.0000 -4.8124 0.0000 30.4775
#
#
#
# Elastic Compliance Matrix: (Units=1/GPa)
#
#
# Indices 1 2 3 4 5 6 
#
# 1 0.022238 -0.002265 -0.015144 0.000000 -0.012189 0.000000
# 2 -0.002265 0.014111 -0.004847 0.000000 -0.001441 0.000000
# 3 -0.015144 -0.004847 0.021344 0.000000 0.011334 0.000000
# 4 0.000000 0.000000 0.000000 0.032008 0.000000 0.005054
# 5 -0.012189 -0.001441 0.011334 0.000000 0.047496 0.000000
# 6 0.000000 0.000000 0.000000 0.005054 0.000000 0.033609
#
#
# Mechanical properties :
#
#
# Convention : Reuss Voigt Hill
#
# Bulk Modulus (GPa) = 75.87320 80.69794 78.28557
# Shear Modulus (GPa) = 22.75725 27.16553 24.96139
#
# Velocity S-wave (km/s) = 3.58841 3.92059 3.75817
# Velocity P-wave (km/s) = 7.75243 8.13363 7.94532
#
# Compressibility (1/GPa) = 0.01317988
#
# Stress axis : x y z
#
# Youngs Moduli (GPa) = 44.96874 70.86919 46.85152
#
# Poissons Ratio (x) = 0.16049 0.70953
# Poissons Ratio (y) = 0.10183 0.22711
# Poissons Ratio (z) = 0.68102 0.34353
#
# Static dielectric constant tensor:
#      x y z
#    x 1.580920 0.000000 0.000330 
#    y 0.000000 1.591440 0.000000 
#    z 0.000330 0.000000 1.581690 
# 
# From -- ./inp_files/162393.got.cif
#   From: 2010.05.17/outbox.cif.g08.bks.cpg/sg12_82_cif.got.tgz:162393.got - 2010.06.03 13:09:07.
