data_PCOD9185464
_publ_section_title
;
Structure prediction by ZEFSAII (Michael W. Deem and Ramdas Pophale) SiO2 
 PCOD9185464
Probable space group: C 2/M
;
_chemical_formula_sum "Si O2"
_cell_formula_units_Z 56
_cell_length_a 31.808813
_cell_length_b 8.765416
_cell_length_c 12.283581
_cell_angle_alpha 90.000000
_cell_angle_beta 62.957969
_cell_angle_gamma 90.000000
_cell_volume 3050.446388
_symmetry_space_group_name_H-M "C 2/M"
_symmetry_group_IT_number 12
_symmetry_cell_setting 'monoclinic'
loop_
_space_group_symop_operation_xyz
x,y,z
-x,y,-z
-x,-y,-z
x,-y,z
1/2+x,1/2+y,z
1/2-x,1/2+y,-z
1/2-x,1/2-y,-z
1/2+x,1/2-y,z
loop_
_atom_site_type_symbol
_atom_site_label
_atom_site_fract_x
_atom_site_fract_y
_atom_site_fract_z
Si Si1 0.211323 0.817539 0.193006
Si Si2 0.396833 0.183501 0.065140
Si Si3 0.867131 0.317679 0.567494
Si Si4 0.949027 0.821422 0.617356
Si Si5 0.312481 0.317580 0.022957
Si Si6 0.587263 0.814047 0.710081
Si Si7 0.521301 0.816479 0.191449
O O1 0.179687 0.755966 0.327975
O O2 0.263560 0.747946 0.127597
O O3 0.214459 0.000000 0.193569
O O4 0.186929 0.774541 0.105954
O O5 0.356392 0.253666 0.037833
O O6 0.395437 0.236390 0.191710
O O7 0.391429 0.000000 0.070367
O O8 0.447560 0.217605 0.951390
O O9 0.862510 0.500000 0.573202
O O10 0.910346 0.269597 0.594553
O O11 0.881011 0.266124 0.429378
O O12 0.954701 0.759773 0.732457
O O13 0.000000 0.804913 0.500000
O O14 0.936036 0.000000 0.633652
O O15 0.311856 0.500000 0.029749
O O16 0.532948 0.766289 0.755579
O O17 0.586887 0.000000 0.711486
O O18 0.521437 0.000000 0.206569
#
# Coordination Sequence:
#
# PCOD9185464 Si02
#       7
#     8   8   8   8   8   8   8
#     4  10  21  38  61  86 113 140 174 223 278 330
#     4  10  20  35  57  82 109 144 186 229 275 322
#     4  11  21  35  57  82 112 147 185 224 271 327
#     4  11  22  34  50  76 112 147 181 225 273 320
#     4  10  21  38  59  84 112 140 178 225 274 327
#     4   9  19  35  54  79 111 147 187 229 267 318
#     4  10  19  34  57  81 107 145 190 231 273 322
#
# _framework density 18.357969000000001
#
# number of rings (size 3 to 8) (size 9 to 14) (size 15 to 20)
#    0.000    1.857    1.429    3.000    0.000    6.857 
#    0.000    2.857    0.000    1.714    0.000    0.000 
#    0.000    0.000    0.000    0.000    0.000    0.000 
#
# Total GULP energy -156411.243300 kJ/mol
# GULP energy per Si atom -5586.115832 kJ/mol
# Density = 1.831619 g / cm^3
# Si number density = 18.357969 Si / 1000 Ang^3
#
#
#
# Elastic Constant Matrix: (Units=GPa)
#
#
# Indices 1 2 3 4 5 6 
#
# 1 52.5853 15.0316 54.1139 0.0000 -1.1305 0.0000
# 2 15.0316 24.6302 40.5459 0.0000 -3.6413 0.0000
# 3 54.1139 40.5459 157.5857 0.0000 -5.1743 0.0000
# 4 0.0000 0.0000 0.0000 23.8402 0.0000 -7.2240
# 5 -1.1305 -3.6413 -5.1743 0.0000 21.3653 0.0000
# 6 0.0000 0.0000 0.0000 -7.2240 0.0000 22.2957
#
#
#
# Elastic Compliance Matrix: (Units=1/GPa)
#
#
# Indices 1 2 3 4 5 6 
#
# 1 0.029513 -0.002495 -0.009531 0.000000 -0.001172 0.000000
# 2 -0.002495 0.071915 -0.017387 0.000000 0.007914 0.000000
# 3 -0.009531 -0.017387 0.014090 0.000000 -0.000055 0.000000
# 4 0.000000 0.000000 0.000000 0.046512 0.000000 0.015070
# 5 -0.001172 0.007914 -0.000055 0.000000 0.048078 0.000000
# 6 0.000000 0.000000 0.000000 0.015070 0.000000 0.049735
#
#
# Mechanical properties :
#
#
# Convention : Reuss Voigt Hill
#
# Bulk Modulus (GPa) = 17.63885 50.46489 34.05187
# Shear Modulus (GPa) = 14.81190 21.84089 18.32639
#
# Velocity S-wave (km/s) = 2.84357 3.45298 3.16298
# Velocity P-wave (km/s) = 4.51778 6.59139 5.65052
#
# Compressibility (1/GPa) = 0.05669305
#
# Stress axis : x y z
#
# Youngs Moduli (GPa) = 33.88355 13.90532 70.97014
#
# Poissons Ratio (x) = 0.03469 0.67643
# Poissons Ratio (y) = 0.08452 1.23395
# Poissons Ratio (z) = 0.32295 0.24177
#
# Static dielectric constant tensor:
#      x y z
#    x 1.597710 0.000000 -0.002750 
#    y 0.000000 1.617420 0.000000 
#    z -0.002750 0.000000 1.637200 
# 
# From -- ./inp_files/180850.got.cif
#   From: 2010.05.17/outbox.cif.g08.bks.cpg/sg12_91_cif.got.tgz:180850.got - 2010.06.03 13:09:07.
