data_PCOD9185053
_publ_section_title
;
Structure prediction by ZEFSAII (Michael W. Deem and Ramdas Pophale) SiO2 
 PCOD9185053
Probable space group: C 2/M
;
_chemical_formula_sum "Si O2"
_cell_formula_units_Z 48
_cell_length_a 12.985804
_cell_length_b 22.121036
_cell_length_c 16.795235
_cell_angle_alpha 90.000000
_cell_angle_beta 157.282362
_cell_angle_gamma 90.000000
_cell_volume 1863.208414
_symmetry_space_group_name_H-M "C 2/M"
_symmetry_group_IT_number 12
_symmetry_cell_setting 'monoclinic'
loop_
_space_group_symop_operation_xyz
x,y,z
-x,y,-z
-x,-y,-z
x,-y,z
1/2+x,1/2+y,z
1/2-x,1/2+y,-z
1/2-x,1/2-y,-z
1/2+x,1/2-y,z
loop_
_atom_site_type_symbol
_atom_site_label
_atom_site_fract_x
_atom_site_fract_y
_atom_site_fract_z
Si Si1 0.494229 0.152169 0.152956
Si Si2 0.698697 0.746872 0.718519
Si Si3 0.675453 0.336453 0.459940
Si Si4 0.593666 0.569589 0.938504
Si Si5 0.154229 0.380772 0.717906
Si Si6 0.221845 0.067987 0.752983
O O1 0.555105 0.204073 0.131966
O O2 0.596644 0.174893 0.310668
O O3 0.211886 0.119466 0.962077
O O4 0.697095 0.099220 0.271505
O O5 0.500000 0.744337 0.500000
O O6 0.526282 0.719313 0.668795
O O7 0.783065 0.814931 0.793595
O O8 0.494074 0.392360 0.356730
O O9 0.848304 0.358931 0.508508
O O10 0.643926 0.500000 0.949800
O O11 0.755663 0.585346 0.136304
O O12 0.286101 0.578615 0.743436
O O13 0.133154 0.000000 0.681400
O O14 0.500000 0.069456 0.000000
#
# Coordination Sequence:
#
# PCOD9185053 Si02
#       6
#     8   8   8   8   8   8
#     4   9  19  37  60  83 107 152 193 237 285 331
#     4   9  18  35  55  81 114 143 189 239 283 338
#     4   9  19  35  57  81 108 151 193 234 279 343
#     4  10  21  37  58  84 116 149 195 244 271 324
#     4  10  19  34  55  83 113 149 186 231 285 331
#     4  10  20  34  52  81 116 146 187 246 295 333
#
# _framework density 25.762013
#
# number of rings (size 3 to 8) (size 9 to 14) (size 15 to 20)
#    0.000    2.500    0.000    3.500    0.000    5.333 
#   15.000    0.000    0.000    2.000    0.000    0.000 
#    0.000    0.000    0.000    0.000    0.000    0.000 
#
# Total GULP energy -134094.428894 kJ/mol
# GULP energy per Si atom -5587.267871 kJ/mol
# Density = 2.570338 g / cm^3
# Si number density = 25.762013 Si / 1000 Ang^3
#
#
#
# Elastic Constant Matrix: (Units=GPa)
#
#
# Indices 1 2 3 4 5 6 
#
# 1 95.9820 17.2683 44.7157 0.0012 23.6252 -0.0067
# 2 17.2683 141.3362 17.6120 0.0022 12.7704 0.0005
# 3 44.7157 17.6120 108.1814 -0.0017 10.6054 0.0106
# 4 0.0012 0.0022 -0.0017 2.0320 0.0014 9.7342
# 5 23.6252 12.7704 10.6054 0.0014 49.7959 0.0199
# 6 -0.0067 0.0005 0.0106 9.7342 0.0199 -3.7287
#
#
#
# Elastic Compliance Matrix: (Units=1/GPa)
#
#
# Indices 1 2 3 4 5 6 
#
# 1 0.014353 -0.000594 -0.005294 0.000024 -0.005530 -0.000007
# 2 -0.000594 0.007379 -0.000815 0.000002 -0.001437 -0.000002
# 3 -0.005294 -0.000815 0.011539 -0.000014 0.000263 0.000006
# 4 0.000024 0.000002 -0.000014 0.036437 -0.000048 0.095124
# 5 -0.005530 -0.001437 0.000263 -0.000048 0.023018 0.000008
# 6 -0.000007 -0.000002 0.000006 0.095124 0.000008 -0.019857
#
#
# Mechanical properties :
#
#
# Convention : Reuss Voigt Hill
#
# Bulk Modulus (GPa) = 50.33959 56.07685 53.20822
# Shear Modulus (GPa) = 53.82336 27.34675 40.58506
#
# Velocity S-wave (km/s) = 4.57579 3.26162 3.97342
# Velocity P-wave (km/s) = 6.89201 5.99990 6.46137
#
# Compressibility (1/GPa) = 0.01986508
#
# Stress axis : x y z
#
# Youngs Moduli (GPa) = 69.67241 135.51399 86.66473
#
# Poissons Ratio (x) = 0.08054 0.45878
# Poissons Ratio (y) = 0.04141 0.07062
# Poissons Ratio (z) = 0.36883 0.11042
#
# Static dielectric constant tensor:
#      x y z
#    x 2.068110 0.000000 -0.016900 
#    y 0.000000 1.956260 -0.000010 
#    z -0.016900 -0.000010 2.041120 
# 
# From -- ./inp_files/312512.got.cif
#   From: 2010.05.17/outbox.cif.g08.bks.cpg/sg12_157_cif.got.tgz:312512.got - 2010.06.03 13:09:07.
