data_PCOD9185749
_publ_section_title
;
Structure prediction by ZEFSAII (Michael W. Deem and Ramdas Pophale) SiO2 
 PCOD9185749
Probable space group: C 2/M
;
_chemical_formula_sum "Si O2"
_cell_formula_units_Z 40
_cell_length_a 24.395436
_cell_length_b 7.310711
_cell_length_c 17.767993
_cell_angle_alpha 90.000000
_cell_angle_beta 148.120779
_cell_angle_gamma 90.000000
_cell_volume 1673.584905
_symmetry_space_group_name_H-M "C 2/M"
_symmetry_group_IT_number 12
_symmetry_cell_setting 'monoclinic'
loop_
_space_group_symop_operation_xyz
x,y,z
-x,y,-z
-x,-y,-z
x,-y,z
1/2+x,1/2+y,z
1/2-x,1/2+y,-z
1/2-x,1/2-y,-z
1/2+x,1/2-y,z
loop_
_atom_site_type_symbol
_atom_site_label
_atom_site_fract_x
_atom_site_fract_y
_atom_site_fract_z
Si Si1 0.844758 0.782796 0.165637
Si Si2 0.468421 0.723918 0.719515
Si Si3 0.379778 0.722209 0.368668
Si Si4 0.274039 0.278219 0.400838
Si Si5 0.466981 0.708320 0.881508
O O1 0.826719 0.716022 0.229247
O O2 0.949443 0.715501 0.247542
O O3 0.859352 0.000000 0.189846
O O4 0.750000 0.750000 0.000000
O O5 0.468988 0.500000 0.721908
O O6 0.353248 0.778261 0.559086
O O7 0.500291 0.788277 0.839833
O O8 0.500000 0.775319 0.500000
O O9 0.378329 0.500000 0.371137
O O10 0.325520 0.781606 0.381915
O O11 0.268438 0.500000 0.395115
O O12 0.157618 0.207724 0.269293
O O13 0.507504 0.500000 0.930271
O O14 0.500000 0.792321 0.000000
#
# Coordination Sequence:
#
# PCOD9185749 Si02
#       5
#     8   8   8   8   8
#     4  10  20  34  54  79 107 136 168 209 257 308
#     4   9  18  35  56  75 100 139 178 208 250 308
#     4   9  16  31  55  80 102 130 170 212 254 304
#     4  10  19  34  58  80  99 130 176 221 254 293
#     4  10  22  37  52  74 106 141 172 206 256 312
#
# _framework density 23.900790000000001
#
# number of rings (size 3 to 8) (size 9 to 14) (size 15 to 20)
#    0.000    2.400    2.000    0.600    2.800    0.400 
#    0.000    2.000    0.000    1.200    0.000    0.000 
#    0.000    0.000    0.000    0.000    0.000    0.000 
#
# Total GULP energy -111786.065516 kJ/mol
# GULP energy per Si atom -5589.303276 kJ/mol
# Density = 2.384639 g / cm^3
# Si number density = 23.900790 Si / 1000 Ang^3
#
#
#
# Elastic Constant Matrix: (Units=GPa)
#
#
# Indices 1 2 3 4 5 6 
#
# 1 81.0445 -0.6347 5.1425 0.0000 -34.4019 0.0000
# 2 -0.6347 99.4965 -8.2528 0.0000 -7.8492 0.0000
# 3 5.1425 -8.2528 103.6312 0.0000 -34.6212 0.0000
# 4 0.0000 0.0000 0.0000 12.6802 0.0000 12.4582
# 5 -34.4019 -7.8492 -34.6212 0.0000 54.9984 0.0000
# 6 0.0000 0.0000 0.0000 12.4582 0.0000 -9.1540
#
#
#
# Elastic Compliance Matrix: (Units=1/GPa)
#
#
# Indices 1 2 3 4 5 6 
#
# 1 0.018020 0.001536 0.003884 0.000000 0.013936 0.000000
# 2 0.001536 0.010521 0.002006 0.000000 0.003725 0.000000
# 3 0.003884 0.002006 0.013327 0.000000 0.011105 0.000000
# 4 0.000000 0.000000 0.000000 0.033744 0.000000 0.045923
# 5 0.013936 0.003725 0.011105 0.000000 0.034421 0.000000
# 6 0.000000 0.000000 0.000000 0.045923 0.000000 -0.046742
#
#
# Mechanical properties :
#
#
# Convention : Reuss Voigt Hill
#
# Bulk Modulus (GPa) = 17.63039 30.74246 24.18642
# Shear Modulus (GPa) = 74.24573 30.89940 52.57257
#
# Velocity S-wave (km/s) = 5.57957 3.59948 4.69509
# Velocity P-wave (km/s) = 6.99294 5.49231 6.28756
#
# Compressibility (1/GPa) = 0.05672023
#
# Stress axis : x y z
#
# Youngs Moduli (GPa) = 55.49399 95.05060 75.03843
#
# Poissons Ratio (x) = -0.14604 -0.29144
# Poissons Ratio (y) = -0.08527 -0.15054
# Poissons Ratio (z) = -0.21553 -0.19069
#
# Static dielectric constant tensor:
#      x y z
#    x 1.651340 0.000000 0.196120 
#    y 0.000000 1.918560 0.000000 
#    z 0.196120 0.000000 1.630140 
# 
# From -- ./inp_files/71404.got.cif
#   From: 2010.05.17/outbox.cif.g08.bks.cpg/sg12_36_cif.got.tgz:71404.got - 2010.06.03 13:09:07.
