data_PCOD9185469
_publ_section_title
;
Structure prediction by ZEFSAII (Michael W. Deem and Ramdas Pophale) SiO2 
 PCOD9185469
Probable space group: C 2/M
;
_chemical_formula_sum "Si O2"
_cell_formula_units_Z 56
_cell_length_a 21.547842
_cell_length_b 7.768353
_cell_length_c 18.954122
_cell_angle_alpha 90.000000
_cell_angle_beta 122.241519
_cell_angle_gamma 90.000000
_cell_volume 2683.536940
_symmetry_space_group_name_H-M "C 2/M"
_symmetry_group_IT_number 12
_symmetry_cell_setting 'monoclinic'
loop_
_space_group_symop_operation_xyz
x,y,z
-x,y,-z
-x,-y,-z
x,-y,z
1/2+x,1/2+y,z
1/2-x,1/2+y,-z
1/2-x,1/2-y,-z
1/2+x,1/2-y,z
loop_
_atom_site_type_symbol
_atom_site_label
_atom_site_fract_x
_atom_site_fract_y
_atom_site_fract_z
Si Si1 0.234513 0.290687 0.382918
Si Si2 0.081306 0.711491 0.025539
Si Si3 0.301027 0.198981 0.791745
Si Si4 0.151548 0.298217 0.769636
Si Si5 0.336000 0.793091 0.064388
Si Si6 0.369669 0.201831 0.552206
Si Si7 0.979098 0.803672 0.410847
O O1 0.238115 0.500000 0.385061
O O2 0.208854 0.224983 0.291769
O O3 0.314889 0.226350 0.453113
O O4 0.177538 0.238294 0.409223
O O5 0.082229 0.500000 0.024535
O O6 0.138628 0.773132 0.119442
O O7 0.112650 0.769758 0.968625
O O8 0.000000 0.763121 0.000000
O O9 0.222558 0.205626 0.781692
O O10 0.322366 0.000000 0.793468
O O11 0.169918 0.500000 0.784899
O O12 0.139082 0.235496 0.842369
O O13 0.083814 0.277786 0.675267
O O14 0.341169 0.000000 0.066388
O O15 0.250000 0.750000 0.000000
O O16 0.445139 0.297970 0.586039
O O17 0.386098 0.000000 0.570914
O O18 0.000000 0.724696 0.500000
O O19 0.955059 0.000000 0.409908
#
# Coordination Sequence:
#
# PCOD9185469 Si02
#       7
#     8   8   8   8   8   8   8
#     4   9  19  34  54  80 109 146 188 228 277 341
#     4   9  18  33  56  84 111 144 188 235 280 330
#     4  10  19  34  57  81 108 146 190 232 276 336
#     4  11  23  36  56  86 115 148 189 237 290 342
#     4  10  20  36  59  85 114 149 189 236 285 341
#     4  10  20  35  55  80 111 145 182 232 286 336
#     4  11  24  40  57  79 111 149 191 237 282 339
#
# _framework density 20.867982999999999
#
# number of rings (size 3 to 8) (size 9 to 14) (size 15 to 20)
#    0.000    2.000    1.429    2.143    0.000    7.429 
#    0.000    4.286    0.000    1.714    0.000    0.000 
#    0.000    0.000    0.000    0.000    0.000    0.000 
#
# Total GULP energy -156346.811757 kJ/mol
# GULP energy per Si atom -5583.814706 kJ/mol
# Density = 2.082049 g / cm^3
# Si number density = 20.867983 Si / 1000 Ang^3
#
#
#
# Elastic Constant Matrix: (Units=GPa)
#
#
# Indices 1 2 3 4 5 6 
#
# 1 115.4537 -9.4877 70.5952 0.0000 5.9131 0.0000
# 2 -9.4877 30.9413 -0.2219 0.0000 -3.5627 0.0000
# 3 70.5952 -0.2219 177.5581 0.0000 -9.9681 0.0000
# 4 0.0000 0.0000 0.0000 35.6939 0.0000 6.8123
# 5 5.9131 -3.5627 -9.9681 0.0000 33.1427 0.0000
# 6 0.0000 0.0000 0.0000 6.8123 0.0000 21.5222
#
#
#
# Elastic Compliance Matrix: (Units=1/GPa)
#
#
# Indices 1 2 3 4 5 6 
#
# 1 0.012176 0.003314 -0.005024 0.000000 -0.003327 0.000000
# 2 0.003314 0.033637 -0.001125 0.000000 0.002686 0.000000
# 3 -0.005024 -0.001125 0.007803 0.000000 0.003122 0.000000
# 4 0.000000 0.000000 0.000000 0.029817 0.000000 -0.009438
# 5 -0.003327 0.002686 0.003122 0.000000 0.031994 0.000000
# 6 0.000000 0.000000 0.000000 -0.009438 0.000000 0.049451
#
#
# Mechanical properties :
#
#
# Convention : Reuss Voigt Hill
#
# Bulk Modulus (GPa) = 20.85608 49.52493 35.19051
# Shear Modulus (GPa) = 26.80545 35.60959 31.20752
#
# Velocity S-wave (km/s) = 3.58792 4.13537 3.87133
# Velocity P-wave (km/s) = 5.21346 6.82537 6.07313
#
# Compressibility (1/GPa) = 0.04794765
#
# Stress axis : x y z
#
# Youngs Moduli (GPa) = 82.12850 29.72936 128.15236
#
# Poissons Ratio (x) = -0.09854 0.64380
# Poissons Ratio (y) = -0.27221 0.14417
# Poissons Ratio (z) = 0.41259 0.03344
#
# Static dielectric constant tensor:
#      x y z
#    x 1.712230 0.000000 -0.035580 
#    y 0.000000 1.788980 0.000000 
#    z -0.035580 0.000000 1.753900 
# 
# From -- ./inp_files/281041.got.cif
#   From: 2010.05.17/outbox.cif.g08.bks.cpg/sg12_141_cif.got.tgz:281041.got - 2010.06.03 13:09:07.
