data_PCOD9185435
_publ_section_title
;
Structure prediction by ZEFSAII (Michael W. Deem and Ramdas Pophale) SiO2 
 PCOD9185435
Probable space group: C 2/M
;
_chemical_formula_sum "Si O2"
_cell_formula_units_Z 44
_cell_length_a 12.528082
_cell_length_b 13.010548
_cell_length_c 19.336973
_cell_angle_alpha 90.000000
_cell_angle_beta 137.351589
_cell_angle_gamma 90.000000
_cell_volume 2135.386435
_symmetry_space_group_name_H-M "C 2/M"
_symmetry_group_IT_number 12
_symmetry_cell_setting 'monoclinic'
loop_
_space_group_symop_operation_xyz
x,y,z
-x,y,-z
-x,-y,-z
x,-y,z
1/2+x,1/2+y,z
1/2-x,1/2+y,-z
1/2-x,1/2-y,-z
1/2+x,1/2-y,z
loop_
_atom_site_type_symbol
_atom_site_label
_atom_site_fract_x
_atom_site_fract_y
_atom_site_fract_z
Si Si1 0.096059 0.165840 0.979688
Si Si2 0.629085 0.612581 0.250810
Si Si3 0.346048 0.168997 0.681688
Si Si4 0.000000 0.783633 0.500000
Si Si5 0.984235 0.614310 0.378013
Si Si6 0.429009 0.113944 0.090207
O O1 0.085920 0.289966 0.968543
O O2 0.012943 0.125373 0.870615
O O3 0.274810 0.128634 0.064954
O O4 0.000000 0.130738 0.000000
O O5 0.623561 0.500000 0.280885
O O6 0.627964 0.707569 0.302235
O O7 0.793586 0.620556 0.286924
O O8 0.437442 0.126386 0.659230
O O9 0.421078 0.127663 0.788476
O O10 0.158813 0.153166 0.588689
O O11 0.965993 0.706275 0.547739
O O12 0.024493 0.500000 0.424441
O O13 0.427273 0.000000 0.058603
#
# Coordination Sequence:
#
# PCOD9185435 Si02
#       6
#     8   8   8   4   8   8
#     4  10  20  34  55  81 109 140 174 214 259 308
#     4   9  19  34  54  81 108 136 175 217 258 311
#     4  10  20  35  55  77 105 139 176 219 264 307
#     4  10  21  36  53  76 106 136 175 222 261 310
#     4  10  19  34  57  80 104 136 173 216 267 315
#     4  10  21  36  54  78 108 140 176 215 258 311
#
# _framework density 20.605170999999999
#
# number of rings (size 3 to 8) (size 9 to 14) (size 15 to 20)
#    0.000    2.182    0.000    3.000    0.000    4.000 
#    0.000    1.818    0.000   27.273    0.000    0.000 
#    0.000    0.000    0.000    0.000    0.000    0.000 
#
# Total GULP energy -122837.622372 kJ/mol
# GULP energy per Si atom -5583.528290 kJ/mol
# Density = 2.055827 g / cm^3
# Si number density = 20.605171 Si / 1000 Ang^3
#
#
#
# Elastic Constant Matrix: (Units=GPa)
#
#
# Indices 1 2 3 4 5 6 
#
# 1 52.7875 7.3234 8.2198 0.0000 7.3467 0.0000
# 2 7.3234 103.9739 5.6645 0.0000 8.1141 0.0000
# 3 8.2198 5.6645 77.7851 0.0000 34.5689 0.0000
# 4 0.0000 0.0000 0.0000 0.1733 0.0000 3.2549
# 5 7.3467 8.1141 34.5689 0.0000 29.5607 0.0000
# 6 0.0000 0.0000 0.0000 3.2549 0.0000 11.1400
#
#
#
# Elastic Compliance Matrix: (Units=1/GPa)
#
#
# Indices 1 2 3 4 5 6 
#
# 1 0.019730 -0.001026 0.000091 0.000000 -0.004729 0.000000
# 2 -0.001026 0.009920 0.001005 0.000000 -0.003643 0.000000
# 3 0.000091 0.001005 0.026871 0.000000 -0.031722 0.000000
# 4 0.000000 0.000000 0.000000 -1.285921 0.000000 0.375717
# 5 -0.004729 -0.003643 -0.031722 0.000000 0.073100 0.000000
# 6 0.000000 0.000000 0.000000 0.375717 0.000000 -0.020010
#
#
# Mechanical properties :
#
#
# Convention : Reuss Voigt Hill
#
# Bulk Modulus (GPa) = 17.64849 30.77354 24.21102
# Shear Modulus (GPa) = -4.31941 22.39741 9.03900
#
# Velocity S-wave (km/s) = -1.44942 3.30052 2.09673
# Velocity P-wave (km/s) = 2.40470 5.43064 4.19967
#
# Compressibility (1/GPa) = 0.05666206
#
# Stress axis : x y z
#
# Youngs Moduli (GPa) = 50.68401 100.81048 37.21530
#
# Poissons Ratio (x) = 0.10339 -0.00340
# Poissons Ratio (y) = 0.05198 -0.03741
# Poissons Ratio (z) = -0.00463 -0.10133
#
# Static dielectric constant tensor:
#      x y z
#    x 1.691320 0.000000 0.017450 
#    y 0.000000 1.776510 0.000000 
#    z 0.017450 0.000000 1.743540 
# 
# From -- ./inp_files/268461.got.cif
#   From: 2010.05.17/outbox.cif.g08.bks.cpg/sg12_135_cif.got.tgz:268461.got - 2010.06.03 13:09:07.
