data_PCOD9185037
_publ_section_title
;
Structure prediction by ZEFSAII (Michael W. Deem and Ramdas Pophale) SiO2 
 PCOD9185037
Probable space group: C 2/M
;
_chemical_formula_sum "Si O2"
_cell_formula_units_Z 56
_cell_length_a 23.601888
_cell_length_b 11.278992
_cell_length_c 11.734122
_cell_angle_alpha 90.000000
_cell_angle_beta 95.865906
_cell_angle_gamma 90.000000
_cell_volume 3107.331654
_symmetry_space_group_name_H-M "C 2/M"
_symmetry_group_IT_number 12
_symmetry_cell_setting 'monoclinic'
loop_
_space_group_symop_operation_xyz
x,y,z
-x,y,-z
-x,-y,-z
x,-y,z
1/2+x,1/2+y,z
1/2-x,1/2+y,-z
1/2-x,1/2-y,-z
1/2+x,1/2-y,z
loop_
_atom_site_type_symbol
_atom_site_label
_atom_site_fract_x
_atom_site_fract_y
_atom_site_fract_z
Si Si1 0.163215 0.361504 0.102094
Si Si2 0.536199 0.143512 0.116509
Si Si3 0.821473 0.363733 0.142542
Si Si4 0.749622 0.712480 0.692227
Si Si5 0.436146 0.364867 0.440051
Si Si6 0.442847 0.137704 0.279965
Si Si7 0.678904 0.631581 0.466865
O O1 0.153797 0.500000 0.074682
O O2 0.101243 0.312695 0.125657
O O3 0.209256 0.353235 0.210977
O O4 0.184506 0.310527 0.985592
O O5 0.500228 0.167619 0.222651
O O6 0.537437 0.000000 0.110154
O O7 0.500000 0.186069 0.000000
O O8 0.801045 0.500000 0.140658
O O9 0.789154 0.295118 0.235621
O O10 0.888937 0.364409 0.183712
O O11 0.708087 0.643113 0.597735
O O12 0.791471 0.780734 0.614422
O O13 0.500000 0.365202 0.500000
O O14 0.426115 0.500000 0.388944
O O15 0.431317 0.247129 0.361884
O O16 0.387993 0.350292 0.526861
O O17 0.446856 0.000000 0.326249
O O18 0.689181 0.500000 0.425165
#
# Coordination Sequence:
#
# PCOD9185037 Si02
#       7
#     8   8   8   8   8   8   8
#     4  10  20  33  53  83 113 142 181 227 278 339
#     4   9  16  30  52  80 111 139 168 216 278 329
#     4  10  19  34  55  82 114 144 178 224 280 336
#     4  11  21  35  55  79 105 146 183 232 271 331
#     4  10  22  40  59  78 107 149 190 229 282 338
#     4  10  19  34  59  86 111 141 182 231 279 328
#     4  10  22  39  55  75 106 146 187 229 281 332
#
# _framework density 18.021892000000001
#
# number of rings (size 3 to 8) (size 9 to 14) (size 15 to 20)
#    0.000    2.000    2.857    1.286    2.000    0.286 
#    0.000    0.714    0.000    1.286    0.000    0.000 
#    0.000    0.000    0.000    0.000    0.000    0.000 
#
# Total GULP energy -155881.062668 kJ/mol
# GULP energy per Si atom -5567.180810 kJ/mol
# Density = 1.798087 g / cm^3
# Si number density = 18.021892 Si / 1000 Ang^3
#
#
#
# Elastic Constant Matrix: (Units=GPa)
#
#
# Indices 1 2 3 4 5 6 
#
# 1 96.6186 8.5162 14.7695 0.0000 -9.2169 0.0000
# 2 8.5162 58.9492 17.8793 0.0000 -14.0304 0.0000
# 3 14.7695 17.8793 59.2995 0.0000 -9.1740 0.0000
# 4 0.0000 0.0000 0.0000 23.2844 0.0000 -0.8611
# 5 -9.2169 -14.0304 -9.1740 0.0000 25.0504 0.0000
# 6 0.0000 0.0000 0.0000 -0.8611 0.0000 25.2012
#
#
#
# Elastic Compliance Matrix: (Units=1/GPa)
#
#
# Indices 1 2 3 4 5 6 
#
# 1 0.011002 -0.000173 -0.002201 0.000000 0.003145 0.000000
# 2 -0.000173 0.020754 -0.004692 0.000000 0.009842 0.000000
# 3 -0.002201 -0.004692 0.019393 0.000000 0.003664 0.000000
# 4 0.000000 0.000000 0.000000 0.043002 0.000000 0.001469
# 5 0.003145 0.009842 0.003664 0.000000 0.047931 0.000000
# 6 0.000000 0.000000 0.000000 0.001469 0.000000 0.039731
#
#
# Mechanical properties :
#
#
# Convention : Reuss Voigt Hill
#
# Bulk Modulus (GPa) = 27.01493 33.02191 30.01842
# Shear Modulus (GPa) = 24.00558 26.28734 25.14646
#
# Velocity S-wave (km/s) = 3.65365 3.82335 3.73946
# Velocity P-wave (km/s) = 5.72900 6.15253 5.94454
#
# Compressibility (1/GPa) = 0.03701656
#
# Stress axis : x y z
#
# Youngs Moduli (GPa) = 90.89460 48.18264 51.56396
#
# Poissons Ratio (x) = 0.00835 0.11351
# Poissons Ratio (y) = 0.01574 0.24193
# Poissons Ratio (z) = 0.20010 0.22606
#
# Static dielectric constant tensor:
#      x y z
#    x 1.625480 0.000000 -0.001270 
#    y 0.000000 1.617190 0.000000 
#    z -0.001270 0.000000 1.624060 
# 
# From -- ./inp_files/164896.got.cif
#   From: 2010.05.17/outbox.cif.g08.bks.cpg/sg12_83_cif.got.tgz:164896.got - 2010.06.03 13:09:07.
