data_PCOD9185732
_publ_section_title
;
Structure prediction by ZEFSAII (Michael W. Deem and Ramdas Pophale) SiO2 
 PCOD9185732
Probable space group: C 2/M
;
_chemical_formula_sum "Si O2"
_cell_formula_units_Z 40
_cell_length_a 16.114852
_cell_length_b 21.864474
_cell_length_c 10.110146
_cell_angle_alpha 90.000000
_cell_angle_beta 143.271802
_cell_angle_gamma 90.000000
_cell_volume 2130.287647
_symmetry_space_group_name_H-M "C 2/M"
_symmetry_group_IT_number 12
_symmetry_cell_setting 'monoclinic'
loop_
_space_group_symop_operation_xyz
x,y,z
-x,y,-z
-x,-y,-z
x,-y,z
1/2+x,1/2+y,z
1/2-x,1/2+y,-z
1/2-x,1/2-y,-z
1/2+x,1/2-y,z
loop_
_atom_site_type_symbol
_atom_site_label
_atom_site_fract_x
_atom_site_fract_y
_atom_site_fract_z
Si Si1 0.208866 0.677622 0.177388
Si Si2 0.841415 0.697583 0.330583
Si Si3 0.567842 0.212868 0.272720
Si Si4 0.401739 0.569099 0.502127
Si Si5 0.456118 0.349051 0.096653
O O1 0.312530 0.730726 0.259602
O O2 0.144694 0.702291 0.233172
O O3 0.279376 0.614247 0.301221
O O4 0.076391 0.675400 0.912643
O O5 0.838136 0.693523 0.485656
O O6 0.000000 0.681634 0.500000
O O7 0.710903 0.659829 0.108713
O O8 0.522024 0.283578 0.222684
O O9 0.500000 0.566770 0.500000
O O10 0.357626 0.500000 0.478640
O O11 0.483322 0.600336 0.727945
O O12 0.500000 0.359641 0.000000
#
# Coordination Sequence:
#
# PCOD9185732 Si02
#       5
#     8   8   8   8   8
#     4  10  19  35  57  83 118 154 187 234 291 359
#     4  11  21  30  55  94 121 142 187 239 307 350
#     4  10  19  34  57  90 121 151 177 239 311 357
#     4  11  25  41  59  81 115 161 205 243 281 338
#     4  11  21  38  61  86 123 155 190 238 296 356
#
# _framework density 18.776807000000002
#
# number of rings (size 3 to 8) (size 9 to 14) (size 15 to 20)
#    0.000    1.400    6.000    2.400    2.800    2.000 
#    0.000    2.000    0.000    1.800    0.000    0.000 
#    0.000    0.000    0.000    0.000    0.000    0.000 
#
# Total GULP energy -111687.361537 kJ/mol
# GULP energy per Si atom -5584.368077 kJ/mol
# Density = 1.873407 g / cm^3
# Si number density = 18.776807 Si / 1000 Ang^3
#
#
#
# Elastic Constant Matrix: (Units=GPa)
#
#
# Indices 1 2 3 4 5 6 
#
# 1 43.1838 12.8399 5.6846 0.0000 9.1358 0.0000
# 2 12.8399 117.6642 59.8538 0.0000 2.7022 0.0000
# 3 5.6846 59.8538 109.6557 0.0000 7.3798 0.0000
# 4 0.0000 0.0000 0.0000 21.0570 0.0000 -6.2545
# 5 9.1358 2.7022 7.3798 0.0000 37.8680 0.0000
# 6 0.0000 0.0000 0.0000 -6.2545 0.0000 26.8112
#
#
#
# Elastic Compliance Matrix: (Units=1/GPa)
#
#
# Indices 1 2 3 4 5 6 
#
# 1 0.025220 -0.002983 0.000726 0.000000 -0.006013 0.000000
# 2 -0.002983 0.012125 -0.006540 0.000000 0.001129 0.000000
# 3 0.000726 -0.006540 0.012800 0.000000 -0.002203 0.000000
# 4 0.000000 0.000000 0.000000 0.051026 0.000000 0.011903
# 5 -0.006013 0.001129 -0.002203 0.000000 0.028207 0.000000
# 6 0.000000 0.000000 0.000000 0.011903 0.000000 0.040075
#
#
# Mechanical properties :
#
#
# Convention : Reuss Voigt Hill
#
# Bulk Modulus (GPa) = 30.72132 47.47337 39.09735
# Shear Modulus (GPa) = 25.26571 29.95561 27.61066
#
# Velocity S-wave (km/s) = 3.67220 3.99852 3.83883
# Velocity P-wave (km/s) = 5.86318 6.83048 6.36523
#
# Compressibility (1/GPa) = 0.03255068
#
# Stress axis : x y z
#
# Youngs Moduli (GPa) = 39.65048 82.47491 78.12759
#
# Poissons Ratio (x) = 0.24603 -0.05668
# Poissons Ratio (y) = 0.11828 0.51092
# Poissons Ratio (z) = -0.02877 0.53935
#
# Static dielectric constant tensor:
#      x y z
#    x 1.712620 0.000000 -0.000500 
#    y 0.000000 1.620310 0.000000 
#    z -0.000500 0.000000 1.707540 
# 
# From -- ./inp_files/48907.got.cif
#   From: 2010.05.17/outbox.cif.g08.bks.cpg/sg12_25_cif.got.tgz:48907.got - 2010.06.03 13:09:07.
