data_PCOD9185155
_publ_section_title
;
Structure prediction by ZEFSAII (Michael W. Deem and Ramdas Pophale) SiO2 
 PCOD9185155
Probable space group: C 2/M
;
_chemical_formula_sum "Si O2"
_cell_formula_units_Z 56
_cell_length_a 13.496686
_cell_length_b 11.582128
_cell_length_c 16.225822
_cell_angle_alpha 90.000000
_cell_angle_beta 90.603990
_cell_angle_gamma 90.000000
_cell_volume 2536.285160
_symmetry_space_group_name_H-M "C 2/M"
_symmetry_group_IT_number 12
_symmetry_cell_setting 'monoclinic'
loop_
_space_group_symop_operation_xyz
x,y,z
-x,y,-z
-x,-y,-z
x,-y,z
1/2+x,1/2+y,z
1/2-x,1/2+y,-z
1/2-x,1/2-y,-z
1/2+x,1/2-y,z
loop_
_atom_site_type_symbol
_atom_site_label
_atom_site_fract_x
_atom_site_fract_y
_atom_site_fract_z
Si Si1 0.635615 0.131007 0.941124
Si Si2 0.846474 0.214540 0.901208
Si Si3 0.715034 0.867279 0.615664
Si Si4 0.766498 0.809044 0.249207
Si Si5 0.396988 0.284930 0.512786
Si Si6 0.971662 0.220620 0.198973
Si Si7 0.920583 0.627358 0.663189
O O1 0.754520 0.134887 0.926063
O O2 0.578999 0.186094 0.862887
O O3 0.604928 0.000000 0.955076
O O4 0.618927 0.213612 0.019273
O O5 0.793895 0.302081 0.836297
O O6 0.940594 0.162765 0.853589
O O7 0.727756 0.818605 0.708319
O O8 0.646489 0.772013 0.570061
O O9 0.816015 0.856233 0.563193
O O10 0.682518 0.000000 0.613594
O O11 0.877611 0.849904 0.232185
O O12 0.694815 0.874504 0.310944
O O13 0.500000 0.349075 0.500000
O O14 0.422540 0.176749 0.572020
O O15 0.023476 0.285526 0.275439
O O16 0.962423 0.500000 0.670900
#
# Coordination Sequence:
#
# PCOD9185155 Si02
#       7
#     8   8   8   8   8   8   8
#     4  10  20  35  56  80 106 139 179 221 267 321
#     4   9  20  35  52  78 110 136 171 225 271 308
#     4  10  21  37  57  80 108 144 182 219 263 317
#     4   9  20  35  52  76 108 140 176 221 266 312
#     4  10  21  36  55  82 113 142 177 222 268 314
#     4  10  19  34  56  79 106 142 181 221 264 319
#     4  10  20  34  53  80 112 142 176 221 270 316
#
# _framework density 22.079536000000001
#
# number of rings (size 3 to 8) (size 9 to 14) (size 15 to 20)
#    0.000    2.286    0.000    2.143    0.000    8.857 
#    0.000    0.714    0.000   24.857    0.000    0.000 
#    0.000    0.000    0.000    0.000    0.000    0.000 
#
# Total GULP energy -156259.761155 kJ/mol
# GULP energy per Si atom -5580.705756 kJ/mol
# Density = 2.202928 g / cm^3
# Si number density = 22.079536 Si / 1000 Ang^3
#
#
#
# Elastic Constant Matrix: (Units=GPa)
#
#
# Indices 1 2 3 4 5 6 
#
# 1 152.6852 -2.3746 10.0767 0.0000 -28.1236 0.0000
# 2 -2.3746 40.3950 5.9489 0.0000 -0.5771 0.0000
# 3 10.0767 5.9489 87.7144 0.0000 10.5581 0.0000
# 4 0.0000 0.0000 0.0000 -6.1356 0.0000 9.8605
# 5 -28.1236 -0.5771 10.5581 0.0000 43.5833 0.0000
# 6 0.0000 0.0000 0.0000 9.8605 0.0000 -4.3555
#
#
#
# Elastic Compliance Matrix: (Units=1/GPa)
#
#
# Indices 1 2 3 4 5 6 
#
# 1 0.007645 0.000757 -0.001570 0.000000 0.005324 0.000000
# 2 0.000757 0.025105 -0.001945 0.000000 0.001292 0.000000
# 3 -0.001570 -0.001945 0.012194 0.000000 -0.003993 0.000000
# 4 0.000000 0.000000 0.000000 0.061775 0.000000 0.139854
# 5 0.005324 0.001292 -0.003993 0.000000 0.027364 0.000000
# 6 0.000000 0.000000 0.000000 0.139854 0.000000 0.087023
#
#
# Mechanical properties :
#
#
# Convention : Reuss Voigt Hill
#
# Bulk Modulus (GPa) = 25.36369 34.23296 29.79833
# Shear Modulus (GPa) = 20.85363 24.42799 22.64081
#
# Velocity S-wave (km/s) = 3.07657 3.32981 3.20569
# Velocity P-wave (km/s) = 4.91251 5.50650 5.21796
#
# Compressibility (1/GPa) = 0.03942644
#
# Stress axis : x y z
#
# Youngs Moduli (GPa) = 130.79615 39.83277 82.01014
#
# Poissons Ratio (x) = -0.03014 0.12880
# Poissons Ratio (y) = -0.09898 0.15952
# Poissons Ratio (z) = 0.20541 0.07748
#
# Static dielectric constant tensor:
#      x y z
#    x 1.901560 0.000000 -0.047930 
#    y 0.000000 1.767690 0.000000 
#    z -0.047930 0.000000 1.773970 
# 
# From -- ./inp_files/213382.got.cif
#   From: 2010.05.17/outbox.cif.g08.bks.cpg/sg12_107_cif.got.tgz:213382.got - 2010.06.03 13:09:07.
