data_PCOD9185489
_publ_section_title
;
Structure prediction by ZEFSAII (Michael W. Deem and Ramdas Pophale) SiO2 
 PCOD9185489
Probable space group: C 2/M
;
_chemical_formula_sum "Si O2"
_cell_formula_units_Z 56
_cell_length_a 17.772228
_cell_length_b 17.150726
_cell_length_c 9.384774
_cell_angle_alpha 90.000000
_cell_angle_beta 73.161805
_cell_angle_gamma 90.000000
_cell_volume 2737.900072
_symmetry_space_group_name_H-M "C 2/M"
_symmetry_group_IT_number 12
_symmetry_cell_setting 'monoclinic'
loop_
_space_group_symop_operation_xyz
x,y,z
-x,y,-z
-x,-y,-z
x,-y,z
1/2+x,1/2+y,z
1/2-x,1/2+y,-z
1/2-x,1/2-y,-z
1/2+x,1/2-y,z
loop_
_atom_site_type_symbol
_atom_site_label
_atom_site_fract_x
_atom_site_fract_y
_atom_site_fract_z
Si Si1 0.546420 0.667409 0.836826
Si Si2 0.217573 0.092213 0.716559
Si Si3 0.322090 0.168378 0.408400
Si Si4 0.163946 0.781477 0.367095
Si Si5 0.581102 0.151450 0.895643
Si Si6 0.558062 0.412992 0.336423
Si Si7 0.193602 0.683296 0.093483
O O1 0.630165 0.627557 0.761356
O O2 0.562597 0.758351 0.861416
O O3 0.486928 0.644537 0.745030
O O4 0.500000 0.635584 0.000000
O O5 0.271543 0.121685 0.554403
O O6 0.257268 0.120932 0.842384
O O7 0.212707 0.000000 0.713383
O O8 0.257596 0.211049 0.343014
O O9 0.365699 0.235503 0.477052
O O10 0.378476 0.120995 0.271796
O O11 0.133185 0.867442 0.354896
O O12 0.144509 0.728550 0.241896
O O13 0.500000 0.116820 0.000000
O O14 0.641784 0.151029 0.993638
O O15 0.500000 0.421560 0.500000
O O16 0.574436 0.500000 0.269494
O O17 0.250000 0.750000 0.000000
#
# Coordination Sequence:
#
# PCOD9185489 Si02
#       7
#     8   8   8   8   8   8   8
#     4  11  22  37  57  89 129 164 199 238 294 374
#     4  11  24  41  62  88 124 168 206 248 311 377
#     4  10  20  37  61  83 113 157 218 260 299 353
#     4  10  19  34  57  81 116 167 205 249 292 344
#     4  11  21  37  65  95 119 154 204 264 313 356
#     4  11  23  35  50  83 130 167 195 232 289 369
#     4  11  20  39  62  90 122 153 207 262 298 360
#
# _framework density 20.453633
#
# number of rings (size 3 to 8) (size 9 to 14) (size 15 to 20)
#    0.000    1.286    2.857    5.571    0.000    2.857 
#    0.000    2.857    0.000    2.571    0.000    0.000 
#    0.000    0.000    0.000    0.000    0.000    0.000 
#
# Total GULP energy -156258.988272 kJ/mol
# GULP energy per Si atom -5580.678153 kJ/mol
# Density = 2.040708 g / cm^3
# Si number density = 20.453633 Si / 1000 Ang^3
#
#
#
# Elastic Constant Matrix: (Units=GPa)
#
#
# Indices 1 2 3 4 5 6 
#
# 1 82.2040 10.3670 40.2209 0.0000 4.7781 0.0000
# 2 10.3670 58.2261 0.2500 0.0000 -0.1715 0.0000
# 3 40.2209 0.2500 131.4047 0.0000 -4.0812 0.0000
# 4 0.0000 0.0000 0.0000 7.6553 0.0000 1.8670
# 5 4.7781 -0.1715 -4.0812 0.0000 36.9738 0.0000
# 6 0.0000 0.0000 0.0000 1.8670 0.0000 20.7116
#
#
#
# Elastic Compliance Matrix: (Units=1/GPa)
#
#
# Indices 1 2 3 4 5 6 
#
# 1 0.014908 -0.002642 -0.004634 0.000000 -0.002450 0.000000
# 2 -0.002642 0.017643 0.000791 0.000000 0.000510 0.000000
# 3 -0.004634 0.000791 0.009077 0.000000 0.001604 0.000000
# 4 0.000000 0.000000 0.000000 0.133564 0.000000 -0.012040
# 5 -0.002450 0.000510 0.001604 0.000000 0.027542 0.000000
# 6 0.000000 0.000000 0.000000 -0.012040 0.000000 0.049367
#
#
# Mechanical properties :
#
#
# Convention : Reuss Voigt Hill
#
# Bulk Modulus (GPa) = 34.89461 41.50120 38.19790
# Shear Modulus (GPa) = 18.20672 27.80129 23.00401
#
# Velocity S-wave (km/s) = 2.98677 3.69078 3.35728
# Velocity P-wave (km/s) = 5.38440 6.20459 5.80899
#
# Compressibility (1/GPa) = 0.02865772
#
# Stress axis : x y z
#
# Youngs Moduli (GPa) = 67.07892 56.68018 110.17059
#
# Poissons Ratio (x) = 0.14973 0.51054
# Poissons Ratio (y) = 0.17720 -0.08713
# Poissons Ratio (z) = 0.31085 -0.04482
#
# Static dielectric constant tensor:
#      x y z
#    x 1.725790 0.000000 -0.042560 
#    y 0.000000 1.740380 0.000000 
#    z -0.042560 0.000000 1.811710 
# 
# From -- ./inp_files/75884.got.cif
#   From: 2010.05.17/outbox.cif.g08.bks.cpg/sg12_38_cif.got.tgz:75884.got - 2010.06.03 13:09:07.
