data_PCOD9185745
_publ_section_title
;
Structure prediction by ZEFSAII (Michael W. Deem and Ramdas Pophale) SiO2 
 PCOD9185745
Probable space group: C 2/M
;
_chemical_formula_sum "Si O2"
_cell_formula_units_Z 64
_cell_length_a 20.423229
_cell_length_b 9.457600
_cell_length_c 21.564735
_cell_angle_alpha 90.000000
_cell_angle_beta 130.843414
_cell_angle_gamma 90.000000
_cell_volume 3151.071460
_symmetry_space_group_name_H-M "C 2/M"
_symmetry_group_IT_number 12
_symmetry_cell_setting 'monoclinic'
loop_
_space_group_symop_operation_xyz
x,y,z
-x,y,-z
-x,-y,-z
x,-y,z
1/2+x,1/2+y,z
1/2-x,1/2+y,-z
1/2-x,1/2-y,-z
1/2+x,1/2-y,z
loop_
_atom_site_type_symbol
_atom_site_label
_atom_site_fract_x
_atom_site_fract_y
_atom_site_fract_z
Si Si1 0.756559 0.338307 0.835982
Si Si2 0.840155 0.670610 0.697578
Si Si3 0.988272 0.335662 0.138108
Si Si4 0.610722 0.157961 0.793635
Si Si5 0.340649 0.830010 0.557139
Si Si6 0.910016 0.839517 0.980818
Si Si7 0.334286 0.335692 0.355580
Si Si8 0.488559 0.835199 0.399365
O O1 0.778745 0.500000 0.862994
O O2 0.683432 0.276935 0.836160
O O3 0.714046 0.332120 0.741382
O O4 0.839345 0.241081 0.896313
O O5 0.835481 0.500000 0.702437
O O6 0.913431 0.719580 0.791029
O O7 0.871104 0.696019 0.646819
O O8 0.742157 0.722651 0.647583
O O9 0.992340 0.500000 0.119995
O O10 0.945808 0.333465 0.179821
O O11 0.930871 0.245878 0.056103
O O12 0.554310 0.170423 0.696046
O O13 0.650350 0.000000 0.816083
O O14 0.250000 0.750000 0.500000
O O15 0.413509 0.783093 0.552811
O O16 0.329794 0.000000 0.543510
O O17 0.882706 0.000000 0.976816
O O18 0.000000 0.842083 0.000000
O O19 0.353235 0.500000 0.382351
O O20 0.423026 0.249550 0.402861
O O21 0.491510 0.000000 0.419390
#
# Coordination Sequence:
#
# PCOD9185745 Si02
#       8
#     8   8   8   8   8   8   8   8
#     4  10  20  34  53  78 106 138 178 222 268 317
#     4   9  17  34  58  82 107 137 180 224 265 317
#     4  10  19  34  58  80 100 135 182 225 266 315
#     4   9  17  32  55  80 103 135 175 218 268 318
#     4  10  20  36  58  83 110 142 176 215 263 317
#     4  11  24  38  50  70 104 142 177 220 275 325
#     4   9  18  32  55  83 107 137 180 228 267 306
#     4   9  17  33  55  79 109 143 177 211 262 326
#
# _framework density 20.310551
#
# number of rings (size 3 to 8) (size 9 to 14) (size 15 to 20)
#    0.000    2.375    1.250    1.500    0.000    4.000 
#    0.000    2.500    0.000    3.750    0.000    0.000 
#    0.000    0.000    0.000    0.000    0.000    0.000 
#
# Total GULP energy -178556.477169 kJ/mol
# GULP energy per Si atom -5579.889912 kJ/mol
# Density = 2.026432 g / cm^3
# Si number density = 20.310551 Si / 1000 Ang^3
#
#
#
# Elastic Constant Matrix: (Units=GPa)
#
#
# Indices 1 2 3 4 5 6 
#
# 1 109.1295 29.1509 10.0459 0.0000 20.1241 0.0000
# 2 29.1509 67.7887 23.6180 0.0000 16.2682 0.0000
# 3 10.0459 23.6180 52.1899 0.0000 14.2561 0.0000
# 4 0.0000 0.0000 0.0000 19.4248 0.0000 11.4229
# 5 20.1241 16.2682 14.2561 0.0000 34.9574 0.0000
# 6 0.0000 0.0000 0.0000 11.4229 0.0000 26.4617
#
#
#
# Elastic Compliance Matrix: (Units=1/GPa)
#
#
# Indices 1 2 3 4 5 6 
#
# 1 0.011025 -0.003902 0.000992 0.000000 -0.004935 0.000000
# 2 -0.003902 0.019900 -0.007133 0.000000 -0.004106 0.000000
# 3 0.000992 -0.007133 0.024136 0.000000 -0.007094 0.000000
# 4 0.000000 0.000000 0.000000 0.068995 0.000000 -0.029783
# 5 -0.004935 -0.004106 -0.007094 0.000000 0.036251 0.000000
# 6 0.000000 0.000000 0.000000 -0.029783 0.000000 0.050647
#
#
# Mechanical properties :
#
#
# Convention : Reuss Voigt Hill
#
# Bulk Modulus (GPa) = 28.59270 39.41530 34.00400
# Shear Modulus (GPa) = 20.60172 27.25500 23.92836
#
# Velocity S-wave (km/s) = 3.18832 3.66719 3.43611
# Velocity P-wave (km/s) = 5.25948 6.11388 5.70270
#
# Compressibility (1/GPa) = 0.03497396
#
# Stress axis : x y z
#
# Youngs Moduli (GPa) = 90.70705 50.25078 41.43242
#
# Poissons Ratio (x) = 0.19608 -0.04109
# Poissons Ratio (y) = 0.35394 0.29554
# Poissons Ratio (z) = -0.08996 0.35844
#
# Static dielectric constant tensor:
#      x y z
#    x 1.743140 0.000000 0.004800 
#    y 0.000000 1.691340 0.000000 
#    z 0.004800 0.000000 1.742310 
# 
# From -- ./inp_files/346228.got.cif
#   From: 2010.05.17/outbox.cif.g08.bks.cpg/sg12_174_cif.got.tgz:346228.got - 2010.06.03 13:09:07.
