data_PCOD9185513
_publ_section_title
;
Structure prediction by ZEFSAII (Michael W. Deem and Ramdas Pophale) SiO2 
 PCOD9185513
Probable space group: C 2/M
;
_chemical_formula_sum "Si O2"
_cell_formula_units_Z 44
_cell_length_a 17.127313
_cell_length_b 19.207939
_cell_length_c 16.913577
_cell_angle_alpha 90.000000
_cell_angle_beta 153.792738
_cell_angle_gamma 90.000000
_cell_volume 2457.275105
_symmetry_space_group_name_H-M "C 2/M"
_symmetry_group_IT_number 12
_symmetry_cell_setting 'monoclinic'
loop_
_space_group_symop_operation_xyz
x,y,z
-x,y,-z
-x,-y,-z
x,-y,z
1/2+x,1/2+y,z
1/2-x,1/2+y,-z
1/2-x,1/2-y,-z
1/2+x,1/2-y,z
loop_
_atom_site_type_symbol
_atom_site_label
_atom_site_fract_x
_atom_site_fract_y
_atom_site_fract_z
Si Si1 0.054641 0.811095 0.279482
Si Si2 0.239201 0.580772 0.992142
Si Si3 0.537980 0.171161 0.357767
Si Si4 0.536130 0.925349 0.125838
Si Si5 0.500000 0.793563 0.500000
Si Si6 0.632021 0.776802 0.194248
O O1 0.254523 0.838344 0.474009
O O2 0.004669 0.750823 0.297440
O O3 0.062055 0.771936 0.201367
O O4 0.913944 0.872645 0.150524
O O5 0.268576 0.500000 0.996730
O O6 0.092813 0.618500 0.804516
O O7 0.148512 0.581746 0.995985
O O8 0.508694 0.165555 0.425129
O O9 0.643225 0.855193 0.237732
O O10 0.615593 0.000000 0.222730
O O11 0.500000 0.927660 0.000000
O O12 0.677306 0.748262 0.660095
O O13 0.500000 0.774846 0.000000
#
# Coordination Sequence:
#
# PCOD9185513 Si02
#       6
#     8   8   8   8   4   8
#     4  10  21  36  58  84 110 143 190 233 271 328
#     4  11  22  37  59  82 113 153 183 223 282 331
#     4  10  21  38  57  84 112 143 188 237 273 322
#     4   9  19  33  50  80 116 148 180 219 269 329
#     4  10  22  34  58  84 108 140 192 228 280 322
#     4  10  19  34  57  82 109 144 180 231 275 325
#
# _framework density 17.906013000000002
#
# number of rings (size 3 to 8) (size 9 to 14) (size 15 to 20)
#    0.000    2.000    1.818    1.636    5.091    0.727 
#    0.000    0.909    0.000   10.364    0.000    0.000 
#    0.000    0.000    0.000    0.000    0.000    0.000 
#
# Total GULP energy -122683.998044 kJ/mol
# GULP energy per Si atom -5576.545366 kJ/mol
# Density = 1.786526 g / cm^3
# Si number density = 17.906013 Si / 1000 Ang^3
#
#
#
# Elastic Constant Matrix: (Units=GPa)
#
#
# Indices 1 2 3 4 5 6 
#
# 1 106.9729 47.7478 42.7221 0.0039 -5.5072 0.0015
# 2 47.7478 122.5363 72.6167 0.0036 11.2830 0.0015
# 3 42.7221 72.6167 102.9657 0.0105 -1.1301 0.0043
# 4 0.0039 0.0036 0.0105 -21.4992 0.0067 -7.7969
# 5 -5.5072 11.2830 -1.1301 0.0067 15.4263 0.0024
# 6 0.0015 0.0015 0.0043 -7.7969 0.0024 13.4785
#
#
#
# Elastic Compliance Matrix: (Units=1/GPa)
#
#
# Indices 1 2 3 4 5 6 
#
# 1 0.012487 -0.004354 -0.002028 0.000003 0.007494 0.000000
# 2 -0.004354 0.017685 -0.010833 -0.000008 -0.015283 0.000000
# 3 -0.002028 -0.010833 0.018288 0.000010 0.008539 0.000000
# 4 0.000003 -0.000008 0.000010 -0.038448 0.000028 -0.022241
# 5 0.007494 -0.015283 0.008539 0.000028 0.079303 0.000000
# 6 0.000000 0.000000 0.000000 -0.022241 0.000000 0.061327
#
#
# Mechanical properties :
#
#
# Convention : Reuss Voigt Hill
#
# Bulk Modulus (GPa) = 71.28424 73.18311 72.23368
# Shear Modulus (GPa) = 26.35060 12.77368 19.56214
#
# Velocity S-wave (km/s) = 3.84031 2.67380 3.30887
# Velocity P-wave (km/s) = 7.71756 7.10575 7.41796
#
# Compressibility (1/GPa) = 0.01402835
#
# Stress axis : x y z
#
# Youngs Moduli (GPa) = 80.08054 56.54657 54.68215
#
# Poissons Ratio (x) = 0.24619 0.11092
# Poissons Ratio (y) = 0.34866 0.59239
# Poissons Ratio (z) = 0.16244 0.61259
#
# Static dielectric constant tensor:
#      x y z
#    x 1.625750 0.000000 -0.026930 
#    y 0.000000 1.627550 0.000000 
#    z -0.026930 0.000000 1.610080 
# 
# From -- ./inp_files/97997.got.cif
#   From: 2010.05.17/outbox.cif.g08.bks.cpg/sg12_49_cif.got.tgz:97997.got - 2010.06.03 13:09:07.
