data_PCOD9185133
_publ_section_title
;
Structure prediction by ZEFSAII (Michael W. Deem and Ramdas Pophale) SiO2 
 PCOD9185133
Probable space group: C 2/M
;
_chemical_formula_sum "Si O2"
_cell_formula_units_Z 48
_cell_length_a 32.089740
_cell_length_b 8.863953
_cell_length_c 9.862313
_cell_angle_alpha 90.000000
_cell_angle_beta 103.348918
_cell_angle_gamma 90.000000
_cell_volume 2729.463418
_symmetry_space_group_name_H-M "C 2/M"
_symmetry_group_IT_number 12
_symmetry_cell_setting 'monoclinic'
loop_
_space_group_symop_operation_xyz
x,y,z
-x,y,-z
-x,-y,-z
x,-y,z
1/2+x,1/2+y,z
1/2-x,1/2+y,-z
1/2-x,1/2-y,-z
1/2+x,1/2-y,z
loop_
_atom_site_type_symbol
_atom_site_label
_atom_site_fract_x
_atom_site_fract_y
_atom_site_fract_z
Si Si1 0.367266 0.180889 0.399790
Si Si2 0.434519 0.180618 0.678121
Si Si3 0.110074 0.318934 0.888054
Si Si4 0.636526 0.680439 0.179108
Si Si5 0.796807 0.820449 0.539568
Si Si6 0.983487 0.179992 0.140566
O O1 0.409831 0.216689 0.519735
O O2 0.373167 0.223708 0.248289
O O3 0.327392 0.257800 0.444106
O O4 0.361615 0.000000 0.403344
O O5 0.403432 0.244424 0.772276
O O6 0.480415 0.256572 0.731515
O O7 0.438245 0.000000 0.693370
O O8 0.110326 0.500000 0.899474
O O9 0.061820 0.258677 0.869447
O O10 0.137433 0.246661 0.029651
O O11 0.630158 0.500000 0.170879
O O12 0.678147 0.714428 0.301304
O O13 0.750000 0.750000 0.500000
O O14 0.793864 0.000000 0.525945
O O15 0.979116 0.000000 0.150821
O O16 0.000000 0.211827 0.000000
#
# Coordination Sequence:
#
# PCOD9185133 Si02
#       6
#     8   8   8   8   8   8
#     4   9  21  39  57  82 114 143 179 228 277 325
#     4  10  19  34  56  78 105 145 189 230 271 320
#     4  11  22  36  56  81 111 148 185 226 275 323
#     4  10  20  35  55  82 112 142 180 224 271 323
#     4  10  21  38  63  88 111 141 178 221 269 328
#     4  11  22  34  51  77 112 148 188 234 271 315
#
# _framework density 17.585872999999999
#
# number of rings (size 3 to 8) (size 9 to 14) (size 15 to 20)
#    0.000    1.833    1.667    2.500    0.000    5.333 
#    0.000    4.167    0.000    0.000    0.000    0.000 
#    0.000    0.000    0.000    0.000    0.000    0.000 
#
# Total GULP energy -134048.319423 kJ/mol
# GULP energy per Si atom -5585.346643 kJ/mol
# Density = 1.754585 g / cm^3
# Si number density = 17.585873 Si / 1000 Ang^3
#
#
#
# Elastic Constant Matrix: (Units=GPa)
#
#
# Indices 1 2 3 4 5 6 
#
# 1 114.4891 46.2242 69.0410 0.0000 11.4412 0.0000
# 2 46.2242 51.5580 58.0342 0.0000 1.4053 0.0000
# 3 69.0410 58.0342 159.3080 0.0000 -2.6359 0.0000
# 4 0.0000 0.0000 0.0000 26.8437 0.0000 5.6446
# 5 11.4412 1.4053 -2.6359 0.0000 16.6059 0.0000
# 6 0.0000 0.0000 0.0000 5.6446 0.0000 28.1579
#
#
#
# Elastic Compliance Matrix: (Units=1/GPa)
#
#
# Indices 1 2 3 4 5 6 
#
# 1 0.015961 -0.010228 -0.003367 0.000000 -0.010665 0.000000
# 2 -0.010228 0.039801 -0.010032 0.000000 0.002087 0.000000
# 3 -0.003367 -0.010032 0.011474 0.000000 0.004990 0.000000
# 4 0.000000 0.000000 0.000000 0.038892 0.000000 -0.007796
# 5 -0.010665 0.002087 0.004990 0.000000 0.068183 0.000000
# 6 0.000000 0.000000 0.000000 -0.007796 0.000000 0.037077
#
#
# Mechanical properties :
#
#
# Convention : Reuss Voigt Hill
#
# Bulk Modulus (GPa) = 50.05017 74.66154 62.35585
# Shear Modulus (GPa) = 18.84646 24.45855 21.65251
#
# Velocity S-wave (km/s) = 3.27721 3.73340 3.51272
# Velocity P-wave (km/s) = 6.54541 7.81869 7.21021
#
# Compressibility (1/GPa) = 0.01997995
#
# Stress axis : x y z
#
# Youngs Moduli (GPa) = 62.65438 25.12520 87.15736
#
# Poissons Ratio (x) = 0.25699 0.29349
# Poissons Ratio (y) = 0.64085 0.87433
# Poissons Ratio (z) = 0.21098 0.25205
#
# Static dielectric constant tensor:
#      x y z
#    x 1.562370 0.000000 0.019210 
#    y 0.000000 1.584570 0.000000 
#    z 0.019210 0.000000 1.608790 
# 
# From -- ./inp_files/108648.got.cif
#   From: 2010.05.17/outbox.cif.g08.bks.cpg/sg12_55_cif.got.tgz:108648.got - 2010.06.03 13:09:07.
