data_PCOD9185364
_publ_section_title
;
Structure prediction by ZEFSAII (Michael W. Deem and Ramdas Pophale) SiO2 
 PCOD9185364
Probable space group: C 2/M
;
_chemical_formula_sum "Si O2"
_cell_formula_units_Z 50
_cell_length_a 29.148042
_cell_length_b 7.826778
_cell_length_c 11.230614
_cell_angle_alpha 90.000000
_cell_angle_beta 64.335506
_cell_angle_gamma 90.000000
_cell_volume 2309.336601
_symmetry_space_group_name_H-M "C 2/M"
_symmetry_group_IT_number 12
_symmetry_cell_setting 'monoclinic'
loop_
_space_group_symop_operation_xyz
x,y,z
-x,y,-z
-x,-y,-z
x,-y,z
1/2+x,1/2+y,z
1/2-x,1/2+y,-z
1/2-x,1/2-y,-z
1/2+x,1/2-y,z
loop_
_atom_site_type_symbol
_atom_site_label
_atom_site_fract_x
_atom_site_fract_y
_atom_site_fract_z
Si Si1 0.280553 0.204005 0.631502
Si Si2 0.119978 0.203500 0.359102
Si Si3 0.974745 0.699430 0.400819
Si Si4 0.427453 0.700221 0.097381
Si Si5 0.429627 0.695323 0.826668
Si Si6 0.175360 0.700028 0.670904
Si Si7 0.500000 0.000000 0.000000
O O1 0.321681 0.250992 0.684515
O O2 0.224036 0.278213 0.702679
O O3 0.304993 0.266543 0.478933
O O4 0.275844 0.000000 0.630476
O O5 0.084542 0.268499 0.508039
O O6 0.098446 0.273871 0.257182
O O7 0.113516 0.000000 0.365470
O O8 0.983077 0.500000 0.369233
O O9 0.000000 0.745424 0.500000
O O10 0.010119 0.799169 0.269474
O O11 0.444103 0.500000 0.077944
O O12 0.374366 0.708529 0.225541
O O13 0.419738 0.765398 0.968802
O O14 0.465332 0.846001 0.101267
O O15 0.412432 0.500000 0.852136
O O16 0.163583 0.500000 0.671948
#
# Coordination Sequence:
#
# PCOD9185364 Si02
#       7
#     8   8   8   8   8   8   2
#     4  10  21  37  61  92 122 156 205 262 312 371
#     4  10  19  34  56  85 120 156 202 251 305 369
#     4   9  17  29  49  77 112 154 196 241 298 359
#     4  11  24  44  67  92 126 166 209 260 312 371
#     4   9  20  37  57  83 118 162 201 247 308 371
#     4  10  21  41  64  88 122 163 207 257 320 371
#     4  12  26  44  64  94 122 168 218 252 302 374
#
# _framework density 21.651239
#
# number of rings (size 3 to 8) (size 9 to 14) (size 15 to 20)
#    0.000    2.080    0.800    2.160    1.120    5.760 
#    0.000    0.800    0.000    0.000    0.000    0.000 
#    0.000    0.000    0.000    0.000    0.000    0.000 
#
# Total GULP energy -139305.270088 kJ/mol
# GULP energy per Si atom -5572.210804 kJ/mol
# Density = 2.160196 g / cm^3
# Si number density = 21.651239 Si / 1000 Ang^3
#
#
#
# Elastic Constant Matrix: (Units=GPa)
#
#
# Indices 1 2 3 4 5 6 
#
# 1 92.7309 13.1775 21.0263 0.0000 -7.7883 0.0000
# 2 13.1775 84.3207 18.0357 0.0000 -5.9758 0.0000
# 3 21.0263 18.0357 65.0384 0.0000 -7.6641 0.0000
# 4 0.0000 0.0000 0.0000 20.5437 0.0000 -13.9953
# 5 -7.7883 -5.9758 -7.6641 0.0000 37.2518 0.0000
# 6 0.0000 0.0000 0.0000 -13.9953 0.0000 34.3260
#
#
#
# Elastic Compliance Matrix: (Units=1/GPa)
#
#
# Indices 1 2 3 4 5 6 
#
# 1 0.011824 -0.001017 -0.003350 0.000000 0.001620 0.000000
# 2 -0.001017 0.012760 -0.003068 0.000000 0.001203 0.000000
# 3 -0.003350 -0.003068 0.017595 0.000000 0.002428 0.000000
# 4 0.000000 0.000000 0.000000 0.067397 0.000000 0.027479
# 5 0.001620 0.001203 0.002428 0.000000 0.027875 0.000000
# 6 0.000000 0.000000 0.000000 0.027479 0.000000 0.040336
#
#
# Mechanical properties :
#
#
# Convention : Reuss Voigt Hill
#
# Bulk Modulus (GPa) = 36.61601 38.50767 37.56184
# Shear Modulus (GPa) = 24.78201 31.08099 27.93150
#
# Velocity S-wave (km/s) = 3.38686 3.79295 3.59564
# Velocity P-wave (km/s) = 5.67828 6.08325 5.88425
#
# Compressibility (1/GPa) = 0.02731046
#
# Stress axis : x y z
#
# Youngs Moduli (GPa) = 84.57415 78.37089 56.83322
#
# Poissons Ratio (x) = 0.07967 0.19038
# Poissons Ratio (y) = 0.08597 0.17436
# Poissons Ratio (z) = 0.28331 0.24044
#
# Static dielectric constant tensor:
#      x y z
#    x 1.862160 0.000000 0.054220 
#    y 0.000000 1.789480 0.000000 
#    z 0.054220 0.000000 1.808060 
# 
# From -- ./inp_files/180132.got.cif
#   From: 2010.05.17/outbox.cif.g08.bks.cpg/sg12_91_cif.got.tgz:180132.got - 2010.06.03 13:09:07.
