data_PCOD9185510
_publ_section_title
;
Structure prediction by ZEFSAII (Michael W. Deem and Ramdas Pophale) SiO2 
 PCOD9185510
Probable space group: C 2/M
;
_chemical_formula_sum "Si O2"
_cell_formula_units_Z 64
_cell_length_a 23.530030
_cell_length_b 8.015299
_cell_length_c 28.741394
_cell_angle_alpha 90.000000
_cell_angle_beta 145.715467
_cell_angle_gamma 90.000000
_cell_volume 3053.459182
_symmetry_space_group_name_H-M "C 2/M"
_symmetry_group_IT_number 12
_symmetry_cell_setting 'monoclinic'
loop_
_space_group_symop_operation_xyz
x,y,z
-x,y,-z
-x,-y,-z
x,-y,z
1/2+x,1/2+y,z
1/2-x,1/2+y,-z
1/2-x,1/2-y,-z
1/2+x,1/2-y,z
loop_
_atom_site_type_symbol
_atom_site_label
_atom_site_fract_x
_atom_site_fract_y
_atom_site_fract_z
Si Si1 0.851796 0.702280 0.094899
Si Si2 0.920382 0.302529 0.339323
Si Si3 0.147007 0.806339 0.369639
Si Si4 0.685915 0.199215 0.827089
Si Si5 0.065959 0.306113 0.220056
Si Si6 0.865106 0.803815 0.532531
Si Si7 0.223521 0.701222 0.253241
Si Si8 0.614114 0.799015 0.082834
O O1 0.857238 0.500000 0.099934
O O2 0.848608 0.763737 0.146194
O O3 0.953606 0.765184 0.138748
O O4 0.750000 0.750000 0.000000
O O5 0.934428 0.500000 0.344366
O O6 0.874430 0.235226 0.259003
O O7 0.835339 0.269228 0.320351
O O8 0.029377 0.224146 0.421377
O O9 0.092935 0.706691 0.292499
O O10 0.122245 0.746527 0.405120
O O11 0.267741 0.787246 0.446358
O O12 0.118436 0.000000 0.346399
O O13 0.803956 0.235601 0.898579
O O14 0.672436 0.000000 0.817884
O O15 0.060168 0.500000 0.201986
O O16 0.158214 0.234742 0.252508
O O17 0.840508 0.000000 0.517251
O O18 0.233112 0.500000 0.262007
O O19 0.158940 0.745212 0.163596
O O20 0.612550 0.000000 0.078521
O O21 0.500000 0.737836 0.000000
#
# Coordination Sequence:
#
# PCOD9185510 Si02
#       8
#     8   8   8   8   8   8   8   8
#     4  10  22  37  54  78 107 143 184 225 273 327
#     4  10  19  34  57  82 109 142 181 228 277 322
#     4  10  21  36  57  87 116 145 182 224 271 323
#     4   9  19  34  50  74 106 138 174 218 272 326
#     4  10  21  38  58  77 110 152 185 223 275 333
#     4  10  20  35  58  86 116 145 179 223 272 326
#     4   9  19  35  53  77 107 144 186 225 274 331
#     4   9  18  31  52  77  99 131 179 229 270 315
#
# _framework density 20.959835000000002
#
# number of rings (size 3 to 8) (size 9 to 14) (size 15 to 20)
#    0.000    2.375    0.000    1.875    1.750    4.750 
#    0.000    0.625    0.000    3.750    0.000    0.000 
#    0.000    0.000    0.000    0.000    0.000    0.000 
#
# Total GULP energy -178641.242371 kJ/mol
# GULP energy per Si atom -5582.538824 kJ/mol
# Density = 2.091213 g / cm^3
# Si number density = 20.959835 Si / 1000 Ang^3
#
#
#
# Elastic Constant Matrix: (Units=GPa)
#
#
# Indices 1 2 3 4 5 6 
#
# 1 76.7074 4.7083 22.8433 0.0003 21.6687 0.0003
# 2 4.7083 17.0521 -5.8292 0.0013 0.3029 0.0025
# 3 22.8433 -5.8292 59.4656 -0.0001 30.1584 0.0000
# 4 0.0003 0.0013 -0.0001 17.6017 0.0001 0.0019
# 5 21.6687 0.3029 30.1584 0.0001 31.0312 0.0001
# 6 0.0003 0.0025 0.0000 0.0019 0.0001 19.4922
#
#
#
# Elastic Compliance Matrix: (Units=1/GPa)
#
#
# Indices 1 2 3 4 5 6 
#
# 1 0.016673 -0.005126 -0.002027 0.000000 -0.009622 0.000000
# 2 -0.005126 0.064844 0.013471 -0.000005 -0.010146 -0.000008
# 3 -0.002027 0.013471 0.036017 -0.000001 -0.033720 -0.000001
# 4 0.000000 -0.000005 -0.000001 0.056813 0.000001 -0.000005
# 5 -0.009622 -0.010146 -0.033720 0.000001 0.071815 0.000001
# 6 0.000000 -0.000008 -0.000001 -0.000005 0.000001 0.051303
#
#
# Mechanical properties :
#
#
# Convention : Reuss Voigt Hill
#
# Bulk Modulus (GPa) = 7.68222 21.85221 14.76721
# Shear Modulus (GPa) = 15.23371 22.39186 18.81279
#
# Velocity S-wave (km/s) = 2.69886 3.27207 2.99919
# Velocity P-wave (km/s) = 3.65854 4.97228 4.36512
#
# Compressibility (1/GPa) = 0.13017075
#
# Stress axis : x y z
#
# Youngs Moduli (GPa) = 59.97707 15.42153 27.76457
#
# Poissons Ratio (x) = 0.07905 0.05629
# Poissons Ratio (y) = 0.30743 -0.37402
# Poissons Ratio (z) = 0.12159 -0.20775
#
# Static dielectric constant tensor:
#      x y z
#    x 1.775320 0.000000 0.015930 
#    y 0.000000 1.750230 0.000000 
#    z 0.015930 0.000000 1.738100 
# 
# From -- ./inp_files/382536.got.cif
#   From: 2010.05.17/outbox.cif.g08.bks.cpg/sg12_192_cif.got.tgz:382536.got - 2010.06.03 13:09:07.
