data_PCOD9185176
_publ_section_title
;
Structure prediction by ZEFSAII (Michael W. Deem and Ramdas Pophale) SiO2 
 PCOD9185176
Probable space group: C 2/M
;
_chemical_formula_sum "Si O2"
_cell_formula_units_Z 56
_cell_length_a 21.233352
_cell_length_b 7.537079
_cell_length_c 18.264386
_cell_angle_alpha 90.000000
_cell_angle_beta 64.141844
_cell_angle_gamma 90.000000
_cell_volume 2630.326344
_symmetry_space_group_name_H-M "C 2/M"
_symmetry_group_IT_number 12
_symmetry_cell_setting 'monoclinic'
loop_
_space_group_symop_operation_xyz
x,y,z
-x,y,-z
-x,-y,-z
x,-y,z
1/2+x,1/2+y,z
1/2-x,1/2+y,-z
1/2-x,1/2-y,-z
1/2+x,1/2-y,z
loop_
_atom_site_type_symbol
_atom_site_label
_atom_site_fract_x
_atom_site_fract_y
_atom_site_fract_z
Si Si1 0.656316 0.710169 0.760092
Si Si2 0.094455 0.708127 0.228226
Si Si3 0.425592 0.216355 0.503138
Si Si4 0.437690 0.214387 0.330819
Si Si5 0.579510 0.282616 0.944559
Si Si6 0.815298 0.282236 0.680397
Si Si7 0.167803 0.210528 0.039294
O O1 0.662686 0.500000 0.769828
O O2 0.616925 0.734563 0.703703
O O3 0.610032 0.779063 0.851324
O O4 0.735424 0.780475 0.718770
O O5 0.087220 0.500000 0.248839
O O6 0.145066 0.778535 0.266145
O O7 0.129386 0.724116 0.131569
O O8 0.015718 0.780652 0.271190
O O9 0.500000 0.271544 0.500000
O O10 0.419775 0.274357 0.422068
O O11 0.362114 0.272272 0.587387
O O12 0.426170 0.000000 0.502887
O O13 0.438762 0.000000 0.331300
O O14 0.578815 0.500000 0.944338
O O15 0.500000 0.226064 0.000000
O O16 0.630105 0.223608 0.984802
O O17 0.814040 0.500000 0.680961
O O18 0.159719 0.000000 0.043192
O O19 0.250000 0.250000 0.000000
#
# Coordination Sequence:
#
# PCOD9185176 Si02
#       7
#     8   8   8   8   8   8   8
#     4  10  20  34  52  75 104 139 176 215 264 320
#     4  10  19  34  56  80 104 134 178 226 266 307
#     4   9  15  29  53  80 104 134 179 222 260 309
#     4  10  20  33  54  82 108 134 173 224 268 311
#     4   9  18  34  54  73  98 139 184 215 247 310
#     4   9  17  31  53  77 104 141 183 221 257 312
#     4  11  22  36  56  81 108 138 176 222 268 315
#
# _framework density 21.290136
#
# number of rings (size 3 to 8) (size 9 to 14) (size 15 to 20)
#    0.000    2.286    1.429    2.143    0.000    4.571 
#    0.000    3.571    0.000    5.143    0.000    0.000 
#    0.000    0.000    0.000    0.000    0.000    0.000 
#
# Total GULP energy -156442.636093 kJ/mol
# GULP energy per Si atom -5587.237003 kJ/mol
# Density = 2.124168 g / cm^3
# Si number density = 21.290136 Si / 1000 Ang^3
#
#
#
# Elastic Constant Matrix: (Units=GPa)
#
#
# Indices 1 2 3 4 5 6 
#
# 1 176.2225 3.9007 83.9079 -0.0002 0.4533 -0.0003
# 2 3.9007 43.9634 -3.0536 -0.0029 -10.6028 -0.0003
# 3 83.9079 -3.0536 164.6768 0.0003 1.0036 0.0000
# 4 -0.0002 -0.0029 0.0003 -20.0324 -0.0005 22.7830
# 5 0.4533 -10.6028 1.0036 -0.0005 32.6780 0.0001
# 6 -0.0003 -0.0003 0.0000 22.7830 0.0001 11.3992
#
#
#
# Elastic Compliance Matrix: (Units=1/GPa)
#
#
# Indices 1 2 3 4 5 6 
#
# 1 0.007534 -0.001012 -0.003855 0.000000 -0.000314 0.000000
# 2 -0.001012 0.024841 0.000927 -0.000001 0.008046 0.000002
# 3 -0.003855 0.000927 0.008054 0.000000 0.000107 0.000000
# 4 0.000000 -0.000001 0.000000 -0.015251 -0.000001 0.030482
# 5 -0.000314 0.008046 0.000107 -0.000001 0.033213 0.000001
# 6 0.000000 0.000002 0.000000 0.030482 0.000001 0.026802
#
#
# Mechanical properties :
#
#
# Convention : Reuss Voigt Hill
#
# Bulk Modulus (GPa) = 30.72445 61.59698 46.16072
# Shear Modulus (GPa) = 48.11332 24.81615 36.46473
#
# Velocity S-wave (km/s) = 4.75898 3.41782 4.14303
# Velocity P-wave (km/s) = 6.68281 6.67610 6.67945
#
# Compressibility (1/GPa) = 0.03254737
#
# Stress axis : x y z
#
# Youngs Moduli (GPa) = 132.73825 40.25643 124.16935
#
# Poissons Ratio (x) = 0.04074 0.47873
# Poissons Ratio (y) = 0.13434 -0.11514
# Poissons Ratio (z) = 0.51177 -0.03733
#
# Static dielectric constant tensor:
#      x y z
#    x 1.730860 0.000000 -0.000730 
#    y 0.000000 1.823280 0.000000 
#    z -0.000730 0.000000 1.722380 
# 
# From -- ./inp_files/275287.got.cif
#   From: 2010.05.17/outbox.cif.g08.bks.cpg/sg12_138_cif.got.tgz:275287.got - 2010.06.03 13:09:07.
