data_PCOD9185497
_publ_section_title
;
Structure prediction by ZEFSAII (Michael W. Deem and Ramdas Pophale) SiO2 
 PCOD9185497
Probable space group: C 2/M
;
_chemical_formula_sum "Si O2"
_cell_formula_units_Z 64
_cell_length_a 16.047714
_cell_length_b 7.892048
_cell_length_c 20.469922
_cell_angle_alpha 90.000000
_cell_angle_beta 109.524800
_cell_angle_gamma 90.000000
_cell_volume 2443.425039
_symmetry_space_group_name_H-M "C 2/M"
_symmetry_group_IT_number 12
_symmetry_cell_setting 'monoclinic'
loop_
_space_group_symop_operation_xyz
x,y,z
-x,y,-z
-x,-y,-z
x,-y,z
1/2+x,1/2+y,z
1/2-x,1/2+y,-z
1/2-x,1/2-y,-z
1/2+x,1/2-y,z
loop_
_atom_site_type_symbol
_atom_site_label
_atom_site_fract_x
_atom_site_fract_y
_atom_site_fract_z
Si Si1 0.550815 0.194412 0.951148
Si Si2 0.706292 0.704557 0.586234
Si Si3 0.941135 0.299570 0.542523
Si Si4 0.113214 0.199976 0.834448
Si Si5 0.904777 0.804663 0.672696
Si Si6 0.138875 0.198539 0.701971
Si Si7 0.840197 0.207478 0.788934
Si Si8 0.309564 0.302232 0.923262
O O1 0.651227 0.202181 0.005686
O O2 0.524138 0.000000 0.937302
O O3 0.500000 0.274189 0.000000
O O4 0.549684 0.276262 0.879669
O O5 0.714987 0.500000 0.591833
O O6 0.657452 0.753791 0.507187
O O7 0.802276 0.782511 0.623580
O O8 0.643425 0.770370 0.629659
O O9 0.949686 0.500000 0.543046
O O10 0.957247 0.249993 0.621709
O O11 0.000000 0.219447 0.500000
O O12 0.091113 0.265852 0.755366
O O13 0.206615 0.278352 0.880594
O O14 0.126312 0.000000 0.829822
O O15 0.901358 0.730385 0.745235
O O16 0.926607 0.000000 0.687891
O O17 0.242663 0.219683 0.748780
O O18 0.118000 0.000000 0.689278
O O19 0.858421 0.253513 0.868626
O O20 0.835233 0.000000 0.785716
O O21 0.325835 0.500000 0.939321
#
# Coordination Sequence:
#
# PCOD9185497 Si02
#       8
#     8   8   8   8   8   8   8   8
#     4  11  24  39  52  71 103 141 180 219 258 303
#     4  10  19  34  57  82 107 135 170 211 257 308
#     4  11  24  39  52  71 103 141 180 219 258 303
#     4  10  19  34  57  82 107 135 170 211 257 308
#     4  10  19  34  57  82 107 135 170 211 257 308
#     4   8  16  30  51  80 107 131 163 207 255 304
#     4   8  16  30  51  80 107 131 163 207 255 304
#     4  10  19  34  57  82 107 135 170 211 257 308
#
# _framework density 26.192740000000001
#
# number of rings (size 3 to 8) (size 9 to 14) (size 15 to 20)
#    0.000    2.250    0.000    3.000    0.000    4.000 
#    0.000    1.250    0.000    7.500    0.000    0.000 
#    0.000    0.000    0.000    0.000    0.000    0.000 
#
# Total GULP energy -178903.009469 kJ/mol
# GULP energy per Si atom -5590.719046 kJ/mol
# Density = 2.613312 g / cm^3
# Si number density = 26.192740 Si / 1000 Ang^3
#
#
#
# Elastic Constant Matrix: (Units=GPa)
#
#
# Indices 1 2 3 4 5 6 
#
# 1 79.8815 -4.4725 43.5420 0.0000 -32.4255 0.0000
# 2 -4.4725 65.7956 -0.1279 0.0000 -4.9848 0.0000
# 3 43.5420 -0.1279 199.7041 0.0000 -17.9492 0.0000
# 4 0.0000 0.0000 0.0000 18.8676 0.0000 -9.3526
# 5 -32.4255 -4.9848 -17.9492 0.0000 58.5384 0.0000
# 6 0.0000 0.0000 0.0000 -9.3526 0.0000 23.2329
#
#
#
# Elastic Compliance Matrix: (Units=1/GPa)
#
#
# Indices 1 2 3 4 5 6 
#
# 1 0.018061 0.001920 -0.003108 0.000000 0.009215 0.000000
# 2 0.001920 0.015505 -0.000200 0.000000 0.002322 0.000000
# 3 -0.003108 -0.000200 0.005685 0.000000 0.000004 0.000000
# 4 0.000000 0.000000 0.000000 0.066213 0.000000 0.026655
# 5 0.009215 0.002322 0.000004 0.000000 0.022386 0.000000
# 6 0.000000 0.000000 0.000000 0.026655 0.000000 0.053772
#
#
# Mechanical properties :
#
#
# Convention : Reuss Voigt Hill
#
# Bulk Modulus (GPa) = 27.41703 47.02936 37.22320
# Shear Modulus (GPa) = 25.43783 40.55710 32.99746
#
# Velocity S-wave (km/s) = 3.11975 3.93925 3.55321
# Velocity P-wave (km/s) = 4.84431 6.21968 5.57457
#
# Compressibility (1/GPa) = 0.03647368
#
# Stress axis : x y z
#
# Youngs Moduli (GPa) = 55.36875 64.49679 175.88871
#
# Poissons Ratio (x) = -0.12382 0.54673
# Poissons Ratio (y) = -0.10629 0.03516
# Poissons Ratio (z) = 0.17211 0.01289
#
# Static dielectric constant tensor:
#      x y z
#    x 2.209520 0.000000 -0.059690 
#    y 0.000000 1.918130 0.000000 
#    z -0.059690 0.000000 2.067150 
# 
# From -- ./inp_files/313980.got.cif
#   From: 2010.05.17/outbox.cif.g08.bks.cpg/sg12_157_cif.got.tgz:313980.got - 2010.06.03 13:09:07.
