data_PCOD9185899
_publ_section_title
;
Structure prediction by ZEFSAII (Michael W. Deem and Ramdas Pophale) SiO2 
 PCOD9185899
Probable space group: C 2/M
;
_chemical_formula_sum "Si O2"
_cell_formula_units_Z 58
_cell_length_a 23.009172
_cell_length_b 9.120324
_cell_length_c 26.530429
_cell_angle_alpha 90.000000
_cell_angle_beta 33.927552
_cell_angle_gamma 90.000000
_cell_volume 3107.434097
_symmetry_space_group_name_H-M "C 2/M"
_symmetry_group_IT_number 12
_symmetry_cell_setting 'monoclinic'
loop_
_space_group_symop_operation_xyz
x,y,z
-x,y,-z
-x,-y,-z
x,-y,z
1/2+x,1/2+y,z
1/2-x,1/2+y,-z
1/2-x,1/2-y,-z
1/2+x,1/2-y,z
loop_
_atom_site_type_symbol
_atom_site_label
_atom_site_fract_x
_atom_site_fract_y
_atom_site_fract_z
Si Si1 0.121751 0.825790 0.957902
Si Si2 0.581682 0.674761 0.827386
Si Si3 0.235550 0.325214 0.785848
Si Si4 0.210557 0.673318 0.078056
Si Si5 0.544930 0.163047 0.364121
Si Si6 0.522906 0.827260 0.765976
Si Si7 0.139250 0.672681 0.577973
Si Si8 0.500000 0.000000 0.500000
O O1 0.154114 0.730540 0.886903
O O2 0.214135 0.794158 0.930383
O O3 0.121192 0.000000 0.944849
O O4 0.014729 0.795616 0.064791
O O5 0.597838 0.500000 0.815271
O O6 0.685353 0.755685 0.771680
O O7 0.551235 0.732920 0.794270
O O8 0.238846 0.500000 0.781510
O O9 0.350392 0.258912 0.712866
O O10 0.216014 0.500000 0.066245
O O11 0.091525 0.714194 0.171253
O O12 0.250000 0.750000 0.000000
O O13 0.447738 0.221392 0.400793
O O14 0.513385 0.125683 0.444742
O O15 0.571666 0.000000 0.322510
O O16 0.595437 0.809351 0.665759
O O17 0.522379 0.000000 0.780829
O O18 0.154401 0.500000 0.556608
O O19 0.250000 0.750000 0.500000
#
# Coordination Sequence:
#
# PCOD9185899 Si02
#       8
#     8   8   8   8   8   8   8   2
#     4  10  21  38  59  85 122 171 215 258 307 373
#     4  11  23  39  59  86 122 168 223 262 305 380
#     4  12  25  39  60  91 126 164 207 266 322 372
#     4  10  19  34  58  85 119 158 205 255 308 369
#     4   9  20  43  68  94 123 160 214 251 310 384
#     4  10  21  37  58  87 126 166 200 258 326 371
#     4  10  22  41  65  94 130 165 201 258 320 383
#     4   8  20  40  78  96 114 164 214 262 298 384
#
# _framework density 18.664918
#
# number of rings (size 3 to 8) (size 9 to 14) (size 15 to 20)
#    0.414    1.379    1.379    2.897    0.000    7.724 
#    0.000    1.724    0.000    0.000    0.000    0.000 
#    0.000    0.000    0.000    0.000    0.000    0.000 
#
# Total GULP energy -161502.901267 kJ/mol
# GULP energy per Si atom -5569.065561 kJ/mol
# Density = 1.862244 g / cm^3
# Si number density = 18.664918 Si / 1000 Ang^3
#
#
#
# Elastic Constant Matrix: (Units=GPa)
#
#
# Indices 1 2 3 4 5 6 
#
# 1 148.8206 67.8770 51.2696 0.0000 -23.8858 0.0001
# 2 67.8770 54.4378 32.6131 0.0001 -8.3915 0.0000
# 3 51.2696 32.6131 44.3676 0.0000 -10.0457 0.0000
# 4 0.0000 0.0001 0.0000 26.1612 0.0000 -0.6443
# 5 -23.8858 -8.3915 -10.0457 0.0000 32.3112 0.0000
# 6 0.0001 0.0000 0.0000 -0.6443 0.0000 24.7763
#
#
#
# Elastic Compliance Matrix: (Units=1/GPa)
#
#
# Indices 1 2 3 4 5 6 
#
# 1 0.018045 -0.017658 -0.006336 0.000000 0.006784 0.000000
# 2 -0.017658 0.050140 -0.017705 0.000000 -0.005536 0.000000
# 3 -0.006336 -0.017705 0.043861 0.000000 0.004354 0.000000
# 4 0.000000 0.000000 0.000000 0.038249 0.000000 0.000995
# 5 0.006784 -0.005536 0.004354 0.000000 0.035880 0.000000
# 6 0.000000 0.000000 0.000000 0.000995 0.000000 0.040387
#
#
# Mechanical properties :
#
#
# Convention : Reuss Voigt Hill
#
# Bulk Modulus (GPa) = 34.90660 61.23836 48.07248
# Shear Modulus (GPa) = 15.64892 23.04081 19.34487
#
# Velocity S-wave (km/s) = 2.89868 3.51728 3.22285
# Velocity P-wave (km/s) = 5.47224 7.02677 6.29766
#
# Compressibility (1/GPa) = 0.02864788
#
# Stress axis : x y z
#
# Youngs Moduli (GPa) = 55.41678 19.94396 22.79921
#
# Poissons Ratio (x) = 0.35217 0.14446
# Poissons Ratio (y) = 0.97856 0.40366
# Poissons Ratio (z) = 0.35114 0.35311
#
# Static dielectric constant tensor:
#      x y z
#    x 1.655800 0.000000 0.004340 
#    y 0.000000 1.633630 0.000000 
#    z 0.004340 0.000000 1.629770 
# 
# From -- ./inp_files/346488.got.cif
#   From: 2010.05.17/outbox.cif.g08.bks.cpg/sg12_174_cif.got.tgz:346488.got - 2010.06.03 13:09:07.
