data_PCOD9185316
_publ_section_title
;
Structure prediction by ZEFSAII (Michael W. Deem and Ramdas Pophale) SiO2 
 PCOD9185316
Probable space group: C 2/M
;
_chemical_formula_sum "Si O2"
_cell_formula_units_Z 56
_cell_length_a 27.858408
_cell_length_b 9.635038
_cell_length_c 21.257544
_cell_angle_alpha 90.000000
_cell_angle_beta 147.802698
_cell_angle_gamma 90.000000
_cell_volume 3040.301979
_symmetry_space_group_name_H-M "C 2/M"
_symmetry_group_IT_number 12
_symmetry_cell_setting 'monoclinic'
loop_
_space_group_symop_operation_xyz
x,y,z
-x,y,-z
-x,-y,-z
x,-y,z
1/2+x,1/2+y,z
1/2-x,1/2+y,-z
1/2-x,1/2-y,-z
1/2+x,1/2-y,z
loop_
_atom_site_type_symbol
_atom_site_label
_atom_site_fract_x
_atom_site_fract_y
_atom_site_fract_z
Si Si1 0.485816 0.660859 0.163796
Si Si2 0.434501 0.835057 0.985063
Si Si3 0.696284 0.346166 0.575382
Si Si4 0.429631 0.834056 0.364296
Si Si5 0.492929 0.336533 0.313440
Si Si6 0.722069 0.657082 0.746804
Si Si7 0.799063 0.158836 0.606838
O O1 0.458055 0.500000 0.124040
O O2 0.452746 0.755220 0.070177
O O3 0.460228 0.702383 0.206968
O O4 0.594259 0.664765 0.281076
O O5 0.450753 0.000000 0.011405
O O6 0.500000 0.789661 0.000000
O O7 0.328096 0.816543 0.853891
O O8 0.732774 0.500000 0.600076
O O9 0.601843 0.327898 0.435413
O O10 0.678184 0.343355 0.629090
O O11 0.765939 0.228206 0.634353
O O12 0.500000 0.804932 0.500000
O O13 0.459670 0.758897 0.333342
O O14 0.332884 0.769056 0.274837
O O15 0.426114 0.000000 0.352863
O O16 0.471284 0.500000 0.300274
O O17 0.712778 0.500000 0.762912
O O18 0.750000 0.250000 0.500000
O O19 0.769944 0.000000 0.569929
#
# Coordination Sequence:
#
# PCOD9185316 Si02
#       7
#     8   8   8   8   8   8   8
#     4  10  22  39  57  83 118 156 197 241 293 353
#     4  10  22  41  64  90 118 153 201 247 286 345
#     4  10  19  34  56  83 115 151 190 238 292 349
#     4  11  23  37  57  90 125 154 195 247 298 351
#     4  10  20  37  59  83 116 155 195 236 292 360
#     4  10  21  38  62  87 115 156 200 239 293 355
#     4  11  21  33  51  80 116 151 191 235 289 353
#
# _framework density 18.419222000000001
#
# number of rings (size 3 to 8) (size 9 to 14) (size 15 to 20)
#    0.000    1.714    2.857    1.714    0.000    5.429 
#    0.000    0.714    0.000    0.000    0.000    0.000 
#    0.000    0.000    0.000    0.000    0.000    0.000 
#
# Total GULP energy -156185.342450 kJ/mol
# GULP energy per Si atom -5578.047945 kJ/mol
# Density = 1.837730 g / cm^3
# Si number density = 18.419222 Si / 1000 Ang^3
#
#
#
# Elastic Constant Matrix: (Units=GPa)
#
#
# Indices 1 2 3 4 5 6 
#
# 1 111.4515 69.2942 30.9681 0.0000 -13.6874 0.0000
# 2 69.2942 97.8345 35.8227 0.0000 -7.4141 0.0000
# 3 30.9681 35.8227 67.2757 0.0000 -16.6348 0.0000
# 4 0.0000 0.0000 0.0000 26.0895 0.0000 -4.7387
# 5 -13.6874 -7.4141 -16.6348 0.0000 31.3413 0.0000
# 6 0.0000 0.0000 0.0000 -4.7387 0.0000 35.2679
#
#
#
# Elastic Compliance Matrix: (Units=1/GPa)
#
#
# Indices 1 2 3 4 5 6 
#
# 1 0.016669 -0.011254 -0.000620 0.000000 0.004288 0.000000
# 2 -0.011254 0.020308 -0.006515 0.000000 -0.003569 0.000000
# 3 -0.000620 -0.006515 0.020916 0.000000 0.009289 0.000000
# 4 0.000000 0.000000 0.000000 0.039288 0.000000 0.005279
# 5 0.004288 -0.003569 0.009289 0.000000 0.037866 0.000000
# 6 0.000000 0.000000 0.000000 0.005279 0.000000 0.029064
#
#
# Mechanical properties :
#
#
# Convention : Reuss Voigt Hill
#
# Bulk Modulus (GPa) = 47.36395 60.97018 54.16707
# Shear Modulus (GPa) = 24.04703 27.90485 25.97594
#
# Velocity S-wave (km/s) = 3.61715 3.89650 3.75942
# Velocity P-wave (km/s) = 6.57383 7.30869 6.95098
#
# Compressibility (1/GPa) = 0.02111310
#
# Stress axis : x y z
#
# Youngs Moduli (GPa) = 59.99332 49.24288 47.81081
#
# Poissons Ratio (x) = 0.55418 0.02964
# Poissons Ratio (y) = 0.67517 0.31150
# Poissons Ratio (z) = 0.03720 0.32083
#
# Static dielectric constant tensor:
#      x y z
#    x 1.663080 0.000000 -0.018430 
#    y 0.000000 1.637290 0.000000 
#    z -0.018430 0.000000 1.632430 
# 
# From -- ./inp_files/329532.got.cif
#   From: 2010.05.17/outbox.cif.g08.bks.cpg/sg12_165_cif.got.tgz:329532.got - 2010.06.03 13:09:07.
