data_PCOD9185610
_publ_section_title
;
Structure prediction by ZEFSAII (Michael W. Deem and Ramdas Pophale) SiO2 
 PCOD9185610
Probable space group: C 2/M
;
_chemical_formula_sum "Si O2"
_cell_formula_units_Z 56
_cell_length_a 19.197061
_cell_length_b 8.994879
_cell_length_c 28.023344
_cell_angle_alpha 90.000000
_cell_angle_beta 139.299649
_cell_angle_gamma 90.000000
_cell_volume 3155.486008
_symmetry_space_group_name_H-M "C 2/M"
_symmetry_group_IT_number 12
_symmetry_cell_setting 'monoclinic'
loop_
_space_group_symop_operation_xyz
x,y,z
-x,y,-z
-x,-y,-z
x,-y,z
1/2+x,1/2+y,z
1/2-x,1/2+y,-z
1/2-x,1/2-y,-z
1/2+x,1/2-y,z
loop_
_atom_site_type_symbol
_atom_site_label
_atom_site_fract_x
_atom_site_fract_y
_atom_site_fract_z
Si Si1 0.871297 0.827379 0.925519
Si Si2 0.170401 0.321463 0.997630
Si Si3 0.307276 0.177285 0.696940
Si Si4 0.299556 0.672183 0.598347
Si Si5 0.921755 0.325673 0.414106
Si Si6 0.092978 0.171800 0.446882
Si Si7 0.419516 0.821993 0.854032
O O1 0.817414 0.743383 0.942263
O O2 0.859542 0.754343 0.867351
O O3 0.839680 0.000000 0.909154
O O4 0.000000 0.819832 0.000000
O O5 0.183272 0.500000 0.004689
O O6 0.250000 0.250000 0.000000
O O7 0.046216 0.287003 0.920247
O O8 0.349461 0.256912 0.671300
O O9 0.185419 0.231971 0.637319
O O10 0.368810 0.219742 0.777069
O O11 0.312298 0.000000 0.694169
O O12 0.269799 0.500000 0.591369
O O13 0.193687 0.762277 0.528163
O O14 0.375900 0.678366 0.592331
O O15 0.896991 0.500000 0.398266
O O16 0.000000 0.302481 0.500000
O O17 0.990503 0.268896 0.405432
O O18 0.076199 0.000000 0.451906
O O19 0.410293 0.000000 0.855296
#
# Coordination Sequence:
#
# PCOD9185610 Si02
#       7
#     8   8   8   8   8   8   8
#     4   9  17  31  54  82 109 140 179 217 259 315
#     4  10  19  34  57  84 114 145 181 223 265 313
#     4  11  22  36  56  79 106 142 182 222 272 326
#     4  10  20  34  52  77 105 134 172 220 272 323
#     4  11  22  35  53  78 106 136 177 227 273 318
#     4  10  20  34  54  76 100 134 177 223 270 323
#     4   9  20  37  55  79 110 144 180 220 267 321
#
# _framework density 17.746870000000001
#
# number of rings (size 3 to 8) (size 9 to 14) (size 15 to 20)
#    0.000    2.000    1.429    2.571    0.000    5.714 
#    0.000    1.429    0.000    3.429    0.000    0.000 
#    0.000    0.000    0.000    0.000    0.000    0.000 
#
# Total GULP energy -156237.043395 kJ/mol
# GULP energy per Si atom -5579.894407 kJ/mol
# Density = 1.770648 g / cm^3
# Si number density = 17.746870 Si / 1000 Ang^3
#
#
#
# Elastic Constant Matrix: (Units=GPa)
#
#
# Indices 1 2 3 4 5 6 
#
# 1 104.5636 49.7247 36.4425 0.0000 -27.4001 0.0000
# 2 49.7247 72.8908 49.2331 0.0000 -23.6976 0.0000
# 3 36.4425 49.2331 94.9611 0.0000 -34.2716 0.0000
# 4 0.0000 0.0000 0.0000 22.9376 0.0000 -8.8247
# 5 -27.4001 -23.6976 -34.2716 0.0000 27.1561 0.0000
# 6 0.0000 0.0000 0.0000 -8.8247 0.0000 30.9499
#
#
#
# Elastic Compliance Matrix: (Units=1/GPa)
#
#
# Indices 1 2 3 4 5 6 
#
# 1 0.015917 -0.008887 0.002748 0.000000 0.011773 0.000000
# 2 -0.008887 0.027190 -0.009842 0.000000 0.002340 0.000000
# 3 0.002748 -0.009842 0.022918 0.000000 0.023107 0.000000
# 4 0.000000 0.000000 0.000000 0.048968 0.000000 0.013962
# 5 0.011773 0.002340 0.023107 0.000000 0.079906 0.000000
# 6 0.000000 0.000000 0.000000 0.013962 0.000000 0.036291
#
#
# Mechanical properties :
#
#
# Convention : Reuss Voigt Hill
#
# Bulk Modulus (GPa) = 29.35709 60.35733 44.85721
# Shear Modulus (GPa) = 18.21452 25.34308 21.77880
#
# Velocity S-wave (km/s) = 3.20715 3.78303 3.50693
# Velocity P-wave (km/s) = 5.50386 7.29148 6.45980
#
# Compressibility (1/GPa) = 0.03406333
#
# Stress axis : x y z
#
# Youngs Moduli (GPa) = 62.82628 36.77861 43.63377
#
# Poissons Ratio (x) = 0.32684 -0.11990
# Poissons Ratio (y) = 0.55832 0.42944
# Poissons Ratio (z) = -0.17264 0.36197
#
# Static dielectric constant tensor:
#      x y z
#    x 1.620660 0.000000 -0.016630 
#    y 0.000000 1.596630 0.000000 
#    z -0.016630 0.000000 1.596470 
# 
# From -- ./inp_files/342489.got.cif
#   From: 2010.05.17/outbox.cif.g08.bks.cpg/sg12_172_cif.got.tgz:342489.got - 2010.06.03 13:09:07.
