data_PCOD9185717
_publ_section_title
;
Structure prediction by ZEFSAII (Michael W. Deem and Ramdas Pophale) SiO2 
 PCOD9185717
Probable space group: C 2/M
;
_chemical_formula_sum "Si O2"
_cell_formula_units_Z 56
_cell_length_a 20.772286
_cell_length_b 8.831691
_cell_length_c 22.647801
_cell_angle_alpha 90.000000
_cell_angle_beta 48.455538
_cell_angle_gamma 90.000000
_cell_volume 3109.653089
_symmetry_space_group_name_H-M "C 2/M"
_symmetry_group_IT_number 12
_symmetry_cell_setting 'monoclinic'
loop_
_space_group_symop_operation_xyz
x,y,z
-x,y,-z
-x,-y,-z
x,-y,z
1/2+x,1/2+y,z
1/2-x,1/2+y,-z
1/2-x,1/2-y,-z
1/2+x,1/2-y,z
loop_
_atom_site_type_symbol
_atom_site_label
_atom_site_fract_x
_atom_site_fract_y
_atom_site_fract_z
Si Si1 0.016539 0.819456 0.665595
Si Si2 0.676858 0.319015 0.255734
Si Si3 0.751212 0.819552 0.329389
Si Si4 0.814245 0.819369 0.509485
Si Si5 0.436647 0.819044 0.237035
Si Si6 0.246861 0.180282 0.906215
Si Si7 0.617322 0.818672 0.073020
O O1 0.089312 0.790779 0.572313
O O2 0.040661 0.730803 0.710190
O O3 0.921630 0.779929 0.700910
O O4 0.018174 0.000000 0.677833
O O5 0.682972 0.500000 0.257958
O O6 0.705568 0.241474 0.298596
O O7 0.735196 0.262645 0.166008
O O8 0.706015 0.753101 0.415251
O O9 0.849483 0.761761 0.270844
O O10 0.749426 0.000000 0.332520
O O11 0.750000 0.750000 0.500000
O O12 0.800885 0.000000 0.520725
O O13 0.519113 0.778913 0.146775
O O14 0.425039 0.000000 0.242116
O O15 0.324787 0.217855 0.904380
O O16 0.245972 0.000000 0.898337
O O17 0.161143 0.235266 0.991552
O O18 0.623402 0.000000 0.060611
#
# Coordination Sequence:
#
# PCOD9185717 Si02
#       7
#     8   8   8   8   8   8   8
#     4  10  22  38  62  90 119 154 198 247 296 354
#     4  11  23  41  62  87 121 161 199 245 303 357
#     4  12  26  42  60  86 122 161 201 247 300 358
#     4  11  22  39  62  91 121 155 198 248 300 351
#     4  11  21  37  62  90 120 155 200 248 295 352
#     4  10  19  34  57  88 122 157 195 243 295 350
#     4   9  19  34  56  89 121 154 196 243 293 350
#
# _framework density 18.008438999999999
#
# number of rings (size 3 to 8) (size 9 to 14) (size 15 to 20)
#    0.000    1.429    2.857    3.000    0.000    3.429 
#    0.000    3.571    0.000    4.286    0.000    0.000 
#    0.000    0.000    0.000    0.000    0.000    0.000 
#
# Total GULP energy -156495.311542 kJ/mol
# GULP energy per Si atom -5589.118269 kJ/mol
# Density = 1.796745 g / cm^3
# Si number density = 18.008439 Si / 1000 Ang^3
#
#
#
# Elastic Constant Matrix: (Units=GPa)
#
#
# Indices 1 2 3 4 5 6 
#
# 1 84.3260 46.4821 47.8043 0.0000 7.0082 0.0000
# 2 46.4821 75.7295 54.4420 -0.0001 0.9415 0.0002
# 3 47.8043 54.4420 122.0598 0.0000 1.1116 0.0000
# 4 0.0000 -0.0001 0.0000 32.4927 0.0000 4.9597
# 5 7.0082 0.9415 1.1116 0.0000 27.4005 0.0000
# 6 0.0000 0.0002 0.0000 4.9597 0.0000 29.4525
#
#
#
# Elastic Compliance Matrix: (Units=1/GPa)
#
#
# Indices 1 2 3 4 5 6 
#
# 1 0.019296 -0.009398 -0.003325 0.000000 -0.004478 0.000000
# 2 -0.009398 0.024017 -0.007049 0.000000 0.001864 0.000000
# 3 -0.003325 -0.007049 0.012633 0.000000 0.000580 0.000000
# 4 0.000000 0.000000 0.000000 0.031588 0.000000 -0.005319
# 5 -0.004478 0.001864 0.000580 0.000000 0.037553 0.000000
# 6 0.000000 0.000000 0.000000 -0.005319 0.000000 0.034849
#
#
# Mechanical properties :
#
#
# Convention : Reuss Voigt Hill
#
# Bulk Modulus (GPa) = 60.96019 64.39688 62.67854
# Shear Modulus (GPa) = 24.39649 26.76160 25.57905
#
# Velocity S-wave (km/s) = 3.68465 3.85913 3.77290
# Velocity P-wave (km/s) = 7.21295 7.46284 7.33896
#
# Compressibility (1/GPa) = 0.01640415
#
# Stress axis : x y z
#
# Youngs Moduli (GPa) = 51.82452 41.63653 79.15489
#
# Poissons Ratio (x) = 0.39129 0.26317
# Poissons Ratio (y) = 0.48704 0.55794
# Poissons Ratio (z) = 0.17230 0.29349
#
# Static dielectric constant tensor:
#      x y z
#    x 1.587870 0.000000 -0.017340 
#    y 0.000000 1.597940 0.000000 
#    z -0.017340 0.000000 1.602450 
# 
# From -- ./inp_files/319713.got.cif
#   From: 2010.05.17/outbox.cif.g08.bks.cpg/sg12_160_cif.got.tgz:319713.got - 2010.06.03 13:09:07.
