data_PCOD9185027
_publ_section_title
;
Structure prediction by ZEFSAII (Michael W. Deem and Ramdas Pophale) SiO2 
 PCOD9185027
Probable space group: C 2/M
;
_chemical_formula_sum "Si O2"
_cell_formula_units_Z 64
_cell_length_a 34.668749
_cell_length_b 8.334631
_cell_length_c 17.966832
_cell_angle_alpha 90.000000
_cell_angle_beta 39.190408
_cell_angle_gamma 90.000000
_cell_volume 3280.530703
_symmetry_space_group_name_H-M "C 2/M"
_symmetry_group_IT_number 12
_symmetry_cell_setting 'monoclinic'
loop_
_space_group_symop_operation_xyz
x,y,z
-x,y,-z
-x,-y,-z
x,-y,z
1/2+x,1/2+y,z
1/2-x,1/2+y,-z
1/2-x,1/2-y,-z
1/2+x,1/2-y,z
loop_
_atom_site_type_symbol
_atom_site_label
_atom_site_fract_x
_atom_site_fract_y
_atom_site_fract_z
Si Si1 0.909759 0.810305 0.285705
Si Si2 0.652910 0.313156 0.915797
Si Si3 0.599303 0.806283 0.355547
Si Si4 0.329385 0.811198 0.274482
Si Si5 0.280730 0.308757 0.758364
Si Si6 0.997372 0.304870 0.623023
Si Si7 0.694564 0.304784 0.447306
Si Si8 0.470045 0.809715 0.830081
O O1 0.875265 0.778431 0.260205
O O2 0.863560 0.749238 0.419283
O O3 0.974629 0.725979 0.196714
O O4 0.918903 0.000000 0.281881
O O5 0.654783 0.500000 0.893978
O O6 0.654517 0.215439 0.836039
O O7 0.714330 0.267395 0.868299
O O8 0.592015 0.272469 0.051369
O O9 0.666872 0.739312 0.262702
O O10 0.557528 0.751746 0.488174
O O11 0.561200 0.759144 0.339285
O O12 0.601992 0.000000 0.352940
O O13 0.259027 0.754389 0.387237
O O14 0.331863 0.000000 0.287906
O O15 0.273740 0.500000 0.767020
O O16 0.303383 0.254618 0.641945
O O17 0.999465 0.500000 0.620120
O O18 0.991273 0.250606 0.716700
O O19 0.694125 0.500000 0.449072
O O20 0.459390 0.000000 0.841844
#
# Coordination Sequence:
#
# PCOD9185027 Si02
#       8
#     8   8   8   8   8   8   8   8
#     4  11  21  34  53  81 111 142 177 218 263 318
#     4  11  23  40  58  77 101 138 182 227 270 315
#     4   9  16  32  57  86 114 143 176 214 258 315
#     4  10  20  37  57  80 108 141 177 220 268 316
#     4  10  19  34  55  82 111 143 179 219 264 316
#     4   8  17  33  56  83 114 145 176 214 263 315
#     4   8  17  32  52  78 112 143 172 212 262 313
#     4  11  22  38  56  77 105 142 181 222 268 316
#
# _framework density 19.509039000000001
#
# number of rings (size 3 to 8) (size 9 to 14) (size 15 to 20)
#    0.000    2.250    0.000    5.250    0.000    0.500 
#    0.000   12.500    0.000    0.000    0.000    0.000 
#    0.000    0.000    0.000    0.000    0.000    0.000 
#
# Total GULP energy -178680.986172 kJ/mol
# GULP energy per Si atom -5583.780818 kJ/mol
# Density = 1.946464 g / cm^3
# Si number density = 19.509039 Si / 1000 Ang^3
#
#
#
# Elastic Constant Matrix: (Units=GPa)
#
#
# Indices 1 2 3 4 5 6 
#
# 1 67.8428 -3.4470 22.4980 -0.0002 -31.0799 -0.0001
# 2 -3.4470 24.7106 3.5565 0.0022 -5.3039 -0.0002
# 3 22.4980 3.5565 62.4015 0.0000 -25.1221 0.0002
# 4 -0.0002 0.0022 0.0000 19.1756 0.0004 -3.1903
# 5 -31.0799 -5.3039 -25.1221 0.0004 26.0723 -0.0001
# 6 -0.0001 -0.0002 0.0002 -3.1903 -0.0001 20.7421
#
#
#
# Elastic Compliance Matrix: (Units=1/GPa)
#
#
# Indices 1 2 3 4 5 6 
#
# 1 0.039943 0.017071 0.008485 -0.000003 0.059263 0.000000
# 2 0.017071 0.049726 0.005353 -0.000006 0.035623 0.000000
# 3 0.008485 0.005353 0.028054 -0.000001 0.038235 0.000000
# 4 -0.000003 -0.000006 -0.000001 0.053519 -0.000007 0.008232
# 5 0.059263 0.035623 0.038235 -0.000007 0.153089 0.000000
# 6 0.000000 0.000000 0.000000 0.008232 0.000000 0.049477
#
#
# Mechanical properties :
#
#
# Convention : Reuss Voigt Hill
#
# Bulk Modulus (GPa) = 5.56981 22.24111 13.90546
# Shear Modulus (GPa) = 13.44672 22.02114 17.73393
#
# Velocity S-wave (km/s) = 2.62822 3.36336 3.01825
# Velocity P-wave (km/s) = 3.47437 5.14860 4.39200
#
# Compressibility (1/GPa) = 0.17953944
#
# Stress axis : x y z
#
# Youngs Moduli (GPa) = 25.03566 20.11034 35.64547
#
# Poissons Ratio (x) = -0.34330 -0.30244
# Poissons Ratio (y) = -0.42738 -0.19080
# Poissons Ratio (z) = -0.21242 -0.10764
#
# Static dielectric constant tensor:
#      x y z
#    x 1.673860 0.000000 0.004950 
#    y 0.000000 1.662260 0.000000 
#    z 0.004950 0.000000 1.670870 
# 
# From -- ./inp_files/295509.got.cif
#   From: 2010.05.17/outbox.cif.g08.bks.cpg/sg12_148_cif.got.tgz:295509.got - 2010.06.03 13:09:07.
