data_PCOD9185115
_publ_section_title
;
Structure prediction by ZEFSAII (Michael W. Deem and Ramdas Pophale) SiO2 
 PCOD9185115
Probable space group: C 2/M
;
_chemical_formula_sum "Si O2"
_cell_formula_units_Z 56
_cell_length_a 15.521876
_cell_length_b 7.562093
_cell_length_c 22.728160
_cell_angle_alpha 90.000000
_cell_angle_beta 80.635035
_cell_angle_gamma 90.000000
_cell_volume 2632.226386
_symmetry_space_group_name_H-M "C 2/M"
_symmetry_group_IT_number 12
_symmetry_cell_setting 'monoclinic'
loop_
_space_group_symop_operation_xyz
x,y,z
-x,y,-z
-x,-y,-z
x,-y,z
1/2+x,1/2+y,z
1/2-x,1/2+y,-z
1/2-x,1/2-y,-z
1/2+x,1/2-y,z
loop_
_atom_site_type_symbol
_atom_site_label
_atom_site_fract_x
_atom_site_fract_y
_atom_site_fract_z
Si Si1 0.752074 0.803869 0.567544
Si Si2 0.726209 0.214254 0.089877
Si Si3 0.183517 0.292839 0.224267
Si Si4 0.600678 0.289622 0.996234
Si Si5 0.986613 0.284686 0.690735
Si Si6 0.674148 0.785102 0.695551
Si Si7 0.449008 0.214632 0.564391
O O1 0.750000 0.750000 0.500000
O O2 0.703743 0.715353 0.627885
O O3 0.852980 0.794584 0.573737
O O4 0.714139 0.000000 0.570394
O O5 0.706213 0.280246 0.157687
O O6 0.821094 0.278335 0.055473
O O7 0.731153 0.000000 0.089581
O O8 0.646736 0.261557 0.054657
O O9 0.164373 0.500000 0.216825
O O10 0.099523 0.217308 0.267389
O O11 0.263514 0.278998 0.260172
O O12 0.594834 0.500000 0.986768
O O13 0.500000 0.221987 0.000000
O O14 0.982934 0.500000 0.689853
O O15 0.991386 0.233065 0.621580
O O16 0.074076 0.234102 0.714444
O O17 0.680912 0.000000 0.694564
O O18 0.500000 0.268320 0.500000
O O19 0.441071 0.000000 0.563736
#
# Coordination Sequence:
#
# PCOD9185115 Si02
#       7
#     8   8   8   8   8   8   8
#     4  11  22  35  53  77 106 136 176 227 276 328
#     4   9  19  34  53  80 110 142 182 224 263 311
#     4  10  20  36  56  78 108 143 180 223 269 319
#     4   9  18  34  55  79 111 147 180 217 265 317
#     4   9  18  34  54  74 102 139 174 211 267 326
#     4  10  21  37  55  77 105 139 179 221 265 324
#     4  10  19  34  56  77 101 136 176 217 270 332
#
# _framework density 21.274766
#
# number of rings (size 3 to 8) (size 9 to 14) (size 15 to 20)
#    0.000    2.286    1.429    1.286    0.000    5.143 
#    0.000    1.429    0.000    0.000    0.000    0.000 
#    0.000    0.000    0.000    0.000    0.000    0.000 
#
# Total GULP energy -156179.995448 kJ/mol
# GULP energy per Si atom -5577.856980 kJ/mol
# Density = 2.122634 g / cm^3
# Si number density = 21.274766 Si / 1000 Ang^3
#
#
#
# Elastic Constant Matrix: (Units=GPa)
#
#
# Indices 1 2 3 4 5 6 
#
# 1 174.5982 -9.9656 87.6885 0.0000 -0.9197 0.0000
# 2 -9.9656 43.5165 -1.0764 0.0000 -6.0104 0.0000
# 3 87.6885 -1.0764 178.9937 0.0000 -8.4175 0.0000
# 4 0.0000 0.0000 0.0000 -10.8449 0.0000 32.8377
# 5 -0.9197 -6.0104 -8.4175 0.0000 18.8179 0.0000
# 6 0.0000 0.0000 0.0000 32.8377 0.0000 -5.7365
#
#
#
# Elastic Compliance Matrix: (Units=1/GPa)
#
#
# Indices 1 2 3 4 5 6 
#
# 1 0.007729 0.001561 -0.003816 0.000000 -0.000831 0.000000
# 2 0.001561 0.024402 -0.000253 0.000000 0.007757 0.000000
# 3 -0.003816 -0.000253 0.007602 0.000000 0.003133 0.000000
# 4 0.000000 0.000000 0.000000 0.005646 0.000000 0.032317
# 5 -0.000831 0.007757 0.003133 0.000000 0.056979 0.000000
# 6 0.000000 0.000000 0.000000 0.032317 0.000000 0.010673
#
#
# Mechanical properties :
#
#
# Convention : Reuss Voigt Hill
#
# Bulk Modulus (GPa) = 28.80473 61.15572 44.98022
# Shear Modulus (GPa) = 38.57446 21.81143 30.19294
#
# Velocity S-wave (km/s) = 4.26274 3.20539 3.77130
# Velocity P-wave (km/s) = 6.14790 6.51977 6.33656
#
# Compressibility (1/GPa) = 0.03471652
#
# Stress axis : x y z
#
# Youngs Moduli (GPa) = 129.38940 40.97972 131.54420
#
# Poissons Ratio (x) = -0.06396 0.50196
# Poissons Ratio (y) = -0.20195 0.03329
# Poissons Ratio (z) = 0.49374 0.01037
#
# Static dielectric constant tensor:
#      x y z
#    x 1.747520 0.000000 -0.029110 
#    y 0.000000 1.812490 0.000000 
#    z -0.029110 0.000000 1.777220 
# 
# From -- ./inp_files/308923.got.cif
#   From: 2010.05.17/outbox.cif.g08.bks.cpg/sg12_155_cif.got.tgz:308923.got - 2010.06.03 13:09:07.
