data_PCOD9185412
_publ_section_title
;
Structure prediction by ZEFSAII (Michael W. Deem and Ramdas Pophale) SiO2 
 PCOD9185412
Probable space group: C 2/M
;
_chemical_formula_sum "Si O2"
_cell_formula_units_Z 40
_cell_length_a 28.025148
_cell_length_b 7.578525
_cell_length_c 12.160207
_cell_angle_alpha 90.000000
_cell_angle_beta 144.211075
_cell_angle_gamma 90.000000
_cell_volume 1510.363893
_symmetry_space_group_name_H-M "C 2/M"
_symmetry_group_IT_number 12
_symmetry_cell_setting 'monoclinic'
loop_
_space_group_symop_operation_xyz
x,y,z
-x,y,-z
-x,-y,-z
x,-y,z
1/2+x,1/2+y,z
1/2-x,1/2+y,-z
1/2-x,1/2-y,-z
1/2+x,1/2-y,z
loop_
_atom_site_type_symbol
_atom_site_label
_atom_site_fract_x
_atom_site_fract_y
_atom_site_fract_z
Si Si1 0.195544 0.283382 0.624760
Si Si2 0.629768 0.199385 0.283172
Si Si3 0.651690 0.286210 0.943735
Si Si4 0.578942 0.794664 0.589243
Si Si5 0.531498 0.702288 0.897866
O O1 0.194846 0.500000 0.620738
O O2 0.191115 0.225859 0.489732
O O3 0.272923 0.228061 0.840711
O O4 0.117315 0.222032 0.549491
O O5 0.604907 0.296178 0.125411
O O6 0.651402 0.000000 0.295251
O O7 0.544225 0.196439 0.192234
O O8 0.652288 0.500000 0.941403
O O9 0.570270 0.230050 0.857848
O O10 0.647574 0.216091 0.812906
O O11 0.500000 0.710737 0.500000
O O12 0.561216 0.000000 0.535429
O O13 0.506197 0.500000 0.838808
#
# Coordination Sequence:
#
# PCOD9185412 Si02
#       5
#     8   8   8   8   8
#     4   9  19  35  53  76 106 136 169 213 260 302
#     4  10  19  34  57  78 100 135 176 213 252 303
#     4  10  21  36  53  75 106 140 170 207 258 309
#     4  10  20  35  56  79 103 133 172 216 256 299
#     4  10  20  34  52  76 107 137 169 213 258 300
#
# _framework density 26.483682000000002
#
# number of rings (size 3 to 8) (size 9 to 14) (size 15 to 20)
#    0.000    2.200    0.000    4.200    0.000    4.400 
#    0.000    4.000    0.000    0.000    0.000    0.000 
#    0.000    0.000    0.000    0.000    0.000    0.000 
#
# Total GULP energy -111965.361493 kJ/mol
# GULP energy per Si atom -5598.268075 kJ/mol
# Density = 2.642340 g / cm^3
# Si number density = 26.483682 Si / 1000 Ang^3
#
#
#
# Elastic Constant Matrix: (Units=GPa)
#
#
# Indices 1 2 3 4 5 6 
#
# 1 104.7108 10.6964 3.8637 0.0000 -16.9847 0.0000
# 2 10.6964 93.6832 10.9463 0.0000 3.4010 0.0000
# 3 3.8637 10.9463 130.4302 0.0000 -22.1511 0.0000
# 4 0.0000 0.0000 0.0000 26.3729 0.0000 -5.0625
# 5 -16.9847 3.4010 -22.1511 0.0000 53.1048 0.0000
# 6 0.0000 0.0000 0.0000 -5.0625 0.0000 12.1402
#
#
#
# Elastic Compliance Matrix: (Units=1/GPa)
#
#
# Indices 1 2 3 4 5 6 
#
# 1 0.010246 -0.001346 0.000410 0.000000 0.003534 0.000000
# 2 -0.001346 0.011022 -0.001160 0.000000 -0.001620 0.000000
# 3 0.000410 -0.001160 0.008381 0.000000 0.003701 0.000000
# 4 0.000000 0.000000 0.000000 0.041217 0.000000 0.017188
# 5 0.003534 -0.001620 0.003701 0.000000 0.021609 0.000000
# 6 0.000000 0.000000 0.000000 0.017188 0.000000 0.089538
#
#
# Mechanical properties :
#
#
# Convention : Reuss Voigt Hill
#
# Bulk Modulus (GPa) = 39.28439 42.20413 40.74426
# Shear Modulus (GPa) = 25.68167 38.54476 32.11322
#
# Velocity S-wave (km/s) = 3.11741 3.81913 3.48597
# Velocity P-wave (km/s) = 5.27478 5.95132 5.62323
#
# Compressibility (1/GPa) = 0.02545541
#
# Stress axis : x y z
#
# Youngs Moduli (GPa) = 97.60158 90.72471 119.32113
#
# Poissons Ratio (x) = 0.12211 -0.04888
# Poissons Ratio (y) = 0.13137 0.13846
# Poissons Ratio (z) = -0.03998 0.10527
#
# Static dielectric constant tensor:
#      x y z
#    x 2.056780 0.000000 0.076960 
#    y 0.000000 1.922640 0.000000 
#    z 0.076960 0.000000 2.168910 
# 
# From -- ./inp_files/186186.got.cif
#   From: 2010.05.17/outbox.cif.g08.bks.cpg/sg12_94_cif.got.tgz:186186.got - 2010.06.03 13:09:07.
