data_PCOD9185547
_publ_section_title
;
Structure prediction by ZEFSAII (Michael W. Deem and Ramdas Pophale) SiO2 
 PCOD9185547
Probable space group: C 2/M
;
_chemical_formula_sum "Si O2"
_cell_formula_units_Z 56
_cell_length_a 15.646146
_cell_length_b 9.039982
_cell_length_c 20.666829
_cell_angle_alpha 90.000000
_cell_angle_beta 100.996560
_cell_angle_gamma 90.000000
_cell_volume 2869.461713
_symmetry_space_group_name_H-M "C 2/M"
_symmetry_group_IT_number 12
_symmetry_cell_setting 'monoclinic'
loop_
_space_group_symop_operation_xyz
x,y,z
-x,y,-z
-x,-y,-z
x,-y,z
1/2+x,1/2+y,z
1/2-x,1/2+y,-z
1/2-x,1/2-y,-z
1/2+x,1/2-y,z
loop_
_atom_site_type_symbol
_atom_site_label
_atom_site_fract_x
_atom_site_fract_y
_atom_site_fract_z
Si Si1 0.570669 0.177075 0.339942
Si Si2 0.579170 0.671648 0.204740
Si Si3 0.120806 0.320705 0.657897
Si Si4 0.252652 0.833356 0.932614
Si Si5 0.042924 0.330569 0.072168
Si Si6 0.714725 0.827480 0.800286
Si Si7 0.739128 0.678452 0.428357
O O1 0.873553 0.500000 0.338345
O O2 0.561150 0.228401 0.264358
O O3 0.480289 0.216549 0.362211
O O4 0.651304 0.262109 0.382763
O O5 0.558118 0.500000 0.213938
O O6 0.531114 0.733432 0.134278
O O7 0.683381 0.679896 0.205703
O O8 0.916384 0.500000 0.654893
O O9 0.159618 0.266831 0.732009
O O10 0.181485 0.275405 0.607322
O O11 0.353843 0.836831 0.926089
O O12 0.203570 0.755102 0.866388
O O13 0.220972 0.000000 0.936584
O O14 0.250000 0.750000 0.000000
O O15 0.011646 0.500000 0.077869
O O16 0.000000 0.272645 0.000000
O O17 0.693281 0.000000 0.806798
O O18 0.737684 0.500000 0.432246
O O19 0.750000 0.750000 0.500000
#
# Coordination Sequence:
#
# PCOD9185547 Si02
#       7
#     8   8   8   8   8   8   8
#     4  11  22  38  63  93 120 157 204 246 292 354
#     4  10  19  34  57  82 113 152 194 247 304 355
#     4   9  20  39  63  88 120 161 202 237 290 365
#     4  10  20  33  50  75 106 144 188 240 293 349
#     4   9  19  35  53  74 105 148 197 244 293 354
#     4   9  17  35  58  77 104 151 196 237 291 353
#     4  11  23  44  67  92 126 163 200 244 300 356
#
# _framework density 19.515855999999999
#
# number of rings (size 3 to 8) (size 9 to 14) (size 15 to 20)
#    0.000    2.143    1.429    1.714    0.000    3.143 
#    0.000   12.857    0.000    0.000    0.000    0.000 
#    0.000    0.000    0.000    0.000    0.000    0.000 
#
# Total GULP energy -156352.595200 kJ/mol
# GULP energy per Si atom -5584.021257 kJ/mol
# Density = 1.947144 g / cm^3
# Si number density = 19.515856 Si / 1000 Ang^3
#
#
#
# Elastic Constant Matrix: (Units=GPa)
#
#
# Indices 1 2 3 4 5 6 
#
# 1 68.3951 32.4842 45.1882 0.0000 -7.9395 0.0000
# 2 32.4842 80.8398 49.9513 0.0000 -11.6161 0.0000
# 3 45.1882 49.9513 140.8723 0.0000 -11.3131 0.0000
# 4 0.0000 0.0000 0.0000 37.7545 0.0000 2.6454
# 5 -7.9395 -11.6161 -11.3131 0.0000 19.2751 0.0000
# 6 0.0000 0.0000 0.0000 2.6454 0.0000 20.8428
#
#
#
# Elastic Compliance Matrix: (Units=1/GPa)
#
#
# Indices 1 2 3 4 5 6 
#
# 1 0.020285 -0.004964 -0.004530 0.000000 0.002706 0.000000
# 2 -0.004964 0.017887 -0.004249 0.000000 0.006241 0.000000
# 3 -0.004530 -0.004249 0.010183 0.000000 0.001550 0.000000
# 4 0.000000 0.000000 0.000000 0.026725 0.000000 -0.003392
# 5 0.002706 0.006241 0.001550 0.000000 0.057666 0.000000
# 6 0.000000 0.000000 0.000000 -0.003392 0.000000 0.048409
#
#
# Mechanical properties :
#
#
# Convention : Reuss Voigt Hill
#
# Bulk Modulus (GPa) = 47.91493 60.59494 54.25493
# Shear Modulus (GPa) = 23.19158 26.40672 24.79915
#
# Velocity S-wave (km/s) = 3.45098 3.68243 3.56858
# Velocity P-wave (km/s) = 6.36271 7.01405 6.69630
#
# Compressibility (1/GPa) = 0.02087032
#
# Stress axis : x y z
#
# Youngs Moduli (GPa) = 49.29703 55.90653 98.20517
#
# Poissons Ratio (x) = 0.27750 0.44484
# Poissons Ratio (y) = 0.24469 0.41728
# Poissons Ratio (z) = 0.22330 0.23755
#
# Static dielectric constant tensor:
#      x y z
#    x 1.702610 0.000000 0.003240 
#    y 0.000000 1.670450 0.000000 
#    z 0.003240 0.000000 1.659940 
# 
# From -- ./inp_files/308980.got.cif
#   From: 2010.05.17/outbox.cif.g08.bks.cpg/sg12_155_cif.got.tgz:308980.got - 2010.06.03 13:09:07.
