data_PCOD9185919
_publ_section_title
;
Structure prediction by ZEFSAII (Michael W. Deem and Ramdas Pophale) SiO2 
 PCOD9185919
Probable space group: C 2/M
;
_chemical_formula_sum "Si O2"
_cell_formula_units_Z 64
_cell_length_a 25.784997
_cell_length_b 14.747693
_cell_length_c 19.463644
_cell_angle_alpha 90.000000
_cell_angle_beta 156.802505
_cell_angle_gamma 90.000000
_cell_volume 2915.433958
_symmetry_space_group_name_H-M "C 2/M"
_symmetry_group_IT_number 12
_symmetry_cell_setting 'monoclinic'
loop_
_space_group_symop_operation_xyz
x,y,z
-x,y,-z
-x,-y,-z
x,-y,z
1/2+x,1/2+y,z
1/2-x,1/2+y,-z
1/2-x,1/2-y,-z
1/2+x,1/2-y,z
loop_
_atom_site_type_symbol
_atom_site_label
_atom_site_fract_x
_atom_site_fract_y
_atom_site_fract_z
Si Si1 0.089114 0.219052 0.666227
Si Si2 0.502304 0.392910 0.820034
Si Si3 0.794810 0.896487 0.457905
Si Si4 0.841482 0.223064 0.886153
Si Si5 0.312678 0.391180 0.084243
Si Si6 0.524849 0.106437 0.764194
Si Si7 0.140929 0.713416 0.534487
Si Si8 0.519246 0.898396 0.919311
O O1 0.219079 0.259269 0.789020
O O2 0.130886 0.155784 0.779605
O O3 0.000000 0.169300 0.500000
O O4 0.984804 0.292585 0.568007
O O5 0.514864 0.500000 0.849594
O O6 0.359824 0.377053 0.611867
O O7 0.602069 0.368749 0.878879
O O8 0.548356 0.335952 0.941440
O O9 0.843001 0.818906 0.465508
O O10 0.637830 0.893696 0.267183
O O11 0.837057 0.000000 0.491868
O O12 0.772141 0.183447 0.733870
O O13 0.905050 0.320715 0.948480
O O14 0.314618 0.500000 0.094740
O O15 0.160336 0.363037 0.893133
O O16 0.401309 0.160313 0.584614
O O17 0.547214 0.117215 0.872517
O O18 0.504603 0.000000 0.726463
O O19 0.562177 0.000000 0.991100
#
# Coordination Sequence:
#
# PCOD9185919 Si02
#       8
#     8   8   8   8   8   8   8   8
#     4  10  21  34  52  86 124 151 181 227 285 342
#     4  10  21  37  59  86 114 149 194 237 276 328
#     4  10  22  40  61  85 112 145 189 239 288 339
#     4  11  23  37  57  85 118 155 188 227 284 340
#     4  10  19  34  58  86 114 152 194 229 276 335
#     4  10  21  37  59  86 114 149 194 237 276 328
#     4  11  23  37  57  85 118 155 188 227 284 340
#     4  10  22  40  61  85 112 145 189 239 288 339
#
# _framework density 21.952134999999998
#
# number of rings (size 3 to 8) (size 9 to 14) (size 15 to 20)
#    0.000    1.750    2.500    1.500    0.000    4.750 
#    0.000    3.750    0.000    4.500    0.000    5.250 
#    0.000    0.000    0.000    0.000    0.000    0.000 
#
# Total GULP energy -178875.378399 kJ/mol
# GULP energy per Si atom -5589.855575 kJ/mol
# Density = 2.190217 g / cm^3
# Si number density = 21.952135 Si / 1000 Ang^3
#
#
#
# Elastic Constant Matrix: (Units=GPa)
#
#
# Indices 1 2 3 4 5 6 
#
# 1 24.6637 7.2124 6.2771 0.0001 6.7634 0.0000
# 2 7.2124 42.1830 35.3968 0.0001 -9.4772 0.0000
# 3 6.2771 35.3968 102.2984 0.0001 -22.7022 0.0001
# 4 0.0001 0.0001 0.0001 16.1354 0.0001 11.0705
# 5 6.7634 -9.4772 -22.7022 0.0001 35.2125 0.0001
# 6 0.0000 0.0000 0.0001 11.0705 0.0001 -2.3347
#
#
#
# Elastic Compliance Matrix: (Units=1/GPa)
#
#
# Indices 1 2 3 4 5 6 
#
# 1 0.047465 -0.008713 -0.002849 0.000000 -0.013299 0.000000
# 2 -0.008713 0.035102 -0.010670 0.000000 0.004242 0.000000
# 3 -0.002849 -0.010670 0.015318 0.000000 0.007551 0.000000
# 4 0.000000 0.000000 0.000000 0.014571 0.000000 0.069093
# 5 -0.013299 0.004242 0.007551 0.000000 0.036963 0.000000
# 6 0.000000 0.000000 0.000000 0.069093 0.000000 -0.100704
#
#
# Mechanical properties :
#
#
# Convention : Reuss Voigt Hill
#
# Bulk Modulus (GPa) = 18.71884 29.65753 24.18818
# Shear Modulus (GPa) = 45.05054 17.81989 31.43522
#
# Velocity S-wave (km/s) = 4.53505 2.85223 3.78827
# Velocity P-wave (km/s) = 5.99733 4.93826 5.49337
#
# Compressibility (1/GPa) = 0.05342211
#
# Stress axis : x y z
#
# Youngs Moduli (GPa) = 21.06814 28.48816 65.28311
#
# Poissons Ratio (x) = 0.24820 0.18600
# Poissons Ratio (y) = 0.18356 0.69657
# Poissons Ratio (z) = 0.06002 0.30397
#
# Static dielectric constant tensor:
#      x y z
#    x 1.843040 0.000000 0.006350 
#    y 0.000000 1.791500 0.000000 
#    z 0.006350 0.000000 1.816730 
# 
# From -- ./inp_files/146175.got.cif
#   From: 2010.05.17/outbox.cif.g08.bks.cpg/sg12_74_cif.got.tgz:146175.got - 2010.06.03 13:09:07.
