data_PCOD9185100
_publ_section_title
;
Structure prediction by ZEFSAII (Michael W. Deem and Ramdas Pophale) SiO2 
 PCOD9185100
Probable space group: C 2/M
;
_chemical_formula_sum "Si O2"
_cell_formula_units_Z 48
_cell_length_a 14.773666
_cell_length_b 27.664701
_cell_length_c 6.460840
_cell_angle_alpha 90.000000
_cell_angle_beta 91.231308
_cell_angle_gamma 90.000000
_cell_volume 2639.994055
_symmetry_space_group_name_H-M "C 2/M"
_symmetry_group_IT_number 12
_symmetry_cell_setting 'monoclinic'
loop_
_space_group_symop_operation_xyz
x,y,z
-x,y,-z
-x,-y,-z
x,-y,z
1/2+x,1/2+y,z
1/2-x,1/2+y,-z
1/2-x,1/2-y,-z
1/2+x,1/2-y,z
loop_
_atom_site_type_symbol
_atom_site_label
_atom_site_fract_x
_atom_site_fract_y
_atom_site_fract_z
Si Si1 0.267675 0.803959 0.572265
Si Si2 0.500000 0.411698 0.000000
Si Si3 0.584142 0.834159 0.122301
Si Si4 0.850657 0.944702 0.683156
Si Si5 0.668794 0.888191 0.740240
Si Si6 0.500000 0.893879 0.500000
Si Si7 0.412470 0.637667 0.373782
O O1 0.250000 0.750000 0.500000
O O2 0.338110 0.803321 0.765852
O O3 0.306511 0.840072 0.394720
O O4 0.172575 0.827348 0.632475
O O5 0.570421 0.441426 0.141817
O O6 0.442906 0.378042 0.149864
O O7 0.538515 0.862804 0.310407
O O8 0.500000 0.809119 0.000000
O O9 0.630888 0.870140 0.958784
O O10 0.758223 0.920510 0.761005
O O11 0.883260 0.910730 0.496731
O O12 0.836768 0.000000 0.620360
O O13 0.589719 0.916486 0.608796
O O14 0.500000 0.657951 0.500000
#
# Coordination Sequence:
#
# PCOD9185100 Si02
#       7
#     8   4   8   8   8   4   8
#     4  10  20  35  55  77 107 138 175 220 265 314
#     4  10  19  34  56  74 106 142 176 212 263 314
#     4   9  17  33  55  76 100 136 176 214 262 315
#     4  10  20  33  53  79 106 138 178 219 262 315
#     4   9  18  34  54  75 104 135 177 218 266 312
#     4   8  16  32  55  74  98 138 166 214 259 312
#     4   9  20  37  53  77 109 141 172 220 267 309
#
# _framework density 18.181857000000001
#
# number of rings (size 3 to 8) (size 9 to 14) (size 15 to 20)
#    0.000    2.667    0.000    1.250    0.000    4.333 
#    9.000    0.417    7.333    4.500    0.000    0.000 
#    0.000    0.000    0.000    0.000    0.000    0.000 
#
# Total GULP energy -133685.083258 kJ/mol
# GULP energy per Si atom -5570.211802 kJ/mol
# Density = 1.814047 g / cm^3
# Si number density = 18.181857 Si / 1000 Ang^3
#
#
#
# Elastic Constant Matrix: (Units=GPa)
#
#
# Indices 1 2 3 4 5 6 
#
# 1 148.2789 59.4798 55.8702 0.0000 9.7828 0.0000
# 2 59.4798 73.9183 30.7385 0.0000 16.8391 0.0000
# 3 55.8702 30.7385 99.0355 0.0000 -3.1104 0.0000
# 4 0.0000 0.0000 0.0000 1.0045 0.0000 5.9424
# 5 9.7828 16.8391 -3.1104 0.0000 37.2988 0.0000
# 6 0.0000 0.0000 0.0000 5.9424 0.0000 -11.9547
#
#
#
# Elastic Compliance Matrix: (Units=1/GPa)
#
#
# Indices 1 2 3 4 5 6 
#
# 1 0.011214 -0.007351 -0.004043 0.000000 0.000040 0.000000
# 2 -0.007351 0.022722 -0.003175 0.000000 -0.008595 0.000000
# 3 -0.004043 -0.003175 0.013477 0.000000 0.003618 0.000000
# 4 0.000000 0.000000 0.000000 0.252633 0.000000 0.125577
# 5 0.000040 -0.008595 0.003618 0.000000 0.030982 0.000000
# 6 0.000000 0.000000 0.000000 0.125577 0.000000 -0.021228
#
#
# Mechanical properties :
#
#
# Convention : Reuss Voigt Hill
#
# Bulk Modulus (GPa) = 54.72265 68.15662 61.43964
# Shear Modulus (GPa) = 14.49145 16.94600 15.71873
#
# Velocity S-wave (km/s) = 2.82623 3.05623 2.94348
# Velocity P-wave (km/s) = 6.38849 7.07259 6.73922
#
# Compressibility (1/GPa) = 0.01827397
#
# Stress axis : x y z
#
# Youngs Moduli (GPa) = 89.17748 44.01004 74.19783
#
# Poissons Ratio (x) = 0.32352 0.29999
# Poissons Ratio (y) = 0.65555 0.23560
# Poissons Ratio (z) = 0.36056 0.13975
#
# Static dielectric constant tensor:
#      x y z
#    x 1.667300 0.000000 0.021740 
#    y 0.000000 1.575380 0.000000 
#    z 0.021740 0.000000 1.627400 
# 
# From -- ./inp_files/12401.got.cif
#   From: 2010.05.17/outbox.cif.g08.bks.cpg/sg12_7_cif.got.tgz:12401.got - 2010.06.03 13:09:07.
