data_PCOD9185373
_publ_section_title
;
Structure prediction by ZEFSAII (Michael W. Deem and Ramdas Pophale) SiO2 
 PCOD9185373
Probable space group: C 2/M
;
_chemical_formula_sum "Si O2"
_cell_formula_units_Z 56
_cell_length_a 20.818729
_cell_length_b 12.728123
_cell_length_c 19.352688
_cell_angle_alpha 90.000000
_cell_angle_beta 32.882519
_cell_angle_gamma 90.000000
_cell_volume 2784.160808
_symmetry_space_group_name_H-M "C 2/M"
_symmetry_group_IT_number 12
_symmetry_cell_setting 'monoclinic'
loop_
_space_group_symop_operation_xyz
x,y,z
-x,y,-z
-x,-y,-z
x,-y,z
1/2+x,1/2+y,z
1/2-x,1/2+y,-z
1/2-x,1/2-y,-z
1/2+x,1/2-y,z
loop_
_atom_site_type_symbol
_atom_site_label
_atom_site_fract_x
_atom_site_fract_y
_atom_site_fract_z
Si Si1 0.153823 0.878241 0.442435
Si Si2 0.580958 0.271966 0.990240
Si Si3 0.110921 0.749745 0.609928
Si Si4 0.884246 0.836576 0.815501
Si Si5 0.238218 0.385030 0.079968
Si Si6 0.566252 0.881671 0.776104
Si Si7 0.714224 0.616024 0.239375
O O1 0.104971 0.783942 0.534620
O O2 0.296812 0.877313 0.324055
O O3 0.137793 0.859109 0.375812
O O4 0.116851 0.000000 0.492564
O O5 0.653520 0.359910 0.966021
O O6 0.680115 0.196485 0.867449
O O7 0.500000 0.309087 0.000000
O O8 0.508594 0.201059 0.111111
O O9 0.250000 0.750000 0.500000
O O10 0.068989 0.649396 0.692450
O O11 0.018893 0.838754 0.720648
O O12 0.849261 0.713764 0.836394
O O13 0.862223 0.885242 0.761021
O O14 0.793725 0.880447 0.953145
O O15 0.187524 0.500000 0.139011
O O16 0.520621 0.000000 0.827031
O O17 0.765234 0.500000 0.204905
#
# Coordination Sequence:
#
# PCOD9185373 Si02
#       7
#     8   8   8   8   8   8   8
#     4   9  19  34  55  83 117 154 191 235 290 344
#     4  11  20  34  60  89 119 150 192 242 299 350
#     4  10  21  38  57  80 118 152 195 241 287 346
#     4  10  21  38  57  86 113 158 198 239 293 348
#     4  10  22  39  58  84 121 156 194 242 296 351
#     4  10  19  34  56  86 117 151 194 242 293 343
#     4  10  20  33  55  89 121 153 190 238 299 351
#
# _framework density 20.113782
#
# number of rings (size 3 to 8) (size 9 to 14) (size 15 to 20)
#    0.000    2.000    2.857    0.857    0.000    3.143 
#    0.000    1.429    0.000    3.429    0.000    5.000 
#    0.000    0.000    0.000    0.000    0.000    0.000 
#
# Total GULP energy -155937.423087 kJ/mol
# GULP energy per Si atom -5569.193682 kJ/mol
# Density = 2.006800 g / cm^3
# Si number density = 20.113782 Si / 1000 Ang^3
#
#
#
# Elastic Constant Matrix: (Units=GPa)
#
#
# Indices 1 2 3 4 5 6 
#
# 1 105.5423 21.5992 24.8055 0.0000 17.7342 0.0000
# 2 21.5992 83.0100 16.7311 0.0000 18.2211 0.0000
# 3 24.8055 16.7311 56.8921 0.0000 13.6031 0.0000
# 4 0.0000 0.0000 0.0000 6.5153 0.0000 -4.8979
# 5 17.7342 18.2211 13.6031 0.0000 43.0327 0.0000
# 6 0.0000 0.0000 0.0000 -4.8979 0.0000 15.7801
#
#
#
# Elastic Compliance Matrix: (Units=1/GPa)
#
#
# Indices 1 2 3 4 5 6 
#
# 1 0.011132 -0.001538 -0.003743 0.000000 -0.002753 0.000000
# 2 -0.001538 0.013910 -0.002340 0.000000 -0.004516 0.000000
# 3 -0.003743 -0.002340 0.020869 0.000000 -0.004063 0.000000
# 4 0.000000 0.000000 0.000000 0.200196 0.000000 0.062137
# 5 -0.002753 -0.004516 -0.004063 0.000000 0.027570 0.000000
# 6 0.000000 0.000000 0.000000 0.062137 0.000000 0.082657
#
#
# Mechanical properties :
#
#
# Convention : Reuss Voigt Hill
#
# Bulk Modulus (GPa) = 32.60681 41.30178 36.95429
# Shear Modulus (GPa) = 13.09591 25.21954 19.15772
#
# Velocity S-wave (km/s) = 2.55442 3.54481 3.08956
# Velocity P-wave (km/s) = 4.99464 6.11006 5.58029
#
# Compressibility (1/GPa) = 0.03066844
#
# Stress axis : x y z
#
# Youngs Moduli (GPa) = 89.83169 71.89111 47.91797
#
# Poissons Ratio (x) = 0.11055 0.17936
# Poissons Ratio (y) = 0.13814 0.11215
# Poissons Ratio (z) = 0.33625 0.16825
#
# Static dielectric constant tensor:
#      x y z
#    x 1.774870 0.000000 -0.026230 
#    y 0.000000 1.706810 0.000000 
#    z -0.026230 0.000000 1.754770 
# 
# From -- ./inp_files/325123.got.cif
#   From: 2010.05.17/outbox.cif.g08.bks.cpg/sg12_163_cif.got.tgz:325123.got - 2010.06.03 13:09:07.
