data_PCOD9185169
_publ_section_title
;
Structure prediction by ZEFSAII (Michael W. Deem and Ramdas Pophale) SiO2 
 PCOD9185169
Probable space group: C 2/M
;
_chemical_formula_sum "Si O2"
_cell_formula_units_Z 48
_cell_length_a 32.794726
_cell_length_b 17.328386
_cell_length_c 13.400365
_cell_angle_alpha 90.000000
_cell_angle_beta 21.132345
_cell_angle_gamma 90.000000
_cell_volume 2745.441789
_symmetry_space_group_name_H-M "C 2/M"
_symmetry_group_IT_number 12
_symmetry_cell_setting 'monoclinic'
loop_
_space_group_symop_operation_xyz
x,y,z
-x,y,-z
-x,-y,-z
x,-y,z
1/2+x,1/2+y,z
1/2-x,1/2+y,-z
1/2-x,1/2-y,-z
1/2+x,1/2-y,z
loop_
_atom_site_type_symbol
_atom_site_label
_atom_site_fract_x
_atom_site_fract_y
_atom_site_fract_z
Si Si1 0.993530 0.316984 0.135820
Si Si2 0.234066 0.320425 0.677064
Si Si3 0.248800 0.641567 0.300026
Si Si4 0.043848 0.907201 0.290695
Si Si5 0.573384 0.355223 0.641113
Si Si6 0.366395 0.416195 0.222815
O O1 0.884116 0.367554 0.413720
O O2 0.966218 0.231742 0.241226
O O3 0.000000 0.314796 0.000000
O O4 0.111204 0.342970 0.916751
O O5 0.233991 0.229518 0.700260
O O6 0.294071 0.360093 0.635455
O O7 0.322409 0.345345 0.389390
O O8 0.294115 0.589139 0.286207
O O9 0.331889 0.625682 0.018511
O O10 0.000000 0.885427 0.500000
O O11 0.962221 0.876217 0.389222
O O12 0.047577 0.000000 0.275548
O O13 0.495075 0.406373 0.893021
O O14 0.347034 0.500000 0.313695
#
# Coordination Sequence:
#
# PCOD9185169 Si02
#       6
#     8   8   8   8   8   8
#     4  11  19  32  55  80 115 156 181 210 257 324
#     4  11  20  33  52  80 115 150 179 220 268 321
#     4  10  19  34  56  79 110 144 190 221 264 322
#     4  10  21  40  63  82 104 136 181 238 288 325
#     4  10  20  31  54  79 109 139 184 232 270 313
#     4  11  20  32  50  78 114 149 186 221 260 320
#
# _framework density 17.483523999999999
#
# number of rings (size 3 to 8) (size 9 to 14) (size 15 to 20)
#    0.000    1.500    5.000    5.000    0.000    2.000 
#    0.000    5.833    0.000    0.000    0.000    2.333 
#    0.000    0.000    0.000    0.000    0.000    0.000 
#
# Total GULP energy -133815.393509 kJ/mol
# GULP energy per Si atom -5575.641396 kJ/mol
# Density = 1.744373 g / cm^3
# Si number density = 17.483524 Si / 1000 Ang^3
#
#
#
# Elastic Constant Matrix: (Units=GPa)
#
#
# Indices 1 2 3 4 5 6 
#
# 1 111.4439 25.7162 88.5662 0.0000 -8.0910 0.0000
# 2 25.7162 56.2582 34.0795 0.0000 5.5883 0.0000
# 3 88.5662 34.0795 119.3957 0.0000 -20.9370 0.0000
# 4 0.0000 0.0000 0.0000 13.5518 0.0000 4.4317
# 5 -8.0910 5.5883 -20.9370 0.0000 50.8546 0.0000
# 6 0.0000 0.0000 0.0000 4.4317 0.0000 19.5981
#
#
#
# Elastic Compliance Matrix: (Units=1/GPa)
#
#
# Indices 1 2 3 4 5 6 
#
# 1 0.022457 0.000713 -0.017513 0.000000 -0.003716 0.000000
# 2 0.000713 0.022908 -0.008072 0.000000 -0.005727 0.000000
# 3 -0.017513 -0.008072 0.025153 0.000000 0.008456 0.000000
# 4 0.000000 0.000000 0.000000 0.079683 0.000000 -0.018019
# 5 -0.003716 -0.005727 0.008456 0.000000 0.023184 0.000000
# 6 0.000000 0.000000 0.000000 -0.018019 0.000000 0.055100
#
#
# Mechanical properties :
#
#
# Convention : Reuss Voigt Hill
#
# Bulk Modulus (GPa) = 48.13740 64.86907 56.50324
# Shear Modulus (GPa) = 17.53440 26.04997 21.79218
#
# Velocity S-wave (km/s) = 3.17031 3.86420 3.53433
# Velocity P-wave (km/s) = 6.40265 7.55599 7.00310
#
# Compressibility (1/GPa) = 0.02077387
#
# Stress axis : x y z
#
# Youngs Moduli (GPa) = 44.52961 43.65328 39.75595
#
# Poissons Ratio (x) = -0.03112 0.69626
# Poissons Ratio (y) = -0.03174 0.32090
# Poissons Ratio (z) = 0.77986 0.35236
#
# Static dielectric constant tensor:
#      x y z
#    x 1.638030 0.000000 -0.043450 
#    y 0.000000 1.604680 0.000000 
#    z -0.043450 0.000000 1.621790 
# 
# From -- ./inp_files/184150.got.cif
#   From: 2010.05.17/outbox.cif.g08.bks.cpg/sg12_93_cif.got.tgz:184150.got - 2010.06.03 13:09:07.
