data_PCOD9185135
_publ_section_title
;
Structure prediction by ZEFSAII (Michael W. Deem and Ramdas Pophale) SiO2 
 PCOD9185135
Probable space group: C 2/M
;
_chemical_formula_sum "Si O2"
_cell_formula_units_Z 64
_cell_length_a 19.829917
_cell_length_b 7.461909
_cell_length_c 16.982353
_cell_angle_alpha 90.000000
_cell_angle_beta 91.226234
_cell_angle_gamma 90.000000
_cell_volume 2512.286933
_symmetry_space_group_name_H-M "C 2/M"
_symmetry_group_IT_number 12
_symmetry_cell_setting 'monoclinic'
loop_
_space_group_symop_operation_xyz
x,y,z
-x,y,-z
-x,-y,-z
x,-y,z
1/2+x,1/2+y,z
1/2-x,1/2+y,-z
1/2-x,1/2-y,-z
1/2+x,1/2-y,z
loop_
_atom_site_type_symbol
_atom_site_label
_atom_site_fract_x
_atom_site_fract_y
_atom_site_fract_z
Si Si1 0.487424 0.706565 0.871826
Si Si2 0.356095 0.280546 0.949786
Si Si3 0.860443 0.216800 0.124896
Si Si4 0.610316 0.795070 0.625587
Si Si5 0.610760 0.711100 0.455988
Si Si6 0.726959 0.707419 0.200078
Si Si7 0.978324 0.714595 0.699072
Si Si8 0.262126 0.720201 0.627994
O O1 0.497253 0.500000 0.895384
O O2 0.432231 0.779293 0.930737
O O3 0.562596 0.783107 0.866974
O O4 0.456319 0.714237 0.783329
O O5 0.355635 0.500000 0.949751
O O6 0.308983 0.214682 0.877769
O O7 0.336072 0.226911 0.036988
O O8 0.807185 0.282884 0.187251
O O9 0.860075 0.000000 0.130120
O O10 0.583275 0.794634 0.535293
O O11 0.553511 0.714338 0.680180
O O12 0.685156 0.716549 0.621543
O O13 0.619000 0.000000 0.651554
O O14 0.613146 0.500000 0.471234
O O15 0.567786 0.738745 0.376216
O O16 0.685909 0.780113 0.437289
O O17 0.706922 0.500000 0.202280
O O18 0.711243 0.781047 0.285683
O O19 0.980487 0.500000 0.704826
O O20 0.262647 0.500000 0.626139
#
# Coordination Sequence:
#
# PCOD9185135 Si02
#       8
#     8   8   8   8   8   8   8   8
#     4  10  20  36  58  80 105 141 185 228 267 314
#     4   9  18  34  56  80 108 145 184 221 267 321
#     4  10  20  34  54  82 112 140 177 227 276 317
#     4  10  21  38  57  78 109 146 181 218 267 324
#     4  11  22  37  59  84 109 139 180 226 268 315
#     4  10  19  34  56  78 106 146 185 218 261 323
#     4  11  23  38  57  81 111 145 178 218 271 326
#     4   9  19  36  57  80 107 143 183 222 267 319
#
# _framework density 25.474796999999999
#
# number of rings (size 3 to 8) (size 9 to 14) (size 15 to 20)
#    0.000    2.000    0.000    3.750    0.000    7.500 
#    0.000    5.000    0.000    1.500    0.000    0.000 
#    0.000    0.000    0.000    0.000    0.000    0.000 
#
# Total GULP energy -179069.476306 kJ/mol
# GULP energy per Si atom -5595.921135 kJ/mol
# Density = 2.541682 g / cm^3
# Si number density = 25.474797 Si / 1000 Ang^3
#
#
#
# Elastic Constant Matrix: (Units=GPa)
#
#
# Indices 1 2 3 4 5 6 
#
# 1 74.7499 -4.4000 -7.6669 0.0000 -6.9014 0.0000
# 2 -4.4000 90.3235 -7.3797 0.0000 -0.7551 0.0000
# 3 -7.6669 -7.3797 99.3330 0.0000 -12.1141 0.0000
# 4 0.0000 0.0000 0.0000 8.1220 0.0000 -0.5909
# 5 -6.9014 -0.7551 -12.1141 0.0000 50.5510 0.0000
# 6 0.0000 0.0000 0.0000 -0.5909 0.0000 12.8401
#
#
#
# Elastic Compliance Matrix: (Units=1/GPa)
#
#
# Indices 1 2 3 4 5 6 
#
# 1 0.013774 0.000804 0.001394 0.000000 0.002227 0.000000
# 2 0.000804 0.011193 0.000955 0.000000 0.000506 0.000000
# 3 0.001394 0.000955 0.010580 0.000000 0.002740 0.000000
# 4 0.000000 0.000000 0.000000 0.123536 0.000000 0.005685
# 5 0.002227 0.000506 0.002740 0.000000 0.020750 0.000000
# 6 0.000000 0.000000 0.000000 0.005685 0.000000 0.078143
#
#
# Mechanical properties :
#
#
# Convention : Reuss Voigt Hill
#
# Bulk Modulus (GPa) = 23.89332 25.05701 24.47516
# Shear Modulus (GPa) = 18.82387 33.22615 26.02501
#
# Velocity S-wave (km/s) = 2.72126 3.61539 3.19971
# Velocity P-wave (km/s) = 4.39013 5.22355 4.82487
#
# Compressibility (1/GPa) = 0.04185270
#
# Stress axis : x y z
#
# Youngs Moduli (GPa) = 72.60141 89.34365 94.51890
#
# Poissons Ratio (x) = -0.07179 -0.13179
# Poissons Ratio (y) = -0.05834 -0.09029
# Poissons Ratio (z) = -0.10123 -0.08534
#
# Static dielectric constant tensor:
#      x y z
#    x 2.033950 0.000000 0.060660 
#    y 0.000000 1.968190 0.000000 
#    z 0.060660 0.000000 1.962050 
# 
# From -- ./inp_files/281269.got.cif
#   From: 2010.05.17/outbox.cif.g08.bks.cpg/sg12_141_cif.got.tgz:281269.got - 2010.06.03 13:09:07.
