data_PCOD9185641
_publ_section_title
;
Structure prediction by ZEFSAII (Michael W. Deem and Ramdas Pophale) SiO2 
 PCOD9185641
Probable space group: C 2/M
;
_chemical_formula_sum "Si O2"
_cell_formula_units_Z 38
_cell_length_a 25.005894
_cell_length_b 7.812834
_cell_length_c 20.242318
_cell_angle_alpha 90.000000
_cell_angle_beta 151.976710
_cell_angle_gamma 90.000000
_cell_volume 1858.028488
_symmetry_space_group_name_H-M "C 2/M"
_symmetry_group_IT_number 12
_symmetry_cell_setting 'monoclinic'
loop_
_space_group_symop_operation_xyz
x,y,z
-x,y,-z
-x,-y,-z
x,-y,z
1/2+x,1/2+y,z
1/2-x,1/2+y,-z
1/2-x,1/2-y,-z
1/2+x,1/2-y,z
loop_
_atom_site_type_symbol
_atom_site_label
_atom_site_fract_x
_atom_site_fract_y
_atom_site_fract_z
Si Si1 0.962835 0.805869 0.556488
Si Si2 0.110622 0.500000 0.280932
Si Si3 0.000000 0.500000 0.500000
Si Si4 0.654869 0.000000 0.052781
Si Si5 0.066574 0.808794 0.320773
Si Si6 0.804805 0.190636 0.991111
Si Si7 0.251488 0.000000 0.703886
O O1 0.949797 0.766159 0.619886
O O2 0.834689 0.838963 0.389496
O O3 0.015845 0.652837 0.573766
O O4 0.015346 0.000000 0.607935
O O5 0.129248 0.666509 0.346391
O O6 0.183862 0.500000 0.294768
O O7 0.977638 0.500000 0.113100
O O8 0.668820 0.000000 0.146150
O O9 0.712397 0.832849 0.083228
O O10 0.939543 0.816452 0.152250
O O11 0.116251 0.000000 0.371074
O O12 0.765172 0.000000 0.930525
O O13 0.750000 0.250000 0.000000
#
# Coordination Sequence:
#
# PCOD9185641 Si02
#       7
#     8   4   2   4   8   8   4
#     4   9  22  40  56  86 118 148 194 235 286 346
#     4  10  20  38  65  83 110 158 197 238 298 333
#     4  12  20  40  60  76 118 164 184 216 296 358
#     4  10  21  39  56  83 122 155 189 232 295 345
#     4   9  19  38  58  84 114 146 195 248 286 332
#     4  10  19  34  57  85 110 147 194 238 281 334
#     4  10  23  42  55  88 124 149 191 245 282 350
#
# _framework density 20.451785000000001
#
# number of rings (size 3 to 8) (size 9 to 14) (size 15 to 20)
#    0.632    1.684    1.053    1.263    0.000    2.526 
#    7.579    0.000    0.000    5.053    0.000    0.000 
#    0.000    0.000    0.000    0.000    0.000    0.000 
#
# Total GULP energy -105790.643677 kJ/mol
# GULP energy per Si atom -5567.928615 kJ/mol
# Density = 2.040524 g / cm^3
# Si number density = 20.451785 Si / 1000 Ang^3
#
#
#
# Elastic Constant Matrix: (Units=GPa)
#
#
# Indices 1 2 3 4 5 6 
#
# 1 81.2361 78.8073 23.9335 0.0000 -24.5850 0.0000
# 2 78.8073 162.6082 51.3567 0.0000 -29.3071 0.0000
# 3 23.9335 51.3567 78.3847 0.0000 -30.5605 0.0000
# 4 0.0000 0.0000 0.0000 19.2862 0.0000 -6.0122
# 5 -24.5850 -29.3071 -30.5605 0.0000 39.6858 0.0000
# 6 0.0000 0.0000 0.0000 -6.0122 0.0000 21.2749
#
#
#
# Elastic Compliance Matrix: (Units=1/GPa)
#
#
# Indices 1 2 3 4 5 6 
#
# 1 0.025776 -0.011884 0.003887 0.000000 0.010185 0.000000
# 2 -0.011884 0.013425 -0.005962 0.000000 -0.002040 0.000000
# 3 0.003887 -0.005962 0.021006 0.000000 0.014181 0.000000
# 4 0.000000 0.000000 0.000000 0.056860 0.000000 0.016068
# 5 0.010185 -0.002040 0.014181 0.000000 0.040921 0.000000
# 6 0.000000 0.000000 0.000000 0.016068 0.000000 0.051545
#
#
# Mechanical properties :
#
#
# Convention : Reuss Voigt Hill
#
# Bulk Modulus (GPa) = 30.97154 70.04711 50.50933
# Shear Modulus (GPa) = 20.14393 27.25815 23.70104
#
# Velocity S-wave (km/s) = 3.14179 3.65471 3.40792
# Velocity P-wave (km/s) = 5.32332 7.22035 6.34315
#
# Compressibility (1/GPa) = 0.03228771
#
# Stress axis : x y z
#
# Youngs Moduli (GPa) = 38.79622 74.48893 47.60539
#
# Poissons Ratio (x) = 0.88523 -0.18504
# Poissons Ratio (y) = 0.46106 0.28384
# Poissons Ratio (z) = -0.15080 0.44413
#
# Static dielectric constant tensor:
#      x y z
#    x 1.703730 0.000000 0.047400 
#    y 0.000000 1.740730 0.000000 
#    z 0.047400 0.000000 1.750500 
# 
# From -- ./inp_files/238123.got.cif
#   From: 2010.05.17/outbox.cif.g08.bks.cpg/sg12_120_cif.got.tgz:238123.got - 2010.06.03 13:09:07.
