data_PCOD9185783
_publ_section_title
;
Structure prediction by ZEFSAII (Michael W. Deem and Ramdas Pophale) SiO2 
 PCOD9185783
Probable space group: C 2/M
;
_chemical_formula_sum "Si O2"
_cell_formula_units_Z 48
_cell_length_a 22.915661
_cell_length_b 8.156587
_cell_length_c 22.665252
_cell_angle_alpha 90.000000
_cell_angle_beta 32.416349
_cell_angle_gamma 90.000000
_cell_volume 2271.020485
_symmetry_space_group_name_H-M "C 2/M"
_symmetry_group_IT_number 12
_symmetry_cell_setting 'monoclinic'
loop_
_space_group_symop_operation_xyz
x,y,z
-x,y,-z
-x,-y,-z
x,-y,z
1/2+x,1/2+y,z
1/2-x,1/2+y,-z
1/2-x,1/2-y,-z
1/2+x,1/2-y,z
loop_
_atom_site_type_symbol
_atom_site_label
_atom_site_fract_x
_atom_site_fract_y
_atom_site_fract_z
Si Si1 0.204210 0.196248 0.173693
Si Si2 0.663673 0.304720 0.621848
Si Si3 0.889765 0.798998 0.625868
Si Si4 0.581994 0.698502 0.166009
Si Si5 0.430839 0.305254 0.957538
Si Si6 0.329805 0.807094 0.249875
O O1 0.125022 0.252104 0.293603
O O2 0.166911 0.262701 0.141665
O O3 0.195255 0.000000 0.178603
O O4 0.329419 0.236980 0.080402
O O5 0.669578 0.500000 0.625147
O O6 0.750000 0.250000 0.500000
O O7 0.540247 0.266169 0.707680
O O8 0.680439 0.224538 0.671382
O O9 0.779766 0.743185 0.687023
O O10 0.000000 0.743548 0.500000
O O11 0.891057 0.000000 0.623277
O O12 0.593089 0.500000 0.153072
O O13 0.586700 0.760225 0.094814
O O14 0.421213 0.500000 0.964941
O O15 0.554237 0.264460 0.869512
O O16 0.335036 0.000000 0.234261
#
# Coordination Sequence:
#
# PCOD9185783 Si02
#       6
#     8   8   8   8   8   8
#     4  10  19  34  58  83 107 142 188 233 276 329
#     4  10  20  34  54  83 113 148 187 227 277 332
#     4   9  20  36  57  83 109 142 189 238 280 325
#     4   8  17  32  53  80 109 141 179 228 277 326
#     4  10  20  36  55  81 116 146 179 227 285 343
#     4  10  20  36  58  82 109 145 187 234 280 328
#
# _framework density 21.135871999999999
#
# number of rings (size 3 to 8) (size 9 to 14) (size 15 to 20)
#    0.000    2.500    0.000    3.000    2.333    0.667 
#    0.000    9.167    0.000    2.500    0.000    0.000 
#    0.000    0.000    0.000    0.000    0.000    0.000 
#
# Total GULP energy -133952.534668 kJ/mol
# GULP energy per Si atom -5581.355611 kJ/mol
# Density = 2.108777 g / cm^3
# Si number density = 21.135872 Si / 1000 Ang^3
#
#
#
# Elastic Constant Matrix: (Units=GPa)
#
#
# Indices 1 2 3 4 5 6 
#
# 1 71.4768 3.4547 20.0091 -0.0002 -24.1024 0.0002
# 2 3.4547 11.0654 3.2384 -0.0012 2.2180 0.0010
# 3 20.0091 3.2384 131.2786 -0.0002 -11.4010 0.0004
# 4 -0.0002 -0.0012 -0.0002 20.7921 0.0005 -4.3137
# 5 -24.1024 2.2180 -11.4010 0.0005 21.5818 -0.0002
# 6 0.0002 0.0010 0.0004 -4.3137 -0.0002 12.5357
#
#
#
# Elastic Compliance Matrix: (Units=1/GPa)
#
#
# Indices 1 2 3 4 5 6 
#
# 1 0.024318 -0.012920 -0.000958 -0.000001 0.027980 0.000001
# 2 -0.012920 0.100478 -0.002787 0.000005 -0.026228 -0.000006
# 3 -0.000958 -0.002787 0.008137 0.000000 0.003516 0.000000
# 4 -0.000001 0.000005 0.000000 0.051793 -0.000003 0.017822
# 5 0.027980 -0.026228 0.003516 -0.000003 0.082136 0.000002
# 6 0.000001 -0.000006 0.000000 0.017822 0.000002 0.085905
#
#
# Mechanical properties :
#
#
# Convention : Reuss Voigt Hill
#
# Bulk Modulus (GPa) = 10.03984 29.69169 19.86576
# Shear Modulus (GPa) = 11.92463 23.45650 17.69057
#
# Velocity S-wave (km/s) = 2.37784 3.33497 2.89622
# Velocity P-wave (km/s) = 3.50704 5.37661 4.53912
#
# Compressibility (1/GPa) = 0.09960317
#
# Stress axis : x y z
#
# Youngs Moduli (GPa) = 41.12119 9.95241 122.88885
#
# Poissons Ratio (x) = 0.12859 0.11770
# Poissons Ratio (y) = 0.53130 0.34251
# Poissons Ratio (z) = 0.03939 0.02774
#
# Static dielectric constant tensor:
#      x y z
#    x 1.790710 0.000000 -0.000750 
#    y 0.000000 1.747370 0.000000 
#    z -0.000750 0.000000 1.740010 
# 
# From -- ./inp_files/348753.got.cif
#   From: 2010.05.17/outbox.cif.g08.bks.cpg/sg12_175_cif.got.tgz:348753.got - 2010.06.03 13:09:07.
