data_PCOD9185062
_publ_section_title
;
Structure prediction by ZEFSAII (Michael W. Deem and Ramdas Pophale) SiO2 
 PCOD9185062
Probable space group: C 2/M
;
_chemical_formula_sum "Si O2"
_cell_formula_units_Z 64
_cell_length_a 23.077644
_cell_length_b 17.051387
_cell_length_c 15.318560
_cell_angle_alpha 90.000000
_cell_angle_beta 31.841770
_cell_angle_gamma 90.000000
_cell_volume 3180.193417
_symmetry_space_group_name_H-M "C 2/M"
_symmetry_group_IT_number 12
_symmetry_cell_setting 'monoclinic'
loop_
_space_group_symop_operation_xyz
x,y,z
-x,y,-z
-x,-y,-z
x,-y,z
1/2+x,1/2+y,z
1/2-x,1/2+y,-z
1/2-x,1/2-y,-z
1/2+x,1/2-y,z
loop_
_atom_site_type_symbol
_atom_site_label
_atom_site_fract_x
_atom_site_fract_y
_atom_site_fract_z
Si Si1 0.184040 0.831233 0.446300
Si Si2 0.371328 0.658517 0.670724
Si Si3 0.597166 0.730598 0.835625
Si Si4 0.301560 0.830509 0.968277
Si Si5 0.305422 0.586561 0.217669
Si Si6 0.624894 0.150689 0.315767
Si Si7 0.030588 0.272512 0.739983
Si Si8 0.701613 0.913148 0.543749
O O1 0.178543 0.867517 0.357948
O O2 0.284725 0.770118 0.317584
O O3 0.073993 0.779492 0.603456
O O4 0.215002 0.888792 0.485749
O O5 0.500000 0.636890 0.500000
O O6 0.366073 0.754499 0.682832
O O7 0.293215 0.630804 0.850514
O O8 0.609057 0.657005 0.884699
O O9 0.559418 0.718161 0.785345
O O10 0.500000 0.783616 0.000000
O O11 0.345055 0.870320 0.823186
O O12 0.407768 0.803221 0.887618
O O13 0.250000 0.750000 0.000000
O O14 0.348953 0.500000 0.141033
O O15 0.210124 0.609841 0.272175
O O16 0.258948 0.585402 0.375958
O O17 0.500000 0.129069 0.500000
O O18 0.108066 0.347709 0.655001
O O19 0.657434 0.000000 0.617923
#
# Coordination Sequence:
#
# PCOD9185062 Si02
#       8
#     8   8   8   8   8   8   8   8
#     4  11  18  35  58  85 114 148 195 246 301 341
#     4  10  19  34  57  86 114 146 190 252 300 342
#     4  11  21  33  54  80 114 151 191 246 291 345
#     4  10  21  33  56  89 115 146 195 247 299 346
#     4  11  21  36  54  80 120 161 192 230 295 364
#     4  10  19  34  55  83 120 151 188 241 292 350
#     4  11  19  35  59  89 111 149 197 249 297 349
#     4  10  20  35  57  86 120 155 195 240 298 363
#
# _framework density 20.124562999999998
#
# number of rings (size 3 to 8) (size 9 to 14) (size 15 to 20)
#    0.000    1.500    3.750    4.500    1.750    0.500 
#    0.000    0.625    0.000   14.625    0.000    0.000 
#    0.000    0.000    0.000    0.000    0.000    0.000 
#
# Total GULP energy -178365.440906 kJ/mol
# GULP energy per Si atom -5573.920028 kJ/mol
# Density = 2.007876 g / cm^3
# Si number density = 20.124563 Si / 1000 Ang^3
#
#
#
# Elastic Constant Matrix: (Units=GPa)
#
#
# Indices 1 2 3 4 5 6 
#
# 1 123.0784 2.3644 39.5020 0.0000 7.6732 0.0000
# 2 2.3644 43.9097 0.8711 0.0000 -0.0204 0.0000
# 3 39.5020 0.8711 121.3852 0.0000 9.4736 0.0000
# 4 0.0000 0.0000 0.0000 3.7390 0.0000 0.5991
# 5 7.6732 -0.0204 9.4736 0.0000 31.0784 0.0000
# 6 0.0000 0.0000 0.0000 0.5991 0.0000 1.0985
#
#
#
# Elastic Compliance Matrix: (Units=1/GPa)
#
#
# Indices 1 2 3 4 5 6 
#
# 1 0.009138 -0.000436 -0.002863 0.000000 -0.001384 0.000000
# 2 -0.000436 0.022798 -0.000032 0.000000 0.000132 0.000000
# 3 -0.002863 -0.000032 0.009337 0.000000 -0.002139 0.000000
# 4 0.000000 0.000000 0.000000 0.293060 0.000000 -0.159836
# 5 -0.001384 0.000132 -0.002139 0.000000 0.033171 0.000000
# 6 0.000000 0.000000 0.000000 -0.159836 0.000000 0.997529
#
#
# Mechanical properties :
#
#
# Convention : Reuss Voigt Hill
#
# Bulk Modulus (GPa) = 28.89161 41.53869 35.21515
# Shear Modulus (GPa) = 3.61472 23.55889 13.58681
#
# Velocity S-wave (km/s) = 1.34167 3.42519 2.60116
# Velocity P-wave (km/s) = 4.09727 6.02729 5.15344
#
# Compressibility (1/GPa) = 0.03461212
#
# Stress axis : x y z
#
# Youngs Moduli (GPa) = 109.42899 43.86314 107.10023
#
# Poissons Ratio (x) = 0.01912 0.30660
# Poissons Ratio (y) = 0.04770 0.00343
# Poissons Ratio (z) = 0.31327 0.00141
#
# Static dielectric constant tensor:
#      x y z
#    x 1.729010 0.000000 0.039620 
#    y 0.000000 1.688680 0.000000 
#    z 0.039620 0.000000 1.793060 
# 
# From -- ./inp_files/241448.got.cif
#   From: 2010.05.17/outbox.cif.g08.bks.cpg/sg12_121_cif.got.tgz:241448.got - 2010.06.03 13:09:07.
