data_PCOD9185377
_publ_section_title
;
Structure prediction by ZEFSAII (Michael W. Deem and Ramdas Pophale) SiO2 
 PCOD9185377
Probable space group: C 2/M
;
_chemical_formula_sum "Si O2"
_cell_formula_units_Z 60
_cell_length_a 17.172417
_cell_length_b 17.919064
_cell_length_c 14.783859
_cell_angle_alpha 90.000000
_cell_angle_beta 141.934707
_cell_angle_gamma 90.000000
_cell_volume 2804.847495
_symmetry_space_group_name_H-M "C 2/M"
_symmetry_group_IT_number 12
_symmetry_cell_setting 'monoclinic'
loop_
_space_group_symop_operation_xyz
x,y,z
-x,y,-z
-x,-y,-z
x,-y,z
1/2+x,1/2+y,z
1/2-x,1/2+y,-z
1/2-x,1/2-y,-z
1/2+x,1/2-y,z
loop_
_atom_site_type_symbol
_atom_site_label
_atom_site_fract_x
_atom_site_fract_y
_atom_site_fract_z
Si Si1 0.103843 0.914921 0.747700
Si Si2 0.290450 0.293304 0.277279
Si Si3 0.037818 0.842130 0.220279
Si Si4 0.208676 0.847421 0.110923
Si Si5 0.135080 0.584339 0.900298
Si Si6 0.286661 0.913137 0.373635
Si Si7 0.000000 0.330594 0.500000
Si Si8 0.548396 0.178866 0.149550
O O1 0.134444 0.863130 0.691480
O O2 0.008625 0.869910 0.725176
O O3 0.063039 0.000000 0.693649
O O4 0.239719 0.918076 0.922358
O O5 0.206842 0.241771 0.130774
O O6 0.387670 0.228105 0.386690
O O7 0.199089 0.321897 0.271937
O O8 0.179140 0.870193 0.331287
O O9 0.030487 0.754942 0.190254
O O10 0.927927 0.872679 0.051665
O O11 0.317642 0.862788 0.137430
O O12 0.242802 0.895744 0.230129
O O13 0.110586 0.500000 0.845945
O O14 0.020948 0.615837 0.855773
O O15 0.568408 0.884277 0.489389
O O16 0.280899 0.000000 0.388248
O O17 0.500000 0.175457 0.000000
#
# Coordination Sequence:
#
# PCOD9185377 Si02
#       8
#     8   8   8   8   8   8   4   8
#     4  10  21  35  55  85 119 148 178 223 282 336
#     4  11  21  38  59  81 108 150 194 234 270 321
#     4  11  19  34  56  88 118 140 178 222 279 345
#     4  10  19  34  56  86 120 147 177 219 275 343
#     4  10  21  33  52  87 123 151 176 216 279 341
#     4  11  21  35  58  82 113 148 183 231 279 329
#     4  10  23  40  57  76 102 146 202 238 269 322
#     4  12  19  33  57  84 114 146 187 226 271 332
#
# _framework density 21.391538000000001
#
# number of rings (size 3 to 8) (size 9 to 14) (size 15 to 20)
#    0.000    1.333    5.333    2.200    0.000    5.067 
#    0.000    1.000    2.933    0.000    0.000    0.000 
#    0.000    0.000    0.000    0.000    0.000    0.000 
#
# Total GULP energy -167143.442778 kJ/mol
# GULP energy per Si atom -5571.448093 kJ/mol
# Density = 2.134285 g / cm^3
# Si number density = 21.391538 Si / 1000 Ang^3
#
#
#
# Elastic Constant Matrix: (Units=GPa)
#
#
# Indices 1 2 3 4 5 6 
#
# 1 118.8505 23.7120 4.2875 0.0000 41.4178 0.0000
# 2 23.7120 16.8946 -31.2783 0.0000 0.8157 0.0000
# 3 4.2875 -31.2783 12.8099 0.0000 30.6581 0.0000
# 4 0.0000 0.0000 0.0000 12.4294 0.0000 25.0191
# 5 41.4178 0.8157 30.6581 0.0000 30.0846 0.0000
# 6 0.0000 0.0000 0.0000 25.0191 0.0000 146.3173
#
#
#
# Elastic Compliance Matrix: (Units=1/GPa)
#
#
# Indices 1 2 3 4 5 6 
#
# 1 0.031337 -0.038154 0.001997 0.000000 -0.044143 0.000000
# 2 -0.038154 0.060188 -0.026357 0.000000 0.077755 0.000000
# 3 0.001997 -0.026357 -0.012445 0.000000 0.010648 0.000000
# 4 0.000000 0.000000 0.000000 0.122679 0.000000 -0.020977
# 5 -0.044143 0.077755 0.010648 0.000000 0.081052 0.000000
# 6 0.000000 0.000000 0.000000 -0.020977 0.000000 0.010421
#
#
# Mechanical properties :
#
#
# Convention : Reuss Voigt Hill
#
# Bulk Modulus (GPa) = -21.76352 15.77749 -2.99301
# Shear Modulus (GPa) = 12.40863 47.88852 30.14858
#
# Velocity S-wave (km/s) = 2.41108 4.73659 3.75823
# Velocity P-wave (km/s) = 1.56362 6.10780 4.17495
#
# Compressibility (1/GPa) = -0.04594845
#
# Stress axis : x y z
#
# Youngs Moduli (GPa) = 31.91106 16.61448 -80.35264
#
# Poissons Ratio (x) = 0.63391 0.16046
# Poissons Ratio (y) = 1.21753 -2.11789
# Poissons Ratio (z) = -0.06372 0.43792
#
# Static dielectric constant tensor:
#      x y z
#    x 1.768330 0.000000 -0.004840 
#    y 0.000000 1.748110 0.000000 
#    z -0.004840 0.000000 2.003150 
# 
# From -- ./inp_files/278575.got.cif
#   From: 2010.05.17/outbox.cif.g08.bks.cpg/sg12_140_cif.got.tgz:278575.got - 2010.06.03 13:09:07.
