data_PCOD9185174
_publ_section_title
;
Structure prediction by ZEFSAII (Michael W. Deem and Ramdas Pophale) SiO2 
 PCOD9185174
Probable space group: C 2/M
;
_chemical_formula_sum "Si O2"
_cell_formula_units_Z 40
_cell_length_a 26.171989
_cell_length_b 13.228784
_cell_length_c 7.182130
_cell_angle_alpha 90.000000
_cell_angle_beta 138.615133
_cell_angle_gamma 90.000000
_cell_volume 1643.940474
_symmetry_space_group_name_H-M "C 2/M"
_symmetry_group_IT_number 12
_symmetry_cell_setting 'monoclinic'
loop_
_space_group_symop_operation_xyz
x,y,z
-x,y,-z
-x,-y,-z
x,-y,z
1/2+x,1/2+y,z
1/2-x,1/2+y,-z
1/2-x,1/2-y,-z
1/2+x,1/2-y,z
loop_
_atom_site_type_symbol
_atom_site_label
_atom_site_fract_x
_atom_site_fract_y
_atom_site_fract_z
Si Si1 0.062240 0.613302 0.449585
Si Si2 0.255733 0.342375 0.262673
Si Si3 0.081107 0.886360 0.112900
Si Si4 0.599096 0.815739 0.945229
Si Si5 0.779797 0.613207 0.266123
O O1 0.072134 0.500000 0.551536
O O2 0.083128 0.685039 0.679015
O O3 0.126962 0.624676 0.471143
O O4 0.973511 0.628451 0.160590
O O5 0.340598 0.378198 0.550798
O O6 0.250096 0.219765 0.260669
O O7 0.181925 0.370918 0.187978
O O8 0.240746 0.379204 0.011218
O O9 0.076812 0.000000 0.023844
O O10 0.092950 0.797787 0.999217
O O11 0.000000 0.868911 0.000000
O O12 0.756921 0.500000 0.267306
#
# Coordination Sequence:
#
# PCOD9185174 Si02
#       5
#     8   8   8   8   8
#     4   9  18  35  59  83 106 132 164 210 268 318
#     4  10  20  35  55  79 107 137 172 215 258 304
#     4  11  24  39  52  70 104 148 183 211 251 305
#     4  10  19  34  56  80 103 132 173 218 259 306
#     4   9  18  34  57  82 106 134 169 211 261 313
#
# _framework density 24.331783000000001
#
# number of rings (size 3 to 8) (size 9 to 14) (size 15 to 20)
#    0.000    2.200    0.000    3.600    0.000    4.800 
#    0.000    4.000    0.000    5.400    0.000    0.000 
#    0.000    0.000    0.000    0.000    0.000    0.000 
#
# Total GULP energy -111749.705868 kJ/mol
# GULP energy per Si atom -5587.485293 kJ/mol
# Density = 2.427640 g / cm^3
# Si number density = 24.331783 Si / 1000 Ang^3
#
#
#
# Elastic Constant Matrix: (Units=GPa)
#
#
# Indices 1 2 3 4 5 6 
#
# 1 86.1043 26.9070 44.3451 0.0000 38.1619 0.0000
# 2 26.9070 141.8051 22.2026 0.0000 5.6678 0.0000
# 3 44.3451 22.2026 127.6416 0.0000 28.6005 0.0000
# 4 0.0000 0.0000 0.0000 9.3777 0.0000 -3.3714
# 5 38.1619 5.6678 28.6005 0.0000 49.1890 0.0000
# 6 0.0000 0.0000 0.0000 -3.3714 0.0000 19.3316
#
#
#
# Elastic Compliance Matrix: (Units=1/GPa)
#
#
# Indices 1 2 3 4 5 6 
#
# 1 0.020190 -0.002742 -0.003562 0.000000 -0.013276 0.000000
# 2 -0.002742 0.007622 -0.000751 0.000000 0.001686 0.000000
# 3 -0.003562 -0.000751 0.009847 0.000000 -0.002875 0.000000
# 4 0.000000 0.000000 0.000000 0.113769 0.000000 0.019841
# 5 -0.013276 0.001686 -0.002875 0.000000 0.032107 0.000000
# 6 0.000000 0.000000 0.000000 0.019841 0.000000 0.055189
#
#
# Mechanical properties :
#
#
# Convention : Reuss Voigt Hill
#
# Bulk Modulus (GPa) = 42.46747 60.27338 51.37043
# Shear Modulus (GPa) = 19.18022 33.05274 26.11648
#
# Velocity S-wave (km/s) = 2.81068 3.68967 3.27975
# Velocity P-wave (km/s) = 5.29382 6.55567 5.95825
#
# Compressibility (1/GPa) = 0.02354744
#
# Stress axis : x y z
#
# Youngs Moduli (GPa) = 49.53034 131.19075 101.55459
#
# Poissons Ratio (x) = 0.35979 0.36178
# Poissons Ratio (y) = 0.13584 0.07625
# Poissons Ratio (z) = 0.17645 0.09851
#
# Static dielectric constant tensor:
#      x y z
#    x 1.988320 0.000000 0.025620 
#    y 0.000000 1.906590 0.000000 
#    z 0.025620 0.000000 2.002570 
# 
# From -- ./inp_files/110213.got.cif
#   From: 2010.05.17/outbox.cif.g08.bks.cpg/sg12_56_cif.got.tgz:110213.got - 2010.06.03 13:09:07.
