data_PCOD9185028
_publ_section_title
;
Structure prediction by ZEFSAII (Michael W. Deem and Ramdas Pophale) SiO2 
 PCOD9185028
Probable space group: C 2/M
;
_chemical_formula_sum "Si O2"
_cell_formula_units_Z 40
_cell_length_a 19.572745
_cell_length_b 12.622132
_cell_length_c 10.013344
_cell_angle_alpha 90.000000
_cell_angle_beta 76.009861
_cell_angle_gamma 90.000000
_cell_volume 2400.415042
_symmetry_space_group_name_H-M "C 2/M"
_symmetry_group_IT_number 12
_symmetry_cell_setting 'monoclinic'
loop_
_space_group_symop_operation_xyz
x,y,z
-x,y,-z
-x,-y,-z
x,-y,z
1/2+x,1/2+y,z
1/2-x,1/2+y,-z
1/2-x,1/2-y,-z
1/2+x,1/2-y,z
loop_
_atom_site_type_symbol
_atom_site_label
_atom_site_fract_x
_atom_site_fract_y
_atom_site_fract_z
Si Si1 0.442600 0.000000 0.411778
Si Si2 0.350762 0.813338 0.858559
Si Si3 0.313797 0.376868 0.062573
Si Si4 0.684464 0.375951 0.629707
Si Si5 0.151953 0.692194 0.453647
Si Si6 0.956016 0.500000 0.885880
O O1 0.500000 0.000000 0.500000
O O2 0.395344 0.896665 0.455398
O O3 0.485357 0.000000 0.256186
O O4 0.271010 0.859793 0.904915
O O5 0.366294 0.795643 0.694182
O O6 0.405577 0.898034 0.890838
O O7 0.348921 0.705196 0.944123
O O8 0.328947 0.500000 0.026784
O O9 0.335003 0.353749 0.206407
O O10 0.673077 0.500000 0.609270
O O11 0.767687 0.350001 0.580196
O O12 0.647887 0.299825 0.540182
O O13 0.000000 0.500000 0.000000
#
# Coordination Sequence:
#
# PCOD9185028 Si02
#       6
#     4   8   8   8   8   4
#     4  12  22  38  60  78 112 158 182 224 280 328
#     4  10  19  36  53  80 113 144 187 225 278 326
#     4   9  18  33  57  79 112 147 176 232 282 324
#     4   9  18  33  55  83 114 139 177 239 275 326
#     4  10  19  34  55  82 111 144 186 222 281 328
#     4  12  26  38  56  82 116 150 188 232 262 337
#
# _framework density 16.663784
#
# number of rings (size 3 to 8) (size 9 to 14) (size 15 to 20)
#    0.000    2.000    4.000    0.000    2.800    0.800 
#    0.000    0.000    0.000    2.400    0.000    0.000 
#    0.000    0.000    0.000    0.000    0.000    0.000 
#
# Total GULP energy -111545.251151 kJ/mol
# GULP energy per Si atom -5577.262558 kJ/mol
# Density = 1.662586 g / cm^3
# Si number density = 16.663784 Si / 1000 Ang^3
#
#
#
# Elastic Constant Matrix: (Units=GPa)
#
#
# Indices 1 2 3 4 5 6 
#
# 1 50.5558 46.8919 57.7971 0.0000 13.4907 0.0000
# 2 46.8919 157.3060 99.4995 0.0000 11.4679 0.0000
# 3 57.7971 99.4995 143.2343 0.0000 9.8297 0.0000
# 4 0.0000 0.0000 0.0000 31.5731 0.0000 6.3102
# 5 13.4907 11.4679 9.8297 0.0000 29.6179 0.0000
# 6 0.0000 0.0000 0.0000 6.3102 0.0000 10.4499
#
#
#
# Elastic Compliance Matrix: (Units=1/GPa)
#
#
# Indices 1 2 3 4 5 6 
#
# 1 0.042037 -0.002507 -0.014299 0.000000 -0.013431 0.000000
# 2 -0.002507 0.011585 -0.006965 0.000000 -0.001032 0.000000
# 3 -0.014299 -0.006965 0.017353 0.000000 0.003451 0.000000
# 4 0.000000 0.000000 0.000000 0.036020 0.000000 -0.021751
# 5 -0.013431 -0.001032 0.003451 0.000000 0.039135 0.000000
# 6 0.000000 0.000000 0.000000 -0.021751 0.000000 0.108829
#
#
# Mechanical properties :
#
#
# Convention : Reuss Voigt Hill
#
# Bulk Modulus (GPa) = 42.67659 84.38588 63.53123
# Shear Modulus (GPa) = 16.11272 24.12202 20.11737
#
# Velocity S-wave (km/s) = 3.11292 3.80882 3.47832
# Velocity P-wave (km/s) = 6.21179 8.37216 7.37155
#
# Compressibility (1/GPa) = 0.02343205
#
# Stress axis : x y z
#
# Youngs Moduli (GPa) = 23.78865 86.31492 57.62626
#
# Poissons Ratio (x) = 0.21642 0.82400
# Poissons Ratio (y) = 0.05965 0.40139
# Poissons Ratio (z) = 0.34015 0.60122
#
# Static dielectric constant tensor:
#      x y z
#    x 1.548910 0.000000 0.005640 
#    y 0.000000 1.586320 0.000000 
#    z 0.005640 0.000000 1.546820 
# 
# From -- ./inp_files/83493.got.cif
#   From: 2010.05.17/outbox.cif.g08.bks.cpg/sg12_42_cif.got.tgz:83493.got - 2010.06.03 13:09:07.
