data_PCOD9185648
_publ_section_title
;
Structure prediction by ZEFSAII (Michael W. Deem and Ramdas Pophale) SiO2 
 PCOD9185648
Probable space group: C 2/M
;
_chemical_formula_sum "Si O2"
_cell_formula_units_Z 64
_cell_length_a 29.989552
_cell_length_b 7.653301
_cell_length_c 23.964522
_cell_angle_alpha 90.000000
_cell_angle_beta 30.126575
_cell_angle_gamma 90.000000
_cell_volume 2760.673756
_symmetry_space_group_name_H-M "C 2/M"
_symmetry_group_IT_number 12
_symmetry_cell_setting 'monoclinic'
loop_
_space_group_symop_operation_xyz
x,y,z
-x,y,-z
-x,-y,-z
x,-y,z
1/2+x,1/2+y,z
1/2-x,1/2+y,-z
1/2-x,1/2-y,-z
1/2+x,1/2-y,z
loop_
_atom_site_type_symbol
_atom_site_label
_atom_site_fract_x
_atom_site_fract_y
_atom_site_fract_z
Si Si1 0.276889 0.299169 0.231626
Si Si2 0.525597 0.700579 0.790464
Si Si3 0.687602 0.202761 0.681177
Si Si4 0.476460 0.700082 0.660330
Si Si5 0.869236 0.785038 0.432531
Si Si6 0.401491 0.702888 0.631068
Si Si7 0.843039 0.785514 0.041472
Si Si8 0.695382 0.792771 0.113643
O O1 0.303126 0.500000 0.210741
O O2 0.289278 0.213672 0.278428
O O3 0.174006 0.290558 0.323738
O O4 0.330613 0.229086 0.119343
O O5 0.506000 0.500000 0.796335
O O6 0.596272 0.705170 0.764267
O O7 0.581170 0.774295 0.677480
O O8 0.432529 0.775867 0.913445
O O9 0.769564 0.272234 0.554636
O O10 0.675872 0.000000 0.679562
O O11 0.495514 0.500000 0.622550
O O12 0.567241 0.773042 0.585299
O O13 0.422191 0.785676 0.668747
O O14 0.400559 0.703584 0.788927
O O15 0.867985 0.000000 0.433571
O O16 0.500000 0.705701 0.500000
O O17 0.373062 0.500000 0.666868
O O18 0.756745 0.732159 0.099100
O O19 0.843823 0.000000 0.041441
O O20 0.682637 0.000000 0.131100
O O21 0.750000 0.750000 0.000000
#
# Coordination Sequence:
#
# PCOD9185648 Si02
#       8
#     8   8   8   8   8   8   8   8
#     4  11  22  39  60  85 117 157 202 247 291 349
#     4  10  20  39  64  86 109 151 201 247 297 356
#     4  11  23  40  60  87 119 153 193 248 306 360
#     4  10  19  34  57  85 114 151 192 229 280 345
#     4   9  19  37  62  87 118 155 194 237 296 364
#     4  10  20  35  57  85 119 158 195 234 288 349
#     4   9  20  38  60  83 116 154 195 242 295 351
#     4  11  21  36  56  83 117 154 193 237 286 342
#
# _framework density 23.182746999999999
#
# number of rings (size 3 to 8) (size 9 to 14) (size 15 to 20)
#    0.000    1.875    1.250    3.000    0.000    4.750 
#    0.000   10.000    0.000    0.000    0.000    0.000 
#    0.000    0.000    0.000    0.000    0.000    0.000 
#
# Total GULP energy -178674.173364 kJ/mol
# GULP energy per Si atom -5583.567918 kJ/mol
# Density = 2.312998 g / cm^3
# Si number density = 23.182747 Si / 1000 Ang^3
#
#
#
# Elastic Constant Matrix: (Units=GPa)
#
#
# Indices 1 2 3 4 5 6 
#
# 1 79.8481 0.8799 13.1058 -0.0066 -3.2274 0.0004
# 2 0.8799 57.0254 9.1012 -0.0217 3.0643 0.0135
# 3 13.1058 9.1012 111.1121 -0.0370 -5.5892 0.0262
# 4 -0.0066 -0.0217 -0.0370 13.4109 0.0082 2.4848
# 5 -3.2274 3.0643 -5.5892 0.0082 41.4165 -0.0020
# 6 0.0004 0.0135 0.0262 2.4848 -0.0020 17.6296
#
#
#
# Elastic Compliance Matrix: (Units=1/GPa)
#
#
# Indices 1 2 3 4 5 6 
#
# 1 0.012797 -0.000006 -0.001469 0.000001 0.000799 0.000002
# 2 -0.000006 0.017864 -0.001539 0.000029 -0.001530 -0.000016
# 3 -0.001469 -0.001539 0.009363 0.000025 0.001263 -0.000016
# 4 0.000001 0.000029 0.000025 0.076566 -0.000014 -0.010791
# 5 0.000799 -0.001530 0.001263 -0.000014 0.024491 0.000004
# 6 0.000002 -0.000016 -0.000016 -0.010791 0.000004 0.058244
#
#
# Mechanical properties :
#
#
# Convention : Reuss Voigt Hill
#
# Bulk Modulus (GPa) = 29.41556 32.68438 31.04997
# Shear Modulus (GPa) = 23.07500 29.48466 26.27983
#
# Velocity S-wave (km/s) = 3.15834 3.57015 3.37054
# Velocity P-wave (km/s) = 5.10062 5.57887 5.34510
#
# Compressibility (1/GPa) = 0.03399561
#
# Stress axis : x y z
#
# Youngs Moduli (GPa) = 78.14193 55.97834 106.80563
#
# Poissons Ratio (x) = 0.00034 0.15687
# Poissons Ratio (y) = 0.00047 0.16443
# Poissons Ratio (z) = 0.11477 0.08618
#
# Static dielectric constant tensor:
#      x y z
#    x 1.910730 0.000000 0.094430 
#    y 0.000000 1.910110 0.000050 
#    z 0.094430 0.000050 1.975890 
# 
# From -- ./inp_files/353322.got.cif
#   From: 2010.05.17/outbox.cif.g08.bks.cpg/sg12_177_cif.got.tgz:353322.got - 2010.06.03 13:09:07.
