data_PCOD9185107
_publ_section_title
;
Structure prediction by ZEFSAII (Michael W. Deem and Ramdas Pophale) SiO2 
 PCOD9185107
Probable space group: C 2/M
;
_chemical_formula_sum "Si O2"
_cell_formula_units_Z 56
_cell_length_a 15.262687
_cell_length_b 9.262045
_cell_length_c 19.493055
_cell_angle_alpha 90.000000
_cell_angle_beta 86.320972
_cell_angle_gamma 90.000000
_cell_volume 2749.931420
_symmetry_space_group_name_H-M "C 2/M"
_symmetry_group_IT_number 12
_symmetry_cell_setting 'monoclinic'
loop_
_space_group_symop_operation_xyz
x,y,z
-x,y,-z
-x,-y,-z
x,-y,z
1/2+x,1/2+y,z
1/2-x,1/2+y,-z
1/2-x,1/2-y,-z
1/2+x,1/2-y,z
loop_
_atom_site_type_symbol
_atom_site_label
_atom_site_fract_x
_atom_site_fract_y
_atom_site_fract_z
Si Si1 0.454023 0.171873 0.429218
Si Si2 0.367624 0.832869 0.229565
Si Si3 0.116299 0.675566 0.329882
Si Si4 0.303146 0.327291 0.367612
Si Si5 0.170352 0.334792 0.920104
Si Si6 0.426819 0.834431 0.813553
Si Si7 0.876270 0.163971 0.949601
O O1 0.500000 0.192826 0.500000
O O2 0.525682 0.221700 0.369356
O O3 0.363421 0.254437 0.422112
O O4 0.438990 0.000000 0.420789
O O5 0.339116 0.733688 0.293519
O O6 0.333093 0.780258 0.157516
O O7 0.472613 0.835793 0.216173
O O8 0.338820 0.000000 0.242528
O O9 0.113119 0.500000 0.326685
O O10 0.200291 0.713275 0.371473
O O11 0.124948 0.725027 0.250477
O O12 0.310130 0.500000 0.370335
O O13 0.137047 0.500000 0.920517
O O14 0.271625 0.337525 0.938263
O O15 0.116120 0.244037 0.978086
O O16 0.418137 0.745975 0.883422
O O17 0.398980 0.000000 0.828499
O O18 0.907186 0.000000 0.952146
#
# Coordination Sequence:
#
# PCOD9185107 Si02
#       7
#     8   8   8   8   8   8   8
#     4  10  21  41  66  88 117 158 199 233 273 342
#     4  10  20  36  58  80 107 147 197 241 278 342
#     4   9  19  37  59  86 118 154 193 234 288 345
#     4  11  22  36  59  89 122 153 187 240 296 341
#     4   9  19  35  53  74 102 142 191 238 283 339
#     4  10  19  34  56  76 105 147 189 234 282 342
#     4  10  20  33  50  75 108 141 182 239 294 344
#
# _framework density 20.364142999999999
#
# number of rings (size 3 to 8) (size 9 to 14) (size 15 to 20)
#    0.000    2.143    1.429    1.714    0.000    3.143 
#    0.000    5.000    0.000    0.000    0.000    0.000 
#    0.000    0.000    0.000    0.000    0.000    0.000 
#
# Total GULP energy -156349.848292 kJ/mol
# GULP energy per Si atom -5583.923153 kJ/mol
# Density = 2.031779 g / cm^3
# Si number density = 20.364143 Si / 1000 Ang^3
#
#
#
# Elastic Constant Matrix: (Units=GPa)
#
#
# Indices 1 2 3 4 5 6 
#
# 1 45.4644 1.9197 -6.1846 0.0000 17.1991 0.0000
# 2 1.9197 41.1202 14.0144 0.0000 5.6601 0.0000
# 3 -6.1846 14.0144 51.5847 0.0000 14.5503 0.0000
# 4 0.0000 0.0000 0.0000 26.0062 0.0000 5.6204
# 5 17.1991 5.6601 14.5503 0.0000 32.2756 0.0000
# 6 0.0000 0.0000 0.0000 5.6204 0.0000 18.4515
#
#
#
# Elastic Compliance Matrix: (Units=1/GPa)
#
#
# Indices 1 2 3 4 5 6 
#
# 1 0.031424 -0.002071 0.010255 0.000000 -0.021005 0.000000
# 2 -0.002071 0.027011 -0.007518 0.000000 -0.000244 0.000000
# 3 0.010255 -0.007518 0.027298 0.000000 -0.016453 0.000000
# 4 0.000000 0.000000 0.000000 0.041162 0.000000 -0.012538
# 5 -0.021005 -0.000244 -0.016453 0.000000 0.049636 0.000000
# 6 0.000000 0.000000 0.000000 -0.012538 0.000000 0.058015
#
#
# Mechanical properties :
#
#
# Convention : Reuss Voigt Hill
#
# Bulk Modulus (GPa) = 11.48553 17.51871 14.50212
# Shear Modulus (GPa) = 19.06678 23.90799 21.48738
#
# Velocity S-wave (km/s) = 3.06321 3.43012 3.25184
# Velocity P-wave (km/s) = 4.26184 4.93042 4.60827
#
# Compressibility (1/GPa) = 0.08706610
#
# Stress axis : x y z
#
# Youngs Moduli (GPa) = 31.82299 37.02138 36.63245
#
# Poissons Ratio (x) = 0.07666 -0.37566
# Poissons Ratio (y) = 0.06590 0.27539
# Poissons Ratio (z) = -0.32634 0.27832
#
# Static dielectric constant tensor:
#      x y z
#    x 1.749570 0.000000 0.036830 
#    y 0.000000 1.698240 0.000000 
#    z 0.036830 0.000000 1.734000 
# 
# From -- ./inp_files/308969.got.cif
#   From: 2010.05.17/outbox.cif.g08.bks.cpg/sg12_155_cif.got.tgz:308969.got - 2010.06.03 13:09:07.
