data_PCOD9185931
_publ_section_title
;
Structure prediction by ZEFSAII (Michael W. Deem and Ramdas Pophale) SiO2 
 PCOD9185931
Probable space group: C 2/M
;
_chemical_formula_sum "Si O2"
_cell_formula_units_Z 40
_cell_length_a 8.974337
_cell_length_b 18.056241
_cell_length_c 12.079713
_cell_angle_alpha 90.000000
_cell_angle_beta 75.985711
_cell_angle_gamma 90.000000
_cell_volume 1899.168212
_symmetry_space_group_name_H-M "C 2/M"
_symmetry_group_IT_number 12
_symmetry_cell_setting 'monoclinic'
loop_
_space_group_symop_operation_xyz
x,y,z
-x,y,-z
-x,-y,-z
x,-y,z
1/2+x,1/2+y,z
1/2-x,1/2+y,-z
1/2-x,1/2-y,-z
1/2+x,1/2-y,z
loop_
_atom_site_type_symbol
_atom_site_label
_atom_site_fract_x
_atom_site_fract_y
_atom_site_fract_z
Si Si1 0.050604 0.915251 0.616705
Si Si2 0.248801 0.274529 0.374607
Si Si3 0.252495 0.914871 0.903645
Si Si4 0.920496 0.873361 0.855777
Si Si5 0.030025 0.288285 0.225788
O O1 0.174604 0.855564 0.633966
O O2 0.000000 0.899293 0.500000
O O3 0.916903 0.904660 0.731788
O O4 0.105027 0.000000 0.610933
O O5 0.250000 0.250000 0.500000
O O6 0.088240 0.279201 0.341904
O O7 0.348886 0.221026 0.276324
O O8 0.384734 0.859115 0.839145
O O9 0.087781 0.897821 0.874301
O O10 0.292547 0.000000 0.875340
O O11 0.211197 0.902317 0.039945
O O12 0.920736 0.784316 0.851876
#
# Coordination Sequence:
#
# PCOD9185931 Si02
#       5
#     8   8   8   8   8
#     4  10  19  34  58  86 117 155 206 258 296 354
#     4  11  22  38  60  88 123 163 202 255 309 376
#     4  11  21  37  63  92 125 163 208 258 307 365
#     4  10  20  36  59  91 121 164 210 252 295 377
#     4  11  21  38  61  90 122 157 211 254 302 373
#
# _framework density 21.061851000000001
#
# number of rings (size 3 to 8) (size 9 to 14) (size 15 to 20)
#    0.000    1.400    4.000    6.000    0.000    0.000 
#    0.000    1.000    0.000   10.800    0.000    0.000 
#    0.000    0.000    0.000    0.000    0.000    0.000 
#
# Total GULP energy -111666.142533 kJ/mol
# GULP energy per Si atom -5583.307127 kJ/mol
# Density = 2.101391 g / cm^3
# Si number density = 21.061851 Si / 1000 Ang^3
#
#
#
# Elastic Constant Matrix: (Units=GPa)
#
#
# Indices 1 2 3 4 5 6 
#
# 1 39.2248 17.1557 2.3740 0.0000 -7.5959 0.0000
# 2 17.1557 148.7185 22.7927 0.0000 -13.1001 0.0000
# 3 2.3740 22.7927 116.7214 0.0000 -5.1914 0.0000
# 4 0.0000 0.0000 0.0000 32.3380 0.0000 -1.5839
# 5 -7.5959 -13.1001 -5.1914 0.0000 21.9914 0.0000
# 6 0.0000 0.0000 0.0000 -1.5839 0.0000 18.2251
#
#
#
# Elastic Compliance Matrix: (Units=1/GPa)
#
#
# Indices 1 2 3 4 5 6 
#
# 1 0.028204 -0.002569 0.000296 0.000000 0.008281 0.000000
# 2 -0.002569 0.007504 -0.001267 0.000000 0.003283 0.000000
# 3 0.000296 -0.001267 0.008873 0.000000 0.001442 0.000000
# 4 0.000000 0.000000 0.000000 0.031056 0.000000 0.002699
# 5 0.008281 0.003283 0.001442 0.000000 0.050629 0.000000
# 6 0.000000 0.000000 0.000000 0.002699 0.000000 0.055104
#
#
# Mechanical properties :
#
#
# Convention : Reuss Voigt Hill
#
# Bulk Modulus (GPa) = 26.66649 43.25662 34.96156
# Shear Modulus (GPa) = 24.88191 32.00038 28.44114
#
# Velocity S-wave (km/s) = 3.44084 3.90212 3.67871
# Velocity P-wave (km/s) = 5.33614 6.39410 5.88892
#
# Compressibility (1/GPa) = 0.03750025
#
# Stress axis : x y z
#
# Youngs Moduli (GPa) = 35.45659 133.26347 112.70219
#
# Poissons Ratio (x) = 0.34242 -0.03341
# Poissons Ratio (y) = 0.09110 0.14280
# Poissons Ratio (z) = -0.01051 0.16885
#
# Static dielectric constant tensor:
#      x y z
#    x 1.774060 0.000000 0.009540 
#    y 0.000000 1.757870 0.000000 
#    z 0.009540 0.000000 1.816510 
# 
# From -- ./inp_files/118928.got.cif
#   From: 2010.05.17/outbox.cif.g08.bks.cpg/sg12_60_cif.got.tgz:118928.got - 2010.06.03 13:09:07.
