data_PCOD9185313
_publ_section_title
;
Structure prediction by ZEFSAII (Michael W. Deem and Ramdas Pophale) SiO2 
 PCOD9185313
Probable space group: C 2/M
;
_chemical_formula_sum "Si O2"
_cell_formula_units_Z 64
_cell_length_a 18.644983
_cell_length_b 11.027621
_cell_length_c 32.476585
_cell_angle_alpha 90.000000
_cell_angle_beta 30.669083
_cell_angle_gamma 90.000000
_cell_volume 3406.053832
_symmetry_space_group_name_H-M "C 2/M"
_symmetry_group_IT_number 12
_symmetry_cell_setting 'monoclinic'
loop_
_space_group_symop_operation_xyz
x,y,z
-x,y,-z
-x,-y,-z
x,-y,z
1/2+x,1/2+y,z
1/2-x,1/2+y,-z
1/2-x,1/2-y,-z
1/2+x,1/2-y,z
loop_
_atom_site_type_symbol
_atom_site_label
_atom_site_fract_x
_atom_site_fract_y
_atom_site_fract_z
Si Si1 0.835829 0.358886 0.567532
Si Si2 0.698348 0.640235 0.107145
Si Si3 0.011680 0.247263 0.627339
Si Si4 0.728247 0.144302 0.309152
Si Si5 0.500170 0.236104 0.954549
Si Si6 0.316683 0.355231 0.795588
Si Si7 0.514093 0.645208 0.124688
Si Si8 0.727346 0.635097 0.462992
O O1 0.808690 0.500000 0.567155
O O2 0.755081 0.335512 0.650379
O O3 0.799203 0.251402 0.553845
O O4 0.000000 0.354091 0.500000
O O5 0.655981 0.500000 0.129249
O O6 0.647519 0.692490 0.175991
O O7 0.630361 0.692998 0.099460
O O8 0.866945 0.646878 0.022946
O O9 0.119711 0.345729 0.592278
O O10 0.112543 0.148844 0.556036
O O11 0.909700 0.296892 0.642188
O O12 0.914412 0.200055 0.712284
O O13 0.864060 0.186167 0.216853
O O14 0.714048 0.000000 0.311012
O O15 0.651695 0.176236 0.872019
O O16 0.469148 0.317154 0.930473
O O17 0.500000 0.297034 0.000000
O O18 0.332254 0.500000 0.787043
O O19 0.515694 0.500000 0.124667
O O20 0.715896 0.500000 0.449984
#
# Coordination Sequence:
#
# PCOD9185313 Si02
#       8
#     8   8   8   8   8   8   8   8
#     4  10  21  39  64  88 114 156 204 246 293 359
#     4   9  19  34  55  82 111 146 189 240 287 339
#     4  11  22  39  59  83 118 158 200 242 295 366
#     4  10  20  37  59  83 110 150 201 247 287 345
#     4  10  19  34  56  83 114 149 182 232 294 351
#     4  10  20  35  56  83 112 147 197 247 291 341
#     4  10  20  34  55  82 111 148 192 235 284 344
#     4  11  25  40  60  90 124 160 195 251 314 357
#
# _framework density 18.790073
#
# number of rings (size 3 to 8) (size 9 to 14) (size 15 to 20)
#    0.000    1.875    2.500    1.500    1.750    4.500 
#    0.000    0.000    0.000    0.000    0.000    0.000 
#    0.000    0.000    0.000    0.000    0.000    0.000 
#
# Total GULP energy -178327.901361 kJ/mol
# GULP energy per Si atom -5572.746918 kJ/mol
# Density = 1.874731 g / cm^3
# Si number density = 18.790073 Si / 1000 Ang^3
#
#
#
# Elastic Constant Matrix: (Units=GPa)
#
#
# Indices 1 2 3 4 5 6 
#
# 1 112.0567 40.7947 43.5274 0.0000 9.4063 0.0000
# 2 40.7947 71.0742 28.5990 0.0000 8.8662 0.0000
# 3 43.5274 28.5990 107.8343 0.0000 18.1432 0.0000
# 4 0.0000 0.0000 0.0000 7.9822 0.0000 6.1107
# 5 9.4063 8.8662 18.1432 0.0000 28.7468 0.0000
# 6 0.0000 0.0000 0.0000 6.1107 0.0000 22.0057
#
#
#
# Elastic Compliance Matrix: (Units=1/GPa)
#
#
# Indices 1 2 3 4 5 6 
#
# 1 0.012344 -0.005681 -0.003459 0.000000 -0.000104 0.000000
# 2 -0.005681 0.018525 -0.002206 0.000000 -0.002463 0.000000
# 3 -0.003459 -0.002206 0.012251 0.000000 -0.005920 0.000000
# 4 0.000000 0.000000 0.000000 0.159100 0.000000 -0.044180
# 5 -0.000104 -0.002463 -0.005920 0.000000 0.039316 0.000000
# 6 0.000000 0.000000 0.000000 -0.044180 0.000000 0.057711
#
#
# Mechanical properties :
#
#
# Convention : Reuss Voigt Hill
#
# Bulk Modulus (GPa) = 48.94779 57.42304 53.18542
# Shear Modulus (GPa) = 15.20926 23.61657 19.41292
#
# Velocity S-wave (km/s) = 2.84814 3.54907 3.21775
# Velocity P-wave (km/s) = 6.07636 6.88631 6.49398
#
# Compressibility (1/GPa) = 0.02042993
#
# Stress axis : x y z
#
# Youngs Moduli (GPa) = 81.00874 53.98088 81.62871
#
# Poissons Ratio (x) = 0.30664 0.28233
# Poissons Ratio (y) = 0.46018 0.18005
# Poissons Ratio (z) = 0.28018 0.11907
#
# Static dielectric constant tensor:
#      x y z
#    x 1.687180 0.000000 0.007660 
#    y 0.000000 1.632430 0.000000 
#    z 0.007660 0.000000 1.672560 
# 
# From -- ./inp_files/379088.got.cif
#   From: 2010.05.17/outbox.cif.g08.bks.cpg/sg12_190_cif.got.tgz:379088.got - 2010.06.03 13:09:07.
