data_PCOD9185050
_publ_section_title
;
Structure prediction by ZEFSAII (Michael W. Deem and Ramdas Pophale) SiO2 
 PCOD9185050
Probable space group: C 2/M
;
_chemical_formula_sum "Si O2"
_cell_formula_units_Z 40
_cell_length_a 12.185536
_cell_length_b 18.036361
_cell_length_c 8.475150
_cell_angle_alpha 90.000000
_cell_angle_beta 92.248106
_cell_angle_gamma 90.000000
_cell_volume 1861.257921
_symmetry_space_group_name_H-M "C 2/M"
_symmetry_group_IT_number 12
_symmetry_cell_setting 'monoclinic'
loop_
_space_group_symop_operation_xyz
x,y,z
-x,y,-z
-x,-y,-z
x,-y,z
1/2+x,1/2+y,z
1/2-x,1/2+y,-z
1/2-x,1/2-y,-z
1/2+x,1/2-y,z
loop_
_atom_site_type_symbol
_atom_site_label
_atom_site_fract_x
_atom_site_fract_y
_atom_site_fract_z
Si Si1 0.258873 0.356600 0.372719
Si Si2 0.062163 0.332786 0.150924
Si Si3 0.051740 0.914585 0.785701
Si Si4 0.841052 0.688375 0.312831
Si Si5 0.641203 0.666500 0.101851
O O1 0.164980 0.372262 0.237431
O O2 0.365305 0.406720 0.354525
O O3 0.198869 0.356414 0.536777
O O4 0.305659 0.273335 0.344354
O O5 0.106381 0.252479 0.094236
O O6 0.968112 0.317873 0.276628
O O7 0.000000 0.369357 0.000000
O O8 0.937141 0.871051 0.770862
O O9 0.031235 0.000000 0.819058
O O10 0.112630 0.874439 0.937594
O O11 0.766121 0.662152 0.162302
#
# Coordination Sequence:
#
# PCOD9185050 Si02
#       5
#     8   8   8   8   8
#     4  10  21  34  53  84 113 149 184 222 291 325
#     4  11  18  32  58  84 114 136 181 239 282 329
#     4  11  21  38  56  80 117 151 190 224 263 333
#     4  10  20  34  55  82 117 141 178 243 279 335
#     4  10  19  34  55  83 111 145 189 222 282 320
#
# _framework density 21.490842000000001
#
# number of rings (size 3 to 8) (size 9 to 14) (size 15 to 20)
#    0.000    1.600    4.000    3.000    0.000    4.000 
#    0.000    3.000    0.000    9.000    0.000    0.000 
#    0.000    0.000    0.000    0.000    0.000    0.000 
#
# Total GULP energy -111757.362953 kJ/mol
# GULP energy per Si atom -5587.868148 kJ/mol
# Density = 2.144193 g / cm^3
# Si number density = 21.490842 Si / 1000 Ang^3
#
#
#
# Elastic Constant Matrix: (Units=GPa)
#
#
# Indices 1 2 3 4 5 6 
#
# 1 108.3858 1.7202 9.5899 0.0000 -19.7316 0.0000
# 2 1.7202 32.8066 0.1302 0.0000 1.2174 0.0000
# 3 9.5899 0.1302 52.3581 0.0000 -21.7098 0.0000
# 4 0.0000 0.0000 0.0000 7.8251 0.0000 -4.9529
# 5 -19.7316 1.2174 -21.7098 0.0000 33.2133 0.0000
# 6 0.0000 0.0000 0.0000 -4.9529 0.0000 7.0431
#
#
#
# Elastic Compliance Matrix: (Units=1/GPa)
#
#
# Indices 1 2 3 4 5 6 
#
# 1 0.010397 -0.000801 0.000920 0.000000 0.006808 0.000000
# 2 -0.000801 0.030606 -0.000812 0.000000 -0.002129 0.000000
# 3 0.000920 -0.000812 0.026300 0.000000 0.017767 0.000000
# 4 0.000000 0.000000 0.000000 0.230303 0.000000 0.161954
# 5 0.006808 -0.002129 0.017767 0.000000 0.045844 0.000000
# 6 0.000000 0.000000 0.000000 0.161954 0.000000 0.255873
#
#
# Mechanical properties :
#
#
# Convention : Reuss Voigt Hill
#
# Bulk Modulus (GPa) = 15.17066 24.04789 19.60927
# Shear Modulus (GPa) = 8.02980 21.75699 14.89339
#
# Velocity S-wave (km/s) = 1.93507 3.18525 2.63537
# Velocity P-wave (km/s) = 3.47377 4.97412 4.29005
#
# Compressibility (1/GPa) = 0.06591673
#
# Stress axis : x y z
#
# Youngs Moduli (GPa) = 96.18238 32.67346 38.02321
#
# Poissons Ratio (x) = 0.02619 -0.03500
# Poissons Ratio (y) = 0.07708 0.03087
# Poissons Ratio (z) = -0.08853 0.02653
#
# Static dielectric constant tensor:
#      x y z
#    x 1.779010 0.000000 -0.021430 
#    y 0.000000 1.746840 0.000000 
#    z -0.021430 0.000000 1.878210 
# 
# From -- ./inp_files/46929.got.cif
#   From: 2010.05.17/outbox.cif.g08.bks.cpg/sg12_24_cif.got.tgz:46929.got - 2010.06.03 13:09:07.
