data_PCOD9185710
_publ_section_title
;
Structure prediction by ZEFSAII (Michael W. Deem and Ramdas Pophale) SiO2 
 PCOD9185710
Probable space group: C 2/M
;
_chemical_formula_sum "Si O2"
_cell_formula_units_Z 56
_cell_length_a 17.119566
_cell_length_b 13.362831
_cell_length_c 18.462381
_cell_angle_alpha 90.000000
_cell_angle_beta 150.845831
_cell_angle_gamma 90.000000
_cell_volume 2057.556041
_symmetry_space_group_name_H-M "C 2/M"
_symmetry_group_IT_number 12
_symmetry_cell_setting 'monoclinic'
loop_
_space_group_symop_operation_xyz
x,y,z
-x,y,-z
-x,-y,-z
x,-y,z
1/2+x,1/2+y,z
1/2-x,1/2+y,-z
1/2-x,1/2-y,-z
1/2+x,1/2-y,z
loop_
_atom_site_type_symbol
_atom_site_label
_atom_site_fract_x
_atom_site_fract_y
_atom_site_fract_z
Si Si1 0.485338 0.114568 0.365875
Si Si2 0.734242 0.887466 0.177516
Si Si3 0.850492 0.662479 0.117986
Si Si4 0.662938 0.613839 0.302087
Si Si5 0.630896 0.169904 0.251437
Si Si6 0.600702 0.385733 0.422821
Si Si7 0.845100 0.837060 0.913802
O O1 0.474970 0.183505 0.285500
O O2 0.643984 0.124346 0.539676
O O3 0.314470 0.136781 0.263327
O O4 0.488437 0.000000 0.341576
O O5 0.697765 0.879814 0.233398
O O6 0.656366 0.785082 0.083519
O O7 0.921667 0.878045 0.309724
O O8 0.684232 0.000000 0.112887
O O9 0.711755 0.614372 0.055833
O O10 0.970555 0.620608 0.155304
O O11 0.750000 0.750000 0.000000
O O12 0.625898 0.500000 0.249223
O O13 0.594257 0.712155 0.207834
O O14 0.607272 0.624129 0.341339
O O15 0.769868 0.172473 0.424755
O O16 0.653600 0.500000 0.478664
O O17 0.000000 0.876447 0.000000
#
# Coordination Sequence:
#
# PCOD9185710 Si02
#       7
#     8   8   8   8   8   8   8
#     4   9  20  38  64  90 116 153 203 251 300 357
#     4  11  24  38  57  91 128 162 198 241 303 368
#     4  10  22  39  62  88 120 156 206 248 296 358
#     4  10  20  37  62  92 120 157 205 250 303 360
#     4  12  21  35  61  87 126 161 196 250 300 360
#     4  10  19  34  57  88 117 150 197 243 297 361
#     4  10  21  40  63  84 119 159 205 250 298 354
#
# _framework density 27.216757999999999
#
# number of rings (size 3 to 8) (size 9 to 14) (size 15 to 20)
#    0.857    0.857    1.429    3.857    0.000    2.286 
#    0.000    2.143    0.000    3.429    0.000    0.000 
#    0.000    0.000    0.000    0.000    0.000    0.000 
#
# Total GULP energy -156479.042961 kJ/mol
# GULP energy per Si atom -5588.537249 kJ/mol
# Density = 2.715481 g / cm^3
# Si number density = 27.216758 Si / 1000 Ang^3
#
#
#
# Elastic Constant Matrix: (Units=GPa)
#
#
# Indices 1 2 3 4 5 6 
#
# 1 193.5224 28.4347 73.7584 0.0004 35.1702 0.0003
# 2 28.4347 180.6396 37.6471 0.0003 0.3345 0.0003
# 3 73.7584 37.6471 113.8039 0.0020 22.7512 0.0010
# 4 0.0004 0.0003 0.0020 34.5845 0.0011 -7.7682
# 5 35.1702 0.3345 22.7512 0.0011 67.6648 0.0005
# 6 0.0003 0.0003 0.0010 -7.7682 0.0005 22.5841
#
#
#
# Elastic Compliance Matrix: (Units=1/GPa)
#
#
# Indices 1 2 3 4 5 6 
#
# 1 0.007201 -0.000274 -0.004105 0.000000 -0.002362 0.000000
# 2 -0.000274 0.005985 -0.001957 0.000000 0.000771 0.000000
# 3 -0.004105 -0.001957 0.012507 -0.000001 -0.002062 -0.000001
# 4 0.000000 0.000000 -0.000001 0.031336 -0.000001 0.010778
# 5 -0.002362 0.000771 -0.002062 -0.000001 0.016696 0.000000
# 6 0.000000 0.000000 -0.000001 0.010778 0.000000 0.047986
#
#
# Mechanical properties :
#
#
# Convention : Reuss Voigt Hill
#
# Bulk Modulus (GPa) = 76.78451 85.29403 81.03927
# Shear Modulus (GPa) = 36.04331 48.17505 42.10918
#
# Velocity S-wave (km/s) = 3.64305 4.21176 3.93769
# Velocity P-wave (km/s) = 6.78006 7.42016 7.10732
#
# Compressibility (1/GPa) = 0.01302346
#
# Stress axis : x y z
#
# Youngs Moduli (GPa) = 138.86682 167.07529 79.95661
#
# Poissons Ratio (x) = 0.04574 0.32818
# Poissons Ratio (y) = 0.03801 0.15644
# Poissons Ratio (z) = 0.56998 0.32690
#
# Static dielectric constant tensor:
#      x y z
#    x 2.098580 0.000000 -0.033210 
#    y 0.000000 2.139020 0.000000 
#    z -0.033210 0.000000 2.168190 
# 
# From -- ./inp_files/316745.got.cif
#   From: 2010.05.17/outbox.cif.g08.bks.cpg/sg12_159_cif.got.tgz:316745.got - 2010.06.03 13:09:07.
