data_PCOD9185906
_publ_section_title
;
Structure prediction by ZEFSAII (Michael W. Deem and Ramdas Pophale) SiO2 
 PCOD9185906
Probable space group: C 2/M
;
_chemical_formula_sum "Si O2"
_cell_formula_units_Z 56
_cell_length_a 19.819783
_cell_length_b 8.962472
_cell_length_c 21.440038
_cell_angle_alpha 90.000000
_cell_angle_beta 54.920238
_cell_angle_gamma 90.000000
_cell_volume 3116.684308
_symmetry_space_group_name_H-M "C 2/M"
_symmetry_group_IT_number 12
_symmetry_cell_setting 'monoclinic'
loop_
_space_group_symop_operation_xyz
x,y,z
-x,y,-z
-x,-y,-z
x,-y,z
1/2+x,1/2+y,z
1/2-x,1/2+y,-z
1/2-x,1/2-y,-z
1/2+x,1/2-y,z
loop_
_atom_site_type_symbol
_atom_site_label
_atom_site_fract_x
_atom_site_fract_y
_atom_site_fract_z
Si Si1 0.389214 0.176921 0.803518
Si Si2 0.509768 0.178967 0.371677
Si Si3 0.904010 0.328591 0.038227
Si Si4 0.844871 0.821860 0.626465
Si Si5 0.752701 0.324565 0.198630
Si Si6 0.839821 0.175088 0.952326
Si Si7 0.821607 0.320811 0.504451
O O1 0.457172 0.216435 0.715144
O O2 0.303429 0.227177 0.817412
O O3 0.393186 0.258574 0.867236
O O4 0.390581 0.000000 0.812406
O O5 0.569597 0.259747 0.389596
O O6 0.413813 0.215170 0.430463
O O7 0.519907 0.000000 0.374928
O O8 0.886107 0.500000 0.027129
O O9 0.847085 0.302380 0.129074
O O10 0.879300 0.217325 0.997015
O O11 0.000000 0.317414 0.000000
O O12 0.775597 0.791402 0.716171
O O13 0.821329 0.743051 0.574721
O O14 0.851350 0.000000 0.614152
O O15 0.732643 0.500000 0.198744
O O16 0.830584 0.000000 0.948929
O O17 0.750000 0.250000 0.000000
O O18 0.812821 0.500000 0.509573
O O19 0.750000 0.250000 0.500000
#
# Coordination Sequence:
#
# PCOD9185906 Si02
#       7
#     8   8   8   8   8   8   8
#     4  10  19  34  58  86 111 143 186 236 285 331
#     4   9  20  38  60  85 113 146 188 233 278 332
#     4  10  21  38  58  81 112 152 193 232 278 333
#     4  10  20  35  59  88 114 145 186 232 280 335
#     4   9  18  34  56  82 113 147 186 231 276 330
#     4  12  23  36  57  84 115 150 189 235 281 332
#     4  11  23  40  59  82 115 152 188 231 279 335
#
# _framework density 17.967811999999999
#
# number of rings (size 3 to 8) (size 9 to 14) (size 15 to 20)
#    0.000    1.857    1.429    3.000    0.000    4.286 
#    2.571    0.000    0.000    0.000    0.000    0.000 
#    0.000    0.000    0.000    0.000    0.000    0.000 
#
# Total GULP energy -156303.400888 kJ/mol
# GULP energy per Si atom -5582.264317 kJ/mol
# Density = 1.792692 g / cm^3
# Si number density = 17.967812 Si / 1000 Ang^3
#
#
#
# Elastic Constant Matrix: (Units=GPa)
#
#
# Indices 1 2 3 4 5 6 
#
# 1 93.2070 51.7493 76.8292 0.0000 -3.3932 0.0003
# 2 51.7493 79.6622 63.7553 0.0000 3.6979 0.0005
# 3 76.8292 63.7553 136.3733 0.0000 -3.3004 0.0000
# 4 0.0000 0.0000 0.0000 27.3852 0.0000 6.3943
# 5 -3.3932 3.6979 -3.3004 0.0000 24.4967 0.0000
# 6 0.0003 0.0005 0.0000 6.3943 0.0000 30.4803
#
#
#
# Elastic Compliance Matrix: (Units=1/GPa)
#
#
# Indices 1 2 3 4 5 6 
#
# 1 0.022488 -0.007458 -0.009110 0.000000 0.003013 0.000000
# 2 -0.007458 0.022994 -0.006679 0.000000 -0.005404 0.000000
# 3 -0.009110 -0.006679 0.015632 0.000000 0.001852 0.000000
# 4 0.000000 0.000000 0.000000 0.038397 0.000000 -0.008055
# 5 0.003013 -0.005404 0.001852 0.000000 0.042304 0.000000
# 6 0.000000 0.000000 0.000000 -0.008055 0.000000 0.034498
#
#
# Mechanical properties :
#
#
# Convention : Reuss Voigt Hill
#
# Bulk Modulus (GPa) = 68.39345 77.10111 72.74728
# Shear Modulus (GPa) = 21.96061 24.26635 23.11348
#
# Velocity S-wave (km/s) = 3.49982 3.67896 3.59051
# Velocity P-wave (km/s) = 7.38097 7.81346 7.60029
#
# Compressibility (1/GPa) = 0.01462128
#
# Stress axis : x y z
#
# Youngs Moduli (GPa) = 44.46793 43.49008 63.96974
#
# Poissons Ratio (x) = 0.32433 0.58275
# Poissons Ratio (y) = 0.33162 0.42726
# Poissons Ratio (z) = 0.40510 0.29047
#
# Static dielectric constant tensor:
#      x y z
#    x 1.573170 0.000000 -0.008490 
#    y 0.000000 1.610620 0.000000 
#    z -0.008490 0.000000 1.640350 
# 
# From -- ./inp_files/313695.got.cif
#   From: 2010.05.17/outbox.cif.g08.bks.cpg/sg12_157_cif.got.tgz:313695.got - 2010.06.03 13:09:07.
