data_PCOD9185153
_publ_section_title
;
Structure prediction by ZEFSAII (Michael W. Deem and Ramdas Pophale) SiO2 
 PCOD9185153
Probable space group: C 2/M
;
_chemical_formula_sum "Si O2"
_cell_formula_units_Z 56
_cell_length_a 19.806046
_cell_length_b 8.221185
_cell_length_c 21.341354
_cell_angle_alpha 90.000000
_cell_angle_beta 58.014600
_cell_angle_gamma 90.000000
_cell_volume 2947.431971
_symmetry_space_group_name_H-M "C 2/M"
_symmetry_group_IT_number 12
_symmetry_cell_setting 'monoclinic'
loop_
_space_group_symop_operation_xyz
x,y,z
-x,y,-z
-x,-y,-z
x,-y,z
1/2+x,1/2+y,z
1/2-x,1/2+y,-z
1/2-x,1/2-y,-z
1/2+x,1/2-y,z
loop_
_atom_site_type_symbol
_atom_site_label
_atom_site_fract_x
_atom_site_fract_y
_atom_site_fract_z
Si Si1 0.044610 0.805204 0.212062
Si Si2 0.585673 0.686119 0.449011
Si Si3 0.214685 0.186250 0.823860
Si Si4 0.247582 0.804263 0.428899
Si Si5 0.103107 0.681626 0.311053
Si Si6 0.782666 0.695893 0.917188
Si Si7 0.631286 0.303001 0.739499
O O1 0.049518 0.728413 0.278673
O O2 0.126436 0.753901 0.137808
O O3 0.961128 0.755780 0.222121
O O4 0.044953 0.000000 0.217355
O O5 0.500000 0.766545 0.500000
O O6 0.580090 0.500000 0.475305
O O7 0.663382 0.759455 0.442773
O O8 0.598281 0.691469 0.368894
O O9 0.306071 0.179326 0.756475
O O10 0.225729 0.258746 0.888146
O O11 0.166812 0.259206 0.788514
O O12 0.184936 0.000000 0.846238
O O13 0.250000 0.750000 0.500000
O O14 0.316749 0.748878 0.346682
O O15 0.247898 0.000000 0.426957
O O16 0.083590 0.500000 0.343372
O O17 0.783147 0.500000 0.912441
O O18 0.750000 0.750000 0.000000
O O19 0.636153 0.500000 0.738785
#
# Coordination Sequence:
#
# PCOD9185153 Si02
#       7
#     8   8   8   8   8   8   8
#     4  10  21  35  57  85 114 147 185 229 281 336
#     4  10  22  38  54  75 106 143 188 236 287 339
#     4   8  16  33  57  81 105 140 184 224 268 326
#     4  11  24  39  56  80 112 151 191 239 291 341
#     4  10  19  34  56  79 106 141 185 234 279 332
#     4  10  20  37  61  88 118 149 186 230 277 334
#     4  10  20  38  60  81 111 150 191 236 283 338
#
# _framework density 18.999589
#
# number of rings (size 3 to 8) (size 9 to 14) (size 15 to 20)
#    0.000    2.143    1.429    2.571    2.000    2.000 
#    0.000    1.429    0.000    4.286    0.000    0.000 
#    0.000    0.000    0.000    0.000    0.000    0.000 
#
# Total GULP energy -156004.251168 kJ/mol
# GULP energy per Si atom -5571.580399 kJ/mol
# Density = 1.895634 g / cm^3
# Si number density = 18.999589 Si / 1000 Ang^3
#
#
#
# Elastic Constant Matrix: (Units=GPa)
#
#
# Indices 1 2 3 4 5 6 
#
# 1 173.9572 23.0161 73.2774 0.0000 15.9602 0.0003
# 2 23.0161 33.3761 3.4772 -0.0002 -1.3583 0.0002
# 3 73.2774 3.4772 103.4006 0.0000 20.0053 -0.0001
# 4 0.0000 -0.0002 0.0000 27.5203 0.0000 -2.4058
# 5 15.9602 -1.3583 20.0053 0.0000 26.2296 0.0000
# 6 0.0003 0.0002 -0.0001 -2.4058 0.0000 1.0017
#
#
#
# Elastic Compliance Matrix: (Units=1/GPa)
#
#
# Indices 1 2 3 4 5 6 
#
# 1 0.009182 -0.005750 -0.006071 0.000000 -0.001254 -0.000003
# 2 -0.005750 0.033836 0.002254 0.000000 0.003532 -0.000007
# 3 -0.006071 0.002254 0.015438 0.000000 -0.007964 0.000003
# 4 0.000000 0.000000 0.000000 0.045994 0.000000 0.110465
# 5 -0.001254 0.003532 -0.007964 0.000000 0.045145 0.000001
# 6 -0.000003 -0.000007 0.000003 0.110465 0.000001 1.263628
#
#
# Mechanical properties :
#
#
# Convention : Reuss Voigt Hill
#
# Bulk Modulus (GPa) = 25.43132 56.69726 41.06429
# Shear Modulus (GPa) = 3.45910 25.01454 14.23682
#
# Velocity S-wave (km/s) = 1.35077 3.63241 2.74035
# Velocity P-wave (km/s) = 3.98083 6.89193 5.62786
#
# Compressibility (1/GPa) = 0.03932159
#
# Stress axis : x y z
#
# Youngs Moduli (GPa) = 108.91267 29.55450 64.77368
#
# Poissons Ratio (x) = 0.16995 0.39322
# Poissons Ratio (y) = 0.62627 -0.14599
# Poissons Ratio (z) = 0.66118 -0.06661
#
# Static dielectric constant tensor:
#      x y z
#    x 1.687180 0.000000 0.013840 
#    y 0.000000 1.715150 0.000000 
#    z 0.013840 0.000000 1.657940 
# 
# From -- ./inp_files/275225.got.cif
#   From: 2010.05.17/outbox.cif.g08.bks.cpg/sg12_138_cif.got.tgz:275225.got - 2010.06.03 13:09:07.
