data_PCOD9185467
_publ_section_title
;
Structure prediction by ZEFSAII (Michael W. Deem and Ramdas Pophale) SiO2 
 PCOD9185467
Probable space group: C 2/M
;
_chemical_formula_sum "Si O2"
_cell_formula_units_Z 48
_cell_length_a 16.630952
_cell_length_b 12.793723
_cell_length_c 10.540958
_cell_angle_alpha 90.000000
_cell_angle_beta 83.340163
_cell_angle_gamma 90.000000
_cell_volume 2227.684419
_symmetry_space_group_name_H-M "C 2/M"
_symmetry_group_IT_number 12
_symmetry_cell_setting 'monoclinic'
loop_
_space_group_symop_operation_xyz
x,y,z
-x,y,-z
-x,-y,-z
x,-y,z
1/2+x,1/2+y,z
1/2-x,1/2+y,-z
1/2-x,1/2-y,-z
1/2+x,1/2-y,z
loop_
_atom_site_type_symbol
_atom_site_label
_atom_site_fract_x
_atom_site_fract_y
_atom_site_fract_z
Si Si1 0.580291 0.699505 0.948442
Si Si2 0.998405 0.230295 0.304480
Si Si3 0.412022 0.114034 0.847410
Si Si4 0.146058 0.879893 0.565827
Si Si5 0.239007 0.825376 0.804033
Si Si6 0.671776 0.619608 0.271832
O O1 0.559347 0.729441 0.808694
O O2 0.668545 0.651791 0.918816
O O3 0.500000 0.634687 0.000000
O O4 0.582145 0.798976 0.042142
O O5 0.038492 0.343774 0.284194
O O6 0.077112 0.154848 0.274005
O O7 0.933986 0.192911 0.419658
O O8 0.319306 0.113191 0.822718
O O9 0.439443 0.000000 0.882701
O O10 0.205953 0.852107 0.669817
O O11 0.186210 0.873989 0.420845
O O12 0.118246 0.000000 0.590891
O O13 0.268416 0.704042 0.801354
O O14 0.682036 0.500000 0.228388
#
# Coordination Sequence:
#
# PCOD9185467 Si02
#       6
#     8   8   8   8   8   8
#     4   9  19  35  53  73 102 139 176 219 265 311
#     4   9  19  33  53  78 105 137 180 224 259 308
#     4  10  20  35  56  79 108 146 180 216 268 324
#     4  10  19  34  57  81 108 144 180 218 267 317
#     4  10  20  35  55  81 112 140 177 224 266 315
#     4  10  20  34  55  82 110 142 179 219 268 320
#
# _framework density 21.547038000000001
#
# number of rings (size 3 to 8) (size 9 to 14) (size 15 to 20)
#    0.000    2.333    0.000    2.500    0.000    5.000 
#    0.000    4.167    0.000  101.000    0.000    0.000 
#    0.000    0.000    0.000    0.000    0.000    0.000 
#
# Total GULP energy -133684.301329 kJ/mol
# GULP energy per Si atom -5570.179222 kJ/mol
# Density = 2.149800 g / cm^3
# Si number density = 21.547038 Si / 1000 Ang^3
#
#
#
# Elastic Constant Matrix: (Units=GPa)
#
#
# Indices 1 2 3 4 5 6 
#
# 1 94.4827 -1.4273 17.3536 0.0000 -0.2589 0.0000
# 2 -1.4273 67.5702 16.3878 0.0000 2.2473 0.0000
# 3 17.3536 16.3878 40.6996 0.0000 9.1536 0.0000
# 4 0.0000 0.0000 0.0000 8.2743 0.0000 7.3933
# 5 -0.2589 2.2473 9.1536 0.0000 41.2879 0.0000
# 6 0.0000 0.0000 0.0000 7.3933 0.0000 4.0673
#
#
#
# Elastic Compliance Matrix: (Units=1/GPa)
#
#
# Indices 1 2 3 4 5 6 
#
# 1 0.011705 0.001646 -0.005946 0.000000 0.001302 0.000000
# 2 0.001646 0.016647 -0.007581 0.000000 0.000785 0.000000
# 3 -0.005946 -0.007581 0.031652 0.000000 -0.006642 0.000000
# 4 0.000000 0.000000 0.000000 -0.193620 0.000000 0.351949
# 5 0.001302 0.000785 -0.006642 0.000000 0.025658 0.000000
# 6 0.000000 0.000000 0.000000 0.351949 0.000000 -0.393886
#
#
# Mechanical properties :
#
#
# Convention : Reuss Voigt Hill
#
# Bulk Modulus (GPa) = 27.59347 29.70899 28.65123
# Shear Modulus (GPa) = -10.72959 22.08846 5.67944
#
# Velocity S-wave (km/s) = -2.23393 3.20523 1.62529
# Velocity P-wave (km/s) = 2.48597 5.24556 4.10463
#
# Compressibility (1/GPa) = 0.03624046
#
# Stress axis : x y z
#
# Youngs Moduli (GPa) = 85.43706 60.07172 31.59349
#
# Poissons Ratio (x) = -0.09888 0.18786
# Poissons Ratio (y) = -0.14064 0.23952
# Poissons Ratio (z) = 0.50803 0.45542
#
# Static dielectric constant tensor:
#      x y z
#    x 1.822900 0.000000 -0.015860 
#    y 0.000000 1.785020 0.000000 
#    z -0.015860 0.000000 1.864070 
# 
# From -- ./inp_files/153512.got.cif
#   From: 2010.05.17/outbox.cif.g08.bks.cpg/sg12_77_cif.got.tgz:153512.got - 2010.06.03 13:09:07.
