data_PCOD9185711
_publ_section_title
;
Structure prediction by ZEFSAII (Michael W. Deem and Ramdas Pophale) SiO2 
 PCOD9185711
Probable space group: C 2/M
;
_chemical_formula_sum "Si O2"
_cell_formula_units_Z 56
_cell_length_a 25.744807
_cell_length_b 19.666642
_cell_length_c 18.067875
_cell_angle_alpha 90.000000
_cell_angle_beta 161.775806
_cell_angle_gamma 90.000000
_cell_volume 2860.914306
_symmetry_space_group_name_H-M "C 2/M"
_symmetry_group_IT_number 12
_symmetry_cell_setting 'monoclinic'
loop_
_space_group_symop_operation_xyz
x,y,z
-x,y,-z
-x,-y,-z
x,-y,z
1/2+x,1/2+y,z
1/2-x,1/2+y,-z
1/2-x,1/2-y,-z
1/2+x,1/2-y,z
loop_
_atom_site_type_symbol
_atom_site_label
_atom_site_fract_x
_atom_site_fract_y
_atom_site_fract_z
Si Si1 0.576329 0.926420 0.425533
Si Si2 0.592600 0.663818 0.783082
Si Si3 0.379730 0.417822 0.608347
Si Si4 0.553319 0.806676 0.658353
Si Si5 0.072310 0.920636 0.170245
Si Si6 0.502163 0.082368 0.918476
Si Si7 0.236907 0.422276 0.108348
O O1 0.559529 0.866250 0.460410
O O2 0.733468 0.921130 0.584853
O O3 0.585745 0.000000 0.476613
O O4 0.417714 0.926261 0.157725
O O5 0.458346 0.620056 0.645779
O O6 0.529113 0.737209 0.671421
O O7 0.638701 0.624773 0.769074
O O8 0.755439 0.672944 0.057857
O O9 0.394643 0.500000 0.619820
O O10 0.468363 0.394314 0.803994
O O11 0.185850 0.402913 0.359868
O O12 0.500000 0.798791 0.500000
O O13 0.016585 0.000000 0.096384
O O14 0.000000 0.885638 0.000000
O O15 0.652309 0.106017 0.069006
O O16 0.519496 0.000000 0.941252
O O17 0.500000 0.105914 0.000000
O O18 0.297872 0.500000 0.202181
#
# Coordination Sequence:
#
# PCOD9185711 Si02
#       7
#     8   8   8   8   8   8   8
#     4   9  17  33  57  82 107 141 181 222 280 343
#     4  10  22  38  57  81 110 152 189 226 277 330
#     4  10  19  34  57  88 119 143 182 236 276 320
#     4  10  23  40  56  75 111 151 187 229 279 329
#     4   9  17  29  51  84 118 144 171 224 288 332
#     4   9  17  30  51  80 113 148 185 226 272 317
#     4   9  16  32  56  81 111 146 183 225 272 328
#
# _framework density 19.574162000000001
#
# number of rings (size 3 to 8) (size 9 to 14) (size 15 to 20)
#    0.000    2.571    1.429    0.429    2.000    2.000 
#    0.000    0.714    0.000    5.143    0.000    0.000 
#    0.000    0.000    0.000    0.000    0.000    0.000 
#
# Total GULP energy -155872.647300 kJ/mol
# GULP energy per Si atom -5566.880261 kJ/mol
# Density = 1.952961 g / cm^3
# Si number density = 19.574162 Si / 1000 Ang^3
#
#
#
# Elastic Constant Matrix: (Units=GPa)
#
#
# Indices 1 2 3 4 5 6 
#
# 1 161.0888 53.3231 33.9763 0.0000 -2.7682 0.0000
# 2 53.3231 66.4629 18.5136 0.0000 7.2172 0.0000
# 3 33.9763 18.5136 24.9368 0.0000 -3.1101 0.0000
# 4 0.0000 0.0000 0.0000 -0.8519 0.0000 -8.3785
# 5 -2.7682 7.2172 -3.1101 0.0000 26.0369 0.0000
# 6 0.0000 0.0000 0.0000 -8.3785 0.0000 -9.4830
#
#
#
# Elastic Compliance Matrix: (Units=1/GPa)
#
#
# Indices 1 2 3 4 5 6 
#
# 1 0.010073 -0.005643 -0.009345 0.000000 0.001519 0.000000
# 2 -0.005643 0.023495 -0.010802 0.000000 -0.008403 0.000000
# 3 -0.009345 -0.010802 0.062028 0.000000 0.009410 0.000000
# 4 0.000000 0.000000 0.000000 0.152653 0.000000 -0.134874
# 5 0.001519 -0.008403 0.009410 0.000000 0.042022 0.000000
# 6 0.000000 0.000000 0.000000 -0.134874 0.000000 0.013714
#
#
# Mechanical properties :
#
#
# Convention : Reuss Voigt Hill
#
# Bulk Modulus (GPa) = 22.72001 51.56830 37.14415
# Shear Modulus (GPa) = 13.50485 12.91877 13.21181
#
# Velocity S-wave (km/s) = 2.62951 2.57182 2.60082
# Velocity P-wave (km/s) = 4.56633 5.93475 5.29494
#
# Compressibility (1/GPa) = 0.04401407
#
# Stress axis : x y z
#
# Youngs Moduli (GPa) = 99.27585 42.56202 16.12183
#
# Poissons Ratio (x) = 0.24019 0.15066
# Poissons Ratio (y) = 0.56024 0.17415
# Poissons Ratio (z) = 0.92775 0.45977
#
# Static dielectric constant tensor:
#      x y z
#    x 1.706790 0.000000 -0.044720 
#    y 0.000000 1.669430 0.000000 
#    z -0.044720 0.000000 1.797170 
# 
# From -- ./inp_files/290866.got.cif
#   From: 2010.05.17/outbox.cif.g08.bks.cpg/sg12_146_cif.got.tgz:290866.got - 2010.06.03 13:09:07.
