data_PCOD9185495
_publ_section_title
;
Structure prediction by ZEFSAII (Michael W. Deem and Ramdas Pophale) SiO2 
 PCOD9185495
Probable space group: C 2/M
;
_chemical_formula_sum "Si O2"
_cell_formula_units_Z 48
_cell_length_a 24.275537
_cell_length_b 7.726319
_cell_length_c 9.805622
_cell_angle_alpha 90.000000
_cell_angle_beta 95.082583
_cell_angle_gamma 90.000000
_cell_volume 1831.916332
_symmetry_space_group_name_H-M "C 2/M"
_symmetry_group_IT_number 12
_symmetry_cell_setting 'monoclinic'
loop_
_space_group_symop_operation_xyz
x,y,z
-x,y,-z
-x,-y,-z
x,-y,z
1/2+x,1/2+y,z
1/2-x,1/2+y,-z
1/2-x,1/2-y,-z
1/2+x,1/2-y,z
loop_
_atom_site_type_symbol
_atom_site_label
_atom_site_fract_x
_atom_site_fract_y
_atom_site_fract_z
Si Si1 0.554097 0.702416 0.343874
Si Si2 0.413089 0.710182 0.952699
Si Si3 0.329915 0.800699 0.569378
Si Si4 0.796514 0.198684 0.859530
Si Si5 0.937648 0.297984 0.249674
Si Si6 0.814492 0.287204 0.268647
O O1 0.566208 0.500000 0.356809
O O2 0.564792 0.763509 0.190023
O O3 0.603146 0.792940 0.437424
O O4 0.488588 0.725106 0.346992
O O5 0.412841 0.500000 0.953679
O O6 0.349498 0.778034 0.946368
O O7 0.446718 0.770579 0.090144
O O8 0.315206 0.700404 0.703589
O O9 0.303042 0.738138 0.423275
O O10 0.315209 0.000000 0.589570
O O11 0.734938 0.274945 0.839871
O O12 0.792159 0.000000 0.901520
O O13 0.935601 0.500000 0.278759
O O14 0.876199 0.222411 0.254322
O O15 0.814508 0.500000 0.263573
#
# Coordination Sequence:
#
# PCOD9185495 Si02
#       6
#     8   8   8   8   8   8
#     4  10  21  38  57  77 105 139 175 217 268 317
#     4   9  19  35  55  77 103 137 175 217 265 312
#     4  10  19  34  57  82 106 134 176 222 261 305
#     4   9  18  36  58  78 106 142 176 211 260 315
#     4  11  22  35  53  78 108 141 178 217 259 310
#     4   9  20  36  53  77 111 146 172 208 265 316
#
# _framework density 26.202069999999999
#
# number of rings (size 3 to 8) (size 9 to 14) (size 15 to 20)
#    0.000    2.333    0.000    3.500    0.000    6.667 
#    0.000    9.167    0.000    0.000    0.000    0.000 
#    0.000    0.000    0.000    0.000    0.000    0.000 
#
# Total GULP energy -134263.009528 kJ/mol
# GULP energy per Si atom -5594.292064 kJ/mol
# Density = 2.614243 g / cm^3
# Si number density = 26.202070 Si / 1000 Ang^3
#
#
#
# Elastic Constant Matrix: (Units=GPa)
#
#
# Indices 1 2 3 4 5 6 
#
# 1 139.5975 2.9483 16.8173 0.0000 35.1403 0.0000
# 2 2.9483 70.0152 7.0599 0.0000 2.7935 0.0000
# 3 16.8173 7.0599 107.0949 0.0000 32.7860 0.0000
# 4 0.0000 0.0000 0.0000 20.2071 0.0000 -0.3023
# 5 35.1403 2.7935 32.7860 0.0000 53.3683 0.0000
# 6 0.0000 0.0000 0.0000 -0.3023 0.0000 17.1915
#
#
#
# Elastic Compliance Matrix: (Units=1/GPa)
#
#
# Indices 1 2 3 4 5 6 
#
# 1 0.008608 -0.000174 0.000483 0.000000 -0.005956 0.000000
# 2 -0.000174 0.014384 -0.000893 0.000000 -0.000090 0.000000
# 3 0.000483 -0.000893 0.011582 0.000000 -0.007386 0.000000
# 4 0.000000 0.000000 0.000000 0.049500 0.000000 0.000870
# 5 -0.005956 -0.000090 -0.007386 0.000000 0.027202 0.000000
# 6 0.000000 0.000000 0.000000 0.000870 0.000000 0.058183
#
#
# Mechanical properties :
#
#
# Convention : Reuss Voigt Hill
#
# Bulk Modulus (GPa) = 29.93530 41.15095 35.54312
# Shear Modulus (GPa) = 27.50845 37.47886 32.49366
#
# Velocity S-wave (km/s) = 3.24367 3.78614 3.52535
# Velocity P-wave (km/s) = 5.04758 5.90359 5.49229
#
# Compressibility (1/GPa) = 0.03340538
#
# Stress axis : x y z
#
# Youngs Moduli (GPa) = 116.16945 69.52369 86.34210
#
# Poissons Ratio (x) = 0.01207 -0.04170
# Poissons Ratio (y) = 0.02016 0.07714
# Poissons Ratio (z) = -0.05610 0.06212
#
# Static dielectric constant tensor:
#      x y z
#    x 2.196510 0.000000 -0.060580 
#    y 0.000000 1.929770 0.000000 
#    z -0.060580 0.000000 2.019610 
# 
# From -- ./inp_files/172119.got.cif
#   From: 2010.05.17/outbox.cif.g08.bks.cpg/sg12_87_cif.got.tgz:172119.got - 2010.06.03 13:09:07.
