data_PCOD9185189
_publ_section_title
;
Structure prediction by ZEFSAII (Michael W. Deem and Ramdas Pophale) SiO2 
 PCOD9185189
Probable space group: C 2/M
;
_chemical_formula_sum "Si O2"
_cell_formula_units_Z 64
_cell_length_a 25.146575
_cell_length_b 7.620570
_cell_length_c 22.626754
_cell_angle_alpha 90.000000
_cell_angle_beta 43.213973
_cell_angle_gamma 90.000000
_cell_volume 2968.962084
_symmetry_space_group_name_H-M "C 2/M"
_symmetry_group_IT_number 12
_symmetry_cell_setting 'monoclinic'
loop_
_space_group_symop_operation_xyz
x,y,z
-x,y,-z
-x,-y,-z
x,-y,z
1/2+x,1/2+y,z
1/2-x,1/2+y,-z
1/2-x,1/2-y,-z
1/2+x,1/2-y,z
loop_
_atom_site_type_symbol
_atom_site_label
_atom_site_fract_x
_atom_site_fract_y
_atom_site_fract_z
Si Si1 0.838678 0.205991 0.358845
Si Si2 0.989263 0.785477 0.441178
Si Si3 0.574992 0.709863 0.043367
Si Si4 0.839566 0.213389 0.490675
Si Si5 0.403198 0.711336 0.185021
Si Si6 0.660996 0.289109 0.089346
Si Si7 0.199958 0.707075 0.841809
Si Si8 0.635849 0.284565 0.243895
O O1 0.855721 0.276499 0.410493
O O2 0.746508 0.224908 0.423369
O O3 0.882609 0.280680 0.266767
O O4 0.858381 0.000000 0.345595
O O5 0.059922 0.729863 0.341599
O O6 0.000000 0.728085 0.500000
O O7 0.907222 0.730562 0.479850
O O8 0.989457 0.000000 0.441329
O O9 0.569035 0.500000 0.054020
O O10 0.488889 0.775149 0.097457
O O11 0.606522 0.778581 0.080594
O O12 0.638180 0.741639 0.941883
O O13 0.837357 0.000000 0.491773
O O14 0.405889 0.500000 0.185822
O O15 0.336954 0.750804 0.191339
O O16 0.653463 0.500000 0.096825
O O17 0.639883 0.226650 0.172216
O O18 0.750000 0.250000 0.000000
O O19 0.207977 0.500000 0.838485
O O20 0.285315 0.777814 0.787803
O O21 0.635114 0.500000 0.244012
#
# Coordination Sequence:
#
# PCOD9185189 Si02
#       8
#     8   8   8   8   8   8   8   8
#     4   9  19  35  54  77 105 139 175 219 269 314
#     4   9  18  31  52  82 111 137 171 219 267 315
#     4  10  21  36  56  78 106 142 183 222 263 316
#     4   9  18  33  56  80 105 136 176 219 264 317
#     4  10  22  37  54  77 105 141 185 225 263 315
#     4  10  19  34  56  80 108 142 178 222 268 316
#     4  11  22  36  55  79 110 142 175 219 273 324
#     4   9  19  33  51  79 111 139 173 219 268 316
#
# _framework density 21.556355
#
# number of rings (size 3 to 8) (size 9 to 14) (size 15 to 20)
#    0.000    2.375    1.250    0.750    3.500    2.500 
#    0.000    0.000    0.000    2.625    0.000    0.000 
#    0.000    0.000    0.000    0.000    0.000    0.000 
#
# Total GULP energy -178706.021975 kJ/mol
# GULP energy per Si atom -5584.563187 kJ/mol
# Density = 2.150729 g / cm^3
# Si number density = 21.556355 Si / 1000 Ang^3
#
#
#
# Elastic Constant Matrix: (Units=GPa)
#
#
# Indices 1 2 3 4 5 6 
#
# 1 72.3104 -7.8597 -2.5332 0.0081 14.3702 -0.0175
# 2 -7.8597 42.6548 -9.1825 0.0078 3.0004 -0.0037
# 3 -2.5332 -9.1825 64.3599 0.0044 17.4003 -0.0093
# 4 0.0081 0.0078 0.0044 8.9891 -0.0039 -4.1768
# 5 14.3702 3.0004 17.4003 -0.0039 19.3163 0.0040
# 6 -0.0175 -0.0037 -0.0093 -4.1768 0.0040 14.7369
#
#
#
# Elastic Compliance Matrix: (Units=1/GPa)
#
#
# Indices 1 2 3 4 5 6 
#
# 1 0.019304 0.006815 0.007801 -0.000023 -0.022447 0.000029
# 2 0.006815 0.027860 0.008968 -0.000035 -0.017476 0.000016
# 3 0.007801 0.008968 0.025209 -0.000027 -0.029906 0.000028
# 4 -0.000023 -0.000035 -0.000027 0.128119 0.000065 0.036312
# 5 -0.022447 -0.017476 -0.029906 0.000065 0.098123 -0.000058
# 6 0.000029 0.000016 0.000028 0.036312 -0.000058 0.078149
#
#
# Mechanical properties :
#
#
# Convention : Reuss Voigt Hill
#
# Bulk Modulus (GPa) = 8.36524 15.57494 11.97009
# Shear Modulus (GPa) = 13.53389 21.86848 17.70119
#
# Velocity S-wave (km/s) = 2.50839 3.18855 2.86870
# Velocity P-wave (km/s) = 3.50406 4.56034 4.06664
#
# Compressibility (1/GPa) = 0.11954226
#
# Stress axis : x y z
#
# Youngs Moduli (GPa) = 51.80193 35.89414 39.66768
#
# Poissons Ratio (x) = -0.24463 -0.30945
# Poissons Ratio (y) = -0.35305 -0.35574
# Poissons Ratio (z) = -0.40411 -0.32190
#
# Static dielectric constant tensor:
#      x y z
#    x 1.768260 0.000000 -0.011740 
#    y 0.000000 1.828980 0.000030 
#    z -0.011740 0.000030 1.709840 
# 
# From -- ./inp_files/324171.got.cif
#   From: 2010.05.17/outbox.cif.g08.bks.cpg/sg12_163_cif.got.tgz:324171.got - 2010.06.03 13:09:07.
