data_PCOD9185647
_publ_section_title
;
Structure prediction by ZEFSAII (Michael W. Deem and Ramdas Pophale) SiO2 
 PCOD9185647
Probable space group: C 2/M
;
_chemical_formula_sum "Si O2"
_cell_formula_units_Z 56
_cell_length_a 31.161217
_cell_length_b 7.465087
_cell_length_c 19.724141
_cell_angle_alpha 90.000000
_cell_angle_beta 140.793458
_cell_angle_gamma 90.000000
_cell_volume 2900.316476
_symmetry_space_group_name_H-M "C 2/M"
_symmetry_group_IT_number 12
_symmetry_cell_setting 'monoclinic'
loop_
_space_group_symop_operation_xyz
x,y,z
-x,y,-z
-x,-y,-z
x,-y,z
1/2+x,1/2+y,z
1/2-x,1/2+y,-z
1/2-x,1/2-y,-z
1/2+x,1/2-y,z
loop_
_atom_site_type_symbol
_atom_site_label
_atom_site_fract_x
_atom_site_fract_y
_atom_site_fract_z
Si Si1 0.394103 0.214989 0.131804
Si Si2 0.186540 0.716194 0.096667
Si Si3 0.541736 0.794904 0.256480
Si Si4 0.661684 0.281636 0.677233
Si Si5 0.581806 0.717384 0.451658
Si Si6 0.400503 0.500000 0.930578
Si Si7 0.937154 0.793866 0.328632
Si Si8 0.557668 0.500000 0.168834
O O1 0.466235 0.270143 0.186695
O O2 0.392119 0.288997 0.205178
O O3 0.396065 0.000000 0.140621
O O4 0.335377 0.262240 0.007169
O O5 0.178995 0.500000 0.095089
O O6 0.263341 0.769221 0.207831
O O7 0.136708 0.826160 0.084349
O O8 0.584683 0.783532 0.378352
O O9 0.569034 0.671136 0.230541
O O10 0.535723 0.000000 0.227118
O O11 0.660294 0.500000 0.677863
O O12 0.640546 0.229529 0.575525
O O13 0.604788 0.215822 0.660517
O O14 0.579409 0.500000 0.445165
O O15 0.510130 0.782065 0.396337
O O16 0.400461 0.500000 0.849170
O O17 0.478446 0.500000 0.050271
O O18 0.951214 0.000000 0.364152
#
# Coordination Sequence:
#
# PCOD9185647 Si02
#       8
#     8   8   8   8   8   4   8   4
#     4   9  18  31  49  74 109 147 181 222 275 320
#     4  10  21  38  56  77 114 152 186 223 274 336
#     4  10  19  34  57  85 114 143 177 222 282 335
#     4   9  18  33  51  78 111 155 194 228 274 320
#     4   9  16  30  55  81 111 150 190 235 275 315
#     4  11  24  38  62  90 110 138 179 223 282 343
#     4   9  17  28  50  79 110 146 192 238 273 312
#     4  11  22  38  62  92 112 131 176 228 281 347
#
# _framework density 19.308237999999999
#
# number of rings (size 3 to 8) (size 9 to 14) (size 15 to 20)
#    0.000    2.429    2.143    0.429    2.000    2.857 
#    2.571    1.429    0.000    4.286    0.000    0.000 
#    0.000    0.000    0.000    0.000    0.000    0.000 
#
# Total GULP energy -156261.071620 kJ/mol
# GULP energy per Si atom -5580.752558 kJ/mol
# Density = 1.926429 g / cm^3
# Si number density = 19.308238 Si / 1000 Ang^3
#
#
#
# Elastic Constant Matrix: (Units=GPa)
#
#
# Indices 1 2 3 4 5 6 
#
# 1 40.5693 9.9153 12.2948 0.0000 -24.0072 0.0000
# 2 9.9153 67.9105 3.2160 0.0000 -7.1422 0.0000
# 3 12.2948 3.2160 115.7358 0.0000 -22.4669 0.0000
# 4 0.0000 0.0000 0.0000 12.3960 0.0000 2.9601
# 5 -24.0072 -7.1422 -22.4669 0.0000 25.9417 0.0000
# 6 0.0000 0.0000 0.0000 2.9601 0.0000 -2.8765
#
#
#
# Elastic Compliance Matrix: (Units=1/GPa)
#
#
# Indices 1 2 3 4 5 6 
#
# 1 0.057268 -0.002647 0.004972 0.000000 0.056575 0.000000
# 2 -0.002647 0.015308 0.000239 0.000000 0.001972 0.000000
# 3 0.004972 0.000239 0.010833 0.000000 0.014049 0.000000
# 4 0.000000 0.000000 0.000000 0.064758 0.000000 0.066640
# 5 0.056575 0.001972 0.014049 0.000000 0.103614 0.000000
# 6 0.000000 0.000000 0.000000 0.066640 0.000000 -0.279064
#
#
# Mechanical properties :
#
#
# Convention : Reuss Voigt Hill
#
# Bulk Modulus (GPa) = 11.29479 30.56310 20.92894
# Shear Modulus (GPa) = -1723.97625 20.34486 -851.81569
#
# Velocity S-wave (km/s) = -29.91336 3.24958 -21.02676
# Velocity P-wave (km/s) = 34.45601 5.47203 24.05487
#
# Compressibility (1/GPa) = 0.08853637
#
# Stress axis : x y z
#
# Youngs Moduli (GPa) = 17.46180 65.32627 92.31286
#
# Poissons Ratio (x) = 0.17291 -0.45901
# Poissons Ratio (y) = 0.04622 -0.02202
# Poissons Ratio (z) = -0.08683 -0.01558
#
# Static dielectric constant tensor:
#      x y z
#    x 1.633300 0.000000 -0.009260 
#    y 0.000000 1.712020 0.000000 
#    z -0.009260 0.000000 1.690370 
# 
# From -- ./inp_files/292633.got.cif
#   From: 2010.05.17/outbox.cif.g08.bks.cpg/sg12_147_cif.got.tgz:292633.got - 2010.06.03 13:09:07.
