data_PCOD9185809
_publ_section_title
;
Structure prediction by ZEFSAII (Michael W. Deem and Ramdas Pophale) SiO2 
 PCOD9185809
Probable space group: C 2/M
;
_chemical_formula_sum "Si O2"
_cell_formula_units_Z 64
_cell_length_a 25.541251
_cell_length_b 18.937761
_cell_length_c 20.783625
_cell_angle_alpha 90.000000
_cell_angle_beta 158.447136
_cell_angle_gamma 90.000000
_cell_volume 3693.034752
_symmetry_space_group_name_H-M "C 2/M"
_symmetry_group_IT_number 12
_symmetry_cell_setting 'monoclinic'
loop_
_space_group_symop_operation_xyz
x,y,z
-x,y,-z
-x,-y,-z
x,-y,z
1/2+x,1/2+y,z
1/2-x,1/2+y,-z
1/2-x,1/2-y,-z
1/2+x,1/2-y,z
loop_
_atom_site_type_symbol
_atom_site_label
_atom_site_fract_x
_atom_site_fract_y
_atom_site_fract_z
Si Si1 0.124816 0.650307 0.835288
Si Si2 0.103526 0.580723 0.178942
Si Si3 0.561291 0.307850 0.812459
Si Si4 0.328749 0.298065 0.450456
Si Si5 0.311752 0.673037 0.626074
Si Si6 0.425477 0.169062 0.483306
Si Si7 0.933192 0.580943 0.717070
Si Si8 0.348123 0.583993 0.794410
O O1 0.098437 0.726706 0.838323
O O2 0.030646 0.646944 0.662490
O O3 0.062303 0.595861 0.815677
O O4 0.292979 0.648862 0.013295
O O5 0.159621 0.500000 0.242331
O O6 0.222749 0.640304 0.310825
O O7 0.031492 0.590222 0.167122
O O8 0.000000 0.588085 0.000000
O O9 0.465749 0.330713 0.642471
O O10 0.455344 0.311236 0.751643
O O11 0.254905 0.242700 0.416523
O O12 0.375466 0.247891 0.445401
O O13 0.192178 0.635402 0.445398
O O14 0.344543 0.617935 0.719914
O O15 0.500000 0.166867 0.500000
O O16 0.286387 0.119579 0.324270
O O17 0.884276 0.500000 0.652415
O O18 0.331492 0.500000 0.773475
O O19 0.500000 0.600934 0.000000
#
# Coordination Sequence:
#
# PCOD9185809 Si02
#       8
#     8   8   8   8   8   8   8   8
#     4  10  21  37  54  85 118 154 186 237 293 350
#     4  10  22  39  60  88 117 148 193 242 299 358
#     4  10  19  34  58  83 114 142 187 244 294 336
#     4  10  19  38  58  87 113 147 190 246 293 343
#     4  11  19  34  63  86 113 146 201 245 290 341
#     4  10  22  38  56  81 120 154 197 232 283 349
#     4  11  20  37  62  84 116 159 196 240 292 351
#     4  10  22  38  55  81 118 155 196 240 286 335
#
# _framework density 17.329920999999999
#
# number of rings (size 3 to 8) (size 9 to 14) (size 15 to 20)
#    0.000    1.750    5.000    1.500    1.750    2.250 
#    6.750    1.875    0.000    0.375    0.000    0.000 
#    0.000    0.000    0.000    0.000    0.000    0.000 
#
# Total GULP energy -178477.550788 kJ/mol
# GULP energy per Si atom -5577.423462 kJ/mol
# Density = 1.729048 g / cm^3
# Si number density = 17.329921 Si / 1000 Ang^3
#
#
#
# Elastic Constant Matrix: (Units=GPa)
#
#
# Indices 1 2 3 4 5 6 
#
# 1 142.5889 42.6693 64.9866 -0.0018 5.7239 -0.0020
# 2 42.6693 72.5991 66.5359 -0.0017 -8.6354 -0.0023
# 3 64.9866 66.5359 118.1619 -0.0004 10.6697 -0.0010
# 4 -0.0018 -0.0017 -0.0004 26.5759 -0.0011 -2.4749
# 5 5.7239 -8.6354 10.6697 -0.0011 30.8777 -0.0013
# 6 -0.0020 -0.0023 -0.0010 -2.4749 -0.0013 12.3085
#
#
#
# Elastic Compliance Matrix: (Units=1/GPa)
#
#
# Indices 1 2 3 4 5 6 
#
# 1 0.009474 -0.002034 -0.003979 0.000000 -0.000950 0.000001
# 2 -0.002034 0.036196 -0.020862 0.000003 0.017708 0.000007
# 3 -0.003979 -0.020862 0.023595 -0.000002 -0.013250 -0.000004
# 4 0.000000 0.000003 -0.000002 0.038346 0.000003 0.007710
# 5 -0.000950 0.017708 -0.013250 0.000003 0.042093 0.000007
# 6 0.000001 0.000007 -0.000004 0.007710 0.000007 0.082795
#
#
# Mechanical properties :
#
#
# Convention : Reuss Voigt Hill
#
# Bulk Modulus (GPa) = 64.45761 75.74818 70.10289
# Shear Modulus (GPa) = 17.15745 24.56296 20.86021
#
# Velocity S-wave (km/s) = 3.14992 3.76889 3.47322
# Velocity P-wave (km/s) = 7.10665 7.92109 7.52490
#
# Compressibility (1/GPa) = 0.01551407
#
# Stress axis : x y z
#
# Youngs Moduli (GPa) = 105.55734 27.62768 42.38243
#
# Poissons Ratio (x) = 0.05620 0.16864
# Poissons Ratio (y) = 0.21474 0.88416
# Poissons Ratio (z) = 0.42000 0.57636
#
# Static dielectric constant tensor:
#      x y z
#    x 1.595020 0.000000 0.000480 
#    y 0.000000 1.588900 0.000000 
#    z 0.000480 0.000000 1.593090 
# 
# From -- ./inp_files/328680.got.cif
#   From: 2010.05.17/outbox.cif.g08.bks.cpg/sg12_165_cif.got.tgz:328680.got - 2010.06.03 13:09:07.
