data_PCOD9185860
_publ_section_title
;
Structure prediction by ZEFSAII (Michael W. Deem and Ramdas Pophale) SiO2 
 PCOD9185860
Probable space group: C 2/M
;
_chemical_formula_sum "Si O2"
_cell_formula_units_Z 60
_cell_length_a 13.012850
_cell_length_b 21.593188
_cell_length_c 21.778299
_cell_angle_alpha 90.000000
_cell_angle_beta 153.107390
_cell_angle_gamma 90.000000
_cell_volume 2767.952488
_symmetry_space_group_name_H-M "C 2/M"
_symmetry_group_IT_number 12
_symmetry_cell_setting 'monoclinic'
loop_
_space_group_symop_operation_xyz
x,y,z
-x,y,-z
-x,-y,-z
x,-y,z
1/2+x,1/2+y,z
1/2-x,1/2+y,-z
1/2-x,1/2-y,-z
1/2+x,1/2-y,z
loop_
_atom_site_type_symbol
_atom_site_label
_atom_site_fract_x
_atom_site_fract_y
_atom_site_fract_z
Si Si1 0.609399 0.391906 0.124076
Si Si2 0.570722 0.809760 0.967754
Si Si3 0.465761 0.500000 0.818533
Si Si4 0.763904 0.888421 0.632143
Si Si5 0.440981 0.926022 0.694154
Si Si6 0.468613 0.070794 0.852228
Si Si7 0.943557 0.216283 0.813215
Si Si8 0.435677 0.428057 0.597742
O O1 0.532517 0.446638 0.126545
O O2 0.539987 0.328931 0.119503
O O3 0.878499 0.394705 0.254785
O O4 0.500000 0.398823 0.000000
O O5 0.599263 0.881317 0.964295
O O6 0.400713 0.781194 0.825316
O O7 0.500000 0.804061 0.000000
O O8 0.813564 0.777519 0.089831
O O9 0.411572 0.444166 0.739489
O O10 0.500000 0.906159 0.500000
O O11 0.796192 0.823594 0.686415
O O12 0.842768 0.886089 0.603474
O O13 0.476640 0.911450 0.784726
O O14 0.192696 0.912996 0.534383
O O15 0.479412 0.000000 0.710738
O O16 0.205631 0.073192 0.732744
O O17 0.557357 0.000000 0.908016
O O18 0.372817 0.500000 0.578125
#
# Coordination Sequence:
#
# PCOD9185860 Si02
#       8
#     8   8   4   8   8   8   8   8
#     4  11  20  34  55  87 122 156 201 248 296 355
#     4  11  23  45  67  83 119 162 202 245 307 366
#     4  10  20  30  50  84 123 160 185 236 299 354
#     4  11  21  36  59  90 127 156 200 248 303 360
#     4  10  20  34  57  87 124 163 196 245 303 361
#     4  10  22  39  60  90 120 154 203 258 295 355
#     4  10  24  41  62  91 116 161 203 247 299 363
#     4  10  19  34  58  84 121 166 203 237 300 364
#
# _framework density 21.676672
#
# number of rings (size 3 to 8) (size 9 to 14) (size 15 to 20)
#    0.000    1.600    1.333    4.400    1.867    2.933 
#    7.200    1.333    0.000    3.200    0.000    0.000 
#    0.000    0.000    0.000    0.000    0.000    0.000 
#
# Total GULP energy -167051.461635 kJ/mol
# GULP energy per Si atom -5568.382055 kJ/mol
# Density = 2.162733 g / cm^3
# Si number density = 21.676672 Si / 1000 Ang^3
#
#
#
# Elastic Constant Matrix: (Units=GPa)
#
#
# Indices 1 2 3 4 5 6 
#
# 1 131.7592 27.2140 7.5810 -0.0006 -11.8861 0.0009
# 2 27.2140 73.6211 7.3874 0.0031 -5.2066 0.0036
# 3 7.5810 7.3874 6.7525 -0.0066 -10.0727 0.0125
# 4 -0.0006 0.0031 -0.0066 25.0432 0.0011 -7.3383
# 5 -11.8861 -5.2066 -10.0727 0.0011 32.7163 0.0017
# 6 0.0009 0.0036 0.0125 -7.3383 0.0017 21.6457
#
#
#
# Elastic Compliance Matrix: (Units=1/GPa)
#
#
# Indices 1 2 3 4 5 6 
#
# 1 0.008511 -0.002556 -0.005092 0.000000 0.001118 0.000003
# 2 -0.002556 0.016484 -0.023368 -0.000005 -0.005500 0.000010
# 3 -0.005092 -0.023368 0.316365 0.000030 0.091834 -0.000176
# 4 0.000000 -0.000005 0.000030 0.044335 0.000006 0.015030
# 5 0.001118 -0.005500 0.091834 0.000006 0.058370 -0.000055
# 6 0.000003 0.000010 -0.000176 0.015030 -0.000055 0.051294
#
#
# Mechanical properties :
#
#
# Convention : Reuss Voigt Hill
#
# Bulk Modulus (GPa) = 3.58002 32.94417 18.26209
# Shear Modulus (GPa) = 7.68638 27.21107 17.44872
#
# Velocity S-wave (km/s) = 1.88510 3.54689 2.84025
# Velocity P-wave (km/s) = 2.52850 5.65728 4.38168
#
# Compressibility (1/GPa) = 0.27932781
#
# Stress axis : x y z
#
# Youngs Moduli (GPa) = 117.48974 60.66541 3.16091
#
# Poissons Ratio (x) = 0.15508 0.01609
# Poissons Ratio (y) = 0.30034 0.07387
# Poissons Ratio (z) = 0.59821 1.41765
#
# Static dielectric constant tensor:
#      x y z
#    x 1.822890 0.000000 0.080720 
#    y 0.000000 1.830570 -0.000010 
#    z 0.080720 -0.000010 1.953300 
# 
# From -- ./inp_files/307325.got.cif
#   From: 2010.05.17/outbox.cif.g08.bks.cpg/sg12_154_cif.got.tgz:307325.got - 2010.06.03 13:09:07.
