data_PCOD9185163
_publ_section_title
;
Structure prediction by ZEFSAII (Michael W. Deem and Ramdas Pophale) SiO2 
 PCOD9185163
Probable space group: C 2/M
;
_chemical_formula_sum "Si O2"
_cell_formula_units_Z 56
_cell_length_a 29.950166
_cell_length_b 9.731190
_cell_length_c 11.543993
_cell_angle_alpha 90.000000
_cell_angle_beta 65.335220
_cell_angle_gamma 90.000000
_cell_volume 3057.544393
_symmetry_space_group_name_H-M "C 2/M"
_symmetry_group_IT_number 12
_symmetry_cell_setting 'monoclinic'
loop_
_space_group_symop_operation_xyz
x,y,z
-x,y,-z
-x,-y,-z
x,-y,z
1/2+x,1/2+y,z
1/2-x,1/2+y,-z
1/2-x,1/2-y,-z
1/2+x,1/2-y,z
loop_
_atom_site_type_symbol
_atom_site_label
_atom_site_fract_x
_atom_site_fract_y
_atom_site_fract_z
Si Si1 0.622883 0.341593 0.325193
Si Si2 0.298986 0.843905 0.335648
Si Si3 0.020188 0.660538 0.100712
Si Si4 0.810878 0.836328 0.546184
Si Si5 0.031127 0.665266 0.348229
Si Si6 0.362476 0.846633 0.042132
Si Si7 0.202397 0.843723 0.042745
O O1 0.604847 0.500000 0.354510
O O2 0.643863 0.288128 0.424371
O O3 0.581957 0.245676 0.313250
O O4 0.671764 0.346461 0.194466
O O5 0.244442 0.813246 0.343989
O O6 0.310073 0.738358 0.424750
O O7 0.340774 0.841472 0.194357
O O8 0.296116 0.000000 0.385899
O O9 0.004458 0.500000 0.117563
O O10 0.009053 0.709640 0.245589
O O11 0.079196 0.667438 0.026871
O O12 0.000000 0.720925 0.000000
O O13 0.816538 0.000000 0.528993
O O14 0.038998 0.500000 0.331871
O O15 0.000000 0.690603 0.500000
O O16 0.349975 0.000000 0.008614
O O17 0.335044 0.727205 0.004792
O O18 0.214926 0.000000 0.997139
O O19 0.250000 0.750000 0.000000
#
# Coordination Sequence:
#
# PCOD9185163 Si02
#       7
#     8   8   8   8   8   8   8
#     4  10  21  37  56  79 111 149 186 228 283 343
#     4   9  18  32  51  76 106 143 186 228 272 329
#     4   9  18  34  56  81 111 147 186 235 295 349
#     4   9  18  33  50  72 107 145 182 224 274 333
#     4  10  21  37  59  86 112 142 190 247 291 341
#     4  10  19  34  56  79 108 145 187 232 282 340
#     4  11  22  35  55  83 115 149 187 229 279 339
#
# _framework density 18.315351
#
# number of rings (size 3 to 8) (size 9 to 14) (size 15 to 20)
#    0.000    2.286    1.429    1.286    0.000    5.429 
#    0.000    5.714    0.000    1.714    0.000    0.000 
#    0.000    0.000    0.000    0.000    0.000    0.000 
#
# Total GULP energy -155925.139253 kJ/mol
# GULP energy per Si atom -5568.754973 kJ/mol
# Density = 1.827366 g / cm^3
# Si number density = 18.315351 Si / 1000 Ang^3
#
#
#
# Elastic Constant Matrix: (Units=GPa)
#
#
# Indices 1 2 3 4 5 6 
#
# 1 77.5173 35.5108 29.9132 0.0000 25.7508 0.0000
# 2 35.5108 52.3843 16.2108 0.0000 3.4699 0.0000
# 3 29.9132 16.2108 76.3446 0.0000 12.4805 0.0000
# 4 0.0000 0.0000 0.0000 16.9712 0.0000 -5.8051
# 5 25.7508 3.4699 12.4805 0.0000 28.0447 0.0000
# 6 0.0000 0.0000 0.0000 -5.8051 0.0000 12.0927
#
#
#
# Elastic Compliance Matrix: (Units=1/GPa)
#
#
# Indices 1 2 3 4 5 6 
#
# 1 0.030811 -0.017952 -0.004312 0.000000 -0.024151 0.000000
# 2 -0.017952 0.030903 -0.001723 0.000000 0.013427 0.000000
# 3 -0.004312 -0.001723 0.015607 0.000000 -0.002773 0.000000
# 4 0.000000 0.000000 0.000000 0.070500 0.000000 0.033843
# 5 -0.024151 0.013427 -0.002773 0.000000 0.057405 0.000000
# 6 0.000000 0.000000 0.000000 0.033843 0.000000 0.098941
#
#
# Mechanical properties :
#
#
# Convention : Reuss Voigt Hill
#
# Bulk Modulus (GPa) = 34.07563 41.05731 37.56647
# Shear Modulus (GPa) = 13.81505 19.72916 16.77210
#
# Velocity S-wave (km/s) = 2.74941 3.28562 3.02940
# Velocity P-wave (km/s) = 5.35951 6.07119 5.72641
#
# Compressibility (1/GPa) = 0.02934649
#
# Stress axis : x y z
#
# Youngs Moduli (GPa) = 32.45588 32.35920 64.07270
#
# Poissons Ratio (x) = 0.58092 0.27630
# Poissons Ratio (y) = 0.58266 0.11039
# Poissons Ratio (z) = 0.13996 0.05575
#
# Static dielectric constant tensor:
#      x y z
#    x 1.634190 0.000000 0.016060 
#    y 0.000000 1.623370 0.000000 
#    z 0.016060 0.000000 1.680780 
# 
# From -- ./inp_files/187198.got.cif
#   From: 2010.05.17/outbox.cif.g08.bks.cpg/sg12_94_cif.got.tgz:187198.got - 2010.06.03 13:09:07.
