data_PCOD9185839
_publ_section_title
;
Structure prediction by ZEFSAII (Michael W. Deem and Ramdas Pophale) SiO2 
 PCOD9185839
Probable space group: C 2/M
;
_chemical_formula_sum "Si O2"
_cell_formula_units_Z 48
_cell_length_a 12.686146
_cell_length_b 21.571788
_cell_length_c 13.458138
_cell_angle_alpha 90.000000
_cell_angle_beta 137.249974
_cell_angle_gamma 90.000000
_cell_volume 2500.019233
_symmetry_space_group_name_H-M "C 2/M"
_symmetry_group_IT_number 12
_symmetry_cell_setting 'monoclinic'
loop_
_space_group_symop_operation_xyz
x,y,z
-x,y,-z
-x,-y,-z
x,-y,z
1/2+x,1/2+y,z
1/2-x,1/2+y,-z
1/2-x,1/2-y,-z
1/2+x,1/2-y,z
loop_
_atom_site_type_symbol
_atom_site_label
_atom_site_fract_x
_atom_site_fract_y
_atom_site_fract_z
Si Si1 0.631230 0.711722 0.171697
Si Si2 0.938248 0.346351 0.348138
Si Si3 0.924306 0.230637 0.644470
Si Si4 0.838592 0.358807 0.827360
Si Si5 0.994145 0.106339 0.383307
Si Si6 0.668525 0.928328 0.389766
O O1 0.755271 0.657921 0.235636
O O2 0.569129 0.704621 0.240338
O O3 0.688747 0.784144 0.202885
O O4 0.500000 0.706535 0.000000
O O5 0.000000 0.328992 0.500000
O O6 0.973034 0.290977 0.295949
O O7 0.039669 0.403160 0.377661
O O8 0.750000 0.250000 0.500000
O O9 0.970046 0.179131 0.597463
O O10 0.688226 0.393315 0.773328
O O11 0.846902 0.388046 0.722316
O O12 0.000000 0.366905 0.000000
O O13 0.152974 0.078885 0.446258
O O14 0.000000 0.082067 0.500000
O O15 0.642410 0.000000 0.348945
#
# Coordination Sequence:
#
# PCOD9185839 Si02
#       6
#     8   8   8   8   8   8
#     4  11  23  35  55  93 128 147 184 242 300 350
#     4  12  22  36  63  86 115 156 191 237 291 348
#     4  12  18  33  59  87 117 150 190 234 293 349
#     4  10  21  36  57  87 119 151 186 236 293 348
#     4  10  19  34  58  84 113 147 187 242 288 335
#     4  11  24  40  57  83 116 154 199 238 280 337
#
# _framework density 19.199853000000001
#
# number of rings (size 3 to 8) (size 9 to 14) (size 15 to 20)
#    0.000    1.000    6.667    1.500    0.000    5.667 
#    0.000    0.000    0.000    0.500    0.000    0.000 
#    0.000    0.000    0.000    0.000    0.000    0.000 
#
# Total GULP energy -133633.092722 kJ/mol
# GULP energy per Si atom -5568.045530 kJ/mol
# Density = 1.915615 g / cm^3
# Si number density = 19.199853 Si / 1000 Ang^3
#
#
#
# Elastic Constant Matrix: (Units=GPa)
#
#
# Indices 1 2 3 4 5 6 
#
# 1 84.6999 19.3612 39.0576 0.0000 6.4417 0.0000
# 2 19.3612 58.8009 14.0082 0.0000 14.1991 0.0000
# 3 39.0576 14.0082 99.5233 0.0000 11.9436 0.0000
# 4 0.0000 0.0000 0.0000 -19.4746 0.0000 13.1180
# 5 6.4417 14.1991 11.9436 0.0000 20.2887 0.0000
# 6 0.0000 0.0000 0.0000 13.1180 0.0000 -1.5130
#
#
#
# Elastic Compliance Matrix: (Units=1/GPa)
#
#
# Indices 1 2 3 4 5 6 
#
# 1 0.015178 -0.003973 -0.005544 0.000000 0.001225 0.000000
# 2 -0.003973 0.021650 0.000192 0.000000 -0.014004 0.000000
# 3 -0.005544 0.000192 0.012914 0.000000 -0.005976 0.000000
# 4 0.000000 0.000000 0.000000 0.010609 0.000000 0.091981
# 5 0.001225 -0.014004 -0.005976 0.000000 0.062218 0.000000
# 6 0.000000 0.000000 0.000000 0.091981 0.000000 0.136553
#
#
# Mechanical properties :
#
#
# Convention : Reuss Voigt Hill
#
# Bulk Modulus (GPa) = 32.16173 43.09758 37.62966
# Shear Modulus (GPa) = 17.35288 11.23335 14.29312
#
# Velocity S-wave (km/s) = 3.00959 2.42146 2.73140
# Velocity P-wave (km/s) = 5.37255 5.50577 5.43957
#
# Compressibility (1/GPa) = 0.03109286
#
# Stress axis : x y z
#
# Youngs Moduli (GPa) = 65.88484 46.18846 77.43565
#
# Poissons Ratio (x) = 0.18349 0.42934
# Poissons Ratio (y) = 0.26173 -0.01489
# Poissons Ratio (z) = 0.36529 -0.00888
#
# Static dielectric constant tensor:
#      x y z
#    x 1.997910 0.000000 0.196420 
#    y 0.000000 1.651930 0.000000 
#    z 0.196420 0.000000 1.754910 
# 
# From -- ./inp_files/50789.got.cif
#   From: 2010.05.17/outbox.cif.g08.bks.cpg/sg12_26_cif.got.tgz:50789.got - 2010.06.03 13:09:07.
