data_PCOD9185540
_publ_section_title
;
Structure prediction by ZEFSAII (Michael W. Deem and Ramdas Pophale) SiO2 
 PCOD9185540
Probable space group: C 2/M
;
_chemical_formula_sum "Si O2"
_cell_formula_units_Z 64
_cell_length_a 29.252011
_cell_length_b 8.423628
_cell_length_c 14.800614
_cell_angle_alpha 90.000000
_cell_angle_beta 59.816032
_cell_angle_gamma 90.000000
_cell_volume 3152.515242
_symmetry_space_group_name_H-M "C 2/M"
_symmetry_group_IT_number 12
_symmetry_cell_setting 'monoclinic'
loop_
_space_group_symop_operation_xyz
x,y,z
-x,y,-z
-x,-y,-z
x,-y,z
1/2+x,1/2+y,z
1/2-x,1/2+y,-z
1/2-x,1/2-y,-z
1/2+x,1/2-y,z
loop_
_atom_site_type_symbol
_atom_site_label
_atom_site_fract_x
_atom_site_fract_y
_atom_site_fract_z
Si Si1 0.483516 0.306314 0.415327
Si Si2 0.928110 0.191820 0.819082
Si Si3 0.764589 0.180539 0.081172
Si Si4 0.631912 0.684371 0.450848
Si Si5 0.354261 0.819143 0.749778
Si Si6 0.054539 0.806303 0.990416
Si Si7 0.168164 0.805004 0.824199
Si Si8 0.756139 0.688577 0.594963
O O1 0.500000 0.253093 0.500000
O O2 0.482724 0.500000 0.418528
O O3 0.524892 0.260799 0.296688
O O4 0.423482 0.254260 0.454223
O O5 0.875849 0.263623 0.824995
O O6 0.938696 0.241632 0.911427
O O7 0.923895 0.000000 0.822386
O O8 0.709120 0.182596 0.189708
O O9 0.808151 0.253117 0.103510
O O10 0.781217 0.000000 0.048173
O O11 0.750000 0.250000 0.000000
O O12 0.637484 0.500000 0.468447
O O13 0.625532 0.705475 0.349199
O O14 0.685785 0.767674 0.426335
O O15 0.371509 0.000000 0.715268
O O16 0.053256 0.000000 0.992016
O O17 0.106853 0.759392 0.882374
O O18 0.000000 0.750852 0.000000
O O19 0.208353 0.750652 0.706434
O O20 0.170180 0.000000 0.823029
O O21 0.751843 0.500000 0.598981
O O22 0.750000 0.750000 0.500000
#
# Coordination Sequence:
#
# PCOD9185540 Si02
#       8
#     8   8   8   8   8   8   8   8
#     4   9  17  31  52  82 116 149 189 237 285 339
#     4  10  19  34  57  82 112 149 194 242 284 345
#     4  10  20  34  52  79 112 150 186 228 284 342
#     4  11  21  36  59  84 114 153 195 236 288 343
#     4  11  21  34  53  80 117 151 186 234 290 346
#     4   9  18  32  55  85 109 139 188 238 283 333
#     4   9  18  35  55  77 113 148 179 229 288 335
#     4  11  23  41  61  84 117 154 195 240 290 346
#
# _framework density 20.30125
#
# number of rings (size 3 to 8) (size 9 to 14) (size 15 to 20)
#    0.000    2.000    2.500    1.875    0.000    3.000 
#    0.000    5.625    0.000    1.125    0.000    0.000 
#    0.000    0.000    0.000    0.000    0.000    0.000 
#
# Total GULP energy -178574.464334 kJ/mol
# GULP energy per Si atom -5580.452010 kJ/mol
# Density = 2.025504 g / cm^3
# Si number density = 20.301250 Si / 1000 Ang^3
#
#
#
# Elastic Constant Matrix: (Units=GPa)
#
#
# Indices 1 2 3 4 5 6 
#
# 1 154.3913 10.9092 60.2233 0.0000 -8.8762 0.0000
# 2 10.9092 13.0788 8.9548 0.0000 -3.4618 0.0000
# 3 60.2233 8.9548 94.7611 0.0000 -6.9024 0.0000
# 4 0.0000 0.0000 0.0000 15.0511 0.0000 1.3054
# 5 -8.8762 -3.4618 -6.9024 0.0000 32.7814 0.0000
# 6 0.0000 0.0000 0.0000 1.3054 0.0000 24.2033
#
#
#
# Elastic Compliance Matrix: (Units=1/GPa)
#
#
# Indices 1 2 3 4 5 6 
#
# 1 0.008807 -0.003546 -0.005195 0.000000 0.000916 0.000000
# 2 -0.003546 0.084845 -0.005262 0.000000 0.006892 0.000000
# 3 -0.005195 -0.005262 0.014430 0.000000 0.001076 0.000000
# 4 0.000000 0.000000 0.000000 0.066753 0.000000 -0.003600
# 5 0.000916 0.006892 0.001076 0.000000 0.031708 0.000000
# 6 0.000000 0.000000 0.000000 -0.003600 0.000000 0.041511
#
#
# Mechanical properties :
#
#
# Convention : Reuss Voigt Hill
#
# Bulk Modulus (GPa) = 12.48832 46.93397 29.71115
# Shear Modulus (GPa) = 16.51522 26.55007 21.53264
#
# Velocity S-wave (km/s) = 2.85530 3.62028 3.26030
# Velocity P-wave (km/s) = 4.12737 6.37528 5.37026
#
# Compressibility (1/GPa) = 0.08007482
#
# Stress axis : x y z
#
# Youngs Moduli (GPa) = 113.54936 11.78624 69.29969
#
# Poissons Ratio (x) = 0.04180 0.36002
# Poissons Ratio (y) = 0.40269 0.36465
# Poissons Ratio (z) = 0.58990 0.06202
#
# Static dielectric constant tensor:
#      x y z
#    x 1.724980 0.000000 -0.021180 
#    y 0.000000 1.733560 0.000000 
#    z -0.021180 0.000000 1.744100 
# 
# From -- ./inp_files/249103.got.cif
#   From: 2010.05.17/outbox.cif.g08.bks.cpg/sg12_125_cif.got.tgz:249103.got - 2010.06.03 13:09:07.
