data_PCOD9185149
_publ_section_title
;
Structure prediction by ZEFSAII (Michael W. Deem and Ramdas Pophale) SiO2 
 PCOD9185149
Probable space group: C 2/M
;
_chemical_formula_sum "Si O2"
_cell_formula_units_Z 56
_cell_length_a 27.938984
_cell_length_b 7.691589
_cell_length_c 14.059364
_cell_angle_alpha 90.000000
_cell_angle_beta 119.677069
_cell_angle_gamma 90.000000
_cell_volume 2624.986239
_symmetry_space_group_name_H-M "C 2/M"
_symmetry_group_IT_number 12
_symmetry_cell_setting 'monoclinic'
loop_
_space_group_symop_operation_xyz
x,y,z
-x,y,-z
-x,-y,-z
x,-y,z
1/2+x,1/2+y,z
1/2-x,1/2+y,-z
1/2-x,1/2-y,-z
1/2+x,1/2-y,z
loop_
_atom_site_type_symbol
_atom_site_label
_atom_site_fract_x
_atom_site_fract_y
_atom_site_fract_z
Si Si1 0.777245 0.712974 0.742680
Si Si2 0.440446 0.713070 0.402943
Si Si3 0.342368 0.707098 0.441739
Si Si4 0.129187 0.289723 0.313691
Si Si5 0.921490 0.797169 0.169455
Si Si6 0.485333 0.797321 0.882935
Si Si7 0.300815 0.792503 0.981178
O O1 0.777104 0.500000 0.742586
O O2 0.717587 0.773922 0.647908
O O3 0.824929 0.768078 0.716992
O O4 0.789006 0.769216 0.862147
O O5 0.500000 0.766974 0.500000
O O6 0.439652 0.500000 0.402438
O O7 0.391599 0.774423 0.423736
O O8 0.430616 0.770460 0.285154
O O9 0.340523 0.500000 0.424496
O O10 0.355435 0.736721 0.564728
O O11 0.128945 0.500000 0.313465
O O12 0.069043 0.224718 0.221837
O O13 0.858094 0.779396 0.077331
O O14 0.962163 0.711685 0.133758
O O15 0.936422 0.000000 0.184513
O O16 0.471867 0.000000 0.887338
O O17 0.500000 0.718537 0.000000
O O18 0.306717 0.000000 0.983209
O O19 0.250000 0.750000 0.000000
#
# Coordination Sequence:
#
# PCOD9185149 Si02
#       7
#     8   8   8   8   8   8   8
#     4   9  19  36  57  78 106 148 188 221 269 338
#     4   9  18  33  53  77 108 146 183 221 274 339
#     4  10  19  34  56  79 105 141 184 226 273 330
#     4  10  20  35  55  80 109 142 183 229 277 327
#     4  11  22  37  59  86 113 143 185 234 279 326
#     4  10  21  38  58  79 109 151 190 225 276 339
#     4  11  22  39  61  84 113 149 188 228 275 330
#
# _framework density 21.333444
#
# number of rings (size 3 to 8) (size 9 to 14) (size 15 to 20)
#    0.000    2.000    0.000    3.857    0.000    6.571 
#    0.000    7.143    0.000    3.857    0.000    0.000 
#    0.000    0.000    0.000    0.000    0.000    0.000 
#
# Total GULP energy -156520.473860 kJ/mol
# GULP energy per Si atom -5590.016924 kJ/mol
# Density = 2.128489 g / cm^3
# Si number density = 21.333444 Si / 1000 Ang^3
#
#
#
# Elastic Constant Matrix: (Units=GPa)
#
#
# Indices 1 2 3 4 5 6 
#
# 1 169.8740 -17.2073 98.4801 0.0000 4.8057 0.0000
# 2 -17.2073 34.3041 -12.4583 0.0000 1.9961 0.0000
# 3 98.4801 -12.4583 210.5164 0.0000 2.8355 0.0000
# 4 0.0000 0.0000 0.0000 4.8372 0.0000 -16.6922
# 5 4.8057 1.9961 2.8355 0.0000 46.6418 0.0000
# 6 0.0000 0.0000 0.0000 -16.6922 0.0000 0.1149
#
#
#
# Elastic Compliance Matrix: (Units=1/GPa)
#
#
# Indices 1 2 3 4 5 6 
#
# 1 0.008364 0.002884 -0.003732 0.000000 -0.000758 0.000000
# 2 0.002884 0.030875 0.000500 0.000000 -0.001649 0.000000
# 3 -0.003732 0.000500 0.006526 0.000000 -0.000034 0.000000
# 4 0.000000 0.000000 0.000000 -0.000413 0.000000 -0.060028
# 5 -0.000758 -0.001649 -0.000034 0.000000 0.021591 0.000000
# 6 0.000000 0.000000 0.000000 -0.060028 0.000000 -0.017395
#
#
# Mechanical properties :
#
#
# Convention : Reuss Voigt Hill
#
# Bulk Modulus (GPa) = 22.18751 61.36928 41.77839
# Shear Modulus (GPa) = 76.61070 33.37745 54.99408
#
# Velocity S-wave (km/s) = 5.99909 3.95974 5.08275
# Velocity P-wave (km/s) = 7.64253 7.05232 7.35335
#
# Compressibility (1/GPa) = 0.04507040
#
# Stress axis : x y z
#
# Youngs Moduli (GPa) = 119.56517 32.38830 153.23446
#
# Poissons Ratio (x) = -0.09341 0.57181
# Poissons Ratio (y) = -0.34485 -0.07665
# Poissons Ratio (z) = 0.44617 -0.01620
#
# Static dielectric constant tensor:
#      x y z
#    x 1.692960 0.000000 0.002880 
#    y 0.000000 1.806200 0.000000 
#    z 0.002880 0.000000 1.734160 
# 
# From -- ./inp_files/181060.got.cif
#   From: 2010.05.17/outbox.cif.g08.bks.cpg/sg12_91_cif.got.tgz:181060.got - 2010.06.03 13:09:07.
