data_PCOD9185021
_publ_section_title
;
Structure prediction by ZEFSAII (Michael W. Deem and Ramdas Pophale) SiO2 
 PCOD9185021
Probable space group: C 2/M
;
_chemical_formula_sum "Si O2"
_cell_formula_units_Z 56
_cell_length_a 19.853093
_cell_length_b 13.689464
_cell_length_c 19.203561
_cell_angle_alpha 90.000000
_cell_angle_beta 30.165718
_cell_angle_gamma 90.000000
_cell_volume 2622.616670
_symmetry_space_group_name_H-M "C 2/M"
_symmetry_group_IT_number 12
_symmetry_cell_setting 'monoclinic'
loop_
_space_group_symop_operation_xyz
x,y,z
-x,y,-z
-x,-y,-z
x,-y,z
1/2+x,1/2+y,z
1/2-x,1/2+y,-z
1/2-x,1/2-y,-z
1/2+x,1/2-y,z
loop_
_atom_site_type_symbol
_atom_site_label
_atom_site_fract_x
_atom_site_fract_y
_atom_site_fract_z
Si Si1 0.584225 0.808504 0.857417
Si Si2 0.357422 0.889011 0.716894
Si Si3 0.888636 0.282857 0.449724
Si Si4 0.630516 0.615287 0.430518
Si Si5 0.800164 0.111151 0.282096
Si Si6 0.697433 0.612701 0.992693
Si Si7 0.963891 0.697643 0.821007
O O1 0.735205 0.848138 0.727984
O O2 0.594624 0.691356 0.837311
O O3 0.518436 0.844417 0.844461
O O4 0.500000 0.833742 0.000000
O O5 0.476271 0.819328 0.632485
O O6 0.313496 0.884570 0.676487
O O7 0.231219 0.870425 0.880730
O O8 0.402086 0.000000 0.691959
O O9 0.869673 0.174759 0.497056
O O10 0.768244 0.349355 0.586509
O O11 0.920532 0.294134 0.340274
O O12 0.500000 0.637018 0.500000
O O13 0.635436 0.500000 0.437373
O O14 0.847783 0.000000 0.244483
O O15 0.657560 0.500000 0.038648
O O16 0.840784 0.633748 0.901615
O O17 0.596819 0.693961 0.111546
#
# Coordination Sequence:
#
# PCOD9185021 Si02
#       7
#     8   8   8   8   8   8   8
#     4  11  24  42  63  87 120 159 199 251 305 353
#     4   9  16  30  56  87 115 147 189 234 291 364
#     4  10  19  34  55  81 116 153 190 240 296 352
#     4  10  23  42  63  88 118 159 211 256 293 339
#     4  10  20  33  55  87 118 149 185 230 293 363
#     4   9  19  36  58  85 120 158 196 245 297 351
#     4  10  22  37  56  86 119 156 202 243 297 366
#
# _framework density 21.352720000000001
#
# number of rings (size 3 to 8) (size 9 to 14) (size 15 to 20)
#    0.000    2.143    0.000    3.429    0.000    8.571 
#    0.000    2.857    0.000    0.000    0.000    0.000 
#    0.000    0.000    0.000    0.000    0.000    0.000 
#
# Total GULP energy -156512.783502 kJ/mol
# GULP energy per Si atom -5589.742268 kJ/mol
# Density = 2.130412 g / cm^3
# Si number density = 21.352720 Si / 1000 Ang^3
#
#
#
# Elastic Constant Matrix: (Units=GPa)
#
#
# Indices 1 2 3 4 5 6 
#
# 1 101.2225 15.3517 58.4239 -0.0001 9.3609 0.0000
# 2 15.3517 62.7663 15.6881 -0.0001 4.5687 0.0001
# 3 58.4239 15.6881 122.0637 -0.0003 23.5015 0.0002
# 4 -0.0001 -0.0001 -0.0003 9.3798 0.0001 7.5455
# 5 9.3609 4.5687 23.5015 0.0001 36.1028 -0.0001
# 6 0.0000 0.0001 0.0002 7.5455 -0.0001 13.3300
#
#
#
# Elastic Compliance Matrix: (Units=1/GPa)
#
#
# Indices 1 2 3 4 5 6 
#
# 1 0.013868 -0.001814 -0.006581 0.000000 0.000918 0.000000
# 2 -0.001814 0.016719 -0.001102 0.000001 -0.000928 0.000000
# 3 -0.006581 -0.001102 0.012723 0.000001 -0.006437 -0.000001
# 4 0.000000 0.000001 0.000001 0.195747 -0.000001 -0.110804
# 5 0.000918 -0.000928 -0.006437 -0.000001 0.031768 0.000001
# 6 0.000000 0.000000 -0.000001 -0.110804 0.000001 0.137740
#
#
# Mechanical properties :
#
#
# Convention : Reuss Voigt Hill
#
# Bulk Modulus (GPa) = 41.12510 51.66444 46.39477
# Shear Modulus (GPa) = 11.47673 24.86845 18.17259
#
# Velocity S-wave (km/s) = 2.32088 3.41640 2.92047
# Velocity P-wave (km/s) = 5.14623 6.30957 5.75736
#
# Compressibility (1/GPa) = 0.02431605
#
# Stress axis : x y z
#
# Youngs Moduli (GPa) = 72.10816 59.81327 78.59543
#
# Poissons Ratio (x) = 0.10849 0.51726
# Poissons Ratio (y) = 0.13079 0.08661
# Poissons Ratio (z) = 0.47457 0.06591
#
# Static dielectric constant tensor:
#      x y z
#    x 1.796590 0.000000 -0.014270 
#    y 0.000000 1.754480 0.000000 
#    z -0.014270 0.000000 1.779680 
# 
# From -- ./inp_files/284530.got.cif
#   From: 2010.05.17/outbox.cif.g08.bks.cpg/sg12_143_cif.got.tgz:284530.got - 2010.06.03 13:09:07.
