data_PCOD9185199
_publ_section_title
;
Structure prediction by ZEFSAII (Michael W. Deem and Ramdas Pophale) SiO2 
 PCOD9185199
Probable space group: C 2/M
;
_chemical_formula_sum "Si O2"
_cell_formula_units_Z 64
_cell_length_a 20.642334
_cell_length_b 8.926178
_cell_length_c 25.698842
_cell_angle_alpha 90.000000
_cell_angle_beta 128.545570
_cell_angle_gamma 90.000000
_cell_volume 3703.456847
_symmetry_space_group_name_H-M "C 2/M"
_symmetry_group_IT_number 12
_symmetry_cell_setting 'monoclinic'
loop_
_space_group_symop_operation_xyz
x,y,z
-x,y,-z
-x,-y,-z
x,-y,z
1/2+x,1/2+y,z
1/2-x,1/2+y,-z
1/2-x,1/2-y,-z
1/2+x,1/2-y,z
loop_
_atom_site_type_symbol
_atom_site_label
_atom_site_fract_x
_atom_site_fract_y
_atom_site_fract_z
Si Si1 0.759380 0.178866 0.152477
Si Si2 0.546837 0.321353 0.176818
Si Si3 0.495807 0.179801 0.336499
Si Si4 0.798941 0.681052 0.684341
Si Si5 0.583474 0.820939 0.815106
Si Si6 0.572642 0.820355 0.077070
Si Si7 0.315642 0.180558 0.571987
Si Si8 0.839548 0.821405 0.304786
O O1 0.823226 0.264829 0.147520
O O2 0.663141 0.219253 0.099796
O O3 0.787497 0.211546 0.226073
O O4 0.768581 0.000000 0.149126
O O5 0.547184 0.500000 0.178637
O O6 0.622943 0.256292 0.248719
O O7 0.463466 0.257106 0.161092
O O8 0.557687 0.262584 0.123742
O O9 0.465875 0.220089 0.262987
O O10 0.589915 0.229703 0.392197
O O11 0.428243 0.245454 0.341935
O O12 0.493649 0.000000 0.338233
O O13 0.808759 0.500000 0.693689
O O14 0.796390 0.719493 0.622342
O O15 0.716021 0.724308 0.674032
O O16 0.580490 0.000000 0.819285
O O17 0.574049 0.000000 0.087854
O O18 0.500000 0.788419 0.000000
O O19 0.250000 0.250000 0.500000
O O20 0.313068 0.000000 0.566772
O O21 0.851026 0.000000 0.312686
#
# Coordination Sequence:
#
# PCOD9185199 Si02
#       8
#     8   8   8   8   8   8   8   8
#     4   9  17  32  54  83 112 138 179 229 273 324
#     4  12  23  34  55  86 115 143 185 237 277 320
#     4   9  18  33  53  77 108 142 176 220 274 326
#     4  10  19  37  58  79 109 146 186 227 274 327
#     4  10  19  34  56  80 110 145 183 227 277 331
#     4  10  21  39  61  82 112 154 188 220 275 339
#     4  10  21  37  56  78 108 146 183 224 273 328
#     4   9  17  30  54  81 106 136 175 227 272 315
#
# _framework density 17.281151999999999
#
# number of rings (size 3 to 8) (size 9 to 14) (size 15 to 20)
#    0.000    2.125    2.500    1.500    0.000    2.750 
#    0.000    1.250    0.000    3.750    0.000    0.000 
#    0.000    0.000    0.000    0.000    0.000    0.000 
#
# Total GULP energy -178583.247092 kJ/mol
# GULP energy per Si atom -5580.726472 kJ/mol
# Density = 1.724182 g / cm^3
# Si number density = 17.281152 Si / 1000 Ang^3
#
#
#
# Elastic Constant Matrix: (Units=GPa)
#
#
# Indices 1 2 3 4 5 6 
#
# 1 149.5693 46.3978 50.4058 0.0000 15.4209 0.0000
# 2 46.3978 35.4777 36.3128 0.0000 -0.3014 0.0000
# 3 50.4058 36.3128 73.9679 0.0000 11.0140 0.0000
# 4 0.0000 0.0000 0.0000 21.5872 0.0000 1.1552
# 5 15.4209 -0.3014 11.0140 0.0000 26.3122 0.0000
# 6 0.0000 0.0000 0.0000 1.1552 0.0000 31.4183
#
#
#
# Elastic Compliance Matrix: (Units=1/GPa)
#
#
# Indices 1 2 3 4 5 6 
#
# 1 0.012673 -0.018224 0.001544 0.000000 -0.008282 0.000000
# 2 -0.018224 0.087445 -0.034393 0.000000 0.026079 0.000000
# 3 0.001544 -0.034393 0.031509 0.000000 -0.014488 0.000000
# 4 0.000000 0.000000 0.000000 0.046415 0.000000 -0.001707
# 5 -0.008282 0.026079 -0.014488 0.000000 0.049223 0.000000
# 6 0.000000 0.000000 0.000000 -0.001707 0.000000 0.031891
#
#
# Mechanical properties :
#
#
# Convention : Reuss Voigt Hill
#
# Bulk Modulus (GPa) = 33.92148 58.36085 46.14117
# Shear Modulus (GPa) = 13.47238 24.25675 18.86457
#
# Velocity S-wave (km/s) = 2.79516 3.75060 3.30756
# Velocity P-wave (km/s) = 5.48535 7.25264 6.43000
#
# Compressibility (1/GPa) = 0.02947984
#
# Stress axis : x y z
#
# Youngs Moduli (GPa) = 78.90945 11.43577 31.73687
#
# Poissons Ratio (x) = 0.20841 -0.04901
# Poissons Ratio (y) = 1.43807 1.09154
# Poissons Ratio (z) = -0.12185 0.39331
#
# Static dielectric constant tensor:
#      x y z
#    x 1.589740 0.000000 0.007320 
#    y 0.000000 1.578730 0.000000 
#    z 0.007320 0.000000 1.559840 
# 
# From -- ./inp_files/346254.got.cif
#   From: 2010.05.17/outbox.cif.g08.bks.cpg/sg12_174_cif.got.tgz:346254.got - 2010.06.03 13:09:07.
