data_PCOD9185664
_publ_section_title
;
Structure prediction by ZEFSAII (Michael W. Deem and Ramdas Pophale) SiO2 
 PCOD9185664
Probable space group: C 2/M
;
_chemical_formula_sum "Si O2"
_cell_formula_units_Z 56
_cell_length_a 19.175494
_cell_length_b 8.439683
_cell_length_c 17.414736
_cell_angle_alpha 90.000000
_cell_angle_beta 80.179930
_cell_angle_gamma 90.000000
_cell_volume 2777.022032
_symmetry_space_group_name_H-M "C 2/M"
_symmetry_group_IT_number 12
_symmetry_cell_setting 'monoclinic'
loop_
_space_group_symop_operation_xyz
x,y,z
-x,y,-z
-x,-y,-z
x,-y,z
1/2+x,1/2+y,z
1/2-x,1/2+y,-z
1/2-x,1/2-y,-z
1/2+x,1/2-y,z
loop_
_atom_site_type_symbol
_atom_site_label
_atom_site_fract_x
_atom_site_fract_y
_atom_site_fract_z
Si Si1 0.874871 0.689690 0.205077
Si Si2 0.280198 0.808226 0.762851
Si Si3 0.579196 0.806665 0.972886
Si Si4 0.593767 0.808415 0.374775
Si Si5 0.191788 0.690878 0.069998
Si Si6 0.831087 0.309787 0.481166
Si Si7 0.556260 0.311763 0.660475
O O1 0.876735 0.500000 0.204761
O O2 0.796990 0.746059 0.244974
O O3 0.888781 0.746255 0.114804
O O4 0.932657 0.750557 0.254759
O O5 0.344654 0.759827 0.696240
O O6 0.295873 0.751490 0.846469
O O7 0.277424 0.000000 0.762126
O O8 0.580680 0.000000 0.970193
O O9 0.500000 0.753333 0.000000
O O10 0.620764 0.757732 0.041107
O O11 0.623115 0.759456 0.452654
O O12 0.517122 0.745553 0.364111
O O13 0.589010 0.000000 0.375265
O O14 0.193361 0.500000 0.072881
O O15 0.250000 0.750000 0.000000
O O16 0.828561 0.500000 0.480819
O O17 0.750000 0.250000 0.500000
O O18 0.876416 0.251026 0.400364
O O19 0.557464 0.500000 0.659992
#
# Coordination Sequence:
#
# PCOD9185664 Si02
#       7
#     8   8   8   8   8   8   8
#     4  11  22  38  62  87 119 161 207 254 305 368
#     4  10  21  37  61  89 123 159 199 253 308 365
#     4   9  19  34  56  85 116 154 202 250 301 364
#     4  10  23  42  64  92 122 158 201 246 301 362
#     4  10  19  34  57  85 117 156 199 248 301 360
#     4  11  23  42  69  98 129 163 202 246 295 360
#     4  12  26  42  62  90 126 162 203 253 305 359
#
# _framework density 20.165486000000001
#
# number of rings (size 3 to 8) (size 9 to 14) (size 15 to 20)
#    0.000    1.571    1.429    3.429    2.000    4.571 
#    0.000    0.000    0.000    2.143    0.000    0.000 
#    0.000    0.000    0.000    0.000    0.000    0.000 
#
# Total GULP energy -156409.062778 kJ/mol
# GULP energy per Si atom -5586.037956 kJ/mol
# Density = 2.011959 g / cm^3
# Si number density = 20.165486 Si / 1000 Ang^3
#
#
#
# Elastic Constant Matrix: (Units=GPa)
#
#
# Indices 1 2 3 4 5 6 
#
# 1 134.6630 20.6082 20.8265 0.0000 11.1248 0.0000
# 2 20.6082 34.5669 14.4054 0.0000 4.2047 0.0000
# 3 20.8265 14.4054 83.3293 0.0000 13.4718 0.0000
# 4 0.0000 0.0000 0.0000 19.9889 0.0000 -1.4544
# 5 11.1248 4.2047 13.4718 0.0000 41.0530 0.0000
# 6 0.0000 0.0000 0.0000 -1.4544 0.0000 35.3561
#
#
#
# Elastic Compliance Matrix: (Units=1/GPa)
#
#
# Indices 1 2 3 4 5 6 
#
# 1 0.008385 -0.004360 -0.001105 0.000000 -0.001463 0.000000
# 2 -0.004360 0.033531 -0.004586 0.000000 -0.000748 0.000000
# 3 -0.001105 -0.004586 0.013671 0.000000 -0.003717 0.000000
# 4 0.000000 0.000000 0.000000 0.050178 0.000000 0.002064
# 5 -0.001463 -0.000748 -0.003717 0.000000 0.026051 0.000000
# 6 0.000000 0.000000 0.000000 0.002064 0.000000 0.028369
#
#
# Mechanical properties :
#
#
# Convention : Reuss Voigt Hill
#
# Bulk Modulus (GPa) = 28.18234 40.47104 34.32669
# Shear Modulus (GPa) = 26.02596 32.39421 29.21009
#
# Velocity S-wave (km/s) = 3.59642 4.01236 3.81007
# Velocity P-wave (km/s) = 5.59030 6.44813 6.03448
#
# Compressibility (1/GPa) = 0.03548321
#
# Stress axis : x y z
#
# Youngs Moduli (GPa) = 119.25981 29.82306 73.15007
#
# Poissons Ratio (x) = 0.13004 0.08086
# Poissons Ratio (y) = 0.52003 0.33546
# Poissons Ratio (z) = 0.13183 0.13677
#
# Static dielectric constant tensor:
#      x y z
#    x 1.932390 0.000000 0.092380 
#    y 0.000000 1.701880 0.000000 
#    z 0.092380 0.000000 1.735540 
# 
# From -- ./inp_files/275031.got.cif
#   From: 2010.05.17/outbox.cif.g08.bks.cpg/sg12_138_cif.got.tgz:275031.got - 2010.06.03 13:09:07.
