data_PCOD9185637
_publ_section_title
;
Structure prediction by ZEFSAII (Michael W. Deem and Ramdas Pophale) SiO2 
 PCOD9185637
Probable space group: C 2/M
;
_chemical_formula_sum "Si O2"
_cell_formula_units_Z 64
_cell_length_a 12.743711
_cell_length_b 18.902422
_cell_length_c 14.151815
_cell_angle_alpha 90.000000
_cell_angle_beta 94.539409
_cell_angle_gamma 90.000000
_cell_volume 3398.294760
_symmetry_space_group_name_H-M "C 2/M"
_symmetry_group_IT_number 12
_symmetry_cell_setting 'monoclinic'
loop_
_space_group_symop_operation_xyz
x,y,z
-x,y,-z
-x,-y,-z
x,-y,z
1/2+x,1/2+y,z
1/2-x,1/2+y,-z
1/2-x,1/2-y,-z
1/2+x,1/2-y,z
loop_
_atom_site_type_symbol
_atom_site_label
_atom_site_fract_x
_atom_site_fract_y
_atom_site_fract_z
Si Si1 0.729042 0.150952 0.909976
Si Si2 0.109603 0.081560 0.564637
Si Si3 0.779766 0.084965 0.610020
Si Si4 0.033910 0.416061 0.608668
Si Si5 0.095195 0.916531 0.195891
Si Si6 0.019905 0.676720 0.781230
Si Si7 0.402683 0.664904 0.241804
Si Si8 0.192861 0.311529 0.117331
O O1 0.818885 0.098734 0.878372
O O2 0.621831 0.144356 0.841893
O O3 0.778520 0.229088 0.897510
O O4 0.700798 0.148232 0.018140
O O5 0.190617 0.110935 0.492190
O O6 0.098199 0.127707 0.656717
O O7 0.000000 0.079775 0.500000
O O8 0.136051 0.000000 0.592288
O O9 0.658838 0.097091 0.624060
O O10 0.852125 0.110128 0.701434
O O11 0.795965 0.000000 0.606503
O O12 0.013405 0.500000 0.619831
O O13 0.000000 0.397275 0.500000
O O14 0.986067 0.370119 0.689128
O O15 0.985693 0.875569 0.180248
O O16 0.076080 0.000000 0.202265
O O17 0.921582 0.683003 0.844677
O O18 0.057583 0.754358 0.750919
O O19 0.285855 0.661734 0.191570
#
# Coordination Sequence:
#
# PCOD9185637 Si02
#       8
#     8   8   8   8   8   8   8   8
#     4  10  21  41  64  86 113 159 208 245 293 369
#     4  10  19  34  57  84 118 162 197 231 287 360
#     4   9  18  34  58  82 110 156 202 235 285 352
#     4  10  22  39  58  84 116 157 201 244 297 354
#     4  11  20  38  65  90 122 159 204 252 295 359
#     4  11  22  40  63  88 119 158 200 250 300 360
#     4  11  23  37  58  92 125 152 199 253 303 353
#     4  10  23  40  61  87 120 157 198 249 310 357
#
# _framework density 18.832975000000001
#
# number of rings (size 3 to 8) (size 9 to 14) (size 15 to 20)
#    0.000    1.750    3.750    0.750    1.750    1.000 
#    0.000    3.750    0.000    1.500    0.000    0.000 
#    0.000    0.000    0.000    0.000    0.000    0.000 
#
# Total GULP energy -178608.445029 kJ/mol
# GULP energy per Si atom -5581.513907 kJ/mol
# Density = 1.879011 g / cm^3
# Si number density = 18.832975 Si / 1000 Ang^3
#
#
#
# Elastic Constant Matrix: (Units=GPa)
#
#
# Indices 1 2 3 4 5 6 
#
# 1 48.2205 4.0144 13.5421 0.0000 -15.5008 0.0000
# 2 4.0144 32.8383 23.3381 0.0000 0.5505 0.0000
# 3 13.5421 23.3381 96.9341 0.0000 -19.4303 0.0000
# 4 0.0000 0.0000 0.0000 26.6229 0.0000 -9.1578
# 5 -15.5008 0.5505 -19.4303 0.0000 31.5446 0.0000
# 6 0.0000 0.0000 0.0000 -9.1578 0.0000 22.2311
#
#
#
# Elastic Compliance Matrix: (Units=1/GPa)
#
#
# Indices 1 2 3 4 5 6 
#
# 1 0.024980 -0.003021 -0.000333 0.000000 0.012123 0.000000
# 2 -0.003021 0.038489 -0.010584 0.000000 -0.008675 0.000000
# 3 -0.000333 -0.010584 0.014734 0.000000 0.009097 0.000000
# 4 0.000000 0.000000 0.000000 0.043763 0.000000 0.018028
# 5 0.012123 -0.008675 0.009097 0.000000 0.043413 0.000000
# 6 0.000000 0.000000 0.000000 0.018028 0.000000 0.052408
#
#
# Mechanical properties :
#
#
# Convention : Reuss Voigt Hill
#
# Bulk Modulus (GPa) = 19.86906 28.86467 24.36687
# Shear Modulus (GPa) = 19.05222 25.21961 22.13591
#
# Velocity S-wave (km/s) = 3.18408 3.66337 3.43210
# Velocity P-wave (km/s) = 4.90825 5.76660 5.35465
#
# Compressibility (1/GPa) = 0.05032950
#
# Stress axis : x y z
#
# Youngs Moduli (GPa) = 40.03225 25.98173 67.86857
#
# Poissons Ratio (x) = 0.07848 0.02257
# Poissons Ratio (y) = 0.12092 0.71829
# Poissons Ratio (z) = 0.01331 0.27498
#
# Static dielectric constant tensor:
#      x y z
#    x 1.667440 0.000000 -0.017480 
#    y 0.000000 1.641160 0.000000 
#    z -0.017480 0.000000 1.666820 
# 
# From -- ./inp_files/206685.got.cif
#   From: 2010.05.17/outbox.cif.g08.bks.cpg/sg12_104_cif.got.tgz:206685.got - 2010.06.03 13:09:07.
