data_PCOD9185283
_publ_section_title
;
Structure prediction by ZEFSAII (Michael W. Deem and Ramdas Pophale) SiO2 
 PCOD9185283
Probable space group: C 2/M
;
_chemical_formula_sum "Si O2"
_cell_formula_units_Z 44
_cell_length_a 7.424604
_cell_length_b 25.548577
_cell_length_c 11.462325
_cell_angle_alpha 90.000000
_cell_angle_beta 116.153591
_cell_angle_gamma 90.000000
_cell_volume 1951.655522
_symmetry_space_group_name_H-M "C 2/M"
_symmetry_group_IT_number 12
_symmetry_cell_setting 'monoclinic'
loop_
_space_group_symop_operation_xyz
x,y,z
-x,y,-z
-x,-y,-z
x,-y,z
1/2+x,1/2+y,z
1/2-x,1/2+y,-z
1/2-x,1/2-y,-z
1/2+x,1/2-y,z
loop_
_atom_site_type_symbol
_atom_site_label
_atom_site_fract_x
_atom_site_fract_y
_atom_site_fract_z
Si Si1 0.706801 0.500000 0.555836
Si Si2 0.905411 0.386128 0.188902
Si Si3 0.692915 0.689670 0.972307
Si Si4 0.863125 0.000000 0.230225
Si Si5 0.027385 0.118103 0.256942
Si Si6 0.681174 0.115005 0.468034
Si Si7 0.463075 0.000000 0.104467
O O1 0.489983 0.500000 0.403606
O O2 0.804582 0.552218 0.532539
O O3 0.830543 0.500000 0.730221
O O4 0.868354 0.344545 0.078137
O O5 0.725100 0.382518 0.231107
O O6 0.890402 0.443733 0.129176
O O7 0.110801 0.373477 0.316658
O O8 0.500000 0.682392 0.000000
O O9 0.750000 0.750000 0.000000
O O10 0.622130 0.662507 0.832604
O O11 0.939335 0.059198 0.221322
O O12 0.662614 0.000000 0.069402
O O13 0.111613 0.130216 0.410464
O O14 0.500000 0.132607 0.500000
#
# Coordination Sequence:
#
# PCOD9185283 Si02
#       7
#     4   8   8   4   8   8   4
#     4  12  19  30  48  84 131 154 182 220 281 332
#     4  10  21  39  58  82 116 154 193 229 281 352
#     4  10  23  43  62  80 106 147 197 245 291 342
#     4  12  21  31  53  89 127 154 184 231 280 333
#     4  10  21  37  60  84 115 156 190 227 286 352
#     4  10  19  34  56  82 115 158 191 223 275 344
#     4  12  23  33  52  87 124 156 191 235 280 333
#
# _framework density 22.544962000000002
#
# number of rings (size 3 to 8) (size 9 to 14) (size 15 to 20)
#    0.000    1.455    3.636    1.909    0.000    5.091 
#    0.000    4.545    0.000    0.000    0.000    0.000 
#    0.000    0.000    0.000    0.000    0.000    0.000 
#
# Total GULP energy -122668.152935 kJ/mol
# GULP energy per Si atom -5575.825133 kJ/mol
# Density = 2.249365 g / cm^3
# Si number density = 22.544962 Si / 1000 Ang^3
#
#
#
# Elastic Constant Matrix: (Units=GPa)
#
#
# Indices 1 2 3 4 5 6 
#
# 1 49.1727 12.1474 33.9013 0.0000 0.2769 0.0000
# 2 12.1474 143.6553 96.5410 0.0000 8.4486 0.0000
# 3 33.9013 96.5410 263.8327 0.0000 18.5954 0.0000
# 4 0.0000 0.0000 0.0000 20.2753 0.0000 12.3502
# 5 0.2769 8.4486 18.5954 0.0000 36.3993 0.0000
# 6 0.0000 0.0000 0.0000 12.3502 0.0000 24.1351
#
#
#
# Elastic Compliance Matrix: (Units=1/GPa)
#
#
# Indices 1 2 3 4 5 6 
#
# 1 0.022377 0.000033 -0.002982 0.000000 0.001346 0.000000
# 2 0.000033 0.009238 -0.003354 0.000000 -0.000431 0.000000
# 3 -0.002982 -0.003354 0.005544 0.000000 -0.002031 0.000000
# 4 0.000000 0.000000 0.000000 0.071656 0.000000 -0.036667
# 5 0.001346 -0.000431 -0.002031 0.000000 0.028600 0.000000
# 6 0.000000 0.000000 0.000000 -0.036667 0.000000 0.060196
#
#
# Mechanical properties :
#
#
# Convention : Reuss Voigt Hill
#
# Bulk Modulus (GPa) = 40.73056 82.42666 61.57861
# Shear Modulus (GPa) = 22.89352 37.10002 29.99677
#
# Velocity S-wave (km/s) = 3.19009 4.06100 3.65160
# Velocity P-wave (km/s) = 5.62801 7.65698 6.71952
#
# Compressibility (1/GPa) = 0.02455159
#
# Stress axis : x y z
#
# Youngs Moduli (GPa) = 44.68912 108.25169 180.37691
#
# Poissons Ratio (x) = -0.00355 0.53791
# Poissons Ratio (y) = -0.00147 0.60500
# Poissons Ratio (z) = 0.13327 0.36309
#
# Static dielectric constant tensor:
#      x y z
#    x 1.859530 0.000000 0.054940 
#    y 0.000000 1.717080 0.000000 
#    z 0.054940 0.000000 2.215330 
# 
# From -- ./inp_files/207569.got.cif
#   From: 2010.05.17/outbox.cif.g08.bks.cpg/sg12_104_cif.got.tgz:207569.got - 2010.06.03 13:09:07.
