data_PCOD9185832
_publ_section_title
;
Structure prediction by ZEFSAII (Michael W. Deem and Ramdas Pophale) SiO2 
 PCOD9185832
Probable space group: C 2/M
;
_chemical_formula_sum "Si O2"
_cell_formula_units_Z 64
_cell_length_a 20.992496
_cell_length_b 8.679699
_cell_length_c 19.537266
_cell_angle_alpha 90.000000
_cell_angle_beta 89.723569
_cell_angle_gamma 90.000000
_cell_volume 3559.815410
_symmetry_space_group_name_H-M "C 2/M"
_symmetry_group_IT_number 12
_symmetry_cell_setting 'monoclinic'
loop_
_space_group_symop_operation_xyz
x,y,z
-x,y,-z
-x,-y,-z
x,-y,z
1/2+x,1/2+y,z
1/2-x,1/2+y,-z
1/2-x,1/2-y,-z
1/2+x,1/2-y,z
loop_
_atom_site_type_symbol
_atom_site_label
_atom_site_fract_x
_atom_site_fract_y
_atom_site_fract_z
Si Si1 0.800552 0.814755 0.946101
Si Si2 0.626685 0.814025 0.576551
Si Si3 0.878041 0.184334 0.575856
Si Si4 0.751630 0.185423 0.661498
Si Si5 0.498253 0.184226 0.656700
Si Si6 0.556173 0.684754 0.209252
Si Si7 0.802983 0.316640 0.796165
Si Si8 0.052933 0.812833 0.053063
O O1 0.786107 0.754610 0.869858
O O2 0.873872 0.766020 0.961816
O O3 0.798867 0.000000 0.946193
O O4 0.750000 0.750000 0.000000
O O5 0.626832 0.738306 0.502177
O O6 0.688880 0.771022 0.619760
O O7 0.563270 0.771020 0.618463
O O8 0.626832 0.000000 0.567989
O O9 0.814014 0.227810 0.617110
O O10 0.938713 0.259739 0.611923
O O11 0.884516 0.000000 0.579083
O O12 0.757383 0.262154 0.735500
O O13 0.751719 0.000000 0.670060
O O14 0.490344 0.256077 0.731840
O O15 0.496540 0.000000 0.662384
O O16 0.561193 0.500000 0.212399
O O17 0.626279 0.754175 0.221812
O O18 0.537922 0.729639 0.131788
O O19 0.804324 0.500000 0.800882
O O20 0.052421 0.000000 0.050390
O O21 0.000000 0.756266 0.000000
#
# Coordination Sequence:
#
# PCOD9185832 Si02
#       8
#     8   8   8   8   8   8   8   8
#     4  10  20  36  59  85 118 151 187 232 279 334
#     4  10  23  40  56  79 115 152 184 230 289 340
#     4  11  22  36  60  85 108 144 192 237 280 335
#     4  10  21  39  59  81 113 150 187 231 286 337
#     4  11  22  37  57  81 112 149 189 230 279 337
#     4  10  19  34  58  84 111 147 188 232 279 330
#     4  11  21  35  59  86 112 148 194 235 276 333
#     4   8  16  33  57  83 111 144 182 226 276 325
#
# _framework density 17.978459000000001
#
# number of rings (size 3 to 8) (size 9 to 14) (size 15 to 20)
#    0.000    1.875    1.250    4.125    0.000    3.500 
#    2.250    0.000    0.000   12.750    0.000    0.000 
#    0.000    0.000    0.000    0.000    0.000    0.000 
#
# Total GULP energy -178719.564646 kJ/mol
# GULP energy per Si atom -5584.986395 kJ/mol
# Density = 1.793754 g / cm^3
# Si number density = 17.978459 Si / 1000 Ang^3
#
#
#
# Elastic Constant Matrix: (Units=GPa)
#
#
# Indices 1 2 3 4 5 6 
#
# 1 127.3775 42.2198 88.9083 0.0000 1.1956 0.0000
# 2 42.2198 52.9519 46.2117 0.0000 -3.8027 0.0000
# 3 88.9083 46.2117 155.8890 0.0000 -1.0333 0.0000
# 4 0.0000 0.0000 0.0000 33.0278 0.0000 -5.6952
# 5 1.1956 -3.8027 -1.0333 0.0000 31.8754 0.0000
# 6 0.0000 0.0000 0.0000 -5.6952 0.0000 19.2429
#
#
#
# Elastic Compliance Matrix: (Units=1/GPa)
#
#
# Indices 1 2 3 4 5 6 
#
# 1 0.014299 -0.005908 -0.006413 0.000000 -0.001449 0.000000
# 2 -0.005908 0.028168 -0.004958 0.000000 0.003421 0.000000
# 3 -0.006413 -0.004958 0.011542 0.000000 0.000023 0.000000
# 4 0.000000 0.000000 0.000000 0.031906 0.000000 0.009443
# 5 -0.001449 0.003421 0.000023 0.000000 0.031835 0.000000
# 6 0.000000 0.000000 0.000000 0.009443 0.000000 0.054762
#
#
# Mechanical properties :
#
#
# Convention : Reuss Voigt Hill
#
# Bulk Modulus (GPa) = 51.41134 76.76647 64.08891
# Shear Modulus (GPa) = 23.41314 27.42112 25.41713
#
# Velocity S-wave (km/s) = 3.61264 3.90964 3.76407
# Velocity P-wave (km/s) = 6.78673 7.94810 7.39026
#
# Compressibility (1/GPa) = 0.01945096
#
# Stress axis : x y z
#
# Youngs Moduli (GPa) = 69.93501 35.50098 86.63637
#
# Poissons Ratio (x) = 0.20974 0.55563
# Poissons Ratio (y) = 0.41317 0.42955
# Poissons Ratio (z) = 0.44852 0.17602
#
# Static dielectric constant tensor:
#      x y z
#    x 1.599910 0.000000 0.002230 
#    y 0.000000 1.608480 0.000000 
#    z 0.002230 0.000000 1.600800 
# 
# From -- ./inp_files/281323.got.cif
#   From: 2010.05.17/outbox.cif.g08.bks.cpg/sg12_141_cif.got.tgz:281323.got - 2010.06.03 13:09:07.
