data_PCOD9185643
_publ_section_title
;
Structure prediction by ZEFSAII (Michael W. Deem and Ramdas Pophale) SiO2 
 PCOD9185643
Probable space group: C 2/M
;
_chemical_formula_sum "Si O2"
_cell_formula_units_Z 56
_cell_length_a 18.575574
_cell_length_b 13.000157
_cell_length_c 12.213977
_cell_angle_alpha 90.000000
_cell_angle_beta 67.700770
_cell_angle_gamma 90.000000
_cell_volume 2728.918197
_symmetry_space_group_name_H-M "C 2/M"
_symmetry_group_IT_number 12
_symmetry_cell_setting 'monoclinic'
loop_
_space_group_symop_operation_xyz
x,y,z
-x,y,-z
-x,-y,-z
x,-y,z
1/2+x,1/2+y,z
1/2-x,1/2+y,-z
1/2-x,1/2-y,-z
1/2+x,1/2-y,z
loop_
_atom_site_type_symbol
_atom_site_label
_atom_site_fract_x
_atom_site_fract_y
_atom_site_fract_z
Si Si1 0.214100 0.192650 0.840286
Si Si2 0.242531 0.387542 0.966776
Si Si3 0.578260 0.615354 0.204083
Si Si4 0.600090 0.881409 0.675684
Si Si5 0.546193 0.191841 0.370098
Si Si6 0.552905 0.290934 0.871764
Si Si7 0.191796 0.383127 0.406704
O O1 0.208326 0.302344 0.905504
O O2 0.127020 0.149353 0.877621
O O3 0.251922 0.187914 0.698258
O O4 0.267815 0.132981 0.897835
O O5 0.213752 0.500000 0.953932
O O6 0.336245 0.383385 0.898914
O O7 0.567881 0.500000 0.256293
O O8 0.579102 0.710995 0.286172
O O9 0.506063 0.640815 0.165886
O O10 0.516178 0.870466 0.664730
O O11 0.591761 0.799072 0.776913
O O12 0.665040 0.854417 0.545394
O O13 0.612797 0.000000 0.701371
O O14 0.500000 0.236830 0.500000
O O15 0.612457 0.121309 0.382549
O O16 0.500000 0.247657 0.000000
O O17 0.222456 0.500000 0.391329
#
# Coordination Sequence:
#
# PCOD9185643 Si02
#       7
#     8   8   8   8   8   8   8
#     4  11  22  37  59  84 117 149 191 239 290 336
#     4  10  21  37  58  85 113 148 191 237 283 335
#     4  10  20  36  57  81 114 149 190 233 274 335
#     4   9  20  36  57  83 113 147 186 235 287 344
#     4   9  17  33  56  84 114 144 183 233 284 336
#     4  11  23  39  57  82 116 152 192 232 286 348
#     4  10  19  34  57  85 112 146 192 236 287 341
#
# _framework density 20.520952999999999
#
# number of rings (size 3 to 8) (size 9 to 14) (size 15 to 20)
#    0.000    2.000    2.857    0.857    0.000    4.857 
#    0.000    1.429    0.000    0.000    0.000    0.000 
#    0.000    0.000    0.000    0.000    0.000    0.000 
#
# Total GULP energy -156048.329675 kJ/mol
# GULP energy per Si atom -5573.154631 kJ/mol
# Density = 2.047425 g / cm^3
# Si number density = 20.520953 Si / 1000 Ang^3
#
#
#
# Elastic Constant Matrix: (Units=GPa)
#
#
# Indices 1 2 3 4 5 6 
#
# 1 48.2776 -15.5265 -0.5188 0.0000 0.7793 0.0000
# 2 -15.5265 75.0845 20.7075 0.0000 0.4623 0.0000
# 3 -0.5188 20.7075 95.2890 0.0000 -13.1906 0.0000
# 4 0.0000 0.0000 0.0000 12.9465 0.0000 -8.3228
# 5 0.7793 0.4623 -13.1906 0.0000 23.9621 0.0000
# 6 0.0000 0.0000 0.0000 -8.3228 0.0000 9.4075
#
#
#
# Elastic Compliance Matrix: (Units=1/GPa)
#
#
# Indices 1 2 3 4 5 6 
#
# 1 0.022314 0.004941 -0.001154 0.000000 -0.001456 0.000000
# 2 0.004941 0.015363 -0.003653 0.000000 -0.002468 0.000000
# 3 -0.001154 -0.003653 0.012229 0.000000 0.006840 0.000000
# 4 0.000000 0.000000 0.000000 0.179106 0.000000 0.158456
# 5 -0.001456 -0.002468 0.006840 0.000000 0.045593 0.000000
# 6 0.000000 0.000000 0.000000 0.158456 0.000000 0.246485
#
#
# Mechanical properties :
#
#
# Convention : Reuss Voigt Hill
#
# Bulk Modulus (GPa) = 19.93066 25.33061 22.63063
# Shear Modulus (GPa) = 9.30154 23.52915 16.41534
#
# Velocity S-wave (km/s) = 2.13132 3.38981 2.83137
# Velocity P-wave (km/s) = 3.97368 5.26229 4.66271
#
# Compressibility (1/GPa) = 0.05017396
#
# Stress axis : x y z
#
# Youngs Moduli (GPa) = 44.81521 65.09185 81.77399
#
# Poissons Ratio (x) = -0.32165 0.09436
# Poissons Ratio (y) = -0.22145 0.29875
# Poissons Ratio (z) = 0.05171 0.23780
#
# Static dielectric constant tensor:
#      x y z
#    x 1.717070 0.000000 -0.008440 
#    y 0.000000 1.734520 0.000000 
#    z -0.008440 0.000000 1.765360 
# 
# From -- ./inp_files/165611.got.cif
#   From: 2010.05.17/outbox.cif.g08.bks.cpg/sg12_83_cif.got.tgz:165611.got - 2010.06.03 13:09:07.
