data_PCOD9185657
_publ_section_title
;
Structure prediction by ZEFSAII (Michael W. Deem and Ramdas Pophale) SiO2 
 PCOD9185657
Probable space group: C 2/M
;
_chemical_formula_sum "Si O2"
_cell_formula_units_Z 64
_cell_length_a 11.910931
_cell_length_b 19.860926
_cell_length_c 18.701869
_cell_angle_alpha 90.000000
_cell_angle_beta 126.616096
_cell_angle_gamma 90.000000
_cell_volume 3551.046784
_symmetry_space_group_name_H-M "C 2/M"
_symmetry_group_IT_number 12
_symmetry_cell_setting 'monoclinic'
loop_
_space_group_symop_operation_xyz
x,y,z
-x,y,-z
-x,-y,-z
x,-y,z
1/2+x,1/2+y,z
1/2-x,1/2+y,-z
1/2-x,1/2-y,-z
1/2+x,1/2-y,z
loop_
_atom_site_type_symbol
_atom_site_label
_atom_site_fract_x
_atom_site_fract_y
_atom_site_fract_z
Si Si1 0.286593 0.422472 0.057314
Si Si2 0.150284 0.580370 0.862415
Si Si3 0.435652 0.631361 0.903706
Si Si4 0.452330 0.792845 0.403109
Si Si5 0.072518 0.079921 0.749489
Si Si6 0.124670 0.809726 0.264009
Si Si7 0.403911 0.636518 0.398039
Si Si8 0.581846 0.164819 0.308496
O O1 0.245958 0.500000 0.048500
O O2 0.442298 0.416673 0.081491
O O3 0.307709 0.397435 0.146924
O O4 0.184848 0.394033 0.956770
O O5 0.128464 0.500000 0.856264
O O6 0.291424 0.595197 0.870253
O O7 0.020915 0.617193 0.775791
O O8 0.409289 0.685022 0.832431
O O9 0.500000 0.661585 0.000000
O O10 0.500000 0.811971 0.500000
O O11 0.290072 0.809312 0.334165
O O12 0.463587 0.711339 0.402007
O O13 0.537129 0.830408 0.373917
O O14 0.099769 0.094808 0.676839
O O15 0.941491 0.125533 0.722804
O O16 0.051030 0.000000 0.751814
O O17 0.065794 0.740891 0.273367
O O18 0.500000 0.610244 0.500000
O O19 0.243893 0.645056 0.362477
#
# Coordination Sequence:
#
# PCOD9185657 Si02
#       8
#     8   8   8   8   8   8   8   8
#     4   8  16  31  54  82 111 152 192 224 269 336
#     4  10  19  34  57  85 116 145 185 235 287 335
#     4   9  16  30  53  83 114 148 184 229 283 332
#     4  10  21  37  62  85 107 144 190 239 288 336
#     4  10  20  37  59  83 117 154 193 229 270 333
#     4  10  20  36  58  84 114 145 192 237 278 337
#     4  10  23  38  60  83 111 152 193 234 277 338
#     4  11  22  38  59  86 115 146 187 235 288 339
#
# _framework density 18.022855
#
# number of rings (size 3 to 8) (size 9 to 14) (size 15 to 20)
#    0.000    2.250    2.500    0.375    1.750    4.250 
#    0.000    8.750    0.000    3.000    0.000    0.000 
#    0.000    0.000    0.000    0.000    0.000    0.000 
#
# Total GULP energy -178237.790872 kJ/mol
# GULP energy per Si atom -5569.930965 kJ/mol
# Density = 1.798183 g / cm^3
# Si number density = 18.022855 Si / 1000 Ang^3
#
#
#
# Elastic Constant Matrix: (Units=GPa)
#
#
# Indices 1 2 3 4 5 6 
#
# 1 53.2236 29.1505 57.7591 0.0000 -17.1060 0.0000
# 2 29.1505 52.7927 41.1018 0.0000 -9.7684 0.0000
# 3 57.7591 41.1018 150.3448 0.0000 -27.5616 0.0000
# 4 0.0000 0.0000 0.0000 27.0911 0.0000 -5.9873
# 5 -17.1060 -9.7684 -27.5616 0.0000 28.7189 0.0000
# 6 0.0000 0.0000 0.0000 -5.9873 0.0000 7.9497
#
#
#
# Elastic Compliance Matrix: (Units=1/GPa)
#
#
# Indices 1 2 3 4 5 6 
#
# 1 0.039510 -0.012179 -0.010065 0.000000 0.009731 0.000000
# 2 -0.012179 0.027941 -0.003091 0.000000 -0.000717 0.000000
# 3 -0.010065 -0.003091 0.012222 0.000000 0.004683 0.000000
# 4 0.000000 0.000000 0.000000 0.044283 0.000000 0.033352
# 5 0.009731 -0.000717 0.004683 0.000000 0.044867 0.000000
# 6 0.000000 0.000000 0.000000 0.033352 0.000000 0.150910
#
#
# Mechanical properties :
#
#
# Convention : Reuss Voigt Hill
#
# Bulk Modulus (GPa) = 34.48116 56.93155 45.70635
# Shear Modulus (GPa) = 13.15546 21.30858 17.23202
#
# Velocity S-wave (km/s) = 2.70466 3.44220 3.09547
# Velocity P-wave (km/s) = 5.37838 6.88879 6.17990
#
# Compressibility (1/GPa) = 0.02900135
#
# Stress axis : x y z
#
# Youngs Moduli (GPa) = 25.31020 35.78995 81.82189
#
# Poissons Ratio (x) = 0.43589 0.82356
# Poissons Ratio (y) = 0.30826 0.25291
# Poissons Ratio (z) = 0.25475 0.11063
#
# Static dielectric constant tensor:
#      x y z
#    x 1.607830 0.000000 -0.033270 
#    y 0.000000 1.605030 0.000000 
#    z -0.033270 0.000000 1.625960 
# 
# From -- ./inp_files/265108.got.cif
#   From: 2010.05.17/outbox.cif.g08.bks.cpg/sg12_133_cif.got.tgz:265108.got - 2010.06.03 13:09:07.
