data_PCOD9185008
_publ_section_title
;
Structure prediction by ZEFSAII (Michael W. Deem and Ramdas Pophale) SiO2 
 PCOD9185008
Probable space group: C 2/M
;
_chemical_formula_sum "Si O2"
_cell_formula_units_Z 56
_cell_length_a 25.514351
_cell_length_b 8.733841
_cell_length_c 15.398229
_cell_angle_alpha 90.000000
_cell_angle_beta 105.411665
_cell_angle_gamma 90.000000
_cell_volume 3307.929381
_symmetry_space_group_name_H-M "C 2/M"
_symmetry_group_IT_number 12
_symmetry_cell_setting 'monoclinic'
loop_
_space_group_symop_operation_xyz
x,y,z
-x,y,-z
-x,-y,-z
x,-y,z
1/2+x,1/2+y,z
1/2-x,1/2+y,-z
1/2-x,1/2-y,-z
1/2+x,1/2-y,z
loop_
_atom_site_type_symbol
_atom_site_label
_atom_site_fract_x
_atom_site_fract_y
_atom_site_fract_z
Si Si1 0.698584 0.317718 0.284784
Si Si2 0.704783 0.817961 0.101402
Si Si3 0.132223 0.684133 0.412049
Si Si4 0.598316 0.315644 0.718567
Si Si5 0.314997 0.684293 0.392348
Si Si6 0.490617 0.815613 0.595342
Si Si7 0.826971 0.183954 0.091193
O O1 0.699034 0.500000 0.292000
O O2 0.687806 0.266261 0.181478
O O3 0.655405 0.247269 0.332453
O O4 0.757515 0.251796 0.337625
O O5 0.768381 0.782324 0.109421
O O6 0.700290 0.000000 0.111093
O O7 0.672717 0.763941 0.001887
O O8 0.136139 0.500000 0.415769
O O9 0.167369 0.752453 0.506565
O O10 0.069459 0.728869 0.400117
O O11 0.595512 0.500000 0.717372
O O12 0.638837 0.271616 0.657632
O O13 0.539251 0.248661 0.674681
O O14 0.626391 0.267974 0.821150
O O15 0.311252 0.500000 0.392723
O O16 0.500000 0.763656 0.500000
O O17 0.493460 0.000000 0.597256
O O18 0.829394 0.000000 0.080653
#
# Coordination Sequence:
#
# PCOD9185008 Si02
#       7
#     8   8   8   8   8   8   8
#     4  12  24  37  55  80 111 149 186 225 273 329
#     4  10  19  34  55  81 112 144 180 222 271 327
#     4  11  23  39  56  77 110 149 186 229 273 324
#     4  10  20  34  56  82 113 146 179 224 271 321
#     4  11  21  36  55  81 113 147 184 223 270 326
#     4  10  21  37  56  80 108 142 186 230 272 319
#     4   9  18  34  53  81 113 143 179 220 271 326
#
# _framework density 16.929020000000001
#
# number of rings (size 3 to 8) (size 9 to 14) (size 15 to 20)
#    0.000    1.571    2.857    3.000    0.000    3.143 
#    0.000    0.000    0.000    0.857    0.000    6.000 
#    0.000    0.000    0.000    0.000    0.000    0.000 
#
# Total GULP energy -156425.735960 kJ/mol
# GULP energy per Si atom -5586.633427 kJ/mol
# Density = 1.689049 g / cm^3
# Si number density = 16.929020 Si / 1000 Ang^3
#
#
#
# Elastic Constant Matrix: (Units=GPa)
#
#
# Indices 1 2 3 4 5 6 
#
# 1 77.8500 29.4478 52.2433 0.0000 -13.7020 0.0000
# 2 29.4478 50.0305 35.6361 0.0000 -9.3019 0.0000
# 3 52.2433 35.6361 134.2117 0.0000 -3.3337 0.0000
# 4 0.0000 0.0000 0.0000 29.7486 0.0000 5.4375
# 5 -13.7020 -9.3019 -3.3337 0.0000 25.1057 0.0000
# 6 0.0000 0.0000 0.0000 5.4375 0.0000 21.8081
#
#
#
# Elastic Compliance Matrix: (Units=1/GPa)
#
#
# Indices 1 2 3 4 5 6 
#
# 1 0.020869 -0.006306 -0.006245 0.000000 0.008224 0.000000
# 2 -0.006306 0.028405 -0.004928 0.000000 0.006428 0.000000
# 3 -0.006245 -0.004928 0.011097 0.000000 -0.003760 0.000000
# 4 0.000000 0.000000 0.000000 0.035220 0.000000 -0.008782
# 5 0.008224 0.006428 -0.003760 0.000000 0.046202 0.000000
# 6 0.000000 0.000000 0.000000 -0.008782 0.000000 0.048044
#
#
# Mechanical properties :
#
#
# Convention : Reuss Voigt Hill
#
# Bulk Modulus (GPa) = 39.34985 55.19406 47.27196
# Shear Modulus (GPa) = 21.43489 24.98350 23.20919
#
# Velocity S-wave (km/s) = 3.56218 3.84575 3.70668
# Velocity P-wave (km/s) = 6.34140 7.23835 6.80467
#
# Compressibility (1/GPa) = 0.02541305
#
# Stress axis : x y z
#
# Youngs Moduli (GPa) = 47.91858 35.20546 90.11692
#
# Poissons Ratio (x) = 0.22201 0.56275
# Poissons Ratio (y) = 0.30219 0.44406
# Poissons Ratio (z) = 0.29923 0.17348
#
# Static dielectric constant tensor:
#      x y z
#    x 1.550640 0.000000 -0.004930 
#    y 0.000000 1.568880 0.000000 
#    z -0.004930 0.000000 1.557580 
# 
# From -- ./inp_files/237891.got.cif
#   From: 2010.05.17/outbox.cif.g08.bks.cpg/sg12_119_cif.got.tgz:237891.got - 2010.06.03 13:09:07.
