data_PCOD9185287
_publ_section_title
;
Structure prediction by ZEFSAII (Michael W. Deem and Ramdas Pophale) SiO2 
 PCOD9185287
Probable space group: C 2/M
;
_chemical_formula_sum "Si O2"
_cell_formula_units_Z 64
_cell_length_a 15.260178
_cell_length_b 27.355532
_cell_length_c 12.141041
_cell_angle_alpha 90.000000
_cell_angle_beta 139.768966
_cell_angle_gamma 90.000000
_cell_volume 3273.457274
_symmetry_space_group_name_H-M "C 2/M"
_symmetry_group_IT_number 12
_symmetry_cell_setting 'monoclinic'
loop_
_space_group_symop_operation_xyz
x,y,z
-x,y,-z
-x,-y,-z
x,-y,z
1/2+x,1/2+y,z
1/2-x,1/2+y,-z
1/2-x,1/2-y,-z
1/2+x,1/2-y,z
loop_
_atom_site_type_symbol
_atom_site_label
_atom_site_fract_x
_atom_site_fract_y
_atom_site_fract_z
Si Si1 0.599296 0.554006 0.311180
Si Si2 0.153553 0.943592 0.616758
Si Si3 0.276562 0.654153 0.621726
Si Si4 0.283801 0.843235 0.187018
Si Si5 0.527104 0.719724 0.895153
Si Si6 0.513237 0.827777 0.235442
Si Si7 0.890808 0.585004 0.978619
Si Si8 0.778322 0.054178 0.974069
O O1 0.626313 0.500000 0.289692
O O2 0.660973 0.556172 0.492774
O O3 0.666416 0.599083 0.314153
O O4 0.435704 0.558542 0.163408
O O5 0.259206 0.908083 0.775844
O O6 0.000000 0.931339 0.500000
O O7 0.179037 0.000000 0.679371
O O8 0.215415 0.667104 0.682581
O O9 0.407682 0.687583 0.727737
O O10 0.166566 0.661835 0.420820
O O11 0.423290 0.834596 0.258480
O O12 0.169414 0.808745 0.021048
O O13 0.246549 0.899854 0.128385
O O14 0.515720 0.773799 0.836883
O O15 0.500000 0.721385 0.000000
O O16 0.461624 0.866947 0.096047
O O17 0.826700 0.558557 0.024279
O O18 0.000000 0.560733 0.000000
O O19 0.762877 0.000000 0.910003
#
# Coordination Sequence:
#
# PCOD9185287 Si02
#       8
#     8   8   8   8   8   8   8   8
#     4  10  20  35  59  89 119 153 201 248 292 350
#     4  10  19  34  56  82 116 158 200 242 290 347
#     4  11  22  40  63  89 120 157 202 245 296 350
#     4  10  22  40  62  90 120 156 196 246 299 353
#     4  10  21  39  65  90 115 151 200 248 298 353
#     4  11  23  40  61  87 124 160 194 244 299 362
#     4  11  22  36  56  86 122 159 197 244 301 358
#     4  10  20  36  59  87 117 155 198 244 297 350
#
# _framework density 19.551193999999999
#
# number of rings (size 3 to 8) (size 9 to 14) (size 15 to 20)
#    0.000    1.625    2.500    2.625    0.000    1.500 
#    0.000    5.625    0.000    5.250    0.000    0.000 
#    0.000    0.000    0.000    0.000    0.000    0.000 
#
# Total GULP energy -178550.937081 kJ/mol
# GULP energy per Si atom -5579.716784 kJ/mol
# Density = 1.950669 g / cm^3
# Si number density = 19.551194 Si / 1000 Ang^3
#
#
#
# Elastic Constant Matrix: (Units=GPa)
#
#
# Indices 1 2 3 4 5 6 
#
# 1 44.0888 2.2170 15.9679 0.0000 8.9708 0.0000
# 2 2.2170 109.5124 43.2061 0.0000 15.3997 0.0000
# 3 15.9679 43.2061 103.8604 0.0000 20.0672 0.0000
# 4 0.0000 0.0000 0.0000 11.9596 0.0000 -4.1022
# 5 8.9708 15.3997 20.0672 0.0000 16.8959 0.0000
# 6 0.0000 0.0000 0.0000 -4.1022 0.0000 8.6024
#
#
#
# Elastic Compliance Matrix: (Units=1/GPa)
#
#
# Indices 1 2 3 4 5 6 
#
# 1 0.026101 0.002266 -0.002438 0.000000 -0.013027 0.000000
# 2 0.002266 0.011597 -0.003761 0.000000 -0.007306 0.000000
# 3 -0.002438 -0.003761 0.013829 0.000000 -0.011702 0.000000
# 4 0.000000 0.000000 0.000000 0.099966 0.000000 0.047670
# 5 -0.013027 -0.007306 -0.011702 0.000000 0.086659 0.000000
# 6 0.000000 0.000000 0.000000 0.047670 0.000000 0.138979
#
#
# Mechanical properties :
#
#
# Convention : Reuss Voigt Hill
#
# Bulk Modulus (GPa) = 22.90478 42.24928 32.57703
# Shear Modulus (GPa) = 12.51403 20.56295 16.53849
#
# Velocity S-wave (km/s) = 2.53270 3.24659 2.91160
# Velocity P-wave (km/s) = 4.50482 5.97580 5.29168
#
# Compressibility (1/GPa) = 0.04365901
#
# Stress axis : x y z
#
# Youngs Moduli (GPa) = 38.31219 86.23158 72.31340
#
# Poissons Ratio (x) = -0.19536 0.17633
# Poissons Ratio (y) = -0.08680 0.27197
# Poissons Ratio (z) = 0.09342 0.32432
#
# Static dielectric constant tensor:
#      x y z
#    x 1.690220 0.000000 -0.000940 
#    y 0.000000 1.690490 0.000000 
#    z -0.000940 0.000000 1.675770 
# 
# From -- ./inp_files/149813.got.cif
#   From: 2010.05.17/outbox.cif.g08.bks.cpg/sg12_75_cif.got.tgz:149813.got - 2010.06.03 13:09:07.
