data_PCOD9185594
_publ_section_title
;
Structure prediction by ZEFSAII (Michael W. Deem and Ramdas Pophale) SiO2 
 PCOD9185594
Probable space group: C 2/M
;
_chemical_formula_sum "Si O2"
_cell_formula_units_Z 58
_cell_length_a 5.687401
_cell_length_b 26.539207
_cell_length_c 16.929535
_cell_angle_alpha 90.000000
_cell_angle_beta 91.232808
_cell_angle_gamma 90.000000
_cell_volume 2554.737499
_symmetry_space_group_name_H-M "C 2/M"
_symmetry_group_IT_number 12
_symmetry_cell_setting 'monoclinic'
loop_
_space_group_symop_operation_xyz
x,y,z
-x,y,-z
-x,-y,-z
x,-y,z
1/2+x,1/2+y,z
1/2-x,1/2+y,-z
1/2-x,1/2-y,-z
1/2+x,1/2-y,z
loop_
_atom_site_type_symbol
_atom_site_label
_atom_site_fract_x
_atom_site_fract_y
_atom_site_fract_z
Si Si1 0.335238 0.261168 0.368724
Si Si2 0.892694 0.556443 0.580337
Si Si3 0.497213 0.876349 0.845346
Si Si4 0.293253 0.774702 0.187545
Si Si5 0.362712 0.443728 0.772845
Si Si6 0.315122 0.557005 0.068200
Si Si7 0.000000 0.000000 0.500000
Si Si8 0.305347 0.629111 0.303449
O O1 0.583481 0.246069 0.407812
O O2 0.309878 0.230309 0.284144
O O3 0.353787 0.320064 0.349070
O O4 0.006939 0.500000 0.593651
O O5 0.627091 0.542764 0.555773
O O6 0.882603 0.594543 0.651483
O O7 0.000000 0.576793 0.500000
O O8 0.684029 0.831266 0.846525
O O9 0.620200 0.924937 0.807397
O O10 0.372597 0.898679 0.921211
O O11 0.303022 0.856585 0.782062
O O12 0.036897 0.752801 0.162832
O O13 0.350412 0.500000 0.740655
O O14 0.543006 0.444176 0.848046
O O15 0.466125 0.404306 0.711709
O O16 0.219212 0.500000 0.055953
O O17 0.500000 0.566684 0.000000
#
# Coordination Sequence:
#
# PCOD9185594 Si02
#       8
#     8   8   8   8   8   8   2   8
#     4  10  19  35  54  86 119 152 195 244 303 368
#     4   9  20  39  56  78 113 152 199 229 282 354
#     4  11  21  33  58  87 114 150 198 243 306 357
#     4  10  19  34  57  83 119 157 191 248 303 366
#     4  10  21  34  52  87 119 143 193 248 298 353
#     4   9  20  38  56  78 117 158 194 241 293 362
#     4   8  18  40  56  78 108 160 192 236 268 360
#     4  11  21  34  58  85 114 151 192 247 303 348
#
# _framework density 22.702919999999999
#
# number of rings (size 3 to 8) (size 9 to 14) (size 15 to 20)
#    0.414    1.655    2.759    2.483    1.931    3.310 
#    0.000    2.069    0.000    1.655    0.000    0.000 
#    0.000    0.000    0.000    0.000    0.000    0.000 
#
# Total GULP energy -161529.268532 kJ/mol
# GULP energy per Si atom -5569.974777 kJ/mol
# Density = 2.265125 g / cm^3
# Si number density = 22.702920 Si / 1000 Ang^3
#
#
#
# Elastic Constant Matrix: (Units=GPa)
#
#
# Indices 1 2 3 4 5 6 
#
# 1 100.0821 19.7075 20.4553 0.0000 -10.5811 0.0000
# 2 19.7075 90.3176 33.4686 0.0000 -19.3987 0.0000
# 3 20.4553 33.4686 78.8317 0.0000 -17.8618 0.0000
# 4 0.0000 0.0000 0.0000 8.5646 0.0000 -3.4562
# 5 -10.5811 -19.3987 -17.8618 0.0000 29.8311 0.0000
# 6 0.0000 0.0000 0.0000 -3.4562 0.0000 19.5916
#
#
#
# Elastic Compliance Matrix: (Units=1/GPa)
#
#
# Indices 1 2 3 4 5 6 
#
# 1 0.010819 -0.001270 -0.001835 0.000000 0.001913 0.000000
# 2 -0.001270 0.014295 -0.004321 0.000000 0.006257 0.000000
# 3 -0.001835 -0.004321 0.016443 0.000000 0.006384 0.000000
# 4 0.000000 0.000000 0.000000 0.125709 0.000000 0.022177
# 5 0.001913 0.006257 0.006384 0.000000 0.042092 0.000000
# 6 0.000000 0.000000 0.000000 0.022177 0.000000 0.054955
#
#
# Mechanical properties :
#
#
# Convention : Reuss Voigt Hill
#
# Bulk Modulus (GPa) = 37.44764 46.27713 41.86239
# Shear Modulus (GPa) = 17.35711 24.63746 20.99729
#
# Velocity S-wave (km/s) = 2.76802 3.29783 3.04447
# Velocity P-wave (km/s) = 5.17169 5.91007 5.55316
#
# Compressibility (1/GPa) = 0.02670395
#
# Stress axis : x y z
#
# Youngs Moduli (GPa) = 92.42898 69.95678 60.81765
#
# Poissons Ratio (x) = 0.08884 0.11158
# Poissons Ratio (y) = 0.11738 0.26282
# Poissons Ratio (z) = 0.16958 0.30232
#
# Static dielectric constant tensor:
#      x y z
#    x 2.047040 0.000000 -0.045640 
#    y 0.000000 1.855810 0.000000 
#    z -0.045640 0.000000 1.837790 
# 
# From -- ./inp_files/298284.got.cif
#   From: 2010.05.17/outbox.cif.g08.bks.cpg/sg12_150_cif.got.tgz:298284.got - 2010.06.03 13:09:07.
