data_PCOD9185707
_publ_section_title
;
Structure prediction by ZEFSAII (Michael W. Deem and Ramdas Pophale) SiO2 
 PCOD9185707
Probable space group: C 2/M
;
_chemical_formula_sum "Si O2"
_cell_formula_units_Z 60
_cell_length_a 24.841281
_cell_length_b 7.772296
_cell_length_c 16.603336
_cell_angle_alpha 90.000000
_cell_angle_beta 44.984696
_cell_angle_gamma 90.000000
_cell_volume 2266.144740
_symmetry_space_group_name_H-M "C 2/M"
_symmetry_group_IT_number 12
_symmetry_cell_setting 'monoclinic'
loop_
_space_group_symop_operation_xyz
x,y,z
-x,y,-z
-x,-y,-z
x,-y,z
1/2+x,1/2+y,z
1/2-x,1/2+y,-z
1/2-x,1/2-y,-z
1/2+x,1/2-y,z
loop_
_atom_site_type_symbol
_atom_site_label
_atom_site_fract_x
_atom_site_fract_y
_atom_site_fract_z
Si Si1 0.148137 0.194515 0.595920
Si Si2 0.163041 0.000000 0.822685
Si Si3 0.716327 0.712584 0.362821
Si Si4 0.394501 0.306087 0.651494
Si Si5 0.742350 0.193095 0.100214
Si Si6 0.004889 0.697564 0.315896
Si Si7 0.901295 0.694915 0.939017
Si Si8 0.555204 0.695513 0.838484
O O1 0.207730 0.258677 0.466563
O O2 0.119802 0.273485 0.710321
O O3 0.068705 0.194752 0.629505
O O4 0.170847 0.000000 0.591034
O O5 0.226326 0.154195 0.739094
O O6 0.094473 0.148596 0.880240
O O7 0.728400 0.500000 0.342835
O O8 0.636508 0.752733 0.401483
O O9 0.420747 0.500000 0.616414
O O10 0.316800 0.303215 0.787223
O O11 0.458532 0.212176 0.635180
O O12 0.712034 0.000000 0.136500
O O13 0.750000 0.250000 0.000000
O O14 0.829444 0.190798 0.040561
O O15 0.984412 0.500000 0.320907
O O16 0.070603 0.743600 0.180773
O O17 0.871458 0.500000 0.969259
O O18 0.978436 0.702105 0.908311
O O19 0.536740 0.500000 0.826179
#
# Coordination Sequence:
#
# PCOD9185707 Si02
#       8
#     8   4   8   8   8   8   8   8
#     4   9  18  37  56  82 122 154 200 248 297 358
#     4  10  22  40  66  88 120 157 206 259 308 357
#     4  10  24  41  60  86 123 163 207 254 302 361
#     4  11  23  39  57  83 121 167 201 241 299 354
#     4  12  23  35  58  90 122 156 199 243 294 359
#     4  10  20  32  55  86 119 160 201 240 291 360
#     4  10  19  34  57  87 125 153 189 246 301 358
#     4   8  18  36  57  88 113 152 194 243 307 350
#
# _framework density 26.476683000000001
#
# number of rings (size 3 to 8) (size 9 to 14) (size 15 to 20)
#    0.400    1.600    1.333    2.400    2.800    2.667 
#    0.000    2.667    0.000    1.600    0.000    2.800 
#    0.000    0.000    0.000    0.000    0.000    0.000 
#
# Total GULP energy -167144.525216 kJ/mol
# GULP energy per Si atom -5571.484174 kJ/mol
# Density = 2.641642 g / cm^3
# Si number density = 26.476683 Si / 1000 Ang^3
#
#
#
# Elastic Constant Matrix: (Units=GPa)
#
#
# Indices 1 2 3 4 5 6 
#
# 1 91.1464 15.4249 13.1003 0.0002 -3.8884 -0.0006
# 2 15.4249 77.4686 13.5803 0.0098 -9.9063 0.0052
# 3 13.1003 13.5803 100.4793 -0.0016 6.9895 0.0028
# 4 0.0002 0.0098 -0.0016 -11.4175 -0.0015 -28.2699
# 5 -3.8884 -9.9063 6.9895 -0.0015 52.5240 0.0003
# 6 -0.0006 0.0052 0.0028 -28.2699 0.0003 25.2286
#
#
#
# Elastic Compliance Matrix: (Units=1/GPa)
#
#
# Indices 1 2 3 4 5 6 
#
# 1 0.011519 -0.001987 -0.001278 -0.000001 0.000648 0.000000
# 2 -0.001987 0.013972 -0.001819 0.000005 0.002730 0.000003
# 3 -0.001278 -0.001819 0.010492 0.000000 -0.001834 -0.000001
# 4 -0.000001 0.000005 0.000000 -0.023204 0.000000 -0.026002
# 5 0.000648 0.002730 -0.001834 0.000000 0.019846 0.000000
# 6 0.000000 0.000003 -0.000001 -0.026002 0.000000 0.010501
#
#
# Mechanical properties :
#
#
# Convention : Reuss Voigt Hill
#
# Bulk Modulus (GPa) = 38.73733 39.25613 38.99673
# Shear Modulus (GPa) = 80.77554 28.39961 54.58757
#
# Velocity S-wave (km/s) = 5.52941 3.27865 4.54555
# Velocity P-wave (km/s) = 7.44502 5.40293 6.50461
#
# Compressibility (1/GPa) = 0.02581489
#
# Stress axis : x y z
#
# Youngs Moduli (GPa) = 86.81347 71.57140 95.30674
#
# Poissons Ratio (x) = 0.14218 0.12184
# Poissons Ratio (y) = 0.17246 0.17339
# Poissons Ratio (z) = 0.11098 0.13021
#
# Static dielectric constant tensor:
#      x y z
#    x 2.197320 -0.000010 0.054340 
#    y -0.000010 1.965890 0.000010 
#    z 0.054340 0.000010 2.144090 
# 
# From -- ./inp_files/327260.got.cif
#   From: 2010.05.17/outbox.cif.g08.bks.cpg/sg12_164_cif.got.tgz:327260.got - 2010.06.03 13:09:07.
