data_PCOD9185439
_publ_section_title
;
Structure prediction by ZEFSAII (Michael W. Deem and Ramdas Pophale) SiO2 
 PCOD9185439
Probable space group: C 2/M
;
_chemical_formula_sum "Si O2"
_cell_formula_units_Z 36
_cell_length_a 18.531790
_cell_length_b 22.685609
_cell_length_c 5.064032
_cell_angle_alpha 90.000000
_cell_angle_beta 57.552033
_cell_angle_gamma 90.000000
_cell_volume 1796.571297
_symmetry_space_group_name_H-M "C 2/M"
_symmetry_group_IT_number 12
_symmetry_cell_setting 'monoclinic'
loop_
_space_group_symop_operation_xyz
x,y,z
-x,y,-z
-x,-y,-z
x,-y,z
1/2+x,1/2+y,z
1/2-x,1/2+y,-z
1/2-x,1/2-y,-z
1/2+x,1/2-y,z
loop_
_atom_site_type_symbol
_atom_site_label
_atom_site_fract_x
_atom_site_fract_y
_atom_site_fract_z
Si Si1 0.437007 0.370978 0.874024
Si Si2 0.062522 0.000000 0.128280
Si Si3 0.905036 0.310341 0.560661
Si Si4 0.062394 0.435699 0.628697
Si Si5 0.158166 0.247041 0.815647
O O1 0.500000 0.362824 0.500000
O O2 0.393315 0.435968 0.950446
O O3 0.500000 0.370318 0.000000
O O4 0.371595 0.317618 0.036294
O O5 0.000000 0.000000 0.500000
O O6 0.000000 0.000000 0.000000
O O7 0.882704 0.377156 0.519958
O O8 0.901888 0.271325 0.302966
O O9 0.000000 0.309346 0.500000
O O10 0.846601 0.286657 0.912078
O O11 0.105211 0.500000 0.573136
O O12 0.000000 0.438806 0.500000
O O13 0.000000 0.426659 0.000000
O O14 0.250000 0.250000 0.500000
#
# Coordination Sequence:
#
# PCOD9185439 Si02
#       5
#     8   4   8   8   8
#     4  10  19  34  57  80 105 138 185 229 273 328
#     4   8  16  30  52  80 100 128 175 232 275 312
#     4  11  21  37  59  81 108 146 194 232 270 330
#     4   9  17  30  52  81 107 134 176 233 275 306
#     4  12  24  36  53  82 119 150 180 227 291 339
#
# _framework density 20.038170999999998
#
# number of rings (size 3 to 8) (size 9 to 14) (size 15 to 20)
#    0.000    1.778    0.000    7.333    0.000    0.000 
#    0.000    0.000    4.889    0.000    0.000    0.000 
#    0.000    0.000    0.000    0.000    0.000    0.000 
#
# Total GULP energy -100416.430681 kJ/mol
# GULP energy per Si atom -5578.690593 kJ/mol
# Density = 1.999256 g / cm^3
# Si number density = 20.038171 Si / 1000 Ang^3
#
#
#
# Elastic Constant Matrix: (Units=GPa)
#
#
# Indices 1 2 3 4 5 6 
#
# 1 33.6408 19.6657 27.2443 0.0000 15.9205 0.0000
# 2 19.6657 235.4865 87.7283 0.0000 -6.3547 0.0000
# 3 27.2443 87.7283 150.6401 0.0000 24.7470 0.0000
# 4 0.0000 0.0000 0.0000 26.6503 0.0000 15.7260
# 5 15.9205 -6.3547 24.7470 0.0000 42.1737 0.0000
# 6 0.0000 0.0000 0.0000 15.7260 0.0000 3.6057
#
#
#
# Elastic Compliance Matrix: (Units=1/GPa)
#
#
# Indices 1 2 3 4 5 6 
#
# 1 0.040495 -0.002348 -0.003748 0.000000 -0.013441 0.000000
# 2 -0.002348 0.005914 -0.003665 0.000000 0.003928 0.000000
# 3 -0.003748 -0.003665 0.010302 0.000000 -0.005182 0.000000
# 4 0.000000 0.000000 0.000000 -0.023845 0.000000 0.103998
# 5 -0.013441 0.003928 -0.005182 0.000000 0.032418 0.000000
# 6 0.000000 0.000000 0.000000 0.103998 0.000000 -0.176241
#
#
# Mechanical properties :
#
#
# Convention : Reuss Voigt Hill
#
# Bulk Modulus (GPa) = 26.88988 76.56044 51.72516
# Shear Modulus (GPa) = -63.26024 33.49453 -14.88285
#
# Velocity S-wave (km/s) = -5.62480 4.09288 -2.72825
# Velocity P-wave (km/s) = 5.36060 7.78626 3.99310
#
# Compressibility (1/GPa) = 0.03718871
#
# Stress axis : x y z
#
# Youngs Moduli (GPa) = 24.69432 169.09469 97.07114
#
# Poissons Ratio (x) = 0.39706 0.36384
# Poissons Ratio (y) = 0.05799 0.35573
# Poissons Ratio (z) = 0.09256 0.61967
#
# Static dielectric constant tensor:
#      x y z
#    x 1.693470 0.000000 -0.012620 
#    y 0.000000 1.819440 0.000000 
#    z -0.012620 0.000000 1.570000 
# 
# From -- ./inp_files/15621.got.cif
#   From: 2010.05.17/outbox.cif.g08.bks.cpg/sg12_8_cif.got.tgz:15621.got - 2010.06.03 13:09:07.
