data_PCOD9185957
_publ_section_title
;
Structure prediction by ZEFSAII (Michael W. Deem and Ramdas Pophale) SiO2 
 PCOD9185957
Probable space group: C 2/M
;
_chemical_formula_sum "Si O2"
_cell_formula_units_Z 48
_cell_length_a 25.994342
_cell_length_b 13.112581
_cell_length_c 19.187519
_cell_angle_alpha 90.000000
_cell_angle_beta 23.720210
_cell_angle_gamma 90.000000
_cell_volume 2630.899592
_symmetry_space_group_name_H-M "C 2/M"
_symmetry_group_IT_number 12
_symmetry_cell_setting 'monoclinic'
loop_
_space_group_symop_operation_xyz
x,y,z
-x,y,-z
-x,-y,-z
x,-y,z
1/2+x,1/2+y,z
1/2-x,1/2+y,-z
1/2-x,1/2-y,-z
1/2+x,1/2-y,z
loop_
_atom_site_type_symbol
_atom_site_label
_atom_site_fract_x
_atom_site_fract_y
_atom_site_fract_z
Si Si1 0.719599 0.384004 0.158367
Si Si2 0.443274 0.187678 0.641346
Si Si3 0.878049 0.380277 0.458710
Si Si4 0.807082 0.111665 0.973890
Si Si5 0.026615 0.273259 0.156002
Si Si6 0.926353 0.118083 0.164266
O O1 0.692556 0.500000 0.213556
O O2 0.610464 0.300991 0.308598
O O3 0.730101 0.382334 0.060895
O O4 0.856769 0.344354 0.015165
O O5 0.500000 0.143625 0.500000
O O6 0.548475 0.179820 0.571319
O O7 0.319206 0.128972 0.823822
O O8 0.913667 0.500000 0.419910
O O9 0.726080 0.371592 0.655863
O O10 0.924096 0.337987 0.326753
O O11 0.861342 0.000000 0.919941
O O12 0.906592 0.197511 0.871342
O O13 0.972085 0.201353 0.163342
O O14 0.951477 0.000000 0.155421
O O15 0.000000 0.132912 0.000000
#
# Coordination Sequence:
#
# PCOD9185957 Si02
#       6
#     8   8   8   8   8   8
#     4  10  20  37  60  85 117 150 188 234 281 338
#     4  11  22  35  56  88 121 154 186 228 293 343
#     4  11  22  38  59  85 117 151 195 239 279 337
#     4  10  19  34  58  87 117 146 187 235 279 341
#     4  11  19  37  60  85 111 154 195 229 285 338
#     4  10  24  41  59  86 116 148 188 242 295 337
#
# _framework density 18.244710000000001
#
# number of rings (size 3 to 8) (size 9 to 14) (size 15 to 20)
#    0.000    1.500    3.333    3.000    4.667    1.667 
#    0.000    0.000    0.000    3.000    0.000    0.000 
#    0.000    0.000    0.000    0.000    0.000    0.000 
#
# Total GULP energy -133959.671329 kJ/mol
# GULP energy per Si atom -5581.652972 kJ/mol
# Density = 1.820318 g / cm^3
# Si number density = 18.244710 Si / 1000 Ang^3
#
#
#
# Elastic Constant Matrix: (Units=GPa)
#
#
# Indices 1 2 3 4 5 6 
#
# 1 58.9716 14.4623 35.0245 0.0000 -2.0841 0.0000
# 2 14.4623 73.9719 26.0661 0.0000 -17.2759 0.0000
# 3 35.0245 26.0661 101.9693 0.0000 1.5233 0.0000
# 4 0.0000 0.0000 0.0000 17.2265 0.0000 -4.9075
# 5 -2.0841 -17.2759 1.5233 0.0000 22.9831 0.0000
# 6 0.0000 0.0000 0.0000 -4.9075 0.0000 14.9906
#
#
#
# Elastic Compliance Matrix: (Units=1/GPa)
#
#
# Indices 1 2 3 4 5 6 
#
# 1 0.021544 -0.001405 -0.007061 0.000000 0.001366 0.000000
# 2 -0.001405 0.018708 -0.004512 0.000000 0.014234 0.000000
# 3 -0.007061 -0.004512 0.013459 0.000000 -0.004924 0.000000
# 4 0.000000 0.000000 0.000000 0.064021 0.000000 0.020959
# 5 0.001366 0.014234 -0.004924 0.000000 0.054660 0.000000
# 6 0.000000 0.000000 0.000000 0.020959 0.000000 0.073570
#
#
# Mechanical properties :
#
#
# Convention : Reuss Voigt Hill
#
# Bulk Modulus (GPa) = 36.03075 42.89097 39.46086
# Shear Modulus (GPa) = 17.78287 21.66403 19.72345
#
# Velocity S-wave (km/s) = 3.12538 3.44963 3.29150
# Velocity P-wave (km/s) = 5.72848 6.27904 6.01007
#
# Compressibility (1/GPa) = 0.02775407
#
# Stress axis : x y z
#
# Youngs Moduli (GPa) = 46.41679 53.45412 74.29821
#
# Poissons Ratio (x) = 0.07510 0.52463
# Poissons Ratio (y) = 0.06521 0.33525
# Poissons Ratio (z) = 0.32776 0.24120
#
# Static dielectric constant tensor:
#      x y z
#    x 1.610890 0.000000 -0.007280 
#    y 0.000000 1.658700 0.000000 
#    z -0.007280 0.000000 1.611950 
# 
# From -- ./inp_files/330141.got.cif
#   From: 2010.05.17/outbox.cif.g08.bks.cpg/sg12_166_cif.got.tgz:330141.got - 2010.06.03 13:09:07.
