data_PCOD9185326
_publ_section_title
;
Structure prediction by ZEFSAII (Michael W. Deem and Ramdas Pophale) SiO2 
 PCOD9185326
Probable space group: C 2/M
;
_chemical_formula_sum "Si O2"
_cell_formula_units_Z 56
_cell_length_a 27.153983
_cell_length_b 12.224559
_cell_length_c 11.830106
_cell_angle_alpha 90.000000
_cell_angle_beta 50.342592
_cell_angle_gamma 90.000000
_cell_volume 3023.257475
_symmetry_space_group_name_H-M "C 2/M"
_symmetry_group_IT_number 12
_symmetry_cell_setting 'monoclinic'
loop_
_space_group_symop_operation_xyz
x,y,z
-x,y,-z
-x,-y,-z
x,-y,z
1/2+x,1/2+y,z
1/2-x,1/2+y,-z
1/2-x,1/2-y,-z
1/2+x,1/2-y,z
loop_
_atom_site_type_symbol
_atom_site_label
_atom_site_fract_x
_atom_site_fract_y
_atom_site_fract_z
Si Si1 0.471557 0.120362 0.917737
Si Si2 0.267176 0.629178 0.152957
Si Si3 0.870977 0.376112 0.723526
Si Si4 0.730163 0.134002 0.463940
Si Si5 0.087648 0.670175 0.582787
Si Si6 0.018943 0.123014 0.601156
Si Si7 0.900273 0.219206 0.880417
O O1 0.529365 0.126745 0.742985
O O2 0.422716 0.214534 0.957045
O O3 0.441626 0.000000 0.955553
O O4 0.500000 0.135504 0.000000
O O5 0.267335 0.500000 0.132323
O O6 0.199680 0.670066 0.202069
O O7 0.265214 0.643487 0.291107
O O8 0.329327 0.677975 0.004289
O O9 0.865821 0.500000 0.772997
O O10 0.907236 0.378064 0.550745
O O11 0.902345 0.302906 0.772645
O O12 0.750000 0.250000 0.500000
O O13 0.654324 0.146605 0.547976
O O14 0.739237 0.000000 0.486793
O O15 0.070272 0.796338 0.581872
O O16 0.000000 0.153780 0.500000
O O17 0.954068 0.131252 0.769670
O O18 0.043468 0.000000 0.561615
#
# Coordination Sequence:
#
# PCOD9185326 Si02
#       7
#     8   8   8   8   8   8   8
#     4  10  22  36  53  79 112 148 186 232 285 336
#     4   9  20  37  56  81 114 149 186 235 292 349
#     4  10  19  34  56  84 111 142 187 235 288 350
#     4  10  22  40  64  88 116 154 200 246 293 348
#     4  10  20  38  60  81 113 151 189 238 295 345
#     4  10  20  35  55  83 116 150 189 236 287 347
#     4  11  20  34  57  81 111 150 185 233 285 345
#
# _framework density 18.523067999999999
#
# number of rings (size 3 to 8) (size 9 to 14) (size 15 to 20)
#    0.000    2.000    1.429    3.429    2.000    0.571 
#    0.000    2.857    0.000    3.000    0.000    0.000 
#    0.000    0.000    0.000    0.000    0.000    0.000 
#
# Total GULP energy -155909.017496 kJ/mol
# GULP energy per Si atom -5568.179196 kJ/mol
# Density = 1.848091 g / cm^3
# Si number density = 18.523068 Si / 1000 Ang^3
#
#
#
# Elastic Constant Matrix: (Units=GPa)
#
#
# Indices 1 2 3 4 5 6 
#
# 1 33.1277 31.4224 6.8534 0.0000 7.4655 0.0000
# 2 31.4224 94.5817 9.8605 0.0000 7.3391 0.0000
# 3 6.8534 9.8605 53.7402 0.0000 -6.5421 0.0000
# 4 0.0000 0.0000 0.0000 0.5730 0.0000 7.8402
# 5 7.4655 7.3391 -6.5421 0.0000 18.8581 0.0000
# 6 0.0000 0.0000 0.0000 7.8402 0.0000 21.2455
#
#
#
# Elastic Compliance Matrix: (Units=1/GPa)
#
#
# Indices 1 2 3 4 5 6 
#
# 1 0.048356 -0.014300 -0.005425 0.000000 -0.015460 0.000000
# 2 -0.014300 0.015498 -0.001112 0.000000 -0.000756 0.000000
# 3 -0.005425 -0.001112 0.020692 0.000000 0.009759 0.000000
# 4 0.000000 0.000000 0.000000 -0.430983 0.000000 0.159045
# 5 -0.015460 -0.000756 0.009759 0.000000 0.062828 0.000000
# 6 0.000000 0.000000 0.000000 0.159045 0.000000 -0.011623
#
#
# Mechanical properties :
#
#
# Convention : Reuss Voigt Hill
#
# Bulk Modulus (GPa) = 23.32507 30.85803 27.09155
# Shear Modulus (GPa) = -20.89720 17.02286 -1.93717
#
# Velocity S-wave (km/s) = -3.36247 3.03480 -1.02376
# Velocity P-wave (km/s) = 1.56690 5.38289 3.64145
#
# Compressibility (1/GPa) = 0.04287232
#
# Stress axis : x y z
#
# Youngs Moduli (GPa) = 20.67979 64.52312 48.32795
#
# Poissons Ratio (x) = 0.92268 0.26218
# Poissons Ratio (y) = 0.29572 0.05375
# Poissons Ratio (z) = 0.11219 0.07176
#
# Static dielectric constant tensor:
#      x y z
#    x 1.633040 0.000000 -0.003030 
#    y 0.000000 1.672440 0.000000 
#    z -0.003030 0.000000 1.636640 
# 
# From -- ./inp_files/182470.got.cif
#   From: 2010.05.17/outbox.cif.g08.bks.cpg/sg12_92_cif.got.tgz:182470.got - 2010.06.03 13:09:07.
