data_PCOD9185663
_publ_section_title
;
Structure prediction by ZEFSAII (Michael W. Deem and Ramdas Pophale) SiO2 
 PCOD9185663
Probable space group: C 2/M
;
_chemical_formula_sum "Si O2"
_cell_formula_units_Z 40
_cell_length_a 21.358169
_cell_length_b 23.206538
_cell_length_c 12.690378
_cell_angle_alpha 90.000000
_cell_angle_beta 163.625982
_cell_angle_gamma 90.000000
_cell_volume 1773.184305
_symmetry_space_group_name_H-M "C 2/M"
_symmetry_group_IT_number 12
_symmetry_cell_setting 'monoclinic'
loop_
_space_group_symop_operation_xyz
x,y,z
-x,y,-z
-x,-y,-z
x,-y,z
1/2+x,1/2+y,z
1/2-x,1/2+y,-z
1/2-x,1/2-y,-z
1/2+x,1/2-y,z
loop_
_atom_site_type_symbol
_atom_site_label
_atom_site_fract_x
_atom_site_fract_y
_atom_site_fract_z
Si Si1 0.669998 0.183066 0.870170
Si Si2 0.633384 0.320219 0.373294
Si Si3 0.761762 0.063291 0.425527
Si Si4 0.565050 0.794553 0.938501
Si Si5 0.574333 0.562551 0.738954
O O1 0.500000 0.182700 0.500000
O O2 0.600787 0.178018 0.882094
O O3 0.750000 0.250000 0.000000
O O4 0.813687 0.125804 0.074253
O O5 0.589688 0.387028 0.283392
O O6 0.433070 0.275504 0.056446
O O7 0.817016 0.305762 0.581268
O O8 0.760501 0.314136 0.691200
O O9 0.859377 0.061491 0.466172
O O10 0.781354 0.000000 0.505396
O O11 0.500000 0.078372 0.000000
O O12 0.500000 0.559021 0.500000
O O13 0.693501 0.500000 0.956207
#
# Coordination Sequence:
#
# PCOD9185663 Si02
#       5
#     8   8   8   8   8
#     4  12  24  39  61  90 126 168 206 256 313 374
#     4  10  19  35  57  85 112 145 193 246 297 357
#     4  10  19  34  57  85 117 153 196 248 298 355
#     4  10  20  34  55  83 115 148 189 242 299 353
#     4  10  22  39  62  91 124 163 211 260 309 375
#
# _framework density 22.558285999999999
#
# number of rings (size 3 to 8) (size 9 to 14) (size 15 to 20)
#    0.000    1.600    2.000    4.200    0.000    0.400 
#    0.000    0.000    0.000    0.000    0.000   15.400 
#    0.000    0.000    0.000    0.000    0.000    0.000 
#
# Total GULP energy -111443.681188 kJ/mol
# GULP energy per Si atom -5572.184059 kJ/mol
# Density = 2.250694 g / cm^3
# Si number density = 22.558286 Si / 1000 Ang^3
#
#
#
# Elastic Constant Matrix: (Units=GPa)
#
#
# Indices 1 2 3 4 5 6 
#
# 1 135.4706 28.4974 39.5363 0.0000 1.2897 0.0000
# 2 28.4974 219.4248 44.9278 0.0000 14.8237 0.0000
# 3 39.5363 44.9278 52.4915 0.0000 -7.5376 0.0001
# 4 0.0000 0.0000 0.0000 27.4131 0.0000 12.0198
# 5 1.2897 14.8237 -7.5376 0.0000 22.7625 0.0001
# 6 0.0000 0.0000 0.0001 12.0198 0.0001 28.1302
#
#
#
# Elastic Compliance Matrix: (Units=1/GPa)
#
#
# Indices 1 2 3 4 5 6 
#
# 1 0.009754 0.000742 -0.008536 0.000000 -0.003863 0.000000
# 2 0.000742 0.006303 -0.006876 0.000000 -0.006424 0.000000
# 3 -0.008536 -0.006876 0.033679 0.000000 0.016114 0.000000
# 4 0.000000 0.000000 0.000000 0.044889 0.000000 -0.019181
# 5 -0.003863 -0.006424 0.016114 0.000000 0.053670 0.000000
# 6 0.000000 0.000000 0.000000 -0.019181 0.000000 0.043745
#
#
# Mechanical properties :
#
#
# Convention : Reuss Voigt Hill
#
# Bulk Modulus (GPa) = 49.03032 70.36775 59.69904
# Shear Modulus (GPa) = 21.91276 35.28953 28.60115
#
# Velocity S-wave (km/s) = 3.12008 3.95950 3.56459
# Velocity P-wave (km/s) = 5.89593 7.22254 6.59269
#
# Compressibility (1/GPa) = 0.02039554
#
# Stress axis : x y z
#
# Youngs Moduli (GPa) = 102.52670 158.65915 29.69205
#
# Poissons Ratio (x) = -0.11772 0.25345
# Poissons Ratio (y) = -0.07607 0.20416
# Poissons Ratio (z) = 0.87517 1.09092
#
# Static dielectric constant tensor:
#      x y z
#    x 1.846770 0.000000 0.040490 
#    y 0.000000 2.174710 0.000000 
#    z 0.040490 0.000000 1.821470 
# 
# From -- ./inp_files/170353.got.cif
#   From: 2010.05.17/outbox.cif.g08.bks.cpg/sg12_86_cif.got.tgz:170353.got - 2010.06.03 13:09:07.
