data_PCOD9185731
_publ_section_title
;
Structure prediction by ZEFSAII (Michael W. Deem and Ramdas Pophale) SiO2 
 PCOD9185731
Probable space group: C 2/M
;
_chemical_formula_sum "Si O2"
_cell_formula_units_Z 56
_cell_length_a 17.448302
_cell_length_b 13.995834
_cell_length_c 15.406196
_cell_angle_alpha 90.000000
_cell_angle_beta 137.836808
_cell_angle_gamma 90.000000
_cell_volume 2525.388153
_symmetry_space_group_name_H-M "C 2/M"
_symmetry_group_IT_number 12
_symmetry_cell_setting 'monoclinic'
loop_
_space_group_symop_operation_xyz
x,y,z
-x,y,-z
-x,-y,-z
x,-y,z
1/2+x,1/2+y,z
1/2-x,1/2+y,-z
1/2-x,1/2-y,-z
1/2+x,1/2-y,z
loop_
_atom_site_type_symbol
_atom_site_label
_atom_site_fract_x
_atom_site_fract_y
_atom_site_fract_z
Si Si1 0.775315 0.885287 0.130504
Si Si2 0.990872 0.888332 0.197185
Si Si3 0.590242 0.892174 0.716544
Si Si4 0.618902 0.288645 0.619930
Si Si5 0.652741 0.393242 0.093724
Si Si6 0.336600 0.259746 0.730452
Si Si7 0.473240 0.112448 0.142334
O O1 0.885616 0.852422 0.167466
O O2 0.804157 0.850796 0.250710
O O3 0.773020 0.000000 0.120906
O O4 0.650474 0.851111 0.995127
O O5 0.105896 0.827149 0.294015
O O6 0.010717 0.000000 0.232764
O O7 0.942817 0.880201 0.058543
O O8 0.580747 0.808015 0.639105
O O9 0.725511 0.891700 0.852804
O O10 0.525434 0.877301 0.752090
O O11 0.564585 0.000000 0.662160
O O12 0.500000 0.339522 0.500000
O O13 0.702926 0.264923 0.610699
O O14 0.641537 0.500000 0.122355
O O15 0.658538 0.317912 0.174942
O O16 0.421182 0.170166 0.807049
O O17 0.480897 0.000000 0.128248
#
# Coordination Sequence:
#
# PCOD9185731 Si02
#       7
#     8   8   8   8   8   8   8
#     4  10  22  40  63  86 117 159 194 236 289 351
#     4  10  19  34  57  90 121 146 185 232 291 359
#     4   9  18  37  63  88 117 154 189 233 292 353
#     4  11  26  43  58  82 116 161 208 240 280 343
#     4   9  17  31  53  86 124 151 177 223 291 361
#     4  11  23  33  57  88 120 154 187 240 303 339
#     4  10  21  38  61  93 123 148 189 238 299 362
#
# _framework density 22.174810000000001
#
# number of rings (size 3 to 8) (size 9 to 14) (size 15 to 20)
#    0.000    2.000    1.429    1.714    6.000    4.000 
#    0.000    4.286    0.000    3.429    0.000    0.000 
#    0.000    0.000    0.000    0.000    0.000    0.000 
#
# Total GULP energy -156435.094986 kJ/mol
# GULP energy per Si atom -5586.967678 kJ/mol
# Density = 2.212434 g / cm^3
# Si number density = 22.174810 Si / 1000 Ang^3
#
#
#
# Elastic Constant Matrix: (Units=GPa)
#
#
# Indices 1 2 3 4 5 6 
#
# 1 96.3681 36.5611 27.6471 0.0000 36.8395 0.0000
# 2 36.5611 62.3699 7.5026 0.0000 14.0368 0.0000
# 3 27.6471 7.5026 50.7806 0.0000 22.6442 0.0000
# 4 0.0000 0.0000 0.0000 8.0900 0.0000 0.9845
# 5 36.8395 14.0368 22.6442 0.0000 28.4114 0.0000
# 6 0.0000 0.0000 0.0000 0.9845 0.0000 36.0007
#
#
#
# Elastic Compliance Matrix: (Units=1/GPa)
#
#
# Indices 1 2 3 4 5 6 
#
# 1 0.023523 -0.007767 0.000358 0.000000 -0.026948 0.000000
# 2 -0.007767 0.020740 0.001928 0.000000 -0.001712 0.000000
# 3 0.000358 0.001928 0.030786 0.000000 -0.025953 0.000000
# 4 0.000000 0.000000 0.000000 0.124023 0.000000 -0.003392
# 5 -0.026948 -0.001712 -0.025953 0.000000 0.091671 0.000000
# 6 0.000000 0.000000 0.000000 -0.003392 0.000000 0.027870
#
#
# Mechanical properties :
#
#
# Convention : Reuss Voigt Hill
#
# Bulk Modulus (GPa) = 15.60406 39.21559 27.40982
# Shear Modulus (GPa) = 14.24756 23.68759 18.96758
#
# Velocity S-wave (km/s) = 2.53753 3.27191 2.92784
# Velocity P-wave (km/s) = 3.95443 5.65659 4.88029
#
# Compressibility (1/GPa) = 0.06408588
#
# Stress axis : x y z
#
# Youngs Moduli (GPa) = 42.51189 48.21635 32.48217
#
# Poissons Ratio (x) = 0.37450 -0.01162
# Poissons Ratio (y) = 0.33019 -0.06263
# Poissons Ratio (z) = -0.01520 -0.09296
#
# Static dielectric constant tensor:
#      x y z
#    x 1.861150 0.000000 0.032260 
#    y 0.000000 1.847700 0.000000 
#    z 0.032260 0.000000 1.815370 
# 
# From -- ./inp_files/277883.got.cif
#   From: 2010.05.17/outbox.cif.g08.bks.cpg/sg12_139_cif.got.tgz:277883.got - 2010.06.03 13:09:07.
