data_PCOD9185083
_publ_section_title
;
Structure prediction by ZEFSAII (Michael W. Deem and Ramdas Pophale) SiO2 
 PCOD9185083
Probable space group: C 2/M
;
_chemical_formula_sum "Si O2"
_cell_formula_units_Z 46
_cell_length_a 11.541051
_cell_length_b 18.664051
_cell_length_c 20.764358
_cell_angle_alpha 90.000000
_cell_angle_beta 151.557244
_cell_angle_gamma 90.000000
_cell_volume 2130.259844
_symmetry_space_group_name_H-M "C 2/M"
_symmetry_group_IT_number 12
_symmetry_cell_setting 'monoclinic'
loop_
_space_group_symop_operation_xyz
x,y,z
-x,y,-z
-x,-y,-z
x,-y,z
1/2+x,1/2+y,z
1/2-x,1/2+y,-z
1/2-x,1/2-y,-z
1/2+x,1/2-y,z
loop_
_atom_site_type_symbol
_atom_site_label
_atom_site_fract_x
_atom_site_fract_y
_atom_site_fract_z
Si Si1 0.592697 0.421701 0.877559
Si Si2 0.647489 0.644120 0.701836
Si Si3 0.844469 0.369740 0.120044
Si Si4 0.004878 0.000000 0.393613
Si Si5 0.500000 0.704916 0.500000
Si Si6 0.479318 0.277662 0.235213
Si Si7 0.000000 0.500000 0.000000
Si Si8 0.910178 0.500000 0.695435
O O1 0.460364 0.500000 0.807496
O O2 0.508064 0.348474 0.802717
O O3 0.636433 0.403136 0.973952
O O4 0.848015 0.439364 0.966867
O O5 0.922345 0.638779 0.813107
O O6 0.549626 0.567839 0.677391
O O7 0.493916 0.658392 0.561769
O O8 0.609853 0.701600 0.737699
O O9 0.815231 0.288831 0.130525
O O10 0.932591 0.428216 0.215668
O O11 0.793874 0.000000 0.346261
O O12 0.258750 0.000000 0.555312
O O13 0.254246 0.749146 0.374835
#
# Coordination Sequence:
#
# PCOD9185083 Si02
#       8
#     8   8   8   4   4   8   2   4
#     4  10  20  34  56  85 116 142 176 234 286 341
#     4  10  20  33  56  83 115 145 183 239 283 335
#     4  10  19  34  55  85 116 147 182 230 287 337
#     4   9  16  26  51  79 110 132 179 218 292 323
#     4  10  22  39  51  78 114 154 194 230 268 338
#     4  11  22  34  56  82 116 151 191 225 287 330
#     4   8  18  32  58  84 114 126 176 236 294 324
#     4   9  15  30  50  79 107 145 167 226 275 333
#
# _framework density 21.593609000000001
#
# number of rings (size 3 to 8) (size 9 to 14) (size 15 to 20)
#    0.522    1.565    0.870    5.217    1.217    0.000 
#    0.000    0.435    0.000    0.000    9.043    4.870 
#    0.000    0.000    0.000    0.000    0.000    0.000 
#
# Total GULP energy -128065.896687 kJ/mol
# GULP energy per Si atom -5568.082465 kJ/mol
# Density = 2.154446 g / cm^3
# Si number density = 21.593609 Si / 1000 Ang^3
#
#
#
# Elastic Constant Matrix: (Units=GPa)
#
#
# Indices 1 2 3 4 5 6 
#
# 1 20.0958 23.1979 10.1676 -0.0022 -7.9711 -0.0026
# 2 23.1979 164.7285 26.9270 0.0042 -14.7729 -0.0031
# 3 10.1676 26.9270 35.9503 0.0158 -12.4227 -0.0028
# 4 -0.0022 0.0042 0.0158 27.6350 0.0017 -0.4438
# 5 -7.9711 -14.7729 -12.4227 0.0017 20.3036 -0.0005
# 6 -0.0026 -0.0031 -0.0028 -0.4438 -0.0005 24.4546
#
#
#
# Elastic Compliance Matrix: (Units=1/GPa)
#
#
# Indices 1 2 3 4 5 6 
#
# 1 0.068522 -0.006752 -0.008527 0.000011 0.016772 0.000006
# 2 -0.006752 0.007673 -0.003582 0.000000 0.000741 0.000000
# 3 -0.008527 -0.003582 0.039125 -0.000024 0.017985 0.000003
# 4 0.000011 0.000000 -0.000024 0.036197 -0.000013 0.000657
# 5 0.016772 0.000741 0.017985 -0.000013 0.067380 0.000005
# 6 0.000006 0.000000 0.000003 0.000657 0.000005 0.040904
#
#
# Mechanical properties :
#
#
# Convention : Reuss Voigt Hill
#
# Bulk Modulus (GPa) = 12.88666 37.92886 25.40776
# Shear Modulus (GPa) = 15.46122 25.17744 20.31933
#
# Velocity S-wave (km/s) = 2.67874 3.41833 3.07088
# Velocity P-wave (km/s) = 3.94313 5.76047 4.93615
#
# Compressibility (1/GPa) = 0.07759965
#
# Stress axis : x y z
#
# Youngs Moduli (GPa) = 14.59375 130.32129 25.55888
#
# Poissons Ratio (x) = 0.87989 0.21795
# Poissons Ratio (y) = 0.09853 0.09155
# Poissons Ratio (z) = 0.12444 0.46679
#
# Static dielectric constant tensor:
#      x y z
#    x 1.768420 0.000000 -0.018890 
#    y 0.000000 1.834710 0.000000 
#    z -0.018890 0.000000 1.824540 
# 
# From -- ./inp_files/340434.got.cif
#   From: 2010.05.17/outbox.cif.g08.bks.cpg/sg12_171_cif.got.tgz:340434.got - 2010.06.03 13:09:07.
