data_PCOD9185682
_publ_section_title
;
Structure prediction by ZEFSAII (Michael W. Deem and Ramdas Pophale) SiO2 
 PCOD9185682
Probable space group: C 2/M
;
_chemical_formula_sum "Si O2"
_cell_formula_units_Z 48
_cell_length_a 20.798650
_cell_length_b 14.268113
_cell_length_c 11.726630
_cell_angle_alpha 90.000000
_cell_angle_beta 40.012851
_cell_angle_gamma 90.000000
_cell_volume 2237.476419
_symmetry_space_group_name_H-M "C 2/M"
_symmetry_group_IT_number 12
_symmetry_cell_setting 'monoclinic'
loop_
_space_group_symop_operation_xyz
x,y,z
-x,y,-z
-x,-y,-z
x,-y,z
1/2+x,1/2+y,z
1/2-x,1/2+y,-z
1/2-x,1/2-y,-z
1/2+x,1/2-y,z
loop_
_atom_site_type_symbol
_atom_site_label
_atom_site_fract_x
_atom_site_fract_y
_atom_site_fract_z
Si Si1 0.488471 0.891335 0.142203
Si Si2 0.740644 0.267307 0.256060
Si Si3 0.241428 0.358227 0.541009
Si Si4 0.823109 0.390543 0.964446
Si Si5 0.381847 0.396420 0.146792
Si Si6 0.615510 0.104129 0.375500
O O1 0.371769 0.887783 0.331014
O O2 0.568669 0.860446 0.127837
O O3 0.514610 0.000000 0.093668
O O4 0.500000 0.847087 0.000000
O O5 0.744384 0.352575 0.342180
O O6 0.830503 0.191666 0.153316
O O7 0.647450 0.197021 0.398797
O O8 0.747216 0.319195 0.126626
O O9 0.250000 0.250000 0.500000
O O10 0.325303 0.401326 0.346106
O O11 0.803957 0.500000 0.019842
O O12 0.827262 0.388089 0.822765
O O13 0.367673 0.500000 0.111217
O O14 0.500000 0.382145 0.000000
O O15 0.500000 0.105543 0.500000
O O16 0.635262 0.000000 0.400166
#
# Coordination Sequence:
#
# PCOD9185682 Si02
#       6
#     8   8   8   8   8   8
#     4  10  19  34  57  86 117 150 188 241 302 353
#     4  11  22  37  63  86 119 156 199 249 296 355
#     4  10  22  32  54  85 117 155 191 237 292 351
#     4  10  22  37  60  88 118 155 197 248 301 351
#     4  10  23  39  56  84 124 164 198 237 295 364
#     4  10  23  41  60  86 118 157 204 250 296 349
#
# _framework density 21.452739999999999
#
# number of rings (size 3 to 8) (size 9 to 14) (size 15 to 20)
#    0.000    1.833    1.667    1.500    9.333    0.667 
#    0.000    0.000    0.000    0.500    0.000    0.000 
#    0.000    0.000    0.000    0.000    0.000    0.000 
#
# Total GULP energy -133784.000033 kJ/mol
# GULP energy per Si atom -5574.333335 kJ/mol
# Density = 2.140391 g / cm^3
# Si number density = 21.452740 Si / 1000 Ang^3
#
#
#
# Elastic Constant Matrix: (Units=GPa)
#
#
# Indices 1 2 3 4 5 6 
#
# 1 41.3043 7.7072 1.5581 0.0000 -8.3184 0.0000
# 2 7.7072 98.3643 13.4327 0.0000 2.1203 0.0000
# 3 1.5581 13.4327 77.3355 0.0000 -3.8421 0.0000
# 4 0.0000 0.0000 0.0000 25.9342 0.0000 -9.0237
# 5 -8.3184 2.1203 -3.8421 0.0000 41.4182 0.0000
# 6 0.0000 0.0000 0.0000 -9.0237 0.0000 39.0006
#
#
#
# Elastic Compliance Matrix: (Units=1/GPa)
#
#
# Indices 1 2 3 4 5 6 
#
# 1 0.025668 -0.002141 0.000117 0.000000 0.005276 0.000000
# 2 -0.002141 0.010612 -0.001857 0.000000 -0.001145 0.000000
# 3 0.000117 -0.001857 0.013318 0.000000 0.001354 0.000000
# 4 0.000000 0.000000 0.000000 0.041935 0.000000 0.009703
# 5 0.005276 -0.001145 0.001354 0.000000 0.025388 0.000000
# 6 0.000000 0.000000 0.000000 0.009703 0.000000 0.027886
#
#
# Mechanical properties :
#
#
# Convention : Reuss Voigt Hill
#
# Bulk Modulus (GPa) = 23.90268 29.15556 26.52912
# Shear Modulus (GPa) = 30.02740 34.22435 32.12588
#
# Velocity S-wave (km/s) = 3.74532 3.99850 3.87398
# Velocity P-wave (km/s) = 5.46529 5.91079 5.69240
#
# Compressibility (1/GPa) = 0.04183632
#
# Stress axis : x y z
#
# Youngs Moduli (GPa) = 38.95893 94.23009 75.08549
#
# Poissons Ratio (x) = 0.20173 -0.00877
# Poissons Ratio (y) = 0.08341 0.13944
# Poissons Ratio (z) = -0.00455 0.17499
#
# Static dielectric constant tensor:
#      x y z
#    x 1.894210 0.000000 0.066890 
#    y 0.000000 1.803700 0.000000 
#    z 0.066890 0.000000 1.833990 
# 
# From -- ./inp_files/143540.got.cif
#   From: 2010.05.17/outbox.cif.g08.bks.cpg/sg12_72_cif.got.tgz:143540.got - 2010.06.03 13:09:07.
