data_PCOD9185428
_publ_section_title
;
Structure prediction by ZEFSAII (Michael W. Deem and Ramdas Pophale) SiO2 
 PCOD9185428
Probable space group: C 2/M
;
_chemical_formula_sum "Si O2"
_cell_formula_units_Z 64
_cell_length_a 20.233374
_cell_length_b 7.330209
_cell_length_c 19.510092
_cell_angle_alpha 90.000000
_cell_angle_beta 79.068134
_cell_angle_gamma 90.000000
_cell_volume 2841.126880
_symmetry_space_group_name_H-M "C 2/M"
_symmetry_group_IT_number 12
_symmetry_cell_setting 'monoclinic'
loop_
_space_group_symop_operation_xyz
x,y,z
-x,y,-z
-x,-y,-z
x,-y,z
1/2+x,1/2+y,z
1/2-x,1/2+y,-z
1/2-x,1/2-y,-z
1/2+x,1/2-y,z
loop_
_atom_site_type_symbol
_atom_site_label
_atom_site_fract_x
_atom_site_fract_y
_atom_site_fract_z
Si Si1 0.578608 0.721766 0.761753
Si Si2 0.796416 0.723627 0.621466
Si Si3 0.069778 0.219943 0.176175
Si Si4 0.837038 0.777966 0.120873
Si Si5 0.348174 0.720690 0.391920
Si Si6 0.924923 0.290010 0.515665
Si Si7 0.428567 0.722408 0.981047
Si Si8 0.208356 0.712700 0.222265
O O1 0.579364 0.500000 0.760966
O O2 0.501316 0.781681 0.779016
O O3 0.614952 0.774743 0.825131
O O4 0.618737 0.779610 0.686488
O O5 0.797744 0.500000 0.620286
O O6 0.729970 0.778044 0.592331
O O7 0.866873 0.788372 0.576177
O O8 0.787456 0.785993 0.701569
O O9 0.076823 0.282957 0.096237
O O10 0.133767 0.272799 0.207978
O O11 0.067714 0.000000 0.175031
O O12 0.762880 0.714722 0.157393
O O13 0.837460 0.000000 0.117044
O O14 0.868953 0.716410 0.043126
O O15 0.349435 0.500000 0.393420
O O16 0.391922 0.785925 0.447024
O O17 0.933587 0.500000 0.536549
O O18 0.000000 0.208869 0.500000
O O19 0.428428 0.500000 0.980007
O O20 0.500000 0.775963 0.000000
O O21 0.225979 0.500000 0.226543
#
# Coordination Sequence:
#
# PCOD9185428 Si02
#       8
#     8   8   8   8   8   8   8   8
#     4   9  16  29  51  77 100 125 167 217 251 282
#     4   9  18  35  56  74  97 134 174 206 241 294
#     4  10  20  32  49  77 107 130 161 212 261 294
#     4   9  15  28  51  76  98 129 175 212 240 289
#     4  10  19  34  57  79  98 127 171 216 249 284
#     4  10  22  37  52  75 107 137 163 198 249 307
#     4   9  15  26  48  76 101 128 168 214 252 289
#     4  10  20  34  53  75 102 136 170 203 246 304
#
# _framework density 22.526271000000001
#
# number of rings (size 3 to 8) (size 9 to 14) (size 15 to 20)
#    0.000    2.500    2.500    0.375    1.750    0.750 
#    0.000    1.250    0.000    1.125    0.000    0.000 
#    0.000    0.000    0.000    0.000    0.000    0.000 
#
# Total GULP energy -178802.384054 kJ/mol
# GULP energy per Si atom -5587.574502 kJ/mol
# Density = 2.247500 g / cm^3
# Si number density = 22.526271 Si / 1000 Ang^3
#
#
#
# Elastic Constant Matrix: (Units=GPa)
#
#
# Indices 1 2 3 4 5 6 
#
# 1 168.2524 -2.2212 46.1205 0.0000 -25.8635 0.0000
# 2 -2.2212 85.8784 1.1575 0.0000 -7.7676 0.0000
# 3 46.1205 1.1575 94.9065 0.0000 -24.2918 0.0000
# 4 0.0000 0.0000 0.0000 0.8649 0.0000 6.6916
# 5 -25.8635 -7.7676 -24.2918 0.0000 46.1212 0.0000
# 6 0.0000 0.0000 0.0000 6.6916 0.0000 11.8671
#
#
#
# Elastic Compliance Matrix: (Units=1/GPa)
#
#
# Indices 1 2 3 4 5 6 
#
# 1 0.007115 0.000456 -0.002800 0.000000 0.002592 0.000000
# 2 0.000456 0.011868 0.000243 0.000000 0.002383 0.000000
# 3 -0.002800 0.000243 0.013295 0.000000 0.005473 0.000000
# 4 0.000000 0.000000 0.000000 -0.343838 0.000000 0.193884
# 5 0.002592 0.002383 0.005473 0.000000 0.026420 0.000000
# 6 0.000000 0.000000 0.000000 0.193884 0.000000 -0.025061
#
#
# Mechanical properties :
#
#
# Convention : Reuss Voigt Hill
#
# Bulk Modulus (GPa) = 35.61395 48.79452 42.20423
# Shear Modulus (GPa) = -16.85548 32.03601 7.59027
#
# Velocity S-wave (km/s) = -2.73840 3.77525 1.83762
# Velocity P-wave (km/s) = 2.41782 6.38056 4.82480
#
# Compressibility (1/GPa) = 0.02807889
#
# Stress axis : x y z
#
# Youngs Moduli (GPa) = 140.53937 84.25713 75.21457
#
# Poissons Ratio (x) = -0.03844 0.21059
# Poissons Ratio (y) = -0.06412 -0.01831
# Poissons Ratio (z) = 0.39349 -0.02051
#
# Static dielectric constant tensor:
#      x y z
#    x 1.792920 0.000000 -0.038510 
#    y 0.000000 1.871980 0.000000 
#    z -0.038510 0.000000 1.792110 
# 
# From -- ./inp_files/276486.got.cif
#   From: 2010.05.17/outbox.cif.g08.bks.cpg/sg12_139_cif.got.tgz:276486.got - 2010.06.03 13:09:07.
