data_PCOD9185087
_publ_section_title
;
Structure prediction by ZEFSAII (Michael W. Deem and Ramdas Pophale) SiO2 
 PCOD9185087
Probable space group: C 2/M
;
_chemical_formula_sum "Si O2"
_cell_formula_units_Z 56
_cell_length_a 14.804885
_cell_length_b 18.249077
_cell_length_c 11.875342
_cell_angle_alpha 90.000000
_cell_angle_beta 56.027824
_cell_angle_gamma 90.000000
_cell_volume 2660.776904
_symmetry_space_group_name_H-M "C 2/M"
_symmetry_group_IT_number 12
_symmetry_cell_setting 'monoclinic'
loop_
_space_group_symop_operation_xyz
x,y,z
-x,y,-z
-x,-y,-z
x,-y,z
1/2+x,1/2+y,z
1/2-x,1/2+y,-z
1/2-x,1/2-y,-z
1/2+x,1/2-y,z
loop_
_atom_site_type_symbol
_atom_site_label
_atom_site_fract_x
_atom_site_fract_y
_atom_site_fract_z
Si Si1 0.480084 0.920897 0.148537
Si Si2 0.891494 0.082565 0.404129
Si Si3 0.629539 0.713779 0.414901
Si Si4 0.887781 0.834889 0.814775
Si Si5 0.282174 0.085303 0.903741
Si Si6 0.761653 0.150825 0.308270
Si Si7 0.956800 0.735198 0.156155
O O1 0.597677 0.913214 0.125905
O O2 0.418301 0.845682 0.218745
O O3 0.431312 0.000000 0.215217
O O4 0.500000 0.923435 0.000000
O O5 0.851718 0.144877 0.517770
O O6 0.808768 0.089037 0.357211
O O7 0.013973 0.108148 0.282781
O O8 0.894822 0.000000 0.446404
O O9 0.500000 0.722002 0.500000
O O10 0.666369 0.692642 0.263090
O O11 0.676672 0.791553 0.419824
O O12 0.947778 0.766052 0.830955
O O13 0.801210 0.870612 0.958802
O O14 0.279999 0.118998 0.780393
O O15 0.248174 0.000000 0.922368
O O16 0.864561 0.204097 0.218577
O O17 0.000000 0.729239 0.000000
#
# Coordination Sequence:
#
# PCOD9185087 Si02
#       7
#     8   8   8   8   8   8   8
#     4   9  20  35  50  74 120 164 193 228 273 344
#     4  10  22  41  61  85 122 157 198 251 300 349
#     4  10  23  40  61  85 115 158 214 250 284 340
#     4  10  21  35  59  93 122 158 191 244 301 359
#     4  11  22  36  59  93 125 155 194 238 305 371
#     4  11  22  38  64  90 119 157 196 248 302 354
#     4  10  19  34  55  87 125 154 189 232 293 364
#
# _framework density 21.046485000000001
#
# number of rings (size 3 to 8) (size 9 to 14) (size 15 to 20)
#    0.000    1.857    1.429    2.143    4.000    4.286 
#    0.000    2.857    0.000    3.429    0.000    0.000 
#    0.000    0.000    0.000    0.000    0.000    0.000 
#
# Total GULP energy -156387.035552 kJ/mol
# GULP energy per Si atom -5585.251270 kJ/mol
# Density = 2.099858 g / cm^3
# Si number density = 21.046485 Si / 1000 Ang^3
#
#
#
# Elastic Constant Matrix: (Units=GPa)
#
#
# Indices 1 2 3 4 5 6 
#
# 1 66.6912 1.0883 1.3768 0.0000 18.7333 0.0000
# 2 1.0883 108.5563 -2.3096 0.0000 -4.1304 0.0000
# 3 1.3768 -2.3096 28.8870 0.0000 6.7769 0.0000
# 4 0.0000 0.0000 0.0000 23.2148 0.0000 5.6036
# 5 18.7333 -4.1304 6.7769 0.0000 19.9754 0.0000
# 6 0.0000 0.0000 0.0000 5.6036 0.0000 23.6358
#
#
#
# Elastic Compliance Matrix: (Units=1/GPa)
#
#
# Indices 1 2 3 4 5 6 
#
# 1 0.020843 -0.000928 0.003871 0.000000 -0.021052 0.000000
# 2 -0.000928 0.009329 0.000145 0.000000 0.002750 0.000000
# 3 0.003871 0.000145 0.038341 0.000000 -0.016608 0.000000
# 4 0.000000 0.000000 0.000000 0.045691 0.000000 -0.010832
# 5 -0.021052 0.002750 -0.016608 0.000000 0.076008 0.000000
# 6 0.000000 0.000000 0.000000 -0.010832 0.000000 0.044877
#
#
# Mechanical properties :
#
#
# Convention : Reuss Voigt Hill
#
# Bulk Modulus (GPa) = 13.38862 22.71617 18.05239
# Shear Modulus (GPa) = 19.69993 26.96380 23.33187
#
# Velocity S-wave (km/s) = 3.06276 3.58321 3.33316
# Velocity P-wave (km/s) = 4.34541 5.28544 4.83831
#
# Compressibility (1/GPa) = 0.07469028
#
# Stress axis : x y z
#
# Youngs Moduli (GPa) = 47.97722 107.19470 26.08178
#
# Poissons Ratio (x) = 0.09943 -0.10097
# Poissons Ratio (y) = 0.04450 -0.00378
# Poissons Ratio (z) = -0.18573 -0.01554
#
# Static dielectric constant tensor:
#      x y z
#    x 1.706080 0.000000 0.074020 
#    y 0.000000 1.769120 0.000000 
#    z 0.074020 0.000000 1.672920 
# 
# From -- ./inp_files/146037.got.cif
#   From: 2010.05.17/outbox.cif.g08.bks.cpg/sg12_74_cif.got.tgz:146037.got - 2010.06.03 13:09:07.
