data_PCOD9185866
_publ_section_title
;
Structure prediction by ZEFSAII (Michael W. Deem and Ramdas Pophale) SiO2 
 PCOD9185866
Probable space group: C 2/M
;
_chemical_formula_sum "Si O2"
_cell_formula_units_Z 44
_cell_length_a 8.519546
_cell_length_b 16.572088
_cell_length_c 15.273893
_cell_angle_alpha 90.000000
_cell_angle_beta 78.878219
_cell_angle_gamma 90.000000
_cell_volume 2115.970242
_symmetry_space_group_name_H-M "C 2/M"
_symmetry_group_IT_number 12
_symmetry_cell_setting 'monoclinic'
loop_
_space_group_symop_operation_xyz
x,y,z
-x,y,-z
-x,-y,-z
x,-y,z
1/2+x,1/2+y,z
1/2-x,1/2+y,-z
1/2-x,1/2-y,-z
1/2+x,1/2-y,z
loop_
_atom_site_type_symbol
_atom_site_label
_atom_site_fract_x
_atom_site_fract_y
_atom_site_fract_z
Si Si1 0.861904 0.500000 0.754621
Si Si2 0.575613 0.269738 0.838796
Si Si3 0.192654 0.000000 0.961502
Si Si4 0.246271 0.166296 0.053944
Si Si5 0.684521 0.173744 0.456230
Si Si6 0.311661 0.000000 0.552960
Si Si7 0.106610 0.327386 0.264577
O O1 0.746228 0.500000 0.852715
O O2 0.792484 0.500000 0.661807
O O3 0.958797 0.416910 0.743092
O O4 0.615043 0.188448 0.890584
O O5 0.434535 0.326999 0.888148
O O6 0.741982 0.315845 0.815425
O O7 0.519585 0.238702 0.750405
O O8 0.259243 0.082104 0.001283
O O9 0.000000 0.000000 0.000000
O O10 0.250000 0.250000 0.000000
O O11 0.500000 0.167607 0.500000
O O12 0.750000 0.250000 0.500000
O O13 0.676425 0.183668 0.352997
O O14 0.758299 0.085798 0.470131
O O15 0.500000 0.000000 0.500000
#
# Coordination Sequence:
#
# PCOD9185866 Si02
#       7
#     4   8   4   8   8   4   8
#     4  10  20  33  54  80 108 144 186 226 275 336
#     4  10  21  37  55  76 110 151 188 233 281 326
#     4  12  22  35  57  84 114 153 193 237 288 335
#     4  11  22  37  55  78 109 147 191 235 279 328
#     4  10  19  34  58  85 110 143 182 227 286 347
#     4   8  18  36  56  80 112 145 180 223 279 343
#     4  10  20  36  56  80 109 143 186 233 279 337
#
# _framework density 20.794242000000001
#
# number of rings (size 3 to 8) (size 9 to 14) (size 15 to 20)
#    0.000    1.818    0.000    6.000    0.000    0.727 
#    0.000    3.182    0.000    5.455    0.000    0.000 
#    0.000    0.000    0.000    0.000    0.000    0.000 
#
# Total GULP energy -122471.829025 kJ/mol
# GULP energy per Si atom -5566.901319 kJ/mol
# Density = 2.074691 g / cm^3
# Si number density = 20.794242 Si / 1000 Ang^3
#
#
#
# Elastic Constant Matrix: (Units=GPa)
#
#
# Indices 1 2 3 4 5 6 
#
# 1 37.0537 21.3566 8.2895 0.0000 1.1563 0.0000
# 2 21.3566 184.2193 53.0227 0.0000 22.5850 0.0000
# 3 8.2895 53.0227 96.4554 0.0000 -0.9268 0.0000
# 4 0.0000 0.0000 0.0000 -1.3847 0.0000 -4.5385
# 5 1.1563 22.5850 -0.9268 0.0000 28.0899 0.0000
# 6 0.0000 0.0000 0.0000 -4.5385 0.0000 18.3676
#
#
#
# Elastic Compliance Matrix: (Units=1/GPa)
#
#
# Indices 1 2 3 4 5 6 
#
# 1 0.029022 -0.003366 -0.000629 0.000000 0.001491 0.000000
# 2 -0.003366 0.007739 -0.004025 0.000000 -0.006217 0.000000
# 3 -0.000629 -0.004025 0.012669 0.000000 0.003680 0.000000
# 4 0.000000 0.000000 0.000000 -0.399019 0.000000 -0.098595
# 5 0.001491 -0.006217 0.003680 0.000000 0.040658 0.000000
# 6 0.000000 0.000000 0.000000 -0.098595 0.000000 0.030081
#
#
# Mechanical properties :
#
#
# Convention : Reuss Voigt Hill
#
# Bulk Modulus (GPa) = 29.94900 53.67400 41.81150
# Shear Modulus (GPa) = -19.86668 24.68521 2.40926
#
# Velocity S-wave (km/s) = -3.09430 3.44919 1.07756
# Velocity P-wave (km/s) = 1.29135 6.45992 4.65823
#
# Compressibility (1/GPa) = 0.03339009
#
# Stress axis : x y z
#
# Youngs Moduli (GPa) = 34.45623 129.21365 78.93052
#
# Poissons Ratio (x) = 0.43496 0.04968
# Poissons Ratio (y) = 0.11599 0.31767
# Poissons Ratio (z) = 0.02169 0.52005
#
# Static dielectric constant tensor:
#      x y z
#    x 1.794920 0.000000 0.020850 
#    y 0.000000 1.807750 0.000000 
#    z 0.020850 0.000000 1.831360 
# 
# From -- ./inp_files/195479.got.cif
#   From: 2010.05.17/outbox.cif.g08.bks.cpg/sg12_98_cif.got.tgz:195479.got - 2010.06.03 13:09:07.
