data_PCOD9185543
_publ_section_title
;
Structure prediction by ZEFSAII (Michael W. Deem and Ramdas Pophale) SiO2 
 PCOD9185543
Probable space group: C 2/M
;
_chemical_formula_sum "Si O2"
_cell_formula_units_Z 64
_cell_length_a 33.270281
_cell_length_b 8.925292
_cell_length_c 12.398043
_cell_angle_alpha 90.000000
_cell_angle_beta 91.054352
_cell_angle_gamma 90.000000
_cell_volume 3680.938011
_symmetry_space_group_name_H-M "C 2/M"
_symmetry_group_IT_number 12
_symmetry_cell_setting 'monoclinic'
loop_
_space_group_symop_operation_xyz
x,y,z
-x,y,-z
-x,-y,-z
x,-y,z
1/2+x,1/2+y,z
1/2-x,1/2+y,-z
1/2-x,1/2-y,-z
1/2+x,1/2-y,z
loop_
_atom_site_type_symbol
_atom_site_label
_atom_site_fract_x
_atom_site_fract_y
_atom_site_fract_z
Si Si1 0.143819 0.679854 0.642780
Si Si2 0.438776 0.178533 0.756509
Si Si3 0.736590 0.180417 0.612589
Si Si4 0.383715 0.321664 0.579515
Si Si5 0.394210 0.320644 0.146099
Si Si6 0.988042 0.179840 0.121663
Si Si7 0.312986 0.321229 0.748304
Si Si8 0.367894 0.821760 0.923672
O O1 0.141089 0.500000 0.644117
O O2 0.190987 0.722245 0.637549
O O3 0.122382 0.743685 0.535223
O O4 0.124500 0.747892 0.748747
O O5 0.420776 0.256359 0.649585
O O6 0.481632 0.240597 0.795204
O O7 0.407044 0.213046 0.851464
O O8 0.439577 0.000000 0.742337
O O9 0.750000 0.250000 0.500000
O O10 0.768991 0.224194 0.705188
O O11 0.738578 0.000000 0.602995
O O12 0.387553 0.500000 0.566936
O O13 0.344156 0.292252 0.651434
O O14 0.390577 0.500000 0.149891
O O15 0.441614 0.283120 0.139832
O O16 0.372989 0.258604 0.037763
O O17 0.993035 0.000000 0.131002
O O18 0.000000 0.222734 0.000000
O O19 0.313665 0.500000 0.768654
O O20 0.330188 0.236354 0.852570
O O21 0.365886 0.000000 0.937966
#
# Coordination Sequence:
#
# PCOD9185543 Si02
#       8
#     8   8   8   8   8   8   8   8
#     4  11  23  38  57  83 118 151 185 232 283 334
#     4  10  20  33  55  86 117 145 180 231 285 331
#     4  10  20  35  57  85 114 146 187 234 278 327
#     4  10  19  34  57  82 113 150 188 228 275 333
#     4  11  23  39  59  81 112 152 190 228 277 339
#     4  10  20  36  58  84 111 143 188 235 277 329
#     4   9  18  33  55  83 112 144 185 230 275 326
#     4  10  20  34  54  83 115 146 183 228 281 332
#
# _framework density 17.386872
#
# number of rings (size 3 to 8) (size 9 to 14) (size 15 to 20)
#    0.000    1.875    2.500    1.875    0.000    3.750 
#    0.000    1.250    0.000    3.750    0.000    0.000 
#    0.000    0.000    0.000    0.000    0.000    0.000 
#
# Total GULP energy -178700.163734 kJ/mol
# GULP energy per Si atom -5584.380117 kJ/mol
# Density = 1.734730 g / cm^3
# Si number density = 17.386872 Si / 1000 Ang^3
#
#
#
# Elastic Constant Matrix: (Units=GPa)
#
#
# Indices 1 2 3 4 5 6 
#
# 1 118.3376 52.5518 93.8636 0.0000 15.0966 0.0000
# 2 52.5518 51.3777 72.3038 0.0000 4.3484 0.0000
# 3 93.8636 72.3038 162.6813 0.0000 17.6534 0.0000
# 4 0.0000 0.0000 0.0000 34.9539 0.0000 3.2438
# 5 15.0966 4.3484 17.6534 0.0000 31.9274 0.0000
# 6 0.0000 0.0000 0.0000 3.2438 0.0000 24.2783
#
#
#
# Elastic Compliance Matrix: (Units=1/GPa)
#
#
# Indices 1 2 3 4 5 6 
#
# 1 0.017709 -0.010725 -0.005001 0.000000 -0.004148 0.000000
# 2 -0.010725 0.059589 -0.021240 0.000000 0.008700 0.000000
# 3 -0.005001 -0.021240 0.019045 0.000000 -0.005273 0.000000
# 4 0.000000 0.000000 0.000000 0.028968 0.000000 -0.003870
# 5 -0.004148 0.008700 -0.005273 0.000000 0.035013 0.000000
# 6 0.000000 0.000000 0.000000 -0.003870 0.000000 0.041706
#
#
# Mechanical properties :
#
#
# Convention : Reuss Voigt Hill
#
# Bulk Modulus (GPa) = 44.62194 85.53721 65.07957
# Shear Modulus (GPa) = 17.64089 25.81040 21.72565
#
# Velocity S-wave (km/s) = 3.18875 3.85707 3.53872
# Velocity P-wave (km/s) = 6.26717 8.31500 7.36263
#
# Compressibility (1/GPa) = 0.02241050
#
# Stress axis : x y z
#
# Youngs Moduli (GPa) = 56.46893 16.78167 52.50731
#
# Poissons Ratio (x) = 0.17998 0.26259
# Poissons Ratio (y) = 0.60561 1.11528
# Poissons Ratio (z) = 0.28240 0.35645
#
# Static dielectric constant tensor:
#      x y z
#    x 1.583890 0.000000 0.003930 
#    y 0.000000 1.576470 0.000000 
#    z 0.003930 0.000000 1.558100 
# 
# From -- ./inp_files/187451.got.cif
#   From: 2010.05.17/outbox.cif.g08.bks.cpg/sg12_94_cif.got.tgz:187451.got - 2010.06.03 13:09:07.
