data_PCOD9185876
_publ_section_title
;
Structure prediction by ZEFSAII (Michael W. Deem and Ramdas Pophale) SiO2 
 PCOD9185876
Probable space group: C 2/M
;
_chemical_formula_sum "Si O2"
_cell_formula_units_Z 40
_cell_length_a 17.967513
_cell_length_b 9.840349
_cell_length_c 21.068539
_cell_angle_alpha 90.000000
_cell_angle_beta 30.968429
_cell_angle_gamma 90.000000
_cell_volume 1916.786351
_symmetry_space_group_name_H-M "C 2/M"
_symmetry_group_IT_number 12
_symmetry_cell_setting 'monoclinic'
loop_
_space_group_symop_operation_xyz
x,y,z
-x,y,-z
-x,-y,-z
x,-y,z
1/2+x,1/2+y,z
1/2-x,1/2+y,-z
1/2-x,1/2-y,-z
1/2+x,1/2-y,z
loop_
_atom_site_type_symbol
_atom_site_label
_atom_site_fract_x
_atom_site_fract_y
_atom_site_fract_z
Si Si1 0.174812 0.160454 0.365105
Si Si2 0.885063 0.846230 0.905187
Si Si3 0.962591 0.144433 0.341715
Si Si4 0.333086 0.150406 0.513930
Si Si5 0.900042 0.838153 0.135121
O O1 0.221522 0.244302 0.393571
O O2 0.261110 0.240009 0.246219
O O3 0.000000 0.171795 0.500000
O O4 0.210666 0.000000 0.339372
O O5 0.955604 0.843809 0.784058
O O6 0.997713 0.812227 0.878397
O O7 0.837168 0.000000 0.953487
O O8 0.750000 0.750000 0.000000
O O9 0.795530 0.133347 0.442482
O O10 0.967462 0.276512 0.381584
O O11 0.003243 0.000000 0.344134
O O12 0.364943 0.000000 0.516808
O O13 0.860459 0.000000 0.164409
O O14 0.000000 0.813116 0.000000
#
# Coordination Sequence:
#
# PCOD9185876 Si02
#       5
#     8   8   8   8   8
#     4  11  24  40  60  89 125 161 203 255 311 371
#     4  10  21  38  59  88 122 158 201 250 303 363
#     4   9  18  34  55  82 117 148 184 238 294 350
#     4  10  19  34  58  85 113 147 191 238 292 355
#     4  10  22  43  67  90 122 163 212 264 310 367
#
# _framework density 20.868262999999999
#
# number of rings (size 3 to 8) (size 9 to 14) (size 15 to 20)
#    0.000    2.000    2.000    1.200    0.000    6.000 
#    0.000    4.000    0.000    0.000    0.000    0.000 
#    0.000    0.000    0.000    0.000    0.000    0.000 
#
# Total GULP energy -111462.700263 kJ/mol
# GULP energy per Si atom -5573.135013 kJ/mol
# Density = 2.082077 g / cm^3
# Si number density = 20.868263 Si / 1000 Ang^3
#
#
#
# Elastic Constant Matrix: (Units=GPa)
#
#
# Indices 1 2 3 4 5 6 
#
# 1 34.5797 39.2470 28.3055 0.0000 -0.5978 0.0000
# 2 39.2470 159.9750 97.6027 -0.0001 -3.6082 0.0000
# 3 28.3055 97.6027 117.3428 -0.0001 8.1068 0.0000
# 4 0.0000 -0.0001 -0.0001 31.1684 0.0000 0.9892
# 5 -0.5978 -3.6082 8.1068 0.0000 29.0802 0.0000
# 6 0.0000 0.0000 0.0000 0.9892 0.0000 15.9069
#
#
#
# Elastic Compliance Matrix: (Units=1/GPa)
#
#
# Indices 1 2 3 4 5 6 
#
# 1 0.040628 -0.008001 -0.003196 0.000000 0.000733 0.000000
# 2 -0.008001 0.014903 -0.010790 0.000000 0.004693 0.000000
# 3 -0.003196 -0.010790 0.018726 0.000000 -0.006625 0.000000
# 4 0.000000 0.000000 0.000000 0.032147 0.000000 -0.001999
# 5 0.000733 0.004693 -0.006625 0.000000 0.036832 0.000000
# 6 0.000000 0.000000 0.000000 -0.001999 0.000000 0.062990
#
#
# Mechanical properties :
#
#
# Convention : Reuss Voigt Hill
#
# Bulk Modulus (GPa) = 33.02213 71.35643 52.18928
# Shear Modulus (GPa) = 19.20903 25.01391 22.11147
#
# Velocity S-wave (km/s) = 3.03725 3.46592 3.25864
# Velocity P-wave (km/s) = 5.30644 7.09118 6.26271
#
# Compressibility (1/GPa) = 0.03028272
#
# Stress axis : x y z
#
# Youngs Moduli (GPa) = 24.61328 67.10150 53.40305
#
# Poissons Ratio (x) = 0.53687 0.17068
# Poissons Ratio (y) = 0.19693 0.57622
# Poissons Ratio (z) = 0.07867 0.72402
#
# Static dielectric constant tensor:
#      x y z
#    x 1.797280 0.000000 0.015220 
#    y 0.000000 1.782500 0.000000 
#    z 0.015220 0.000000 1.770660 
# 
# From -- ./inp_files/162517.got.cif
#   From: 2010.05.17/outbox.cif.g08.bks.cpg/sg12_82_cif.got.tgz:162517.got - 2010.06.03 13:09:07.
