data_PCOD9185072
_publ_section_title
;
Structure prediction by ZEFSAII (Michael W. Deem and Ramdas Pophale) SiO2 
 PCOD9185072
Probable space group: C 2/M
;
_chemical_formula_sum "Si O2"
_cell_formula_units_Z 64
_cell_length_a 33.271130
_cell_length_b 7.830130
_cell_length_c 15.475417
_cell_angle_alpha 90.000000
_cell_angle_beta 46.693781
_cell_angle_gamma 90.000000
_cell_volume 2933.798298
_symmetry_space_group_name_H-M "C 2/M"
_symmetry_group_IT_number 12
_symmetry_cell_setting 'monoclinic'
loop_
_space_group_symop_operation_xyz
x,y,z
-x,y,-z
-x,-y,-z
x,-y,z
1/2+x,1/2+y,z
1/2-x,1/2+y,-z
1/2-x,1/2-y,-z
1/2+x,1/2-y,z
loop_
_atom_site_type_symbol
_atom_site_label
_atom_site_fract_x
_atom_site_fract_y
_atom_site_fract_z
Si Si1 0.670200 0.302572 0.746727
Si Si2 0.506180 0.705637 0.216080
Si Si3 0.385022 0.192830 0.343572
Si Si4 0.628073 0.290916 0.994384
Si Si5 0.150777 0.791090 0.324763
Si Si6 0.028161 0.208665 0.546617
Si Si7 0.685845 0.294447 0.085686
Si Si8 0.712828 0.696561 0.395314
O O1 0.652858 0.500000 0.766755
O O2 0.637793 0.207278 0.719547
O O3 0.736039 0.291637 0.637285
O O4 0.656651 0.238081 0.863050
O O5 0.508344 0.500000 0.214174
O O6 0.448749 0.753548 0.255709
O O7 0.563995 0.764074 0.090941
O O8 0.501256 0.765596 0.322700
O O9 0.342978 0.296964 0.466125
O O10 0.380670 0.000000 0.381339
O O11 0.629566 0.500000 0.993791
O O12 0.658918 0.231541 0.036120
O O13 0.091879 0.739372 0.449858
O O14 0.157533 0.733522 0.216344
O O15 0.198090 0.734790 0.321511
O O16 0.152030 0.000000 0.323150
O O17 0.000000 0.266135 0.500000
O O18 0.026691 0.000000 0.548920
O O19 0.680222 0.500000 0.093086
O O20 0.750000 0.250000 0.000000
O O21 0.729961 0.500000 0.362499
#
# Coordination Sequence:
#
# PCOD9185072 Si02
#       8
#     8   8   8   8   8   8   8   8
#     4  11  23  40  60  85 116 154 197 244 296 351
#     4  10  19  37  62  87 117 154 196 242 287 345
#     4  12  25  41  60  86 116 152 194 245 304 355
#     4   9  20  37  60  88 119 156 199 242 288 342
#     4   9  17  29  51  84 115 146 183 229 278 332
#     4   9  15  26  51  85 113 141 184 231 275 325
#     4  10  19  34  55  84 120 155 195 236 281 339
#     4  11  21  38  61  89 120 152 193 242 295 353
#
# _framework density 21.814723000000001
#
# number of rings (size 3 to 8) (size 9 to 14) (size 15 to 20)
#    0.000    1.875    1.250    3.750    0.000    3.500 
#    0.000    5.625    0.000    0.375    0.000    0.000 
#    0.000    0.000    0.000    0.000    0.000    0.000 
#
# Total GULP energy -178819.633182 kJ/mol
# GULP energy per Si atom -5588.113537 kJ/mol
# Density = 2.176507 g / cm^3
# Si number density = 21.814723 Si / 1000 Ang^3
#
#
#
# Elastic Constant Matrix: (Units=GPa)
#
#
# Indices 1 2 3 4 5 6 
#
# 1 143.1764 -0.5040 34.4452 0.0001 0.7197 -0.0001
# 2 -0.5040 33.3697 0.3716 0.0004 2.6701 0.0002
# 3 34.4452 0.3716 84.6954 0.0000 -2.2632 0.0000
# 4 0.0001 0.0004 0.0000 -4.7218 0.0000 -10.6459
# 5 0.7197 2.6701 -2.2632 0.0000 37.9495 0.0000
# 6 -0.0001 0.0002 0.0000 -10.6459 0.0000 15.9296
#
#
#
# Elastic Compliance Matrix: (Units=1/GPa)
#
#
# Indices 1 2 3 4 5 6 
#
# 1 0.007747 0.000180 -0.003161 0.000000 -0.000348 0.000000
# 2 0.000180 0.030144 -0.000263 0.000001 -0.002140 0.000000
# 3 -0.003161 -0.000263 0.013117 0.000000 0.000861 0.000000
# 4 0.000000 0.000001 0.000000 -0.084484 0.000000 -0.056462
# 5 -0.000348 -0.002140 0.000861 0.000000 0.026559 0.000000
# 6 0.000000 0.000000 0.000000 -0.056462 0.000000 0.025042
#
#
# Mechanical properties :
#
#
# Convention : Reuss Voigt Hill
#
# Bulk Modulus (GPa) = 22.46122 36.65188 29.55655
# Shear Modulus (GPa) = 126.73348 24.96004 75.84676
#
# Velocity S-wave (km/s) = 7.63030 3.38625 5.90289
# Velocity P-wave (km/s) = 9.37803 5.66805 7.74836
#
# Compressibility (1/GPa) = 0.04452118
#
# Stress axis : x y z
#
# Youngs Moduli (GPa) = 129.07873 33.17389 76.23886
#
# Poissons Ratio (x) = -0.00597 0.24098
# Poissons Ratio (y) = -0.02324 0.02002
# Poissons Ratio (z) = 0.40800 0.00871
#
# Static dielectric constant tensor:
#      x y z
#    x 1.779460 0.000000 0.007830 
#    y 0.000000 1.800770 0.000000 
#    z 0.007830 0.000000 1.789270 
# 
# From -- ./inp_files/249834.got.cif
#   From: 2010.05.17/outbox.cif.g08.bks.cpg/sg12_125_cif.got.tgz:249834.got - 2010.06.03 13:09:07.
