data_PCOD9185156
_publ_section_title
;
Structure prediction by ZEFSAII (Michael W. Deem and Ramdas Pophale) SiO2 
 PCOD9185156
Probable space group: C 2/M
;
_chemical_formula_sum "Si O2"
_cell_formula_units_Z 56
_cell_length_a 26.844155
_cell_length_b 8.744698
_cell_length_c 13.426589
_cell_angle_alpha 90.000000
_cell_angle_beta 112.292708
_cell_angle_gamma 90.000000
_cell_volume 2916.238902
_symmetry_space_group_name_H-M "C 2/M"
_symmetry_group_IT_number 12
_symmetry_cell_setting 'monoclinic'
loop_
_space_group_symop_operation_xyz
x,y,z
-x,y,-z
-x,-y,-z
x,-y,z
1/2+x,1/2+y,z
1/2-x,1/2+y,-z
1/2-x,1/2-y,-z
1/2+x,1/2-y,z
loop_
_atom_site_type_symbol
_atom_site_label
_atom_site_fract_x
_atom_site_fract_y
_atom_site_fract_z
Si Si1 0.947819 0.683071 0.664212
Si Si2 0.333725 0.184527 0.890768
Si Si3 0.131530 0.817362 0.545363
Si Si4 0.653041 0.184147 0.872753
Si Si5 0.441784 0.682550 0.319432
Si Si6 0.774478 0.317414 0.262219
Si Si7 0.049991 0.686312 0.104563
O O1 0.946703 0.500000 0.659840
O O2 0.894135 0.748062 0.573052
O O3 0.953845 0.733177 0.783432
O O4 0.999897 0.743490 0.644924
O O5 0.285635 0.255137 0.790749
O O6 0.392551 0.231391 0.897074
O O7 0.330108 0.000000 0.882858
O O8 0.328985 0.229956 0.003356
O O9 0.090096 0.775870 0.603761
O O10 0.188963 0.752195 0.622745
O O11 0.133960 0.000000 0.541012
O O12 0.596426 0.258089 0.798459
O O13 0.695657 0.226408 0.819261
O O14 0.646596 0.000000 0.866733
O O15 0.446808 0.500000 0.320018
O O16 0.774848 0.500000 0.269758
O O17 0.048576 0.500000 0.102044
O O18 0.000000 0.740319 0.000000
#
# Coordination Sequence:
#
# PCOD9185156 Si02
#       7
#     8   8   8   8   8   8   8
#     4  11  21  34  55  80 106 139 179 221 264 310
#     4  10  19  34  56  79 106 143 181 215 261 316
#     4  10  21  37  55  77 107 141 177 217 264 318
#     4   9  18  32  53  80 109 142 177 215 261 315
#     4  10  20  33  52  79 110 142 175 215 265 319
#     4  10  20  34  53  81 112 138 173 220 266 313
#     4   9  19  36  57  80 106 138 177 216 254 307
#
# _framework density 19.202815999999999
#
# number of rings (size 3 to 8) (size 9 to 14) (size 15 to 20)
#    0.000    2.143    0.000    3.429    0.000    6.857 
#    0.000    2.143    0.000    3.000    0.000    0.000 
#    0.000    0.000    0.000    0.000    0.000    0.000 
#
# Total GULP energy -156396.832836 kJ/mol
# GULP energy per Si atom -5585.601173 kJ/mol
# Density = 1.915911 g / cm^3
# Si number density = 19.202816 Si / 1000 Ang^3
#
#
#
# Elastic Constant Matrix: (Units=GPa)
#
#
# Indices 1 2 3 4 5 6 
#
# 1 71.9206 20.2317 52.7344 0.0000 30.7809 0.0000
# 2 20.2317 19.8639 33.8184 0.0000 8.9558 0.0000
# 3 52.7344 33.8184 161.0249 0.0000 32.2300 0.0000
# 4 0.0000 0.0000 0.0000 27.9433 0.0000 13.6165
# 5 30.7809 8.9558 32.2300 0.0000 31.5209 0.0000
# 6 0.0000 0.0000 0.0000 13.6165 0.0000 18.7957
#
#
#
# Elastic Compliance Matrix: (Units=1/GPa)
#
#
# Indices 1 2 3 4 5 6 
#
# 1 0.029424 -0.017303 -0.001553 0.000000 -0.022229 0.000000
# 2 -0.017303 0.089725 -0.014405 0.000000 0.006132 0.000000
# 3 -0.001553 -0.014405 0.010840 0.000000 -0.005474 0.000000
# 4 0.000000 0.000000 0.000000 0.055313 0.000000 -0.040072
# 5 -0.022229 0.006132 -0.005474 0.000000 0.057288 0.000000
# 6 0.000000 0.000000 0.000000 -0.040072 0.000000 0.082233
#
#
# Mechanical properties :
#
#
# Convention : Reuss Voigt Hill
#
# Bulk Modulus (GPa) = 15.75595 51.81980 33.78788
# Shear Modulus (GPa) = 12.12118 25.38697 18.75407
#
# Velocity S-wave (km/s) = 2.51513 3.63994 3.12850
# Velocity P-wave (km/s) = 4.08134 6.68653 5.53927
#
# Compressibility (1/GPa) = 0.06346808
#
# Stress axis : x y z
#
# Youngs Moduli (GPa) = 33.98578 11.14511 92.25204
#
# Poissons Ratio (x) = 0.19284 0.14326
# Poissons Ratio (y) = 0.58805 1.32889
# Poissons Ratio (z) = 0.05278 0.16055
#
# Static dielectric constant tensor:
#      x y z
#    x 1.659050 0.000000 -0.010540 
#    y 0.000000 1.642760 0.000000 
#    z -0.010540 0.000000 1.666980 
# 
# From -- ./inp_files/238951.got.cif
#   From: 2010.05.17/outbox.cif.g08.bks.cpg/sg12_120_cif.got.tgz:238951.got - 2010.06.03 13:09:07.
