data_PCOD9185253
_publ_section_title
;
Structure prediction by ZEFSAII (Michael W. Deem and Ramdas Pophale) SiO2 
 PCOD9185253
Probable space group: C 2/M
;
_chemical_formula_sum "Si O2"
_cell_formula_units_Z 60
_cell_length_a 24.051518
_cell_length_b 21.955625
_cell_length_c 11.709378
_cell_angle_alpha 90.000000
_cell_angle_beta 147.524138
_cell_angle_gamma 90.000000
_cell_volume 3320.101177
_symmetry_space_group_name_H-M "C 2/M"
_symmetry_group_IT_number 12
_symmetry_cell_setting 'monoclinic'
loop_
_space_group_symop_operation_xyz
x,y,z
-x,y,-z
-x,-y,-z
x,-y,z
1/2+x,1/2+y,z
1/2-x,1/2+y,-z
1/2-x,1/2-y,-z
1/2+x,1/2-y,z
loop_
_atom_site_type_symbol
_atom_site_label
_atom_site_fract_x
_atom_site_fract_y
_atom_site_fract_z
Si Si1 0.816153 0.154178 0.172620
Si Si2 0.076398 0.929718 0.451355
Si Si3 0.216152 0.839464 0.269992
Si Si4 0.838827 0.167505 0.563446
Si Si5 0.560612 0.790083 0.359664
Si Si6 0.165284 0.291836 0.096478
Si Si7 0.500000 0.745841 0.500000
Si Si8 0.330354 0.429806 0.999301
O O1 0.872306 0.107007 0.356031
O O2 0.726674 0.186847 0.089996
O O3 0.777367 0.115813 0.997759
O O4 0.904313 0.203278 0.294649
O O5 0.113609 0.894274 0.403431
O O6 0.952306 0.927277 0.241447
O O7 0.108075 0.000000 0.508444
O O8 0.171261 0.833446 0.318963
O O9 0.340240 0.832016 0.489288
O O10 0.175404 0.780886 0.128705
O O11 0.185004 0.900594 0.151299
O O12 0.907342 0.223781 0.635128
O O13 0.727583 0.179433 0.310921
O O14 0.539176 0.782105 0.457537
O O15 0.453852 0.809868 0.117275
O O16 0.297017 0.500000 0.949104
#
# Coordination Sequence:
#
# PCOD9185253 Si02
#       8
#     8   8   8   8   8   8   4   8
#     4  11  19  35  56  86 118 142 181 229 280 333
#     4  10  19  34  56  82 109 145 186 230 277 328
#     4  11  23  37  56  79 118 148 184 233 273 331
#     4  10  21  39  53  83 116 147 185 230 276 329
#     4  11  22  35  55  86 113 148 181 227 280 336
#     4  10  21  35  58  84 109 148 186 223 280 337
#     4  12  18  32  57  86 121 136 178 226 284 328
#     4  11  23  36  55  83 113 152 187 224 282 333
#
# _framework density 18.071738
#
# number of rings (size 3 to 8) (size 9 to 14) (size 15 to 20)
#    0.000    1.333    5.333    3.600    1.867    6.400 
#    0.000    1.333    0.000    4.800    0.000    4.667 
#    0.000    0.000    0.000    0.000    0.000    0.000 
#
# Total GULP energy -167630.673957 kJ/mol
# GULP energy per Si atom -5587.689132 kJ/mol
# Density = 1.803061 g / cm^3
# Si number density = 18.071738 Si / 1000 Ang^3
#
#
#
# Elastic Constant Matrix: (Units=GPa)
#
#
# Indices 1 2 3 4 5 6 
#
# 1 109.0847 18.3376 14.0275 0.0000 -19.7751 0.0000
# 2 18.3376 40.7553 -0.6352 0.0000 -10.1489 0.0000
# 3 14.0275 -0.6352 49.0252 0.0000 5.0199 0.0000
# 4 0.0000 0.0000 0.0000 15.0258 0.0000 1.2635
# 5 -19.7751 -10.1489 5.0199 0.0000 24.3872 0.0000
# 6 0.0000 0.0000 0.0000 1.2635 0.0000 10.7202
#
#
#
# Elastic Compliance Matrix: (Units=1/GPa)
#
#
# Indices 1 2 3 4 5 6 
#
# 1 0.011945 -0.003129 -0.004410 0.000000 0.009291 0.000000
# 2 -0.003129 0.028226 0.000325 0.000000 0.009142 0.000000
# 3 -0.004410 0.000325 0.022490 0.000000 -0.008070 0.000000
# 4 0.000000 0.000000 0.000000 0.067219 0.000000 -0.007922
# 5 0.009291 0.009142 -0.008070 0.000000 0.054004 0.000000
# 6 0.000000 0.000000 0.000000 -0.007922 0.000000 0.094215
#
#
# Mechanical properties :
#
#
# Convention : Reuss Voigt Hill
#
# Bulk Modulus (GPa) = 20.73276 29.14722 24.93999
# Shear Modulus (GPa) = 16.20193 21.16899 18.68546
#
# Velocity S-wave (km/s) = 2.99747 3.42627 3.21901
# Velocity P-wave (km/s) = 4.84532 5.64057 5.25800
#
# Compressibility (1/GPa) = 0.04823284
#
# Stress axis : x y z
#
# Youngs Moduli (GPa) = 83.71987 35.42780 44.46443
#
# Poissons Ratio (x) = 0.11087 0.19607
# Poissons Ratio (y) = 0.26200 -0.01445
# Poissons Ratio (z) = 0.36917 -0.01152
#
# Static dielectric constant tensor:
#      x y z
#    x 1.635940 0.000000 -0.015650 
#    y 0.000000 1.608590 0.000000 
#    z -0.015650 0.000000 1.638530 
# 
# From -- ./inp_files/178050.got.cif
#   From: 2010.05.17/outbox.cif.g08.bks.cpg/sg12_90_cif.got.tgz:178050.got - 2010.06.03 13:09:07.
