data_PCOD9185703
_publ_section_title
;
Structure prediction by ZEFSAII (Michael W. Deem and Ramdas Pophale) SiO2 
 PCOD9185703
Probable space group: C 2/M
;
_chemical_formula_sum "Si O2"
_cell_formula_units_Z 56
_cell_length_a 17.160704
_cell_length_b 14.277474
_cell_length_c 17.252465
_cell_angle_alpha 90.000000
_cell_angle_beta 42.239453
_cell_angle_gamma 90.000000
_cell_volume 2841.553716
_symmetry_space_group_name_H-M "C 2/M"
_symmetry_group_IT_number 12
_symmetry_cell_setting 'monoclinic'
loop_
_space_group_symop_operation_xyz
x,y,z
-x,y,-z
-x,-y,-z
x,-y,z
1/2+x,1/2+y,z
1/2-x,1/2+y,-z
1/2-x,1/2-y,-z
1/2+x,1/2-y,z
loop_
_atom_site_type_symbol
_atom_site_label
_atom_site_fract_x
_atom_site_fract_y
_atom_site_fract_z
Si Si1 0.738916 0.610684 0.680477
Si Si2 0.576761 0.232988 0.367066
Si Si3 0.749720 0.388105 0.203398
Si Si4 0.414433 0.111504 0.229033
Si Si5 0.517647 0.398206 0.078013
Si Si6 0.148491 0.715682 0.018851
Si Si7 0.612355 0.888489 0.578226
O O1 0.756649 0.500000 0.682253
O O2 0.816295 0.668388 0.683734
O O3 0.603384 0.628386 0.791979
O O4 0.786829 0.630205 0.558850
O O5 0.500000 0.249742 0.500000
O O6 0.631175 0.329544 0.297729
O O7 0.496483 0.175213 0.366942
O O8 0.733626 0.500000 0.214171
O O9 0.832258 0.364323 0.216667
O O10 0.809145 0.351192 0.081427
O O11 0.356052 0.129416 0.355674
O O12 0.436387 0.000000 0.207063
O O13 0.536711 0.164807 0.137759
O O14 0.555841 0.500000 0.081219
O O15 0.500000 0.408496 0.000000
O O16 0.604937 0.314374 0.019620
O O17 0.250000 0.750000 0.000000
O O18 0.583282 0.000000 0.592647
#
# Coordination Sequence:
#
# PCOD9185703 Si02
#       7
#     8   8   8   8   8   8   8
#     4   9  17  32  57  88 122 156 188 234 295 351
#     4  10  19  34  57  87 120 154 191 236 290 341
#     4  11  24  42  61  81 112 156 199 237 282 340
#     4  10  21  38  60  83 110 152 201 241 279 336
#     4  10  21  37  59  86 115 147 184 231 290 350
#     4  12  24  39  60  84 112 144 185 238 292 346
#     4   9  18  34  58  90 121 149 190 239 289 344
#
# _framework density 19.707528
#
# number of rings (size 3 to 8) (size 9 to 14) (size 15 to 20)
#    0.000    1.857    0.000    4.714    0.000    4.286 
#    0.000   11.429    0.000    1.714    0.000    0.000 
#    0.000    0.000    0.000    0.000    0.000    0.000 
#
# Total GULP energy -156314.392069 kJ/mol
# GULP energy per Si atom -5582.656860 kJ/mol
# Density = 1.966267 g / cm^3
# Si number density = 19.707528 Si / 1000 Ang^3
#
#
#
# Elastic Constant Matrix: (Units=GPa)
#
#
# Indices 1 2 3 4 5 6 
#
# 1 75.2115 40.3144 34.0001 0.0000 19.0240 0.0000
# 2 40.3144 90.7582 34.6211 0.0000 0.2822 0.0000
# 3 34.0001 34.6211 54.3745 0.0000 16.1247 0.0000
# 4 0.0000 0.0000 0.0000 37.5506 0.0000 -3.7136
# 5 19.0240 0.2822 16.1247 0.0000 21.6889 0.0000
# 6 0.0000 0.0000 0.0000 -3.7136 0.0000 43.1232
#
#
#
# Elastic Compliance Matrix: (Units=1/GPa)
#
#
# Indices 1 2 3 4 5 6 
#
# 1 0.024941 -0.009508 -0.003965 0.000000 -0.018805 0.000000
# 2 -0.009508 0.019543 -0.011412 0.000000 0.016570 0.000000
# 3 -0.003965 -0.011412 0.034715 0.000000 -0.022182 0.000000
# 4 0.000000 0.000000 0.000000 0.026859 0.000000 0.002313
# 5 -0.018805 0.016570 -0.022182 0.000000 0.078877 0.000000
# 6 0.000000 0.000000 0.000000 0.002313 0.000000 0.023389
#
#
# Mechanical properties :
#
#
# Convention : Reuss Voigt Hill
#
# Bulk Modulus (GPa) = 33.97989 48.69060 41.33524
# Shear Modulus (GPa) = 18.66335 27.89978 23.28156
#
# Velocity S-wave (km/s) = 3.08070 3.76665 3.44081
# Velocity P-wave (km/s) = 5.47118 6.60887 6.06675
#
# Compressibility (1/GPa) = 0.02942918
#
# Stress axis : x y z
#
# Youngs Moduli (GPa) = 40.09432 51.16818 28.80608
#
# Poissons Ratio (x) = 0.48649 0.11422
# Poissons Ratio (y) = 0.38120 0.32874
# Poissons Ratio (z) = 0.15898 0.58394
#
# Static dielectric constant tensor:
#      x y z
#    x 1.654030 0.000000 -0.002710 
#    y 0.000000 1.831460 0.000000 
#    z -0.002710 0.000000 1.708130 
# 
# From -- ./inp_files/277819.got.cif
#   From: 2010.05.17/outbox.cif.g08.bks.cpg/sg12_139_cif.got.tgz:277819.got - 2010.06.03 13:09:07.
