data_PCOD9185557
_publ_section_title
;
Structure prediction by ZEFSAII (Michael W. Deem and Ramdas Pophale) SiO2 
 PCOD9185557
Probable space group: C 2/M
;
_chemical_formula_sum "Si O2"
_cell_formula_units_Z 40
_cell_length_a 22.543237
_cell_length_b 13.486831
_cell_length_c 9.050092
_cell_angle_alpha 90.000000
_cell_angle_beta 130.811204
_cell_angle_gamma 90.000000
_cell_volume 2082.566652
_symmetry_space_group_name_H-M "C 2/M"
_symmetry_group_IT_number 12
_symmetry_cell_setting 'monoclinic'
loop_
_space_group_symop_operation_xyz
x,y,z
-x,y,-z
-x,-y,-z
x,-y,z
1/2+x,1/2+y,z
1/2-x,1/2+y,-z
1/2-x,1/2-y,-z
1/2+x,1/2-y,z
loop_
_atom_site_type_symbol
_atom_site_label
_atom_site_fract_x
_atom_site_fract_y
_atom_site_fract_z
Si Si1 0.839063 0.721181 0.679839
Si Si2 0.850249 0.886394 0.917244
Si Si3 0.057115 0.384722 0.957942
Si Si4 0.339434 0.883592 0.377496
Si Si5 0.072781 0.248013 0.714373
O O1 0.750000 0.750000 0.500000
O O2 0.874231 0.820563 0.812711
O O3 0.856312 0.642481 0.838637
O O4 0.866312 0.668077 0.574236
O O5 0.755497 0.883225 0.775098
O O6 0.874624 0.000000 0.941659
O O7 0.884345 0.836149 0.120470
O O8 0.049287 0.500000 0.917258
O O9 0.041187 0.323615 0.786382
O O10 0.000000 0.356725 0.000000
O O11 0.371122 0.814414 0.298013
O O12 0.364068 0.000000 0.408467
O O13 0.000000 0.209852 0.500000
#
# Coordination Sequence:
#
# PCOD9185557 Si02
#       5
#     8   8   8   8   8
#     4   9  18  33  54  78 103 135 176 218 261 312
#     4   9  20  38  56  75 105 145 184 220 258 307
#     4  10  20  34  53  78 109 142 175 216 269 325
#     4  10  19  34  57  83 110 137 170 219 274 322
#     4  11  22  34  53  80 111 142 177 219 266 317
#
# _framework density 19.207070000000002
#
# number of rings (size 3 to 8) (size 9 to 14) (size 15 to 20)
#    0.000    2.200    0.000    3.000    0.000    4.400 
#    0.000    1.000    0.000   21.600    0.000    0.000 
#    0.000    0.000    0.000    0.000    0.000    0.000 
#
# Total GULP energy -111453.873550 kJ/mol
# GULP energy per Si atom -5572.693678 kJ/mol
# Density = 1.916335 g / cm^3
# Si number density = 19.207070 Si / 1000 Ang^3
#
#
#
# Elastic Constant Matrix: (Units=GPa)
#
#
# Indices 1 2 3 4 5 6 
#
# 1 14.8155 27.4552 17.8788 0.0000 0.4628 0.0000
# 2 27.4552 146.2347 60.1394 0.0000 -18.3782 0.0000
# 3 17.8788 60.1394 145.0541 0.0000 -10.7387 0.0000
# 4 0.0000 0.0000 0.0000 6.0091 0.0000 -14.0386
# 5 0.4628 -18.3782 -10.7387 0.0000 24.1835 0.0000
# 6 0.0000 0.0000 0.0000 -14.0386 0.0000 19.4712
#
#
#
# Elastic Compliance Matrix: (Units=1/GPa)
#
#
# Indices 1 2 3 4 5 6 
#
# 1 0.117186 -0.021886 -0.006997 0.000000 -0.021982 0.000000
# 2 -0.021886 0.012936 -0.001972 0.000000 0.009374 0.000000
# 3 -0.006997 -0.001972 0.008761 0.000000 0.002526 0.000000
# 4 0.000000 0.000000 0.000000 -0.243160 0.000000 -0.175316
# 5 -0.021982 0.009374 0.002526 0.000000 0.050017 0.000000
# 6 0.000000 0.000000 0.000000 -0.175316 0.000000 -0.075043
#
#
# Mechanical properties :
#
#
# Convention : Reuss Voigt Hill
#
# Bulk Modulus (GPa) = 12.95797 57.45012 35.20404
# Shear Modulus (GPa) = -119.42428 23.30816 -48.05806
#
# Velocity S-wave (km/s) = -7.89381 3.48734 -5.00753
# Velocity P-wave (km/s) = 8.73624 6.79641 3.88141
#
# Compressibility (1/GPa) = 0.07717261
#
# Stress axis : x y z
#
# Youngs Moduli (GPa) = 8.53345 77.30077 114.14321
#
# Poissons Ratio (x) = 1.69184 0.79868
# Poissons Ratio (y) = 0.18677 0.22507
# Poissons Ratio (z) = 0.05971 0.15242
#
# Static dielectric constant tensor:
#      x y z
#    x 1.699880 0.000000 0.034780 
#    y 0.000000 1.655620 0.000000 
#    z 0.034780 0.000000 1.701580 
# 
# From -- ./inp_files/71317.got.cif
#   From: 2010.05.17/outbox.cif.g08.bks.cpg/sg12_36_cif.got.tgz:71317.got - 2010.06.03 13:09:07.
