data_PCOD9185902
_publ_section_title
;
Structure prediction by ZEFSAII (Michael W. Deem and Ramdas Pophale) SiO2 
 PCOD9185902
Probable space group: C 2/M
;
_chemical_formula_sum "Si O2"
_cell_formula_units_Z 64
_cell_length_a 12.030224
_cell_length_b 13.413632
_cell_length_c 27.600526
_cell_angle_alpha 90.000000
_cell_angle_beta 147.575870
_cell_angle_gamma 90.000000
_cell_volume 2388.085993
_symmetry_space_group_name_H-M "C 2/M"
_symmetry_group_IT_number 12
_symmetry_cell_setting 'monoclinic'
loop_
_space_group_symop_operation_xyz
x,y,z
-x,y,-z
-x,-y,-z
x,-y,z
1/2+x,1/2+y,z
1/2-x,1/2+y,-z
1/2-x,1/2-y,-z
1/2+x,1/2-y,z
loop_
_atom_site_type_symbol
_atom_site_label
_atom_site_fract_x
_atom_site_fract_y
_atom_site_fract_z
Si Si1 0.295115 0.115804 0.395654
Si Si2 0.160401 0.842931 0.780968
Si Si3 0.417737 0.660170 0.867425
Si Si4 0.758234 0.610210 0.709681
Si Si5 0.230686 0.340278 0.074316
Si Si6 0.218402 0.386605 0.889861
Si Si7 0.898148 0.114852 0.515089
Si Si8 0.443643 0.886942 0.340527
O O1 0.500000 0.150364 0.500000
O O2 0.358449 0.110440 0.363184
O O3 0.082560 0.177857 0.320422
O O4 0.250366 0.000000 0.395359
O O5 0.366873 0.773756 0.862982
O O6 0.222899 0.895984 0.753969
O O7 0.146493 0.875935 0.831998
O O8 0.629751 0.629158 0.920205
O O9 0.364583 0.603431 0.896913
O O10 0.231626 0.653924 0.759374
O O11 0.763104 0.500000 0.689412
O O12 0.566481 0.662576 0.613112
O O13 0.989900 0.646675 0.786692
O O14 0.221814 0.218327 0.063230
O O15 0.000000 0.377632 0.000000
O O16 0.199489 0.500000 0.904038
O O17 0.671450 0.160118 0.426968
O O18 0.000000 0.111225 0.500000
O O19 0.861422 0.000000 0.519461
O O20 0.474599 0.000000 0.333355
#
# Coordination Sequence:
#
# PCOD9185902 Si02
#       8
#     8   8   8   8   8   8   8   8
#     4  10  20  36  60  90 127 173 219 257 308 380
#     4  11  22  39  64  91 128 170 214 269 328 391
#     4  11  22  41  64  93 127 168 213 268 334 400
#     4  10  19  36  61  93 133 172 217 268 322 386
#     4  11  25  46  71  93 127 169 218 270 344 413
#     4  10  22  41  68  97 127 168 216 271 328 394
#     4   9  17  30  53  89 128 170 218 261 309 376
#     4  10  19  34  58  85 121 166 212 260 309 373
#
# _framework density 26.799703999999998
#
# number of rings (size 3 to 8) (size 9 to 14) (size 15 to 20)
#    0.000    1.750    2.500    2.250    0.000    6.250 
#    0.000    5.625    0.000    5.250    0.000    0.000 
#    0.000    0.000    0.000    0.000    0.000    0.000 
#
# Total GULP energy -178608.083442 kJ/mol
# GULP energy per Si atom -5581.502608 kJ/mol
# Density = 2.673871 g / cm^3
# Si number density = 26.799704 Si / 1000 Ang^3
#
#
#
# Elastic Constant Matrix: (Units=GPa)
#
#
# Indices 1 2 3 4 5 6 
#
# 1 113.0739 3.3264 18.7318 -0.0029 26.8189 0.0000
# 2 3.3264 80.2091 20.1582 0.0003 2.3887 0.0000
# 3 18.7318 20.1582 146.3807 -0.0009 31.7922 0.0001
# 4 -0.0029 0.0003 -0.0009 914.4617 -0.0006 22.6687
# 5 26.8189 2.3887 31.7922 -0.0006 62.9312 0.0000
# 6 0.0000 0.0000 0.0001 22.6687 0.0000 13.5272
#
#
#
# Elastic Compliance Matrix: (Units=1/GPa)
#
#
# Indices 1 2 3 4 5 6 
#
# 1 0.009861 -0.000198 -0.000363 0.000000 -0.004011 0.000000
# 2 -0.000198 0.012930 -0.001872 0.000000 0.000540 0.000000
# 3 -0.000363 -0.001872 0.007960 0.000000 -0.003795 0.000000
# 4 0.000000 0.000000 0.000000 0.001141 0.000000 -0.001912
# 5 -0.004011 0.000540 -0.003795 0.000000 0.019497 0.000000
# 6 0.000000 0.000000 0.000000 -0.001912 0.000000 0.077129
#
#
# Mechanical properties :
#
#
# Convention : Reuss Voigt Hill
#
# Bulk Modulus (GPa) = 38.63462 47.12183 42.87823
# Shear Modulus (GPa) = 35.20776 218.01384 126.61080
#
# Velocity S-wave (km/s) = 3.62848 9.02917 6.88084
# Velocity P-wave (km/s) = 5.65702 11.23932 8.89731
#
# Compressibility (1/GPa) = 0.02588352
#
# Stress axis : x y z
#
# Youngs Moduli (GPa) = 101.40727 77.33865 125.62510
#
# Poissons Ratio (x) = 0.01533 0.04565
# Poissons Ratio (y) = 0.02010 0.23523
# Poissons Ratio (z) = 0.03685 0.14481
#
# Static dielectric constant tensor:
#      x y z
#    x 2.037000 0.000000 -0.031190 
#    y 0.000000 2.275940 0.000000 
#    z -0.031190 0.000000 2.179930 
# 
# From -- ./inp_files/374470.got.cif
#   From: 2010.05.17/outbox.cif.g08.bks.cpg/sg12_188_cif.got.tgz:374470.got - 2010.06.03 13:09:07.
