data_PCOD9185982
_publ_section_title
;
Structure prediction by ZEFSAII (Michael W. Deem and Ramdas Pophale) SiO2 
 PCOD9185982
Probable space group: C 2/M
;
_chemical_formula_sum "Si O2"
_cell_formula_units_Z 40
_cell_length_a 22.740498
_cell_length_b 8.893841
_cell_length_c 16.520136
_cell_angle_alpha 90.000000
_cell_angle_beta 139.801269
_cell_angle_gamma 90.000000
_cell_volume 2156.549076
_symmetry_space_group_name_H-M "C 2/M"
_symmetry_group_IT_number 12
_symmetry_cell_setting 'monoclinic'
loop_
_space_group_symop_operation_xyz
x,y,z
-x,y,-z
-x,-y,-z
x,-y,z
1/2+x,1/2+y,z
1/2-x,1/2+y,-z
1/2-x,1/2-y,-z
1/2+x,1/2-y,z
loop_
_atom_site_type_symbol
_atom_site_label
_atom_site_fract_x
_atom_site_fract_y
_atom_site_fract_z
Si Si1 0.823218 0.176086 0.674045
Si Si2 0.178880 0.679379 0.987341
Si Si3 0.643268 0.678608 0.533329
Si Si4 0.473542 0.179771 0.718077
Si Si5 0.236431 0.174826 0.215011
O O1 0.728832 0.268680 0.566779
O O2 0.905907 0.247973 0.713096
O O3 0.834172 0.182594 0.783547
O O4 0.810597 0.000000 0.639450
O O5 0.188451 0.500000 0.998561
O O6 0.076679 0.715107 0.850805
O O7 0.250000 0.750000 0.000000
O O8 0.199521 0.743928 0.097692
O O9 0.637376 0.500000 0.530412
O O10 0.556028 0.751127 0.399238
O O11 0.673754 0.747381 0.651587
O O12 0.461283 0.000000 0.703254
O O13 0.254811 0.000000 0.217605
#
# Coordination Sequence:
#
# PCOD9185982 Si02
#       5
#     8   8   8   8   8
#     4   9  19  34  57  88 121 154 185 228 283 340
#     4  11  25  43  62  82 111 151 195 242 288 336
#     4  10  19  34  58  88 121 153 187 230 281 341
#     4  11  22  36  57  87 119 153 191 233 283 338
#     4   9  20  38  60  85 118 152 187 233 286 339
#
# _framework density 18.548151000000001
#
# number of rings (size 3 to 8) (size 9 to 14) (size 15 to 20)
#    1.200    0.800    0.000    4.200    0.000    4.000 
#    0.000    5.000    0.000    6.000    0.000    0.000 
#    0.000    0.000    0.000    0.000    0.000    0.000 
#
# Total GULP energy -111497.079484 kJ/mol
# GULP energy per Si atom -5574.853974 kJ/mol
# Density = 1.850593 g / cm^3
# Si number density = 18.548151 Si / 1000 Ang^3
#
#
#
# Elastic Constant Matrix: (Units=GPa)
#
#
# Indices 1 2 3 4 5 6 
#
# 1 27.3180 41.0489 52.7282 0.0000 35.3605 0.0000
# 2 41.0489 122.0613 98.2618 0.0000 -4.9208 0.0000
# 3 52.7282 98.2618 183.2892 0.0000 3.0836 0.0000
# 4 0.0000 0.0000 0.0000 36.3610 0.0000 -5.2583
# 5 35.3605 -4.9208 3.0836 0.0000 -79.7876 0.0000
# 6 0.0000 0.0000 0.0000 -5.2583 0.0000 27.8117
#
#
#
# Elastic Compliance Matrix: (Units=1/GPa)
#
#
# Indices 1 2 3 4 5 6 
#
# 1 0.039031 -0.005550 -0.008544 0.000000 0.017310 0.000000
# 2 -0.005550 0.015090 -0.006432 0.000000 -0.003639 0.000000
# 3 -0.008544 -0.006432 0.011412 0.000000 -0.002949 0.000000
# 4 0.000000 0.000000 0.000000 0.028275 0.000000 0.005346
# 5 0.017310 -0.003639 -0.002949 0.000000 -0.004751 0.000000
# 6 0.000000 0.000000 0.000000 0.005346 0.000000 0.036967
#
#
# Mechanical properties :
#
#
# Convention : Reuss Voigt Hill
#
# Bulk Modulus (GPa) = 40.84883 79.63850 60.24367
# Shear Modulus (GPa) = 28.53284 6.25231 17.39258
#
# Velocity S-wave (km/s) = 3.92639 1.83798 3.06551
# Velocity P-wave (km/s) = 6.52888 6.89446 6.71416
#
# Compressibility (1/GPa) = 0.02448050
#
# Stress axis : x y z
#
# Youngs Moduli (GPa) = 25.62061 66.26744 87.62893
#
# Poissons Ratio (x) = 0.36778 0.74872
# Poissons Ratio (y) = 0.14219 0.56364
# Poissons Ratio (z) = 0.21891 0.42624
#
# Static dielectric constant tensor:
#      x y z
#    x 1.641100 0.000000 -0.027300 
#    y 0.000000 1.617660 0.000000 
#    z -0.027300 0.000000 1.651800 
# 
# From -- ./inp_files/162390.got.cif
#   From: 2010.05.17/outbox.cif.g08.bks.cpg/sg12_82_cif.got.tgz:162390.got - 2010.06.03 13:09:07.
