data_PCOD9185210
_publ_section_title
;
Structure prediction by ZEFSAII (Michael W. Deem and Ramdas Pophale) SiO2 
 PCOD9185210
Probable space group: C 2/M
;
_chemical_formula_sum "Si O2"
_cell_formula_units_Z 40
_cell_length_a 17.565014
_cell_length_b 28.144557
_cell_length_c 11.113533
_cell_angle_alpha 90.000000
_cell_angle_beta 19.016314
_cell_angle_gamma 90.000000
_cell_volume 1790.176869
_symmetry_space_group_name_H-M "C 2/M"
_symmetry_group_IT_number 12
_symmetry_cell_setting 'monoclinic'
loop_
_space_group_symop_operation_xyz
x,y,z
-x,y,-z
-x,-y,-z
x,-y,z
1/2+x,1/2+y,z
1/2-x,1/2+y,-z
1/2-x,1/2-y,-z
1/2+x,1/2-y,z
loop_
_atom_site_type_symbol
_atom_site_label
_atom_site_fract_x
_atom_site_fract_y
_atom_site_fract_z
Si Si1 0.003733 0.619521 0.700538
Si Si2 0.755062 0.711750 0.599459
Si Si3 0.979745 0.782590 0.660378
Si Si4 0.621289 0.621476 0.078200
Si Si5 0.690385 0.554546 0.605765
O O1 0.051966 0.670288 0.693211
O O2 0.082704 0.579616 0.676448
O O3 0.189234 0.620621 0.312469
O O4 0.760931 0.611404 0.993879
O O5 0.750000 0.750000 0.500000
O O6 0.815369 0.745356 0.622003
O O7 0.500000 0.689675 0.000000
O O8 0.972396 0.825137 0.765503
O O9 0.000000 0.805070 0.500000
O O10 0.750000 0.750000 0.000000
O O11 0.421014 0.585390 0.335537
O O12 0.729744 0.500000 0.513059
O O13 0.500000 0.554954 0.000000
#
# Coordination Sequence:
#
# PCOD9185210 Si02
#       5
#     8   8   8   8   8
#     4  10  19  34  56  80 114 150 191 238 291 343
#     4  12  23  35  54  80 113 152 193 233 283 340
#     4  12  23  38  57  83 119 156 193 238 284 343
#     4  10  20  35  56  81 112 154 191 237 290 346
#     4   9  18  33  54  84 116 146 189 245 298 347
#
# _framework density 22.344162000000001
#
# number of rings (size 3 to 8) (size 9 to 14) (size 15 to 20)
#    0.000    1.400    2.000    6.600    0.000    0.800 
#    0.000    4.000    0.000    0.600    0.000    1.400 
#    0.000    0.000    0.000    0.000    0.000    0.000 
#
# Total GULP energy -111763.097646 kJ/mol
# GULP energy per Si atom -5588.154882 kJ/mol
# Density = 2.229331 g / cm^3
# Si number density = 22.344162 Si / 1000 Ang^3
#
#
#
# Elastic Constant Matrix: (Units=GPa)
#
#
# Indices 1 2 3 4 5 6 
#
# 1 132.8037 83.2201 33.5189 -0.0289 -37.9232 0.0295
# 2 83.2201 183.6985 25.1418 0.0037 -32.9867 0.0015
# 3 33.5189 25.1418 39.4115 -0.0193 -23.8706 0.0133
# 4 -0.0289 0.0037 -0.0193 19.1442 0.0130 -6.7608
# 5 -37.9232 -32.9867 -23.8706 0.0130 39.9807 -0.0302
# 6 0.0295 0.0015 0.0133 -6.7608 -0.0302 37.4680
#
#
#
# Elastic Compliance Matrix: (Units=1/GPa)
#
#
# Indices 1 2 3 4 5 6 
#
# 1 0.013105 -0.004184 -0.004760 0.000011 0.006137 -0.000002
# 2 -0.004184 0.007775 0.000125 -0.000008 0.002521 0.000003
# 3 -0.004760 0.000125 0.041777 0.000024 0.020532 0.000010
# 4 0.000011 -0.000008 0.000024 0.055790 0.000008 0.010067
# 5 0.006137 0.002521 0.020532 0.000008 0.045172 0.000026
# 6 -0.000002 0.000003 0.000010 0.010067 0.000026 0.028506
#
#
# Mechanical properties :
#
#
# Convention : Reuss Voigt Hill
#
# Bulk Modulus (GPa) = 22.21183 71.07501 46.64342
# Shear Modulus (GPa) = 22.24509 33.58744 27.91626
#
# Velocity S-wave (km/s) = 3.15868 3.88130 3.53849
# Velocity P-wave (km/s) = 4.82342 7.20862 6.13309
#
# Compressibility (1/GPa) = 0.04502105
#
# Stress axis : x y z
#
# Youngs Moduli (GPa) = 76.30428 128.62553 23.93655
#
# Poissons Ratio (x) = 0.53811 0.11394
# Poissons Ratio (y) = 0.31922 -0.00300
# Poissons Ratio (z) = 0.36320 -0.01613
#
# Static dielectric constant tensor:
#      x y z
#    x 1.875750 -0.000010 -0.005800 
#    y -0.000010 1.776850 0.000020 
#    z -0.005800 0.000020 1.855320 
# 
# From -- ./inp_files/79307.got.cif
#   From: 2010.05.17/outbox.cif.g08.bks.cpg/sg12_40_cif.got.tgz:79307.got - 2010.06.03 13:09:07.
