data_PCOD9185357
_publ_section_title
;
Structure prediction by ZEFSAII (Michael W. Deem and Ramdas Pophale) SiO2 
 PCOD9185357
Probable space group: C 2/M
;
_chemical_formula_sum "Si O2"
_cell_formula_units_Z 56
_cell_length_a 18.465966
_cell_length_b 14.272148
_cell_length_c 23.024145
_cell_angle_alpha 90.000000
_cell_angle_beta 150.126221
_cell_angle_gamma 90.000000
_cell_volume 3022.411147
_symmetry_space_group_name_H-M "C 2/M"
_symmetry_group_IT_number 12
_symmetry_cell_setting 'monoclinic'
loop_
_space_group_symop_operation_xyz
x,y,z
-x,y,-z
-x,-y,-z
x,-y,z
1/2+x,1/2+y,z
1/2-x,1/2+y,-z
1/2-x,1/2-y,-z
1/2+x,1/2-y,z
loop_
_atom_site_type_symbol
_atom_site_label
_atom_site_fract_x
_atom_site_fract_y
_atom_site_fract_z
Si Si1 0.798095 0.393054 0.015759
Si Si2 0.237212 0.265743 0.559314
Si Si3 0.785408 0.747364 0.774115
Si Si4 0.526711 0.106123 0.587533
Si Si5 0.667077 0.605658 0.596892
Si Si6 0.993315 0.782410 0.167063
Si Si7 0.168596 0.398353 0.099781
O O1 0.822572 0.500000 0.051710
O O2 0.915440 0.318689 0.120832
O O3 0.636557 0.357060 0.918582
O O4 0.813014 0.390406 0.956156
O O5 0.250000 0.250000 0.500000
O O6 0.184118 0.168791 0.551849
O O7 0.382631 0.293311 0.697042
O O8 0.114059 0.343516 0.484175
O O9 0.666748 0.828704 0.693132
O O10 0.745736 0.663905 0.701810
O O11 0.782177 0.694666 0.833133
O O12 0.931354 0.785500 0.844422
O O13 0.500000 0.103293 0.500000
O O14 0.546233 0.000000 0.622378
O O15 0.500000 0.602447 0.500000
O O16 0.722337 0.500000 0.628947
O O17 0.235170 0.500000 0.164278
O O18 0.000000 0.403595 0.000000
#
# Coordination Sequence:
#
# PCOD9185357 Si02
#       7
#     8   8   8   8   8   8   8
#     4  10  22  40  59  88 121 153 198 245 296 353
#     4  11  23  40  59  85 123 156 197 245 300 353
#     4  11  19  37  60  87 118 153 196 243 296 354
#     4  11  22  40  62  84 114 157 205 243 288 351
#     4  10  19  34  56  85 115 147 187 233 293 354
#     4  10  22  37  60  86 112 161 196 238 297 348
#     4  10  20  34  60  91 116 148 190 245 302 352
#
# _framework density 18.528255000000001
#
# number of rings (size 3 to 8) (size 9 to 14) (size 15 to 20)
#    0.000    1.571    5.714    0.429    2.000    4.000 
#    0.000    0.000    0.000    0.429    0.000    0.000 
#    0.000    0.000    0.000    0.000    0.000    0.000 
#
# Total GULP energy -156149.011835 kJ/mol
# GULP energy per Si atom -5576.750423 kJ/mol
# Density = 1.848608 g / cm^3
# Si number density = 18.528255 Si / 1000 Ang^3
#
#
#
# Elastic Constant Matrix: (Units=GPa)
#
#
# Indices 1 2 3 4 5 6 
#
# 1 56.0255 16.3991 14.8909 -0.0004 10.7595 -0.0008
# 2 16.3991 129.4552 32.1548 -0.0002 12.0499 -0.0002
# 3 14.8909 32.1548 42.0603 0.0006 19.8164 0.0012
# 4 -0.0004 -0.0002 0.0006 -3.2915 0.0006 -7.7529
# 5 10.7595 12.0499 19.8164 0.0006 30.3367 0.0008
# 6 -0.0008 -0.0002 0.0012 -7.7529 0.0008 28.0194
#
#
#
# Elastic Compliance Matrix: (Units=1/GPa)
#
#
# Indices 1 2 3 4 5 6 
#
# 1 0.020085 -0.001071 -0.004531 -0.000004 -0.003739 0.000000
# 2 -0.001071 0.009634 -0.007746 -0.000001 0.001613 0.000000
# 3 -0.004531 -0.007746 0.042029 0.000004 -0.022771 0.000000
# 4 -0.000004 -0.000001 0.000004 -0.183934 0.000004 -0.050894
# 5 -0.003739 0.001613 -0.022771 0.000004 0.048523 0.000001
# 6 0.000000 0.000000 0.000000 -0.050894 0.000001 0.021607
#
#
# Mechanical properties :
#
#
# Convention : Reuss Voigt Hill
#
# Bulk Modulus (GPa) = 22.19604 39.38116 30.78860
# Shear Modulus (GPa) = -14562.64886 21.95267 -7270.34810
#
# Velocity S-wave (km/s) = -88.75112 3.44586 -62.70920
# Velocity P-wave (km/s) = 102.42237 6.09366 72.29526
#
# Compressibility (1/GPa) = 0.04505308
#
# Stress axis : x y z
#
# Youngs Moduli (GPa) = 49.78928 103.79675 23.79289
#
# Poissons Ratio (x) = 0.11116 0.10780
# Poissons Ratio (y) = 0.05332 0.18430
# Poissons Ratio (z) = 0.22557 0.80401
#
# Static dielectric constant tensor:
#      x y z
#    x 1.585010 0.000000 0.019450 
#    y 0.000000 1.668660 0.000000 
#    z 0.019450 0.000000 1.646730 
# 
# From -- ./inp_files/316763.got.cif
#   From: 2010.05.17/outbox.cif.g08.bks.cpg/sg12_159_cif.got.tgz:316763.got - 2010.06.03 13:09:07.
