data_PCOD9185433
_publ_section_title
;
Structure prediction by ZEFSAII (Michael W. Deem and Ramdas Pophale) SiO2 
 PCOD9185433
Probable space group: C 2/M
;
_chemical_formula_sum "Si O2"
_cell_formula_units_Z 56
_cell_length_a 14.236138
_cell_length_b 14.626062
_cell_length_c 14.388167
_cell_angle_alpha 90.000000
_cell_angle_beta 121.600324
_cell_angle_gamma 90.000000
_cell_volume 2551.666662
_symmetry_space_group_name_H-M "C 2/M"
_symmetry_group_IT_number 12
_symmetry_cell_setting 'monoclinic'
loop_
_space_group_symop_operation_xyz
x,y,z
-x,y,-z
-x,-y,-z
x,-y,z
1/2+x,1/2+y,z
1/2-x,1/2+y,-z
1/2-x,1/2-y,-z
1/2+x,1/2-y,z
loop_
_atom_site_type_symbol
_atom_site_label
_atom_site_fract_x
_atom_site_fract_y
_atom_site_fract_z
Si Si1 0.769683 0.897224 0.185999
Si Si2 0.319859 0.890188 0.265686
Si Si3 0.194754 0.346191 0.957377
Si Si4 0.553420 0.108618 0.168163
Si Si5 0.565605 0.891484 0.394770
Si Si6 0.996177 0.887722 0.389554
Si Si7 0.712233 0.612095 0.391471
O O1 0.657847 0.853435 0.166890
O O2 0.883642 0.855974 0.281081
O O3 0.768260 0.000000 0.225345
O O4 0.756998 0.903138 0.069006
O O5 0.295162 0.872594 0.145143
O O6 0.443406 0.855192 0.355004
O O7 0.229104 0.859770 0.293144
O O8 0.326653 0.000000 0.277727
O O9 0.064626 0.347369 0.911803
O O10 0.250000 0.250000 0.000000
O O11 0.577138 0.116062 0.289862
O O12 0.538140 0.000000 0.138505
O O13 0.675562 0.856119 0.500128
O O14 0.563061 0.000000 0.416323
O O15 0.000000 0.862054 0.500000
O O16 0.102697 0.855589 0.386997
O O17 0.998056 0.000000 0.387807
O O18 0.708668 0.500000 0.393857
#
# Coordination Sequence:
#
# PCOD9185433 Si02
#       7
#     8   8   8   8   8   8   8
#     4  10  19  34  57  80 102 134 177 223 267 310
#     4   9  17  30  49  74 104 139 180 218 253 307
#     4  11  22  35  50  73 104 137 172 220 273 317
#     4   9  17  32  57  84 105 129 171 224 269 311
#     4   8  13  23  45  78 108 131 161 208 262 309
#     4   9  17  29  48  77 108 133 164 213 268 315
#     4   9  15  25  44  74 110 140 166 204 259 316
#
# _framework density 21.946441
#
# number of rings (size 3 to 8) (size 9 to 14) (size 15 to 20)
#    0.000    2.714    0.000    3.857    0.000    6.286 
#    0.000    3.571    0.000    6.857    0.000    7.000 
#    0.000    0.000    0.000    0.000    0.000    0.000 
#
# Total GULP energy -156298.234207 kJ/mol
# GULP energy per Si atom -5582.079793 kJ/mol
# Density = 2.189649 g / cm^3
# Si number density = 21.946441 Si / 1000 Ang^3
#
#
#
# Elastic Constant Matrix: (Units=GPa)
#
#
# Indices 1 2 3 4 5 6 
#
# 1 209.3008 23.8795 114.2196 0.0000 -1.1637 0.0000
# 2 23.8795 42.2554 10.2687 0.0000 10.7045 0.0000
# 3 114.2196 10.2687 163.8625 0.0000 12.3038 0.0000
# 4 0.0000 0.0000 0.0000 -412.6919 0.0000 -240.1337
# 5 -1.1637 10.7045 12.3038 0.0000 19.4114 0.0000
# 6 0.0000 0.0000 0.0000 -240.1337 0.0000 -140.2385
#
#
#
# Elastic Compliance Matrix: (Units=1/GPa)
#
#
# Indices 1 2 3 4 5 6 
#
# 1 0.008988 -0.005440 -0.006499 0.000000 0.007658 0.000000
# 2 -0.005440 0.030860 0.003318 0.000000 -0.019447 0.000000
# 3 -0.006499 0.003318 0.011121 0.000000 -0.009268 0.000000
# 4 0.000000 0.000000 0.000000 -0.664339 0.000000 1.137563
# 5 0.007658 -0.019447 -0.009268 0.000000 0.068574 0.000000
# 6 0.000000 0.000000 0.000000 1.137563 0.000000 -1.955006
#
#
# Mechanical properties :
#
#
# Convention : Reuss Voigt Hill
#
# Bulk Modulus (GPa) = 29.64976 79.12826 54.38901
# Shear Modulus (GPa) = -2.02321 -88.90040 -45.46181
#
# Velocity S-wave (km/s) = -0.96119 -6.37149 -4.55630
# Velocity P-wave (km/s) = 3.50821 4.24197 1.68624
#
# Compressibility (1/GPa) = 0.03372709
#
# Stress axis : x y z
#
# Youngs Moduli (GPa) = 111.26478 32.40453 89.92278
#
# Poissons Ratio (x) = 0.17627 0.58440
# Poissons Ratio (y) = 0.60525 -0.29837
# Poissons Ratio (z) = 0.72309 -0.10752
#
# Static dielectric constant tensor:
#      x y z
#    x 1.833050 0.000000 -0.050980 
#    y 0.000000 1.764730 0.000000 
#    z -0.050980 0.000000 1.855890 
# 
# From -- ./inp_files/216441.got.cif
#   From: 2010.05.17/outbox.cif.g08.bks.cpg/sg12_109_cif.got.tgz:216441.got - 2010.06.03 13:09:07.
