data_PCOD9185656
_publ_section_title
;
Structure prediction by ZEFSAII (Michael W. Deem and Ramdas Pophale) SiO2 
 PCOD9185656
Probable space group: C 2/M
;
_chemical_formula_sum "Si O2"
_cell_formula_units_Z 48
_cell_length_a 29.042371
_cell_length_b 9.426969
_cell_length_c 21.095456
_cell_angle_alpha 90.000000
_cell_angle_beta 157.121513
_cell_angle_gamma 90.000000
_cell_volume 2245.405564
_symmetry_space_group_name_H-M "C 2/M"
_symmetry_group_IT_number 12
_symmetry_cell_setting 'monoclinic'
loop_
_space_group_symop_operation_xyz
x,y,z
-x,y,-z
-x,-y,-z
x,-y,z
1/2+x,1/2+y,z
1/2-x,1/2+y,-z
1/2-x,1/2-y,-z
1/2+x,1/2-y,z
loop_
_atom_site_type_symbol
_atom_site_label
_atom_site_fract_x
_atom_site_fract_y
_atom_site_fract_z
Si Si1 0.163631 0.161937 0.680562
Si Si2 0.388028 0.751290 0.892808
Si Si3 0.569612 0.327902 0.690477
Si Si4 0.755927 0.835922 0.600558
Si Si5 0.483147 0.170922 0.253073
Si Si6 0.015016 0.838364 0.175681
O O1 0.288166 0.164886 0.803776
O O2 0.156987 0.218353 0.743976
O O3 0.059138 0.216625 0.502218
O O4 0.128877 0.000000 0.645721
O O5 0.316433 0.674356 0.746249
O O6 0.500000 0.824837 0.000000
O O7 0.446691 0.657696 0.022179
O O8 0.573962 0.500000 0.707374
O O9 0.584406 0.244336 0.774595
O O10 0.622363 0.781398 0.434993
O O11 0.854979 0.776003 0.678106
O O12 0.745082 0.000000 0.568775
O O13 0.451329 0.236378 0.144665
O O14 0.473518 0.000000 0.242715
O O15 0.024842 0.000000 0.212421
#
# Coordination Sequence:
#
# PCOD9185656 Si02
#       6
#     8   8   8   8   8   8
#     4   9  18  34  57  84 113 147 186 232 280 333
#     4  10  19  34  57  85 116 145 185 232 283 331
#     4   9  18  36  60  82 110 149 191 229 276 338
#     4   9  18  34  55  80 111 148 192 235 277 330
#     4  11  21  35  56  84 116 146 186 243 288 320
#     4  10  21  36  55  80 115 158 192 221 275 348
#
# _framework density 21.376982999999999
#
# number of rings (size 3 to 8) (size 9 to 14) (size 15 to 20)
#    0.000    2.333    1.667    2.500    0.000    3.000 
#    0.000    7.500    0.000    0.000    0.000    0.000 
#    0.000    0.000    0.000    0.000    0.000    0.000 
#
# Total GULP energy -133621.035703 kJ/mol
# GULP energy per Si atom -5567.543154 kJ/mol
# Density = 2.132833 g / cm^3
# Si number density = 21.376983 Si / 1000 Ang^3
#
#
#
# Elastic Constant Matrix: (Units=GPa)
#
#
# Indices 1 2 3 4 5 6 
#
# 1 177.6549 48.0954 17.5576 0.0000 3.0460 0.0000
# 2 48.0954 61.4853 2.8519 0.0000 -1.8864 0.0000
# 3 17.5576 2.8519 55.4845 0.0000 7.2328 0.0000
# 4 0.0000 0.0000 0.0000 5.8693 0.0000 -3.9479
# 5 3.0460 -1.8864 7.2328 0.0000 40.4525 0.0000
# 6 0.0000 0.0000 0.0000 -3.9479 0.0000 22.4259
#
#
#
# Elastic Compliance Matrix: (Units=1/GPa)
#
#
# Indices 1 2 3 4 5 6 
#
# 1 0.007373 -0.005690 -0.001980 0.000000 -0.000467 0.000000
# 2 -0.005690 0.020728 0.000566 0.000000 0.001294 0.000000
# 3 -0.001980 0.000566 0.019041 0.000000 -0.003229 0.000000
# 4 0.000000 0.000000 0.000000 0.193264 0.000000 0.034023
# 5 -0.000467 0.001294 -0.003229 0.000000 0.025393 0.000000
# 6 0.000000 0.000000 0.000000 0.034023 0.000000 0.050581
#
#
# Mechanical properties :
#
#
# Convention : Reuss Voigt Hill
#
# Bulk Modulus (GPa) = 30.36186 47.95940 39.16063
# Shear Modulus (GPa) = 14.63849 28.82419 21.73134
#
# Velocity S-wave (km/s) = 2.61967 3.67601 3.19184
# Velocity P-wave (km/s) = 4.83571 6.36405 5.65178
#
# Compressibility (1/GPa) = 0.03293606
#
# Stress axis : x y z
#
# Youngs Moduli (GPa) = 135.63156 48.24356 52.51722
#
# Poissons Ratio (x) = 0.27449 0.10398
# Poissons Ratio (y) = 0.77171 -0.02975
# Poissons Ratio (z) = 0.26853 -0.02733
#
# Static dielectric constant tensor:
#      x y z
#    x 1.815160 0.000000 0.003860 
#    y 0.000000 1.748750 0.000000 
#    z 0.003860 0.000000 1.850260 
# 
# From -- ./inp_files/289440.got.cif
#   From: 2010.05.17/outbox.cif.g08.bks.cpg/sg12_145_cif.got.tgz:289440.got - 2010.06.03 13:09:07.
