data_PCOD9185956
_publ_section_title
;
Structure prediction by ZEFSAII (Michael W. Deem and Ramdas Pophale) SiO2 
 PCOD9185956
Probable space group: C 2/M
;
_chemical_formula_sum "Si O2"
_cell_formula_units_Z 32
_cell_length_a 8.491422
_cell_length_b 25.260569
_cell_length_c 14.350227
_cell_angle_alpha 90.000000
_cell_angle_beta 31.144038
_cell_angle_gamma 90.000000
_cell_volume 1591.965104
_symmetry_space_group_name_H-M "C 2/M"
_symmetry_group_IT_number 12
_symmetry_cell_setting 'monoclinic'
loop_
_space_group_symop_operation_xyz
x,y,z
-x,y,-z
-x,-y,-z
x,-y,z
1/2+x,1/2+y,z
1/2-x,1/2+y,-z
1/2-x,1/2-y,-z
1/2+x,1/2-y,z
loop_
_atom_site_type_symbol
_atom_site_label
_atom_site_fract_x
_atom_site_fract_y
_atom_site_fract_z
Si Si1 0.360952 0.105178 0.796967
Si Si2 0.359468 0.500000 0.806205
Si Si3 0.742392 0.108405 0.795030
Si Si4 0.867599 0.500000 0.673832
Si Si5 0.805328 0.809448 0.503550
O O1 0.553204 0.102583 0.795445
O O2 0.426852 0.052745 0.702674
O O3 0.498173 0.156763 0.675648
O O4 0.000000 0.108938 0.000000
O O5 0.426950 0.554092 0.718746
O O6 0.508037 0.500000 0.832047
O O7 0.000000 0.500000 0.000000
O O8 0.978616 0.156391 0.673332
O O9 0.500000 0.115453 0.000000
O O10 0.000000 0.500000 0.500000
O O11 0.750000 0.750000 0.500000
O O12 0.000000 0.808003 0.500000
#
# Coordination Sequence:
#
# PCOD9185956 Si02
#       5
#     8   4   8   4   8
#     4  11  23  40  62  92 124 159 201 248 300 361
#     4  10  19  34  58  87 116 151 187 233 292 350
#     4  10  21  40  63  89 121 159 198 246 303 359
#     4  12  24  38  61  93 125 161 198 245 301 358
#     4  10  24  42  61  85 118 159 205 251 299 354
#
# _framework density 20.100944999999999
#
# number of rings (size 3 to 8) (size 9 to 14) (size 15 to 20)
#    0.000    1.500    0.000    5.625    0.000    6.000 
#    0.000   10.000    0.000    0.000    0.000    0.000 
#    0.000    0.000    0.000    0.000    0.000    0.000 
#
# Total GULP energy -89376.100834 kJ/mol
# GULP energy per Si atom -5586.006302 kJ/mol
# Density = 2.005519 g / cm^3
# Si number density = 20.100945 Si / 1000 Ang^3
#
#
#
# Elastic Constant Matrix: (Units=GPa)
#
#
# Indices 1 2 3 4 5 6 
#
# 1 79.0421 53.9282 36.4901 0.0000 2.5660 0.0000
# 2 53.9282 231.8901 95.5602 0.0000 7.3184 0.0000
# 3 36.4901 95.5602 150.6604 0.0000 5.5516 0.0000
# 4 0.0000 0.0000 0.0000 25.3599 0.0000 -3.5141
# 5 2.5660 7.3184 5.5516 0.0000 27.0567 0.0000
# 6 0.0000 0.0000 0.0000 -3.5141 0.0000 38.8817
#
#
#
# Elastic Compliance Matrix: (Units=1/GPa)
#
#
# Indices 1 2 3 4 5 6 
#
# 1 0.015465 -0.002773 -0.001976 0.000000 -0.000311 0.000000
# 2 -0.002773 0.006354 -0.003330 0.000000 -0.000772 0.000000
# 3 -0.001976 -0.003330 0.009258 0.000000 -0.000812 0.000000
# 4 0.000000 0.000000 0.000000 0.039932 0.000000 0.003609
# 5 -0.000311 -0.000772 -0.000812 0.000000 0.037364 0.000000
# 6 0.000000 0.000000 0.000000 0.003609 0.000000 0.026045
#
#
# Mechanical properties :
#
#
# Convention : Reuss Voigt Hill
#
# Bulk Modulus (GPa) = 67.02184 92.61664 79.81924
# Shear Modulus (GPa) = 32.14410 36.63393 34.38902
#
# Velocity S-wave (km/s) = 4.00326 4.27370 4.14069
# Velocity P-wave (km/s) = 7.40156 8.39813 7.91554
#
# Compressibility (1/GPa) = 0.01492051
#
# Stress axis : x y z
#
# Youngs Moduli (GPa) = 64.66072 157.38399 108.01397
#
# Poissons Ratio (x) = 0.43637 0.21340
# Poissons Ratio (y) = 0.17928 0.35970
# Poissons Ratio (z) = 0.12775 0.52411
#
# Static dielectric constant tensor:
#      x y z
#    x 1.721130 0.000000 -0.023750 
#    y 0.000000 1.706540 0.000000 
#    z -0.023750 0.000000 1.783920 
# 
# From -- ./inp_files/65661.got.cif
#   From: 2010.05.17/outbox.cif.g08.bks.cpg/sg12_33_cif.got.tgz:65661.got - 2010.06.03 13:09:07.
