data_PCOD9185778
_publ_section_title
;
Structure prediction by ZEFSAII (Michael W. Deem and Ramdas Pophale) SiO2 
 PCOD9185778
Probable space group: C 2/M
;
_chemical_formula_sum "Si O2"
_cell_formula_units_Z 40
_cell_length_a 18.563163
_cell_length_b 14.979260
_cell_length_c 22.549582
_cell_angle_alpha 90.000000
_cell_angle_beta 16.704056
_cell_angle_gamma 90.000000
_cell_volume 1802.230750
_symmetry_space_group_name_H-M "C 2/M"
_symmetry_group_IT_number 12
_symmetry_cell_setting 'monoclinic'
loop_
_space_group_symop_operation_xyz
x,y,z
-x,y,-z
-x,-y,-z
x,-y,z
1/2+x,1/2+y,z
1/2-x,1/2+y,-z
1/2-x,1/2-y,-z
1/2+x,1/2-y,z
loop_
_atom_site_type_symbol
_atom_site_label
_atom_site_fract_x
_atom_site_fract_y
_atom_site_fract_z
Si Si1 0.030902 0.894071 0.123669
Si Si2 0.698402 0.223144 0.473312
Si Si3 0.276892 0.904699 0.251367
Si Si4 0.718421 0.792683 0.277101
Si Si5 0.420867 0.901538 0.263031
O O1 0.897955 0.840621 0.282735
O O2 0.926739 0.853801 0.143977
O O3 0.975954 0.000000 0.170168
O O4 0.327534 0.882192 0.899192
O O5 0.750000 0.250000 0.500000
O O6 0.429350 0.183034 0.666472
O O7 0.728518 0.321233 0.420925
O O8 0.307610 0.808679 0.198613
O O9 0.471422 0.905307 0.152961
O O10 0.000000 0.906753 0.500000
O O11 0.295636 0.000000 0.204291
O O12 0.500000 0.793988 0.500000
O O13 0.326145 0.000000 0.355292
#
# Coordination Sequence:
#
# PCOD9185778 Si02
#       5
#     8   8   8   8   8
#     4  10  21  37  59  81 107 146 191 228 261 317
#     4  11  22  35  53  82 115 142 175 225 282 327
#     4   9  14  25  50  80 102 125 172 226 262 308
#     4   9  17  32  52  77 104 141 185 218 264 315
#     4  10  19  34  58  83 105 138 184 230 268 316
#
# _framework density 22.194717000000001
#
# number of rings (size 3 to 8) (size 9 to 14) (size 15 to 20)
#    0.000    2.200    6.000    0.600    0.000    4.400 
#    0.000    1.000    0.000    2.400    0.000    4.200 
#    0.000    0.000    0.000    0.000    0.000    0.000 
#
# Total GULP energy -111377.130078 kJ/mol
# GULP energy per Si atom -5568.856504 kJ/mol
# Density = 2.214420 g / cm^3
# Si number density = 22.194717 Si / 1000 Ang^3
#
#
#
# Elastic Constant Matrix: (Units=GPa)
#
#
# Indices 1 2 3 4 5 6 
#
# 1 112.5738 20.8171 50.8536 -0.0507 -34.0402 -0.0442
# 2 20.8171 112.8845 30.8362 -0.1910 -9.7449 -0.1795
# 3 50.8536 30.8362 64.9152 0.0287 -18.8859 -0.1374
# 4 -0.0507 -0.1910 0.0287 14.7249 -0.0148 -30.2987
# 5 -34.0402 -9.7449 -18.8859 -0.0148 43.1314 0.0468
# 6 -0.0442 -0.1795 -0.1374 -30.2987 0.0468 37.0742
#
#
#
# Elastic Compliance Matrix: (Units=1/GPa)
#
#
# Indices 1 2 3 4 5 6 
#
# 1 0.015935 0.000606 -0.010397 -0.000053 0.008161 -0.000070
# 2 0.000606 0.010203 -0.005171 -0.000304 0.000519 -0.000218
# 3 -0.010397 -0.005171 0.026677 0.000047 0.002307 0.000097
# 4 -0.000053 -0.000304 0.000047 -0.099626 -0.000035 -0.081420
# 5 0.008161 0.000519 0.002307 -0.000035 0.030753 -0.000047
# 6 -0.000070 -0.000218 0.000097 -0.081420 -0.000047 -0.039568
#
#
# Mechanical properties :
#
#
# Convention : Reuss Voigt Hill
#
# Bulk Modulus (GPa) = 43.68320 55.04303 49.36312
# Shear Modulus (GPa) = -276.70807 31.51055 -122.59876
#
# Velocity S-wave (km/s) = -11.17782 3.77202 -7.44028
# Velocity P-wave (km/s) = 12.11887 6.62003 7.17782
#
# Compressibility (1/GPa) = 0.02289209
#
# Stress axis : x y z
#
# Youngs Moduli (GPa) = 62.75297 98.00757 37.48508
#
# Poissons Ratio (x) = -0.05937 0.38974
# Poissons Ratio (y) = -0.03802 0.19382
# Poissons Ratio (z) = 0.65246 0.50675
#
# Static dielectric constant tensor:
#      x y z
#    x 1.926110 0.000180 -0.019970 
#    y 0.000180 1.823690 0.000130 
#    z -0.019970 0.000130 1.866990 
# 
# From -- ./inp_files/72840.got.cif
#   From: 2010.05.17/outbox.cif.g08.bks.cpg/sg12_37_cif.got.tgz:72840.got - 2010.06.03 13:09:07.
