data_PCOD9185091
_publ_section_title
;
Structure prediction by ZEFSAII (Michael W. Deem and Ramdas Pophale) SiO2 
 PCOD9185091
Probable space group: C 2/M
;
_chemical_formula_sum "Si O2"
_cell_formula_units_Z 58
_cell_length_a 25.301909
_cell_length_b 7.555405
_cell_length_c 14.263854
_cell_angle_alpha 90.000000
_cell_angle_beta 75.718105
_cell_angle_gamma 90.000000
_cell_volume 2642.492166
_symmetry_space_group_name_H-M "C 2/M"
_symmetry_group_IT_number 12
_symmetry_cell_setting 'monoclinic'
loop_
_space_group_symop_operation_xyz
x,y,z
-x,y,-z
-x,-y,-z
x,-y,z
1/2+x,1/2+y,z
1/2-x,1/2+y,-z
1/2-x,1/2-y,-z
1/2+x,1/2-y,z
loop_
_atom_site_type_symbol
_atom_site_label
_atom_site_fract_x
_atom_site_fract_y
_atom_site_fract_z
Si Si1 0.000000 0.000000 0.500000
Si Si2 0.004482 0.791858 0.891858
Si Si3 0.714519 0.709280 0.780236
Si Si4 0.689152 0.288443 0.992179
Si Si5 0.891827 0.710256 0.274120
Si Si6 0.909856 0.284621 0.481506
Si Si7 0.598703 0.285786 0.178139
Si Si8 0.167963 0.708422 0.327704
O O1 0.045930 0.157118 0.492780
O O2 0.064209 0.777040 0.820790
O O3 0.959593 0.722679 0.836639
O O4 0.991544 0.000000 0.906655
O O5 0.000000 0.717955 0.000000
O O6 0.721881 0.500000 0.794985
O O7 0.687801 0.782766 0.887310
O O8 0.669402 0.730170 0.720824
O O9 0.774167 0.786073 0.731460
O O10 0.680544 0.500000 0.994612
O O11 0.750000 0.250000 0.000000
O O12 0.644114 0.221013 0.083941
O O13 0.892979 0.500000 0.267595
O O14 0.908156 0.759122 0.372247
O O15 0.919128 0.500000 0.487510
O O16 0.854242 0.238622 0.561304
O O17 0.597507 0.500000 0.181145
O O18 0.620665 0.234125 0.270706
O O19 0.177258 0.500000 0.330536
#
# Coordination Sequence:
#
# PCOD9185091 Si02
#       8
#     2   8   8   8   8   8   8   8
#     4  12  26  44  80  98 126 192 214 264 348 390
#     4  10  22  41  64  89 123 165 213 266 316 390
#     4  10  21  39  65  89 123 173 218 261 321 398
#     4  10  19  34  55  88 125 161 207 262 314 378
#     4  11  25  43  63  92 130 170 212 270 332 383
#     4  10  26  46  66 103 139 166 223 280 323 396
#     4  10  21  34  58  90 124 160 209 264 315 387
#     4  10  22  41  62  91 128 165 207 272 332 369
#
# _framework density 21.948976999999999
#
# number of rings (size 3 to 8) (size 9 to 14) (size 15 to 20)
#    0.000    1.793    1.379    1.448    4.828    4.690 
#    0.000    1.379    0.000    0.000    0.000    0.000 
#    0.000    0.000    0.000    0.000    0.000    0.000 
#
# Total GULP energy -161619.188650 kJ/mol
# GULP energy per Si atom -5573.075471 kJ/mol
# Density = 2.189902 g / cm^3
# Si number density = 21.948977 Si / 1000 Ang^3
#
#
#
# Elastic Constant Matrix: (Units=GPa)
#
#
# Indices 1 2 3 4 5 6 
#
# 1 87.4941 -15.5687 19.0684 0.0000 -6.4214 0.0000
# 2 -15.5687 40.0719 0.4550 0.0000 -11.5599 0.0000
# 3 19.0684 0.4550 146.1532 0.0000 20.9978 0.0000
# 4 0.0000 0.0000 0.0000 41.3527 0.0000 22.6236
# 5 -6.4214 -11.5599 20.9978 0.0000 27.7906 0.0000
# 6 0.0000 0.0000 0.0000 22.6236 0.0000 32.7338
#
#
#
# Elastic Compliance Matrix: (Units=1/GPa)
#
#
# Indices 1 2 3 4 5 6 
#
# 1 0.014256 0.008207 -0.003196 0.000000 0.009122 0.000000
# 2 0.008207 0.033613 -0.003877 0.000000 0.018808 0.000000
# 3 -0.003196 -0.003877 0.008536 0.000000 -0.008801 0.000000
# 4 0.000000 0.000000 0.000000 0.038885 0.000000 -0.026875
# 5 0.009122 0.018808 -0.008801 0.000000 0.052564 0.000000
# 6 0.000000 0.000000 0.000000 -0.026875 0.000000 0.049124
#
#
# Mechanical properties :
#
#
# Convention : Reuss Voigt Hill
#
# Bulk Modulus (GPa) = 17.04436 31.29209 24.16822
# Shear Modulus (GPa) = 23.33515 38.35972 30.84743
#
# Velocity S-wave (km/s) = 3.26414 4.18506 3.75295
# Velocity P-wave (km/s) = 4.68919 6.13520 5.46027
#
# Compressibility (1/GPa) = 0.05867043
#
# Stress axis : x y z
#
# Youngs Moduli (GPa) = 70.14747 29.75021 117.15662
#
# Poissons Ratio (x) = -0.24415 0.37444
# Poissons Ratio (y) = -0.57567 0.45427
# Poissons Ratio (z) = 0.22420 0.11536
#
# Static dielectric constant tensor:
#      x y z
#    x 1.830620 0.000000 0.010600 
#    y 0.000000 1.832840 0.000000 
#    z 0.010600 0.000000 1.827170 
# 
# From -- ./inp_files/237574.got.cif
#   From: 2010.05.17/outbox.cif.g08.bks.cpg/sg12_119_cif.got.tgz:237574.got - 2010.06.03 13:09:07.
