data_PCOD9185755
_publ_section_title
;
Structure prediction by ZEFSAII (Michael W. Deem and Ramdas Pophale) SiO2 
 PCOD9185755
Probable space group: C 2/M
;
_chemical_formula_sum "Si O2"
_cell_formula_units_Z 64
_cell_length_a 12.313849
_cell_length_b 13.789875
_cell_length_c 33.882520
_cell_angle_alpha 90.000000
_cell_angle_beta 36.542165
_cell_angle_gamma 90.000000
_cell_volume 3425.697757
_symmetry_space_group_name_H-M "C 2/M"
_symmetry_group_IT_number 12
_symmetry_cell_setting 'monoclinic'
loop_
_space_group_symop_operation_xyz
x,y,z
-x,y,-z
-x,-y,-z
x,-y,z
1/2+x,1/2+y,z
1/2-x,1/2+y,-z
1/2-x,1/2-y,-z
1/2+x,1/2-y,z
loop_
_atom_site_type_symbol
_atom_site_label
_atom_site_fract_x
_atom_site_fract_y
_atom_site_fract_z
Si Si1 0.737482 0.735691 0.219801
Si Si2 0.808707 0.309831 0.429770
Si Si3 0.586928 0.884954 0.683960
Si Si4 0.125779 0.173291 0.335717
Si Si5 0.761705 0.389894 0.981566
Si Si6 0.692411 0.112163 0.876354
Si Si7 0.252951 0.603937 0.469000
Si Si8 0.845032 0.789147 0.909191
O O1 0.603875 0.827777 0.259124
O O2 0.680211 0.671970 0.274246
O O3 0.722031 0.675240 0.183920
O O4 0.947632 0.766326 0.163129
O O5 0.806660 0.356610 0.387472
O O6 0.754553 0.377214 0.481871
O O7 0.696861 0.207952 0.466273
O O8 0.019945 0.275298 0.374450
O O9 0.705808 0.846496 0.685590
O O10 0.563227 0.000000 0.692768
O O11 0.962856 0.101071 0.394010
O O12 0.716973 0.500000 0.983546
O O13 0.747520 0.310944 0.951046
O O14 0.974545 0.386235 0.932707
O O15 0.652887 0.353999 0.051717
O O16 0.742477 0.158041 0.903702
O O17 0.751355 0.000000 0.857734
O O18 0.165421 0.500000 0.485189
#
# Coordination Sequence:
#
# PCOD9185755 Si02
#       8
#     8   8   8   8   8   8   8   8
#     4  10  22  38  51  78 113 143 180 223 270 313
#     4   8  19  34  51  83 111 132 171 229 270 320
#     4  11  21  35  55  78 106 144 185 222 264 321
#     4   9  19  35  54  77 107 139 179 224 261 312
#     4   9  19  35  57  84 109 138 178 222 268 319
#     4  10  20  35  58  81 104 141 185 223 264 320
#     4   9  16  33  57  80 106 140 174 220 276 319
#     4  10  19  34  58  81 111 141 176 224 269 316
#
# _framework density 18.682326
#
# number of rings (size 3 to 8) (size 9 to 14) (size 15 to 20)
#    0.750    1.750    0.000    2.250    0.000    3.500 
#    0.000    4.375    0.000   15.750    0.000    0.000 
#    0.000    0.000    0.000    0.000    0.000    0.000 
#
# Total GULP energy -178216.170370 kJ/mol
# GULP energy per Si atom -5569.255324 kJ/mol
# Density = 1.863980 g / cm^3
# Si number density = 18.682326 Si / 1000 Ang^3
#
#
#
# Elastic Constant Matrix: (Units=GPa)
#
#
# Indices 1 2 3 4 5 6 
#
# 1 73.4365 37.2020 3.3666 0.0012 25.6932 -0.0002
# 2 37.2020 113.2988 20.4926 0.0004 14.0565 -0.0002
# 3 3.3666 20.4926 92.2384 0.0010 19.3452 -0.0003
# 4 0.0012 0.0004 0.0010 2.7110 0.0000 -5.6894
# 5 25.6932 14.0565 19.3452 0.0000 18.1549 0.0000
# 6 -0.0002 -0.0002 -0.0003 -5.6894 0.0000 15.2520
#
#
#
# Elastic Compliance Matrix: (Units=1/GPa)
#
#
# Indices 1 2 3 4 5 6 
#
# 1 0.039329 -0.007387 0.013753 -0.000096 -0.064594 -0.000035
# 2 -0.007387 0.011192 -0.003338 0.000013 0.005346 0.000005
# 3 0.013753 -0.003338 0.018829 -0.000055 -0.036943 -0.000020
# 4 -0.000096 0.000013 -0.000055 1.698544 0.000191 0.633602
# 5 -0.064594 0.005346 -0.036943 0.000191 0.181723 0.000070
# 6 -0.000035 0.000005 -0.000020 0.633602 0.000070 0.301916
#
#
# Mechanical properties :
#
#
# Convention : Reuss Voigt Hill
#
# Bulk Modulus (GPa) = 13.26165 44.56621 28.91393
# Shear Modulus (GPa) = 2.20205 21.75109 11.97657
#
# Velocity S-wave (km/s) = 1.08685 3.41583 2.53467
# Velocity P-wave (km/s) = 2.94769 6.28201 4.90676
#
# Compressibility (1/GPa) = 0.07540541
#
# Stress axis : x y z
#
# Youngs Moduli (GPa) = 25.42681 89.34647 53.10897
#
# Poissons Ratio (x) = 0.66003 -0.73042
# Poissons Ratio (y) = 0.18784 0.17729
# Poissons Ratio (z) = -0.34970 0.29826
#
# Static dielectric constant tensor:
#      x y z
#    x 1.634570 0.000000 -0.011880 
#    y 0.000000 1.666390 0.000000 
#    z -0.011880 0.000000 1.642530 
# 
# From -- ./inp_files/374087.got.cif
#   From: 2010.05.17/outbox.cif.g08.bks.cpg/sg12_188_cif.got.tgz:374087.got - 2010.06.03 13:09:07.
