data_PCOD9185237
_publ_section_title
;
Structure prediction by ZEFSAII (Michael W. Deem and Ramdas Pophale) SiO2 
 PCOD9185237
Probable space group: C 2/M
;
_chemical_formula_sum "Si O2"
_cell_formula_units_Z 28
_cell_length_a 14.076213
_cell_length_b 5.414542
_cell_length_c 17.431023
_cell_angle_alpha 90.000000
_cell_angle_beta 81.798287
_cell_angle_gamma 90.000000
_cell_volume 1314.938925
_symmetry_space_group_name_H-M "C 2/M"
_symmetry_group_IT_number 12
_symmetry_cell_setting 'monoclinic'
loop_
_space_group_symop_operation_xyz
x,y,z
-x,y,-z
-x,-y,-z
x,-y,z
1/2+x,1/2+y,z
1/2-x,1/2+y,-z
1/2-x,1/2-y,-z
1/2+x,1/2-y,z
loop_
_atom_site_type_symbol
_atom_site_label
_atom_site_fract_x
_atom_site_fract_y
_atom_site_fract_z
Si Si1 0.254517 0.000000 0.449150
Si Si2 0.709191 0.000000 0.068109
Si Si3 0.962162 0.500000 0.347245
Si Si4 0.732329 0.500000 0.111055
Si Si5 0.420764 0.000000 0.173665
Si Si6 0.046950 0.000000 0.409224
Si Si7 0.063156 0.000000 0.916999
O O1 0.250000 0.250000 0.500000
O O2 0.354784 0.000000 0.393602
O O3 0.161304 0.000000 0.406083
O O4 0.672727 0.749404 0.109623
O O5 0.823383 0.000000 0.074072
O O6 0.703985 0.000000 0.976430
O O7 0.952796 0.500000 0.257083
O O8 0.013132 0.250379 0.371277
O O9 0.804292 0.500000 0.173838
O O10 0.452951 0.750023 0.128189
O O11 0.000000 0.000000 0.500000
O O12 0.000000 0.000000 0.000000
#
# Coordination Sequence:
#
# PCOD9185237 Si02
#       7
#     4   4   4   4   4   4   4
#     4  12  23  40  68  99 127 169 224 266 320 396
#     4   8  14  25  46  70  92 125 178 240 276 335
#     4  12  24  42  64  96 141 174 213 278 334 390
#     4   8  14  27  45  68  94 129 180 225 285 349
#     4  10  21  36  55  80 119 163 199 261 336 375
#     4  12  23  41  69  99 131 173 225 269 322 395
#     4  10  19  34  56  81 110 154 215 258 311 385
#
# _framework density 21.293762999999998
#
# number of rings (size 3 to 8) (size 9 to 14) (size 15 to 20)
#    0.000    1.714    2.857    2.571    0.000    0.000 
#    0.000    2.857    0.000   10.286    0.000    0.000 
#    0.000    0.000    0.000    0.000    0.000    0.000 
#
# Total GULP energy -78276.101057 kJ/mol
# GULP energy per Si atom -5591.150075 kJ/mol
# Density = 2.124530 g / cm^3
# Si number density = 21.293763 Si / 1000 Ang^3
#
#
#
# Elastic Constant Matrix: (Units=GPa)
#
#
# Indices 1 2 3 4 5 6 
#
# 1 147.2292 54.1647 42.1808 0.0000 20.9950 0.0000
# 2 54.1647 266.2534 93.9131 0.0000 21.5741 0.0000
# 3 42.1808 93.9131 137.9487 0.0000 33.3081 0.0000
# 4 0.0000 0.0000 0.0000 26.2022 0.0000 -3.2413
# 5 20.9950 21.5741 33.3081 0.0000 33.8087 0.0000
# 6 0.0000 0.0000 0.0000 -3.2413 0.0000 -24.3454
#
#
#
# Elastic Compliance Matrix: (Units=1/GPa)
#
#
# Indices 1 2 3 4 5 6 
#
# 1 0.007907 -0.001013 -0.000917 0.000000 -0.003361 0.000000
# 2 -0.001013 0.005074 -0.003299 0.000000 0.000642 0.000000
# 3 -0.000917 -0.003299 0.011979 0.000000 -0.009127 0.000000
# 4 0.000000 0.000000 0.000000 0.037546 0.000000 -0.004999
# 5 -0.003361 0.000642 -0.009127 0.000000 0.040248 0.000000
# 6 0.000000 0.000000 0.000000 -0.004999 0.000000 -0.040410
#
#
# Mechanical properties :
#
#
# Convention : Reuss Voigt Hill
#
# Bulk Modulus (GPa) = 68.95670 103.54981 86.25326
# Shear Modulus (GPa) = 64.40387 31.21127 47.80757
#
# Velocity S-wave (km/s) = 5.50555 3.83266 4.74344
# Velocity P-wave (km/s) = 8.53631 8.26562 8.40205
#
# Compressibility (1/GPa) = 0.01450185
#
# Stress axis : x y z
#
# Youngs Moduli (GPa) = 126.47682 197.09937 83.47749
#
# Poissons Ratio (x) = 0.19963 0.07652
# Poissons Ratio (y) = 0.12810 0.27542
# Poissons Ratio (z) = 0.11594 0.65029
#
# Static dielectric constant tensor:
#      x y z
#    x 1.800630 0.000000 0.006240 
#    y 0.000000 1.850350 0.000000 
#    z 0.006240 0.000000 1.719150 
# 
# From -- ./inp_files/266402.got.cif
#   From: 2010.05.17/outbox.cif.g08.bks.cpg/sg12_134_cif.got.tgz:266402.got - 2010.06.03 13:09:07.
