data_PCOD9185297
_publ_section_title
;
Structure prediction by ZEFSAII (Michael W. Deem and Ramdas Pophale) SiO2 
 PCOD9185297
Probable space group: C 2/M
;
_chemical_formula_sum "Si O2"
_cell_formula_units_Z 48
_cell_length_a 11.697164
_cell_length_b 23.124537
_cell_length_c 7.683924
_cell_angle_alpha 90.000000
_cell_angle_beta 99.453202
_cell_angle_gamma 90.000000
_cell_volume 2050.211145
_symmetry_space_group_name_H-M "C 2/M"
_symmetry_group_IT_number 12
_symmetry_cell_setting 'monoclinic'
loop_
_space_group_symop_operation_xyz
x,y,z
-x,y,-z
-x,-y,-z
x,-y,z
1/2+x,1/2+y,z
1/2-x,1/2+y,-z
1/2-x,1/2-y,-z
1/2+x,1/2-y,z
loop_
_atom_site_type_symbol
_atom_site_label
_atom_site_fract_x
_atom_site_fract_y
_atom_site_fract_z
Si Si1 0.671158 0.591584 0.404511
Si Si2 0.408422 0.722358 0.114873
Si Si3 0.211071 0.327756 0.812202
Si Si4 0.188077 0.567446 0.041145
Si Si5 0.089965 0.564597 0.391864
Si Si6 0.564570 0.596116 0.760941
O O1 0.716926 0.651695 0.335887
O O2 0.791174 0.559672 0.468983
O O3 0.614456 0.593134 0.579471
O O4 0.563996 0.569103 0.260576
O O5 0.373996 0.773941 0.234557
O O6 0.456652 0.663811 0.208868
O O7 0.500000 0.746552 0.000000
O O8 0.299434 0.697105 0.979422
O O9 0.157810 0.385930 0.885608
O O10 0.160216 0.500000 0.000640
O O11 0.127942 0.586246 0.209532
O O12 0.328394 0.571891 0.100743
O O13 0.043711 0.500000 0.346247
O O14 0.000000 0.595529 0.500000
#
# Coordination Sequence:
#
# PCOD9185297 Si02
#       6
#     8   8   8   8   8   8
#     4  10  19  34  56  83 110 142 187 229 270 328
#     4  10  19  36  55  76 114 148 178 224 280 329
#     4  10  21  33  56  84 108 145 186 224 273 329
#     4   9  19  36  56  82 115 147 182 225 277 327
#     4   9  19  36  56  77 111 153 185 222 269 322
#     4   9  19  35  57  80 113 147 178 232 280 323
#
# _framework density 23.412223999999998
#
# number of rings (size 3 to 8) (size 9 to 14) (size 15 to 20)
#    0.000    2.500    1.667    0.000    0.000    3.333 
#    0.000    4.167    3.667    3.500    0.000    0.000 
#    0.000    0.000    0.000    0.000    0.000    0.000 
#
# Total GULP energy -133726.589878 kJ/mol
# GULP energy per Si atom -5571.941245 kJ/mol
# Density = 2.335894 g / cm^3
# Si number density = 23.412224 Si / 1000 Ang^3
#
#
#
# Elastic Constant Matrix: (Units=GPa)
#
#
# Indices 1 2 3 4 5 6 
#
# 1 111.2916 17.5642 24.3159 0.0000 -14.7477 0.0000
# 2 17.5642 93.5864 8.6088 0.0000 3.3374 0.0000
# 3 24.3159 8.6088 47.0213 0.0000 -10.1924 0.0000
# 4 0.0000 0.0000 0.0000 -0.9471 0.0000 -0.7403
# 5 -14.7477 3.3374 -10.1924 0.0000 27.7407 0.0000
# 6 0.0000 0.0000 0.0000 -0.7403 0.0000 -0.6928
#
#
#
# Elastic Compliance Matrix: (Units=1/GPa)
#
#
# Indices 1 2 3 4 5 6 
#
# 1 0.010786 -0.001784 -0.004304 0.000000 0.004367 0.000000
# 2 -0.001784 0.011290 -0.001787 0.000000 -0.002963 0.000000
# 3 -0.004304 -0.001787 0.025393 0.000000 0.007256 0.000000
# 4 0.000000 0.000000 0.000000 -6.402790 0.000000 6.841283
# 5 0.004367 -0.002963 0.007256 0.000000 0.041393 0.000000
# 6 0.000000 0.000000 0.000000 6.841283 0.000000 -8.753190
#
#
# Mechanical properties :
#
#
# Convention : Reuss Voigt Hill
#
# Bulk Modulus (GPa) = 31.52726 39.20858 35.36792
# Shear Modulus (GPa) = -0.33243 18.64750 9.15754
#
# Velocity S-wave (km/s) = -0.37722 2.82527 1.97988
# Velocity P-wave (km/s) = 3.64769 5.23701 4.51287
#
# Compressibility (1/GPa) = 0.03171859
#
# Stress axis : x y z
#
# Youngs Moduli (GPa) = 92.71117 88.57251 39.38099
#
# Poissons Ratio (x) = 0.15802 0.16952
# Poissons Ratio (y) = 0.16541 0.07036
# Poissons Ratio (z) = 0.39907 0.15826
#
# Static dielectric constant tensor:
#      x y z
#    x 1.968040 0.000000 0.025490 
#    y 0.000000 1.882860 0.000000 
#    z 0.025490 0.000000 1.909470 
# 
# From -- ./inp_files/50717.got.cif
#   From: 2010.05.17/outbox.cif.g08.bks.cpg/sg12_26_cif.got.tgz:50717.got - 2010.06.03 13:09:07.
