data_PCOD9185030
_publ_section_title
;
Structure prediction by ZEFSAII (Michael W. Deem and Ramdas Pophale) SiO2 
 PCOD9185030
Probable space group: C 2/M
;
_chemical_formula_sum "Si O2"
_cell_formula_units_Z 50
_cell_length_a 26.726987
_cell_length_b 10.050324
_cell_length_c 16.794721
_cell_angle_alpha 90.000000
_cell_angle_beta 26.701706
_cell_angle_gamma 90.000000
_cell_volume 2027.138169
_symmetry_space_group_name_H-M "C 2/M"
_symmetry_group_IT_number 12
_symmetry_cell_setting 'monoclinic'
loop_
_space_group_symop_operation_xyz
x,y,z
-x,y,-z
-x,-y,-z
x,-y,z
1/2+x,1/2+y,z
1/2-x,1/2+y,-z
1/2-x,1/2-y,-z
1/2+x,1/2-y,z
loop_
_atom_site_type_symbol
_atom_site_label
_atom_site_fract_x
_atom_site_fract_y
_atom_site_fract_z
Si Si1 0.869895 0.345328 0.244412
Si Si2 0.609142 0.356971 0.269765
Si Si3 0.500000 0.000000 0.500000
Si Si4 0.155602 0.847204 0.859857
Si Si5 0.899257 0.157457 0.350499
Si Si6 0.417464 0.218510 0.492300
Si Si7 0.713271 0.647811 0.945492
O O1 0.908363 0.500000 0.194591
O O2 0.886862 0.269833 0.136109
O O3 0.912585 0.243077 0.251035
O O4 0.735746 0.350826 0.446094
O O5 0.644916 0.500000 0.247300
O O6 0.475647 0.346121 0.451679
O O7 0.686722 0.250342 0.202164
O O8 0.653445 0.345040 0.114854
O O9 0.515950 0.887698 0.549333
O O10 0.289949 0.828054 0.671229
O O11 0.130089 0.835316 0.990011
O O12 0.130335 0.000000 0.869439
O O13 0.938945 0.246774 0.368971
O O14 0.933995 0.000000 0.300671
O O15 0.765503 0.500000 0.863059
#
# Coordination Sequence:
#
# PCOD9185030 Si02
#       7
#     8   8   2   8   8   8   8
#     4   9  18  30  52  80 112 143 184 232 287 336
#     4  10  21  37  55  81 111 151 193 240 281 340
#     4  12  24  36  50  88 112 154 186 236 280 350
#     4  10  19  34  55  82 111 148 188 238 280 336
#     4   9  18  33  51  77 110 148 183 230 281 344
#     4  11  22  33  56  81 114 146 187 231 286 328
#     4   9  20  37  58  78 109 152 198 231 282 343
#
# _framework density 24.665313999999999
#
# number of rings (size 3 to 8) (size 9 to 14) (size 15 to 20)
#    0.000    2.240    0.800    1.920    4.480    3.200 
#    0.000    7.200    0.000    0.960    0.000    5.600 
#    0.000    0.000    0.000    0.000    0.000    0.000 
#
# Total GULP energy -139276.531195 kJ/mol
# GULP energy per Si atom -5571.061248 kJ/mol
# Density = 2.460918 g / cm^3
# Si number density = 24.665314 Si / 1000 Ang^3
#
#
#
# Elastic Constant Matrix: (Units=GPa)
#
#
# Indices 1 2 3 4 5 6 
#
# 1 160.3208 97.2838 17.2390 0.0000 26.8247 0.0000
# 2 97.2838 187.1844 38.9679 -0.0001 20.1986 0.0000
# 3 17.2390 38.9679 82.3560 -0.0001 4.1811 0.0000
# 4 0.0000 -0.0001 -0.0001 25.1081 0.0000 3.0089
# 5 26.8247 20.1986 4.1811 0.0000 51.9283 0.0000
# 6 0.0000 0.0000 0.0000 3.0089 0.0000 37.0409
#
#
#
# Elastic Compliance Matrix: (Units=1/GPa)
#
#
# Indices 1 2 3 4 5 6 
#
# 1 0.009590 -0.004725 0.000388 0.000000 -0.003147 0.000000
# 2 -0.004725 0.008489 -0.002996 0.000000 -0.000620 0.000000
# 3 0.000388 -0.002996 0.013485 0.000000 -0.000121 0.000000
# 4 0.000000 0.000000 0.000000 0.040219 0.000000 -0.003267
# 5 -0.003147 -0.000620 -0.000121 0.000000 0.021134 0.000000
# 6 0.000000 0.000000 0.000000 -0.003267 0.000000 0.027263
#
#
# Mechanical properties :
#
#
# Convention : Reuss Voigt Hill
#
# Bulk Modulus (GPa) = 59.18107 81.87139 70.52623
# Shear Modulus (GPa) = 35.59304 41.24016 38.41660
#
# Velocity S-wave (km/s) = 3.80286 4.09343 3.95082
# Velocity P-wave (km/s) = 6.58240 7.45698 7.03330
#
# Compressibility (1/GPa) = 0.01689730
#
# Stress axis : x y z
#
# Youngs Moduli (GPa) = 104.28029 117.80436 74.15711
#
# Poissons Ratio (x) = 0.55664 -0.02879
# Poissons Ratio (y) = 0.49274 0.22217
# Poissons Ratio (z) = -0.04048 0.35294
#
# Static dielectric constant tensor:
#      x y z
#    x 2.236060 0.000000 -0.920180 
#    y 0.000000 2.019780 0.000000 
#    z -0.920180 0.000000 5.146630 
# 
# From -- ./inp_files/292165.got.cif
#   From: 2010.05.17/outbox.cif.g08.bks.cpg/sg12_147_cif.got.tgz:292165.got - 2010.06.03 13:09:07.
