data_PCOD9185221
_publ_section_title
;
Structure prediction by ZEFSAII (Michael W. Deem and Ramdas Pophale) SiO2 
 PCOD9185221
Probable space group: C 2/M
;
_chemical_formula_sum "Si O2"
_cell_formula_units_Z 40
_cell_length_a 25.512062
_cell_length_b 9.930492
_cell_length_c 21.654256
_cell_angle_alpha 90.000000
_cell_angle_beta 158.772035
_cell_angle_gamma 90.000000
_cell_volume 1986.385898
_symmetry_space_group_name_H-M "C 2/M"
_symmetry_group_IT_number 12
_symmetry_cell_setting 'monoclinic'
loop_
_space_group_symop_operation_xyz
x,y,z
-x,y,-z
-x,-y,-z
x,-y,z
1/2+x,1/2+y,z
1/2-x,1/2+y,-z
1/2-x,1/2-y,-z
1/2+x,1/2-y,z
loop_
_atom_site_type_symbol
_atom_site_label
_atom_site_fract_x
_atom_site_fract_y
_atom_site_fract_z
Si Si1 0.449444 0.500000 0.353663
Si Si2 0.274004 0.500000 0.788650
Si Si3 0.989500 0.000000 0.257432
Si Si4 0.491900 0.268384 0.815719
Si Si5 0.397869 0.500000 0.794700
Si Si6 0.754076 0.287469 0.809055
Si Si7 0.164361 0.500000 0.345260
Si Si8 0.707010 0.000000 0.249389
O O1 0.419470 0.500000 0.247779
O O2 0.376199 0.373194 0.306170
O O3 0.620514 0.500000 0.550222
O O4 0.289725 0.500000 0.732507
O O5 0.207122 0.638851 0.737764
O O6 0.438407 0.500000 0.997392
O O7 0.954239 0.134323 0.179816
O O8 0.163811 0.000000 0.456697
O O9 0.389582 0.366852 0.744134
O O10 0.406000 0.134317 0.704074
O O11 0.624222 0.225234 0.004712
O O12 0.820497 0.369035 0.823463
O O13 0.136993 0.500000 0.240379
#
# Coordination Sequence:
#
# PCOD9185221 Si02
#       8
#     4   4   4   8   4   8   4   4
#     4  10  22  40  55  72 108 152 183 215 262 317
#     4   9  16  28  50  79 107 136 165 210 270 317
#     4  10  23  40  53  72 111 153 179 213 271 316
#     4  10  20  34  55  82 106 137 180 224 265 312
#     4   8  16  30  47  75 115 137 155 207 278 325
#     4  10  19  34  56  81 109 138 178 224 263 314
#     4  11  20  34  58  83 108 139 178 220 263 326
#     4  10  21  36  56  81 111 143 170 213 280 329
#
# _framework density 20.137073000000001
#
# number of rings (size 3 to 8) (size 9 to 14) (size 15 to 20)
#    0.000    2.200    0.000    4.800    0.000    4.000 
#    0.000    3.000    0.000    4.800    0.000    0.000 
#    0.000    0.000    0.000    0.000    0.000    0.000 
#
# Total GULP energy -111731.916450 kJ/mol
# GULP energy per Si atom -5586.595823 kJ/mol
# Density = 2.009124 g / cm^3
# Si number density = 20.137073 Si / 1000 Ang^3
#
#
#
# Elastic Constant Matrix: (Units=GPa)
#
#
# Indices 1 2 3 4 5 6 
#
# 1 91.7373 39.2683 4.4899 0.0003 -11.1134 -0.0001
# 2 39.2683 160.9453 13.0985 0.0005 2.9135 -0.0001
# 3 4.4899 13.0985 42.9635 0.0003 -7.1899 0.0000
# 4 0.0003 0.0005 0.0003 109.1891 0.0003 -62.0337
# 5 -11.1134 2.9135 -7.1899 0.0003 28.3588 -0.0001
# 6 -0.0001 -0.0001 0.0000 -62.0337 -0.0001 38.3469
#
#
#
# Elastic Compliance Matrix: (Units=1/GPa)
#
#
# Indices 1 2 3 4 5 6 
#
# 1 0.012964 -0.003312 0.000587 0.000000 0.005570 0.000000
# 2 -0.003312 0.007257 -0.002306 0.000000 -0.002628 0.000000
# 3 0.000587 -0.002306 0.025059 -0.000001 0.006820 -0.000001
# 4 0.000000 0.000000 -0.000001 0.113158 -0.000001 0.183055
# 5 0.005570 -0.002628 0.006820 -0.000001 0.039444 -0.000002
# 6 0.000000 0.000000 -0.000001 0.183055 -0.000002 0.322206
#
#
# Mechanical properties :
#
#
# Convention : Reuss Voigt Hill
#
# Bulk Modulus (GPa) = 28.39476 45.48437 36.93957
# Shear Modulus (GPa) = 9.22700 51.09824 30.16262
#
# Velocity S-wave (km/s) = 2.14291 5.04285 3.87443
# Velocity P-wave (km/s) = 4.50045 7.51954 6.19667
#
# Compressibility (1/GPa) = 0.03521776
#
# Stress axis : x y z
#
# Youngs Moduli (GPa) = 77.13524 137.80674 39.90638
#
# Poissons Ratio (x) = 0.45637 -0.02342
# Poissons Ratio (y) = 0.25545 0.09203
# Poissons Ratio (z) = -0.04527 0.31779
#
# Static dielectric constant tensor:
#      x y z
#    x 1.703600 0.000000 -0.034560 
#    y 0.000000 1.712920 0.000000 
#    z -0.034560 0.000000 1.724260 
# 
# From -- ./inp_files/353166.got.cif
#   From: 2010.05.17/outbox.cif.g08.bks.cpg/sg12_177_cif.got.tgz:353166.got - 2010.06.03 13:09:07.
