data_PCOD9185114
_publ_section_title
;
Structure prediction by ZEFSAII (Michael W. Deem and Ramdas Pophale) SiO2 
 PCOD9185114
Probable space group: C 2/M
;
_chemical_formula_sum "Si O2"
_cell_formula_units_Z 48
_cell_length_a 20.351511
_cell_length_b 19.737924
_cell_length_c 6.771763
_cell_angle_alpha 90.000000
_cell_angle_beta 46.450275
_cell_angle_gamma 90.000000
_cell_volume 1971.533243
_symmetry_space_group_name_H-M "C 2/M"
_symmetry_group_IT_number 12
_symmetry_cell_setting 'monoclinic'
loop_
_space_group_symop_operation_xyz
x,y,z
-x,y,-z
-x,-y,-z
x,-y,z
1/2+x,1/2+y,z
1/2-x,1/2+y,-z
1/2-x,1/2-y,-z
1/2+x,1/2-y,z
loop_
_atom_site_type_symbol
_atom_site_label
_atom_site_fract_x
_atom_site_fract_y
_atom_site_fract_z
Si Si1 0.375587 0.278695 0.565807
Si Si2 0.237071 0.073798 0.804383
Si Si3 0.813258 0.784441 0.154659
Si Si4 0.105735 0.425681 0.231035
Si Si5 0.458131 0.812253 0.899581
Si Si6 0.911763 0.073886 0.542814
O O1 0.281309 0.255243 0.663054
O O2 0.456707 0.223944 0.381709
O O3 0.405643 0.354757 0.443011
O O4 0.351970 0.284375 0.849245
O O5 0.207234 0.138582 0.744080
O O6 0.336037 0.085558 0.693031
O O7 0.232708 0.000000 0.716534
O O8 0.173298 0.071738 0.130904
O O9 0.893380 0.748248 0.105705
O O10 0.133217 0.500000 0.094162
O O11 0.107931 0.362218 0.081839
O O12 0.000000 0.428837 0.500000
O O13 0.500000 0.850357 0.000000
O O14 0.000000 0.077595 0.500000
O O15 0.914900 0.000000 0.431726
#
# Coordination Sequence:
#
# PCOD9185114 Si02
#       6
#     8   8   8   8   8   8
#     4  10  19  34  56  77 101 135 182 231 270 310
#     4   9  17  30  53  82 104 126 168 226 276 310
#     4  10  19  34  57  79 103 137 180 229 270 307
#     4  10  20  36  58  81 104 134 178 227 267 308
#     4  12  24  35  51  78 114 150 177 209 263 330
#     4   9  16  26  45  74 102 127 161 213 270 312
#
# _framework density 24.346534999999999
#
# number of rings (size 3 to 8) (size 9 to 14) (size 15 to 20)
#    0.000    2.000    0.000    7.500    0.000    1.000 
#    0.000    0.000    0.000    2.000    0.000    0.000 
#    0.000    0.000    0.000    0.000    0.000    0.000 
#
# Total GULP energy -134126.907526 kJ/mol
# GULP energy per Si atom -5588.621147 kJ/mol
# Density = 2.429112 g / cm^3
# Si number density = 24.346535 Si / 1000 Ang^3
#
#
#
# Elastic Constant Matrix: (Units=GPa)
#
#
# Indices 1 2 3 4 5 6 
#
# 1 62.3922 21.1075 6.7707 0.0000 -18.3440 0.0000
# 2 21.1075 201.5974 5.7578 0.0000 -2.3922 0.0000
# 3 6.7707 5.7578 71.1819 0.0000 -18.9708 0.0000
# 4 0.0000 0.0000 0.0000 17.7659 0.0000 -16.4799
# 5 -18.3440 -2.3922 -18.9708 0.0000 29.1650 0.0000
# 6 0.0000 0.0000 0.0000 -16.4799 0.0000 30.0433
#
#
#
# Elastic Compliance Matrix: (Units=1/GPa)
#
#
# Indices 1 2 3 4 5 6 
#
# 1 0.020653 -0.002051 0.001958 0.000000 0.014096 0.000000
# 2 -0.002051 0.005176 -0.000550 0.000000 -0.001223 0.000000
# 3 0.001958 -0.000550 0.017206 0.000000 0.012378 0.000000
# 4 0.000000 0.000000 0.000000 0.114599 0.000000 0.062862
# 5 0.014096 -0.001223 0.012378 0.000000 0.051105 0.000000
# 6 0.000000 0.000000 0.000000 0.062862 0.000000 0.067768
#
#
# Mechanical properties :
#
#
# Convention : Reuss Voigt Hill
#
# Bulk Modulus (GPa) = 23.95197 44.71595 34.33396
# Shear Modulus (GPa) = 17.14036 35.49720 26.31878
#
# Velocity S-wave (km/s) = 2.65621 3.82252 3.29143
# Velocity P-wave (km/s) = 4.38937 6.15536 5.34580
#
# Compressibility (1/GPa) = 0.04175022
#
# Stress axis : x y z
#
# Youngs Moduli (GPa) = 48.41822 193.18752 58.12051
#
# Poissons Ratio (x) = 0.39625 -0.11380
# Poissons Ratio (y) = 0.09931 0.03194
# Poissons Ratio (z) = -0.09481 0.10617
#
# Static dielectric constant tensor:
#      x y z
#    x 2.184890 0.000000 0.062680 
#    y 0.000000 2.033760 0.000000 
#    z 0.062680 0.000000 1.976160 
# 
# From -- ./inp_files/98771.got.cif
#   From: 2010.05.17/outbox.cif.g08.bks.cpg/sg12_50_cif.got.tgz:98771.got - 2010.06.03 13:09:07.
