data_PCOD9185667
_publ_section_title
;
Structure prediction by ZEFSAII (Michael W. Deem and Ramdas Pophale) SiO2 
 PCOD9185667
Probable space group: C 2/M
;
_chemical_formula_sum "Si O2"
_cell_formula_units_Z 48
_cell_length_a 23.448263
_cell_length_b 9.031568
_cell_length_c 12.373053
_cell_angle_alpha 90.000000
_cell_angle_beta 69.255320
_cell_angle_gamma 90.000000
_cell_volume 2450.419224
_symmetry_space_group_name_H-M "C 2/M"
_symmetry_group_IT_number 12
_symmetry_cell_setting 'monoclinic'
loop_
_space_group_symop_operation_xyz
x,y,z
-x,y,-z
-x,-y,-z
x,-y,z
1/2+x,1/2+y,z
1/2-x,1/2+y,-z
1/2-x,1/2-y,-z
1/2+x,1/2-y,z
loop_
_atom_site_type_symbol
_atom_site_label
_atom_site_fract_x
_atom_site_fract_y
_atom_site_fract_z
Si Si1 0.261664 0.675412 0.606765
Si Si2 0.816312 0.822914 0.966472
Si Si3 0.903536 0.823582 0.525632
Si Si4 0.450793 0.176801 0.274409
Si Si5 0.849230 0.678648 0.165812
Si Si6 0.570817 0.322218 0.253493
O O1 0.252999 0.500000 0.598909
O O2 0.250000 0.750000 0.500000
O O3 0.331432 0.700274 0.592040
O O4 0.212167 0.722779 0.728158
O O5 0.847844 0.761574 0.053544
O O6 0.809510 0.000000 0.975210
O O7 0.750000 0.750000 0.000000
O O8 0.862353 0.786989 0.837521
O O9 0.923332 0.740039 0.404615
O O10 0.935210 0.778647 0.616516
O O11 0.913823 0.000000 0.502974
O O12 0.406114 0.215156 0.205204
O O13 0.517949 0.245032 0.220885
O O14 0.453798 0.000000 0.278527
O O15 0.848245 0.500000 0.149856
O O16 0.563694 0.500000 0.252910
#
# Coordination Sequence:
#
# PCOD9185667 Si02
#       6
#     8   8   8   8   8   8
#     4  10  19  34  57  85 118 154 194 243 295 351
#     4  11  24  43  67  91 118 154 199 248 297 356
#     4  10  20  36  60  85 117 160 200 243 298 358
#     4  11  23  38  59  89 123 157 197 250 299 346
#     4  10  22  40  60  87 126 161 196 247 300 351
#     4  10  23  42  61  84 118 160 201 243 296 357
#
# _framework density 19.588486
#
# number of rings (size 3 to 8) (size 9 to 14) (size 15 to 20)
#    0.000    1.667    1.667    2.500    0.000    9.333 
#    0.000    5.000    0.000    0.000    0.000    0.000 
#    0.000    0.000    0.000    0.000    0.000    0.000 
#
# Total GULP energy -134122.351179 kJ/mol
# GULP energy per Si atom -5588.431299 kJ/mol
# Density = 1.954390 g / cm^3
# Si number density = 19.588486 Si / 1000 Ang^3
#
#
#
# Elastic Constant Matrix: (Units=GPa)
#
#
# Indices 1 2 3 4 5 6 
#
# 1 103.0012 44.8841 43.6946 0.0000 3.3376 0.0000
# 2 44.8841 31.2887 33.7885 0.0000 3.0850 0.0000
# 3 43.6946 33.7885 95.2789 0.0000 10.0737 0.0000
# 4 0.0000 0.0000 0.0000 29.4485 0.0000 0.4491
# 5 3.3376 3.0850 10.0737 0.0000 29.9200 0.0000
# 6 0.0000 0.0000 0.0000 0.4491 0.0000 35.1245
#
#
#
# Elastic Compliance Matrix: (Units=1/GPa)
#
#
# Indices 1 2 3 4 5 6 
#
# 1 0.026167 -0.039819 0.002069 0.000000 0.000490 0.000000
# 2 -0.039819 0.112414 -0.021618 0.000000 0.000129 0.000000
# 3 0.002069 -0.021618 0.017629 0.000000 -0.003937 0.000000
# 4 0.000000 0.000000 0.000000 0.033964 0.000000 -0.000434
# 5 0.000490 0.000129 -0.003937 0.000000 0.034680 0.000000
# 6 0.000000 0.000000 0.000000 -0.000434 0.000000 0.028476
#
#
# Mechanical properties :
#
#
# Convention : Reuss Voigt Hill
#
# Bulk Modulus (GPa) = 26.68512 52.70035 39.69273
# Shear Modulus (GPa) = 13.00197 26.04537 19.52367
#
# Velocity S-wave (km/s) = 2.57914 3.65036 3.16047
# Velocity P-wave (km/s) = 4.74571 6.68797 5.79874
#
# Compressibility (1/GPa) = 0.03747407
#
# Stress axis : x y z
#
# Youngs Moduli (GPa) = 38.21641 8.89569 56.72454
#
# Poissons Ratio (x) = 0.35422 -0.11738
# Poissons Ratio (y) = 1.52176 1.22625
# Poissons Ratio (z) = -0.07908 0.19230
#
# Static dielectric constant tensor:
#      x y z
#    x 1.704290 0.000000 -0.010450 
#    y 0.000000 1.653950 0.000000 
#    z -0.010450 0.000000 1.722990 
# 
# From -- ./inp_files/172906.got.cif
#   From: 2010.05.17/outbox.cif.g08.bks.cpg/sg12_87_cif.got.tgz:172906.got - 2010.06.03 13:09:07.
