data_PCOD9185130
_publ_section_title
;
Structure prediction by ZEFSAII (Michael W. Deem and Ramdas Pophale) SiO2 
 PCOD9185130
Probable space group: C 2/M
;
_chemical_formula_sum "Si O2"
_cell_formula_units_Z 64
_cell_length_a 5.529448
_cell_length_b 27.698272
_cell_length_c 21.874905
_cell_angle_alpha 90.000000
_cell_angle_beta 78.843358
_cell_angle_gamma 90.000000
_cell_volume 3286.962341
_symmetry_space_group_name_H-M "C 2/M"
_symmetry_group_IT_number 12
_symmetry_cell_setting 'monoclinic'
loop_
_space_group_symop_operation_xyz
x,y,z
-x,y,-z
-x,-y,-z
x,-y,z
1/2+x,1/2+y,z
1/2-x,1/2+y,-z
1/2-x,1/2-y,-z
1/2+x,1/2-y,z
loop_
_atom_site_type_symbol
_atom_site_label
_atom_site_fract_x
_atom_site_fract_y
_atom_site_fract_z
Si Si1 0.642162 0.764787 0.719335
Si Si2 0.351639 0.441803 0.134406
Si Si3 0.637574 0.628265 0.557448
Si Si4 0.372809 0.946531 0.618323
Si Si5 0.402033 0.058762 0.071933
Si Si6 0.290334 0.126806 0.322697
Si Si7 0.468147 0.553643 0.743040
Si Si8 0.685495 0.773489 0.420414
O O1 0.379280 0.742947 0.751133
O O2 0.615173 0.821034 0.702653
O O3 0.736606 0.735677 0.654184
O O4 0.347781 0.500000 0.126977
O O5 0.106223 0.424467 0.111636
O O6 0.369994 0.432918 0.206034
O O7 0.619380 0.425055 0.096113
O O8 0.500000 0.631766 0.500000
O O9 0.767824 0.577074 0.561890
O O10 0.443920 0.636444 0.622126
O O11 0.827676 0.671145 0.560459
O O12 0.543561 0.907378 0.642969
O O13 0.143847 0.950707 0.675991
O O14 0.483223 0.000000 0.605968
O O15 0.394599 0.000000 0.075356
O O16 0.500000 0.071666 0.000000
O O17 0.221495 0.094710 0.267055
O O18 0.355564 0.500000 0.760095
O O19 0.421906 0.749331 0.441840
#
# Coordination Sequence:
#
# PCOD9185130 Si02
#       8
#     8   8   8   8   8   8   8   8
#     4  10  19  34  56  78 105 130 160 200 249 325
#     4   9  17  28  44  67  98 133 176 221 255 290
#     4  11  24  38  54  76 101 128 163 212 269 331
#     4  10  22  39  56  72  95 129 176 225 270 313
#     4   9  16  26  42  66  99 138 176 214 253 293
#     4  11  21  36  57  74  99 130 169 214 266 322
#     4   9  20  34  51  75 100 133 178 229 264 293
#     4  10  19  36  56  82 107 129 155 195 247 323
#
# _framework density 19.470865
#
# number of rings (size 3 to 8) (size 9 to 14) (size 15 to 20)
#    0.000    2.125    2.500    2.250    3.500    3.250 
#    0.000    0.625    0.000    0.000    0.000    0.000 
#    0.000    0.000    0.000    0.000    0.000   12.500 
#
# Total GULP energy -178532.682193 kJ/mol
# GULP energy per Si atom -5579.146319 kJ/mol
# Density = 1.942655 g / cm^3
# Si number density = 19.470865 Si / 1000 Ang^3
#
#
#
# Elastic Constant Matrix: (Units=GPa)
#
#
# Indices 1 2 3 4 5 6 
#
# 1 89.3684 26.2491 0.0732 0.0000 12.7988 0.0000
# 2 26.2491 104.3022 6.1643 0.0000 11.6608 0.0000
# 3 0.0732 6.1643 42.4552 0.0000 14.8495 0.0000
# 4 0.0000 0.0000 0.0000 -21.3747 0.0000 -2.4979
# 5 12.7988 11.6608 14.8495 0.0000 27.7764 0.0000
# 6 0.0000 0.0000 0.0000 -2.4979 0.0000 15.3866
#
#
#
# Elastic Compliance Matrix: (Units=1/GPa)
#
#
# Indices 1 2 3 4 5 6 
#
# 1 0.012859 -0.002699 0.002516 0.000000 -0.006138 0.000000
# 2 -0.002699 0.010626 -0.000508 0.000000 -0.002946 0.000000
# 3 0.002516 -0.000508 0.029464 0.000000 -0.016698 0.000000
# 4 0.000000 0.000000 0.000000 -0.045913 0.000000 -0.007454
# 5 -0.006138 -0.002946 -0.016698 0.000000 0.048994 0.000000
# 6 0.000000 0.000000 0.000000 -0.007454 0.000000 0.063782
#
#
# Mechanical properties :
#
#
# Convention : Reuss Voigt Hill
#
# Bulk Modulus (GPa) = 19.39147 33.45544 26.42345
# Shear Modulus (GPa) = 36.13202 17.93359 27.03280
#
# Velocity S-wave (km/s) = 4.31245 3.03817 3.73013
# Velocity P-wave (km/s) = 5.89722 5.43387 5.67028
#
# Compressibility (1/GPa) = 0.05156908
#
# Stress axis : x y z
#
# Youngs Moduli (GPa) = 77.76516 94.10824 33.93959
#
# Poissons Ratio (x) = 0.25397 -0.08541
# Poissons Ratio (y) = 0.20987 0.01723
# Poissons Ratio (z) = -0.19569 0.04779
#
# Static dielectric constant tensor:
#      x y z
#    x 1.784470 0.000000 0.001200 
#    y 0.000000 1.720910 0.000000 
#    z 0.001200 0.000000 1.693730 
# 
# From -- ./inp_files/331396.got.cif
#   From: 2010.05.17/outbox.cif.g08.bks.cpg/sg12_166_cif.got.tgz:331396.got - 2010.06.03 13:09:07.
