data_PCOD9185488
_publ_section_title
;
Structure prediction by ZEFSAII (Michael W. Deem and Ramdas Pophale) SiO2 
 PCOD9185488
Probable space group: C 2/M
;
_chemical_formula_sum "Si O2"
_cell_formula_units_Z 64
_cell_length_a 20.097069
_cell_length_b 21.337994
_cell_length_c 11.212453
_cell_angle_alpha 90.000000
_cell_angle_beta 45.724732
_cell_angle_gamma 90.000000
_cell_volume 3442.678098
_symmetry_space_group_name_H-M "C 2/M"
_symmetry_group_IT_number 12
_symmetry_cell_setting 'monoclinic'
loop_
_space_group_symop_operation_xyz
x,y,z
-x,y,-z
-x,-y,-z
x,-y,z
1/2+x,1/2+y,z
1/2-x,1/2+y,-z
1/2-x,1/2-y,-z
1/2+x,1/2-y,z
loop_
_atom_site_type_symbol
_atom_site_label
_atom_site_fract_x
_atom_site_fract_y
_atom_site_fract_z
Si Si1 0.118226 0.801239 0.600783
Si Si2 0.909844 0.807101 0.894100
Si Si3 0.103214 0.425400 0.148695
Si Si4 0.605552 0.732565 0.352656
Si Si5 0.605931 0.926187 0.544617
Si Si6 0.183384 0.668649 0.612426
Si Si7 0.407101 0.822849 0.035952
Si Si8 0.721486 0.141246 0.195634
O O1 0.119599 0.806838 0.455738
O O2 0.134277 0.726977 0.607056
O O3 0.207249 0.832447 0.550552
O O4 0.018617 0.823014 0.773207
O O5 0.890307 0.804664 0.776636
O O6 0.901409 0.736342 0.955407
O O7 0.832234 0.849664 0.053503
O O8 0.113631 0.500000 0.119114
O O9 0.184270 0.395864 0.126936
O O10 0.003685 0.414639 0.339030
O O11 0.097550 0.386061 0.034195
O O12 0.500000 0.758449 0.500000
O O13 0.677319 0.789317 0.252671
O O14 0.632025 0.893810 0.636742
O O15 0.674583 0.894175 0.364858
O O16 0.619870 0.000000 0.527814
O O17 0.172823 0.680669 0.765549
O O18 0.500000 0.819187 0.000000
#
# Coordination Sequence:
#
# PCOD9185488 Si02
#       8
#     8   8   8   8   8   8   8   8
#     4  10  21  37  58  85 116 156 189 233 288 355
#     4  11  23  36  55  90 120 149 190 240 292 352
#     4  11  24  40  59  85 117 156 200 242 290 346
#     4  10  19  34  57  81 115 149 186 227 288 345
#     4  11  23  40  60  85 115 155 199 239 285 347
#     4  11  22  37  58  83 119 155 191 231 292 350
#     4  12  22  36  57  87 124 152 187 237 299 354
#     4  12  22  35  60  84 117 153 191 243 292 337
#
# _framework density 18.590178000000002
#
# number of rings (size 3 to 8) (size 9 to 14) (size 15 to 20)
#    0.000    1.000    5.000    2.625    3.500    1.750 
#    0.000    0.000    0.000    2.250    0.000    0.875 
#    0.000    0.000    0.000    0.000    0.000    0.000 
#
# Total GULP energy -178694.103508 kJ/mol
# GULP energy per Si atom -5584.190735 kJ/mol
# Density = 1.854787 g / cm^3
# Si number density = 18.590178 Si / 1000 Ang^3
#
#
#
# Elastic Constant Matrix: (Units=GPa)
#
#
# Indices 1 2 3 4 5 6 
#
# 1 64.6912 13.7339 26.8921 0.0000 -16.8732 0.0000
# 2 13.7339 35.1329 4.0377 0.0000 -11.2462 0.0000
# 3 26.8921 4.0377 74.6572 0.0000 -16.8577 0.0000
# 4 0.0000 0.0000 0.0000 17.8804 0.0000 -3.3941
# 5 -16.8732 -11.2462 -16.8577 0.0000 44.2964 0.0000
# 6 0.0000 0.0000 0.0000 -3.3941 0.0000 0.9519
#
#
#
# Elastic Compliance Matrix: (Units=1/GPa)
#
#
# Indices 1 2 3 4 5 6 
#
# 1 0.020278 -0.005983 -0.006104 0.000000 0.003882 0.000000
# 2 -0.005983 0.032747 0.001911 0.000000 0.006762 0.000000
# 3 -0.006104 0.001911 0.016492 0.000000 0.004436 0.000000
# 4 0.000000 0.000000 0.000000 0.173071 0.000000 0.617127
# 5 0.003882 0.006762 0.004436 0.000000 0.027459 0.000000
# 6 0.000000 0.000000 0.000000 0.617127 0.000000 3.251098
#
#
# Mechanical properties :
#
#
# Convention : Reuss Voigt Hill
#
# Bulk Modulus (GPa) = 20.33967 29.31207 24.82587
# Shear Modulus (GPa) = 1.40533 21.28024 11.34278
#
# Velocity S-wave (km/s) = 0.87040 3.38702 2.47280
# Velocity P-wave (km/s) = 3.46049 5.57652 4.64072
#
# Compressibility (1/GPa) = 0.04916501
#
# Stress axis : x y z
#
# Youngs Moduli (GPa) = 49.31367 30.53706 60.63669
#
# Poissons Ratio (x) = 0.18270 0.37014
# Poissons Ratio (y) = 0.29503 -0.11587
# Poissons Ratio (z) = 0.30102 -0.05835
#
# Static dielectric constant tensor:
#      x y z
#    x 1.674010 0.000000 -0.003650 
#    y 0.000000 1.597580 0.000000 
#    z -0.003650 0.000000 1.706160 
# 
# From -- ./inp_files/169648.got.cif
#   From: 2010.05.17/outbox.cif.g08.bks.cpg/sg12_85_cif.got.tgz:169648.got - 2010.06.03 13:09:07.
