data_PCOD9185004
_publ_section_title
;
Structure prediction by ZEFSAII (Michael W. Deem and Ramdas Pophale) SiO2 
 PCOD9185004
Probable space group: C 2/M
;
_chemical_formula_sum "Si O2"
_cell_formula_units_Z 40
_cell_length_a 17.987792
_cell_length_b 28.697769
_cell_length_c 8.115831
_cell_angle_alpha 90.000000
_cell_angle_beta 149.834608
_cell_angle_gamma 90.000000
_cell_volume 2105.199038
_symmetry_space_group_name_H-M "C 2/M"
_symmetry_group_IT_number 12
_symmetry_cell_setting 'monoclinic'
loop_
_space_group_symop_operation_xyz
x,y,z
-x,y,-z
-x,-y,-z
x,-y,z
1/2+x,1/2+y,z
1/2-x,1/2+y,-z
1/2-x,1/2-y,-z
1/2+x,1/2-y,z
loop_
_atom_site_type_symbol
_atom_site_label
_atom_site_fract_x
_atom_site_fract_y
_atom_site_fract_z
Si Si1 0.171464 0.052328 0.888373
Si Si2 0.762208 0.199090 0.830225
Si Si3 0.054881 0.290230 0.916961
Si Si4 0.071268 0.117164 0.966595
Si Si5 0.780953 0.857388 0.203972
O O1 0.252339 0.091066 0.931784
O O2 0.000000 0.050362 0.500000
O O3 0.155431 0.075401 0.036968
O O4 0.231130 0.000000 0.998769
O O5 0.589311 0.206923 0.473577
O O6 0.849821 0.245855 0.957473
O O7 0.792774 0.176992 0.068587
O O8 0.817242 0.160241 0.805632
O O9 0.157334 0.335330 0.083776
O O10 0.000000 0.285332 0.000000
O O11 0.937015 0.136688 0.595646
O O12 0.000000 0.102416 0.000000
#
# Coordination Sequence:
#
# PCOD9185004 Si02
#       5
#     8   8   8   8   8
#     4   8  16  32  55  81 107 138 176 217 263 318
#     4  11  22  36  53  77 109 145 181 214 261 317
#     4  12  23  36  55  80 110 141 179 222 264 310
#     4  10  19  34  55  81 111 139 176 224 268 309
#     4  10  21  36  55  78 107 143 179 218 264 319
#
# _framework density 19.000578999999998
#
# number of rings (size 3 to 8) (size 9 to 14) (size 15 to 20)
#    0.000    1.800    0.000    6.600    0.000    2.000 
#    0.000    0.000    0.000   10.200    0.000    0.000 
#    0.000    0.000    0.000    0.000    0.000    0.000 
#
# Total GULP energy -111663.034895 kJ/mol
# GULP energy per Si atom -5583.151745 kJ/mol
# Density = 1.895733 g / cm^3
# Si number density = 19.000579 Si / 1000 Ang^3
#
#
#
# Elastic Constant Matrix: (Units=GPa)
#
#
# Indices 1 2 3 4 5 6 
#
# 1 66.3701 47.7700 17.6543 0.0000 -1.9135 0.0000
# 2 47.7700 158.1726 26.4999 0.0000 14.1590 0.0000
# 3 17.6543 26.4999 65.1163 0.0000 4.5183 0.0000
# 4 0.0000 0.0000 0.0000 15.7548 0.0000 7.3911
# 5 -1.9135 14.1590 4.5183 0.0000 25.8367 0.0000
# 6 0.0000 0.0000 0.0000 7.3911 0.0000 8.4200
#
#
#
# Elastic Compliance Matrix: (Units=1/GPa)
#
#
# Indices 1 2 3 4 5 6 
#
# 1 0.020548 -0.006116 -0.003462 0.000000 0.005479 0.000000
# 2 -0.006116 0.008891 -0.001610 0.000000 -0.005044 0.000000
# 3 -0.003462 -0.001610 0.017115 0.000000 -0.002367 0.000000
# 4 0.000000 0.000000 0.000000 0.107912 0.000000 -0.094726
# 5 0.005479 -0.005044 -0.002367 0.000000 0.042288 0.000000
# 6 0.000000 0.000000 0.000000 -0.094726 0.000000 0.201917
#
#
# Mechanical properties :
#
#
# Convention : Reuss Voigt Hill
#
# Bulk Modulus (GPa) = 41.36098 52.61195 46.98646
# Shear Modulus (GPa) = 11.65210 23.18460 17.41835
#
# Velocity S-wave (km/s) = 2.47907 3.49693 3.03103
# Velocity P-wave (km/s) = 5.47813 6.63736 6.08541
#
# Compressibility (1/GPa) = 0.02417738
#
# Stress axis : x y z
#
# Youngs Moduli (GPa) = 48.66649 112.47865 58.42748
#
# Poissons Ratio (x) = 0.68794 0.20228
# Poissons Ratio (y) = 0.29765 0.09406
# Poissons Ratio (z) = 0.16849 0.18108
#
# Static dielectric constant tensor:
#      x y z
#    x 1.689100 0.000000 -0.025560 
#    y 0.000000 1.662960 0.000000 
#    z -0.025560 0.000000 1.662900 
# 
# From -- ./inp_files/40343.got.cif
#   From: 2010.05.17/outbox.cif.g08.bks.cpg/sg12_21_cif.got.tgz:40343.got - 2010.06.03 13:09:07.
