data_PCOD9185619
_publ_section_title
;
Structure prediction by ZEFSAII (Michael W. Deem and Ramdas Pophale) SiO2 
 PCOD9185619
Probable space group: C 2/M
;
_chemical_formula_sum "Si O2"
_cell_formula_units_Z 56
_cell_length_a 27.365810
_cell_length_b 8.875273
_cell_length_c 13.699078
_cell_angle_alpha 90.000000
_cell_angle_beta 64.143511
_cell_angle_gamma 90.000000
_cell_volume 2994.128404
_symmetry_space_group_name_H-M "C 2/M"
_symmetry_group_IT_number 12
_symmetry_cell_setting 'monoclinic'
loop_
_space_group_symop_operation_xyz
x,y,z
-x,y,-z
-x,-y,-z
x,-y,z
1/2+x,1/2+y,z
1/2-x,1/2+y,-z
1/2-x,1/2-y,-z
1/2+x,1/2-y,z
loop_
_atom_site_type_symbol
_atom_site_label
_atom_site_fract_x
_atom_site_fract_y
_atom_site_fract_z
Si Si1 0.166228 0.677110 0.109325
Si Si2 0.558347 0.823062 0.329083
Si Si3 0.945880 0.318678 0.328810
Si Si4 0.878160 0.820694 0.549523
Si Si5 0.772714 0.180716 0.761646
Si Si6 0.836963 0.179596 0.101519
Si Si7 0.056153 0.318261 0.896777
O O1 0.180083 0.500000 0.088821
O O2 0.105422 0.688154 0.206519
O O3 0.204718 0.756335 0.155021
O O4 0.168288 0.755885 0.003454
O O5 0.501551 0.770295 0.333987
O O6 0.579498 0.734749 0.404681
O O7 0.553468 0.000000 0.360033
O O8 0.944364 0.500000 0.334639
O O9 0.895900 0.252665 0.432845
O O10 0.946825 0.276230 0.214605
O O11 0.818639 0.778103 0.642048
O O12 0.880385 0.000000 0.540320
O O13 0.714389 0.253796 0.795216
O O14 0.768597 0.000000 0.769822
O O15 0.892994 0.238958 0.097372
O O16 0.835081 0.000000 0.102040
O O17 0.063091 0.500000 0.897678
O O18 0.000000 0.280457 0.000000
#
# Coordination Sequence:
#
# PCOD9185619 Si02
#       7
#     8   8   8   8   8   8   8
#     4  10  19  34  57  84 115 149 185 227 276 330
#     4   9  18  33  55  83 113 147 185 222 266 326
#     4  10  20  35  57  82 109 145 186 226 270 324
#     4  10  21  35  54  82 114 146 181 226 276 325
#     4  10  21  38  57  80 112 148 187 229 275 328
#     4  12  24  37  56  83 113 146 185 229 279 330
#     4  10  22  42  64  84 109 144 186 227 270 324
#
# _framework density 18.703271999999998
#
# number of rings (size 3 to 8) (size 9 to 14) (size 15 to 20)
#    0.000    1.857    0.000    4.286    0.000    7.714 
#    0.000    2.143    0.000    0.000    0.000    0.000 
#    0.000    0.000    0.000    0.000    0.000    0.000 
#
# Total GULP energy -156483.186869 kJ/mol
# GULP energy per Si atom -5588.685245 kJ/mol
# Density = 1.866070 g / cm^3
# Si number density = 18.703272 Si / 1000 Ang^3
#
#
#
# Elastic Constant Matrix: (Units=GPa)
#
#
# Indices 1 2 3 4 5 6 
#
# 1 115.3437 51.0804 66.7060 0.0000 -26.1625 0.0000
# 2 51.0804 65.2649 53.9940 0.0000 -10.5545 0.0000
# 3 66.7060 53.9940 148.2024 0.0000 -12.8715 0.0000
# 4 0.0000 0.0000 0.0000 27.3954 0.0000 -4.3091
# 5 -26.1625 -10.5545 -12.8715 0.0000 12.0713 0.0000
# 6 0.0000 0.0000 0.0000 -4.3091 0.0000 26.7143
#
#
#
# Elastic Compliance Matrix: (Units=1/GPa)
#
#
# Indices 1 2 3 4 5 6 
#
# 1 0.024092 -0.009007 -0.004090 0.000000 0.039979 0.000000
# 2 -0.009007 0.026923 -0.005957 0.000000 -0.002333 0.000000
# 3 -0.004090 -0.005957 0.010510 0.000000 -0.002867 0.000000
# 4 0.000000 0.000000 0.000000 0.037453 0.000000 0.006041
# 5 0.039979 -0.002333 -0.002867 0.000000 0.164391 0.000000
# 6 0.000000 0.000000 0.000000 0.006041 0.000000 0.038408
#
#
# Mechanical properties :
#
#
# Convention : Reuss Voigt Hill
#
# Bulk Modulus (GPa) = 42.70580 74.70798 58.70689
# Shear Modulus (GPa) = 14.38063 23.70491 19.04277
#
# Velocity S-wave (km/s) = 2.77588 3.56395 3.19431
# Velocity P-wave (km/s) = 5.75821 7.54759 6.71279
#
# Compressibility (1/GPa) = 0.02341602
#
# Stress axis : x y z
#
# Youngs Moduli (GPa) = 41.50759 37.14348 95.14783
#
# Poissons Ratio (x) = 0.33454 0.38918
# Poissons Ratio (y) = 0.37385 0.56683
# Poissons Ratio (z) = 0.16978 0.22128
#
# Static dielectric constant tensor:
#      x y z
#    x 1.633070 0.000000 -0.025460 
#    y 0.000000 1.623050 0.000000 
#    z -0.025460 0.000000 1.647590 
# 
# From -- ./inp_files/180660.got.cif
#   From: 2010.05.17/outbox.cif.g08.bks.cpg/sg12_91_cif.got.tgz:180660.got - 2010.06.03 13:09:07.
