data_PCOD9185245
_publ_section_title
;
Structure prediction by ZEFSAII (Michael W. Deem and Ramdas Pophale) SiO2 
 PCOD9185245
Probable space group: C 2/M
;
_chemical_formula_sum "Si O2"
_cell_formula_units_Z 60
_cell_length_a 14.056862
_cell_length_b 17.596313
_cell_length_c 19.592155
_cell_angle_alpha 90.000000
_cell_angle_beta 135.846381
_cell_angle_gamma 90.000000
_cell_volume 3375.717506
_symmetry_space_group_name_H-M "C 2/M"
_symmetry_group_IT_number 12
_symmetry_cell_setting 'monoclinic'
loop_
_space_group_symop_operation_xyz
x,y,z
-x,y,-z
-x,-y,-z
x,-y,z
1/2+x,1/2+y,z
1/2-x,1/2+y,-z
1/2-x,1/2-y,-z
1/2+x,1/2-y,z
loop_
_atom_site_type_symbol
_atom_site_label
_atom_site_fract_x
_atom_site_fract_y
_atom_site_fract_z
Si Si1 0.676858 0.662969 0.889258
Si Si2 0.398344 0.162971 0.110744
Si Si3 0.391802 0.789855 0.891802
Si Si4 0.207956 0.681302 0.707957
Si Si5 0.496408 0.909995 0.299847
Si Si6 0.396715 0.590005 0.700154
Si Si7 0.283135 0.837679 0.499999
Si Si8 0.000000 0.700764 0.500000
O O1 0.626301 0.749999 0.876301
O O2 0.787101 0.664261 0.885073
O O3 0.548684 0.613751 0.800285
O O4 0.758770 0.639471 0.000001
O O5 0.516957 0.164263 0.114929
O O6 0.448114 0.113752 0.199716
O O7 0.305353 0.729860 0.805355
O O8 0.500000 0.752691 0.000000
O O9 0.112527 0.629432 0.705833
O O10 0.299141 0.629433 0.705834
O O11 0.109813 0.734730 0.609813
O O12 0.644532 0.876543 0.397989
O O13 0.497441 0.000000 0.309006
O O14 0.379426 0.500000 0.690993
O O15 0.348556 0.623458 0.602013
O O16 0.250000 0.750000 0.500000
O O17 0.398994 0.842613 0.499999
#
# Coordination Sequence:
#
# PCOD9185245 Si02
#       8
#     8   8   8   8   8   8   8   4
#     4  10  20  36  57  81 109 145 189 233 272 322
#     4  10  20  36  57  81 109 145 189 233 272 322
#     4  10  20  35  58  82 108 143 191 236 269 320
#     4  10  19  34  56  81 114 144 180 224 281 331
#     4  11  22  36  55  84 118 148 180 226 284 338
#     4  11  22  36  55  84 118 148 180 226 284 338
#     4  10  21  37  58  81 110 147 190 226 269 326
#     4   8  20  32  51  82 107 138 172 226 270 320
#
# _framework density 17.774000000000001
#
# number of rings (size 3 to 8) (size 9 to 14) (size 15 to 20)
#    0.000    1.867    2.667    1.600    3.733    0.533 
#    0.000    4.667    0.000    4.800    0.000    2.800 
#    0.000    0.000    0.000    0.000    0.000    0.000 
#
# Total GULP energy -167081.285267 kJ/mol
# GULP energy per Si atom -5569.376176 kJ/mol
# Density = 1.773355 g / cm^3
# Si number density = 17.774000 Si / 1000 Ang^3
#
#
#
# Elastic Constant Matrix: (Units=GPa)
#
#
# Indices 1 2 3 4 5 6 
#
# 1 72.5365 6.1131 35.0760 0.0000 0.7407 0.0000
# 2 6.1131 59.2019 70.2868 0.0000 -2.4924 0.0000
# 3 35.0760 70.2868 201.8008 -0.0001 -5.7636 0.0000
# 4 0.0000 0.0000 -0.0001 13.4389 0.0000 0.5082
# 5 0.7407 -2.4924 -5.7636 0.0000 9.4085 0.0000
# 6 0.0000 0.0000 0.0000 0.5082 0.0000 26.5102
#
#
#
# Elastic Compliance Matrix: (Units=1/GPa)
#
#
# Indices 1 2 3 4 5 6 
#
# 1 0.015368 0.002663 -0.003678 0.000000 -0.002757 0.000000
# 2 0.002663 0.029283 -0.010633 0.000000 0.001034 0.000000
# 3 -0.003678 -0.010633 0.009390 0.000000 0.003225 0.000000
# 4 0.000000 0.000000 0.000000 0.074465 0.000000 -0.001428
# 5 -0.002757 0.001034 0.003225 0.000000 0.108753 0.000000
# 6 0.000000 0.000000 0.000000 -0.001428 0.000000 0.037749
#
#
# Mechanical properties :
#
#
# Convention : Reuss Voigt Hill
#
# Bulk Modulus (GPa) = 32.52301 61.83234 47.17768
# Shear Modulus (GPa) = 16.20473 24.67574 20.44024
#
# Velocity S-wave (km/s) = 3.02273 3.73004 3.39486
# Velocity P-wave (km/s) = 5.52452 7.30852 6.47823
#
# Compressibility (1/GPa) = 0.03074746
#
# Stress axis : x y z
#
# Youngs Moduli (GPa) = 65.06946 34.14897 106.49560
#
# Poissons Ratio (x) = -0.09094 0.39164
# Poissons Ratio (y) = -0.17329 1.13234
# Poissons Ratio (z) = 0.23930 0.36310
#
# Static dielectric constant tensor:
#      x y z
#    x 1.646540 0.000000 -0.000260 
#    y 0.000000 1.561070 0.000000 
#    z -0.000260 0.000000 1.653310 
# 
# From -- ./inp_files/311059.got.cif
#   From: 2010.05.17/outbox.cif.g08.bks.cpg/sg12_156_cif.got.tgz:311059.got - 2010.06.03 13:09:07.
