data_PCOD9185172
_publ_section_title
;
Structure prediction by ZEFSAII (Michael W. Deem and Ramdas Pophale) SiO2 
 PCOD9185172
Probable space group: C 2/M
;
_chemical_formula_sum "Si O2"
_cell_formula_units_Z 64
_cell_length_a 13.320399
_cell_length_b 22.542730
_cell_length_c 11.740168
_cell_angle_alpha 90.000000
_cell_angle_beta 101.973332
_cell_angle_gamma 90.000000
_cell_volume 3448.620186
_symmetry_space_group_name_H-M "C 2/M"
_symmetry_group_IT_number 12
_symmetry_cell_setting 'monoclinic'
loop_
_space_group_symop_operation_xyz
x,y,z
-x,y,-z
-x,-y,-z
x,-y,z
1/2+x,1/2+y,z
1/2-x,1/2+y,-z
1/2-x,1/2-y,-z
1/2+x,1/2-y,z
loop_
_atom_site_type_symbol
_atom_site_label
_atom_site_fract_x
_atom_site_fract_y
_atom_site_fract_z
Si Si1 0.840109 0.818469 0.403179
Si Si2 0.327036 0.432830 0.703805
Si Si3 0.887317 0.355876 0.928877
Si Si4 0.523027 0.070225 0.254360
Si Si5 0.201013 0.755264 0.221518
Si Si6 0.715465 0.068329 0.444311
Si Si7 0.547878 0.677346 0.330794
Si Si8 0.810251 0.371771 0.155500
O O1 0.760543 0.768854 0.346163
O O2 0.783918 0.881984 0.398889
O O3 0.893414 0.807626 0.537267
O O4 0.928788 0.818252 0.329091
O O5 0.361024 0.500000 0.712067
O O6 0.241242 0.425406 0.583920
O O7 0.418135 0.389048 0.692264
O O8 0.274455 0.414089 0.808598
O O9 0.912438 0.405152 0.838972
O O10 0.825886 0.300992 0.861701
O O11 0.826776 0.378747 0.024889
O O12 0.000000 0.335978 0.000000
O O13 0.597871 0.077571 0.380117
O O14 0.420024 0.109239 0.234797
O O15 0.498965 0.000000 0.235793
O O16 0.094684 0.782855 0.242025
O O17 0.270397 0.805848 0.178567
O O18 0.741459 0.000000 0.418801
#
# Coordination Sequence:
#
# PCOD9185172 Si02
#       8
#     8   8   8   8   8   8   8   8
#     4  10  19  34  56  79 114 145 177 225 277 329
#     4   9  18  35  56  79 112 145 180 227 276 332
#     4  10  22  37  56  79 109 145 190 234 276 322
#     4  10  20  36  57  84 113 142 186 235 280 333
#     4  11  21  37  56  77 112 145 186 231 273 329
#     4   9  18  33  55  83 111 143 181 227 280 330
#     4   9  21  34  52  86 109 142 184 221 272 334
#     4  10  22  35  52  81 107 146 184 221 279 329
#
# _framework density 18.558147000000002
#
# number of rings (size 3 to 8) (size 9 to 14) (size 15 to 20)
#    0.000    2.250    1.250    1.125    3.500    3.750 
#    0.000    4.375    0.000    0.000    0.000    0.875 
#    0.000    0.000    0.000    0.000    0.000    0.000 
#
# Total GULP energy -178427.331546 kJ/mol
# GULP energy per Si atom -5575.854111 kJ/mol
# Density = 1.851591 g / cm^3
# Si number density = 18.558147 Si / 1000 Ang^3
#
#
#
# Elastic Constant Matrix: (Units=GPa)
#
#
# Indices 1 2 3 4 5 6 
#
# 1 64.5961 20.6690 9.8204 0.0000 -17.9621 0.0000
# 2 20.6690 48.4670 11.6576 0.0000 -4.4177 0.0000
# 3 9.8204 11.6576 19.6515 0.0000 -10.2510 0.0000
# 4 0.0000 0.0000 0.0000 17.7857 0.0000 3.9180
# 5 -17.9621 -4.4177 -10.2510 0.0000 28.4780 0.0000
# 6 0.0000 0.0000 0.0000 3.9180 0.0000 11.9945
#
#
#
# Elastic Compliance Matrix: (Units=1/GPa)
#
#
# Indices 1 2 3 4 5 6 
#
# 1 0.021477 -0.008173 0.000641 0.000000 0.012509 0.000000
# 2 -0.008173 0.027246 -0.015467 0.000000 -0.006496 0.000000
# 3 0.000641 -0.015467 0.072271 0.000000 0.024020 0.000000
# 4 0.000000 0.000000 0.000000 0.060585 0.000000 -0.019790
# 5 0.012509 -0.006496 0.024020 0.000000 0.050643 0.000000
# 6 0.000000 0.000000 0.000000 -0.019790 0.000000 0.089836
#
#
# Mechanical properties :
#
#
# Convention : Reuss Voigt Hill
#
# Bulk Modulus (GPa) = 13.33402 24.11209 18.72306
# Shear Modulus (GPa) = 12.72086 17.68946 15.20516
#
# Velocity S-wave (km/s) = 2.62097 3.09073 2.86549
# Velocity P-wave (km/s) = 4.04474 5.07521 4.58899
#
# Compressibility (1/GPa) = 0.07499612
#
# Stress axis : x y z
#
# Youngs Moduli (GPa) = 46.56172 36.70249 13.83674
#
# Poissons Ratio (x) = 0.29997 -0.00887
# Poissons Ratio (y) = 0.38054 0.21401
# Poissons Ratio (z) = -0.02984 0.56768
#
# Static dielectric constant tensor:
#      x y z
#    x 1.618620 0.000000 0.001150 
#    y 0.000000 1.626840 0.000000 
#    z 0.001150 0.000000 1.651560 
# 
# From -- ./inp_files/135428.got.cif
#   From: 2010.05.17/outbox.cif.g08.bks.cpg/sg12_68_cif.got.tgz:135428.got - 2010.06.03 13:09:07.
