data_PCOD9185002
_publ_section_title
;
Structure prediction by ZEFSAII (Michael W. Deem and Ramdas Pophale) SiO2 
 PCOD9185002
Probable space group: C 2/M
;
_chemical_formula_sum "Si O2"
_cell_formula_units_Z 64
_cell_length_a 20.542157
_cell_length_b 8.666223
_cell_length_c 28.777889
_cell_angle_alpha 90.000000
_cell_angle_beta 44.655570
_cell_angle_gamma 90.000000
_cell_volume 3600.753138
_symmetry_space_group_name_H-M "C 2/M"
_symmetry_group_IT_number 12
_symmetry_cell_setting 'monoclinic'
loop_
_space_group_symop_operation_xyz
x,y,z
-x,y,-z
-x,-y,-z
x,-y,z
1/2+x,1/2+y,z
1/2-x,1/2+y,-z
1/2-x,1/2-y,-z
1/2+x,1/2-y,z
loop_
_atom_site_type_symbol
_atom_site_label
_atom_site_fract_x
_atom_site_fract_y
_atom_site_fract_z
Si Si1 0.534095 0.181522 0.851679
Si Si2 0.913043 0.182527 0.077751
Si Si3 0.707715 0.185656 0.149468
Si Si4 0.149592 0.683671 0.428508
Si Si5 0.362652 0.188224 0.714656
Si Si6 0.291611 0.686948 0.283814
Si Si7 0.508730 0.816284 0.570662
Si Si8 0.663439 0.682740 0.072374
O O1 0.574162 0.222727 0.881926
O O2 0.607611 0.248077 0.777525
O O3 0.433698 0.257304 0.898041
O O4 0.525416 0.000000 0.850113
O O5 0.816653 0.218821 0.101530
O O6 0.909793 0.000000 0.091933
O O7 0.000000 0.207401 0.000000
O O8 0.656827 0.235461 0.222825
O O9 0.671739 0.264808 0.121513
O O10 0.697807 0.000000 0.149806
O O11 0.162605 0.500000 0.429223
O O12 0.242576 0.741956 0.356494
O O13 0.102154 0.748378 0.499450
O O14 0.071163 0.697302 0.428186
O O15 0.277399 0.231123 0.723810
O O16 0.458531 0.243949 0.642451
O O17 0.364257 0.000000 0.713344
O O18 0.294810 0.500000 0.282710
O O19 0.523689 0.000000 0.569788
O O20 0.666252 0.500000 0.067243
O O21 0.750000 0.750000 0.000000
#
# Coordination Sequence:
#
# PCOD9185002 Si02
#       8
#     8   8   8   8   8   8   8   8
#     4  12  24  37  55  80 108 139 176 218 261 310
#     4  10  20  35  57  81 106 137 170 208 259 316
#     4  10  19  34  55  81 110 141 175 213 262 318
#     4   7  10  16  33  62  99 135 171 211 249 295
#     4   8  13  23  44  72 106 141 172 209 257 310
#     4   9  15  28  48  73 104 141 177 213 260 306
#     4   7   9  15  30  62 101 135 169 208 250 294
#     4  12  26  44  62  79 103 135 173 219 267 319
#
# _framework density 17.774059999999999
#
# number of rings (size 3 to 8) (size 9 to 14) (size 15 to 20)
#    0.000    2.625    1.250    5.250    0.000    1.750 
#    0.000    0.000    0.000    0.000    0.000    8.750 
#    0.000    0.000    0.000    0.000    0.000    0.000 
#
# Total GULP energy -178285.564792 kJ/mol
# GULP energy per Si atom -5571.423900 kJ/mol
# Density = 1.773360 g / cm^3
# Si number density = 17.774060 Si / 1000 Ang^3
#
#
#
# Elastic Constant Matrix: (Units=GPa)
#
#
# Indices 1 2 3 4 5 6 
#
# 1 17.8958 10.1401 -8.5376 0.0000 -5.2852 -0.0001
# 2 10.1401 34.3377 19.5986 0.0003 -5.5064 -0.0002
# 3 -8.5376 19.5986 88.6073 0.0000 -9.8766 -0.0002
# 4 0.0000 0.0003 0.0000 12.2749 0.0000 3.8636
# 5 -5.2852 -5.5064 -9.8766 0.0000 18.8174 0.0000
# 6 -0.0001 -0.0002 -0.0002 3.8636 0.0000 18.1342
#
#
#
# Elastic Compliance Matrix: (Units=1/GPa)
#
#
# Indices 1 2 3 4 5 6 
#
# 1 0.092047 -0.034021 0.019295 0.000001 0.026025 0.000000
# 2 -0.034021 0.046611 -0.013949 -0.000001 -0.003237 0.000000
# 3 0.019295 -0.013949 0.017397 0.000000 0.010469 0.000000
# 4 0.000001 -0.000001 0.000000 0.087323 0.000000 -0.018605
# 5 0.026025 -0.003237 0.010469 0.000000 0.064999 0.000000
# 6 0.000000 0.000000 0.000000 -0.018605 0.000000 0.059108
#
#
# Mechanical properties :
#
#
# Convention : Reuss Voigt Hill
#
# Bulk Modulus (GPa) = 10.13112 20.36031 15.24572
# Shear Modulus (GPa) = 10.92327 17.82128 14.37227
#
# Velocity S-wave (km/s) = 2.48173 3.16991 2.84669
# Velocity P-wave (km/s) = 3.73152 4.98776 4.40466
#
# Compressibility (1/GPa) = 0.09870575
#
# Stress axis : x y z
#
# Youngs Moduli (GPa) = 10.86396 21.45399 57.48114
#
# Poissons Ratio (x) = 0.72989 -1.10910
# Poissons Ratio (y) = 0.36961 0.80178
# Poissons Ratio (z) = -0.20962 0.29925
#
# Static dielectric constant tensor:
#      x y z
#    x 1.577580 0.000000 -0.007240 
#    y 0.000000 1.604530 0.000000 
#    z -0.007240 0.000000 1.673220 
# 
# From -- ./inp_files/365155.got.cif
#   From: 2010.05.17/outbox.cif.g08.bks.cpg/sg12_183_cif.got.tgz:365155.got - 2010.06.03 13:09:07.
