data_PCOD9185993
_publ_section_title
;
Structure prediction by ZEFSAII (Michael W. Deem and Ramdas Pophale) SiO2 
 PCOD9185993
Probable space group: C 2/M
;
_chemical_formula_sum "Si O2"
_cell_formula_units_Z 64
_cell_length_a 14.725419
_cell_length_b 9.156856
_cell_length_c 33.386165
_cell_angle_alpha 90.000000
_cell_angle_beta 43.715504
_cell_angle_gamma 90.000000
_cell_volume 3111.054792
_symmetry_space_group_name_H-M "C 2/M"
_symmetry_group_IT_number 12
_symmetry_cell_setting 'monoclinic'
loop_
_space_group_symop_operation_xyz
x,y,z
-x,y,-z
-x,-y,-z
x,-y,z
1/2+x,1/2+y,z
1/2-x,1/2+y,-z
1/2-x,1/2-y,-z
1/2+x,1/2-y,z
loop_
_atom_site_type_symbol
_atom_site_label
_atom_site_fract_x
_atom_site_fract_y
_atom_site_fract_z
Si Si1 0.102349 0.826269 0.657242
Si Si2 0.257323 0.328829 0.955148
Si Si3 0.198625 0.331696 0.747687
Si Si4 0.559310 0.670977 0.860828
Si Si5 0.881160 0.175798 0.441690
Si Si6 0.324007 0.325731 0.095537
Si Si7 0.354371 0.825168 0.630650
Si Si8 0.059001 0.667915 0.226835
O O1 0.106357 0.787062 0.609506
O O2 0.240233 0.787701 0.635011
O O3 0.985385 0.756313 0.720166
O O4 0.088900 0.000000 0.664455
O O5 0.229141 0.500000 0.968523
O O6 0.410525 0.311609 0.893697
O O7 0.171284 0.257246 0.947677
O O8 0.250000 0.250000 0.000000
O O9 0.243048 0.500000 0.735903
O O10 0.157965 0.266728 0.803283
O O11 0.300505 0.234603 0.690315
O O12 0.064209 0.327022 0.764351
O O13 0.595185 0.500000 0.845238
O O14 0.567182 0.706085 0.905531
O O15 0.750000 0.250000 0.500000
O O16 0.009616 0.244172 0.421486
O O17 0.877285 0.000000 0.447075
O O18 0.322554 0.500000 0.088086
O O19 0.188882 0.285098 0.161824
O O20 0.370883 0.000000 0.626287
O O21 0.079860 0.500000 0.231984
#
# Coordination Sequence:
#
# PCOD9185993 Si02
#       8
#     8   8   8   8   8   8   8   8
#     4   9  21  39  59  84 118 156 196 241 292 351
#     4  11  24  42  63  86 117 159 202 248 296 352
#     4  10  19  34  58  89 122 154 191 241 293 349
#     4  10  22  38  59  88 119 155 197 241 296 354
#     4  11  24  42  61  87 119 157 202 248 297 353
#     4  10  21  39  60  87 119 154 195 242 294 352
#     4  10  21  39  61  86 117 157 197 242 294 350
#     4   9  18  33  57  87 119 152 189 236 293 350
#
# _framework density 20.571801000000001
#
# number of rings (size 3 to 8) (size 9 to 14) (size 15 to 20)
#    0.000    2.000    1.250    1.500    1.750    4.500 
#    0.000    5.000    0.000    0.000    0.000    0.000 
#    0.000    0.000    0.000    0.000    0.000    0.000 
#
# Total GULP energy -178850.103195 kJ/mol
# GULP energy per Si atom -5589.065725 kJ/mol
# Density = 2.052498 g / cm^3
# Si number density = 20.571801 Si / 1000 Ang^3
#
#
#
# Elastic Constant Matrix: (Units=GPa)
#
#
# Indices 1 2 3 4 5 6 
#
# 1 70.8192 24.9944 9.0742 -0.0002 8.9643 -0.0002
# 2 24.9944 51.6529 22.8727 -0.0005 5.6382 -0.0003
# 3 9.0742 22.8727 49.7565 -0.0002 8.0680 -0.0003
# 4 -0.0002 -0.0005 -0.0002 36.8564 -0.0001 5.8948
# 5 8.9643 5.6382 8.0680 -0.0001 31.5204 -0.0002
# 6 -0.0002 -0.0003 -0.0003 5.8948 -0.0002 22.4270
#
#
#
# Elastic Compliance Matrix: (Units=1/GPa)
#
#
# Indices 1 2 3 4 5 6 
#
# 1 0.017478 -0.008670 0.001411 0.000000 -0.003781 0.000000
# 2 -0.008670 0.028681 -0.011655 0.000000 0.000318 0.000000
# 3 0.001411 -0.011655 0.026005 0.000000 -0.004973 0.000000
# 4 0.000000 0.000000 0.000000 0.028323 0.000000 -0.007445
# 5 -0.003781 0.000318 -0.004973 0.000000 0.034017 0.000000
# 6 0.000000 0.000000 0.000000 -0.007445 0.000000 0.046546
#
#
# Mechanical properties :
#
#
# Convention : Reuss Voigt Hill
#
# Bulk Modulus (GPa) = 29.12351 31.79015 30.45683
# Shear Modulus (GPa) = 21.70865 25.84657 23.77761
#
# Velocity S-wave (km/s) = 3.25200 3.54843 3.40345
# Velocity P-wave (km/s) = 5.31869 5.68113 5.50290
#
# Compressibility (1/GPa) = 0.03433652
#
# Stress axis : x y z
#
# Youngs Moduli (GPa) = 57.21462 34.86575 38.45461
#
# Poissons Ratio (x) = 0.30227 -0.05426
# Poissons Ratio (y) = 0.49602 0.44820
# Poissons Ratio (z) = -0.08072 0.40637
#
# Static dielectric constant tensor:
#      x y z
#    x 1.770510 0.000000 -0.012270 
#    y 0.000000 1.691530 0.000000 
#    z -0.012270 0.000000 1.714450 
# 
# From -- ./inp_files/375486.got.cif
#   From: 2010.05.17/outbox.cif.g08.bks.cpg/sg12_188_cif.got.tgz:375486.got - 2010.06.03 13:09:07.
