data_PCOD9185971
_publ_section_title
;
Structure prediction by ZEFSAII (Michael W. Deem and Ramdas Pophale) SiO2 
 PCOD9185971
Probable space group: C 2/M
;
_chemical_formula_sum "Si O2"
_cell_formula_units_Z 36
_cell_length_a 15.237608
_cell_length_b 19.342458
_cell_length_c 9.325263
_cell_angle_alpha 90.000000
_cell_angle_beta 49.441001
_cell_angle_gamma 90.000000
_cell_volume 2088.106842
_symmetry_space_group_name_H-M "C 2/M"
_symmetry_group_IT_number 12
_symmetry_cell_setting 'monoclinic'
loop_
_space_group_symop_operation_xyz
x,y,z
-x,y,-z
-x,-y,-z
x,-y,z
1/2+x,1/2+y,z
1/2-x,1/2+y,-z
1/2-x,1/2-y,-z
1/2+x,1/2-y,z
loop_
_atom_site_type_symbol
_atom_site_label
_atom_site_fract_x
_atom_site_fract_y
_atom_site_fract_z
Si Si1 0.363104 0.420521 0.669923
Si Si2 0.199158 0.178277 0.000565
Si Si3 0.000000 0.845572 0.000000
Si Si4 0.863392 0.419087 0.642185
Si Si5 0.816469 0.918429 0.404747
O O1 0.500000 0.423697 0.500000
O O2 0.323023 0.500000 0.740636
O O3 0.339069 0.369695 0.826190
O O4 0.313281 0.392997 0.571485
O O5 0.091945 0.191515 0.006110
O O6 0.250000 0.250000 0.000000
O O7 0.295474 0.133090 0.816224
O O8 0.081857 0.888429 0.803490
O O9 0.841947 0.500000 0.704160
O O10 0.804018 0.408811 0.550075
O O11 0.000000 0.407526 0.500000
O O12 0.839934 0.000000 0.391581
#
# Coordination Sequence:
#
# PCOD9185971 Si02
#       5
#     8   8   4   8   8
#     4  10  19  34  58  88 113 136 175 235 285 320
#     4  11  23  38  55  81 113 148 183 223 275 329
#     4  10  19  36  54  80 109 146 184 222 270 330
#     4   9  19  38  59  80 108 147 188 223 266 327
#     4   9  17  31  58  87 110 136 178 230 279 321
#
# _framework density 17.240497999999999
#
# number of rings (size 3 to 8) (size 9 to 14) (size 15 to 20)
#    0.000    2.222    2.222    1.000    0.000    2.667 
#    4.000    2.222    0.000    5.333    0.000    0.000 
#    0.000    0.000    0.000    0.000    0.000    0.000 
#
# Total GULP energy -100290.505758 kJ/mol
# GULP energy per Si atom -5571.694764 kJ/mol
# Density = 1.720126 g / cm^3
# Si number density = 17.240498 Si / 1000 Ang^3
#
#
#
# Elastic Constant Matrix: (Units=GPa)
#
#
# Indices 1 2 3 4 5 6 
#
# 1 160.5144 67.0105 63.5628 0.0000 2.8669 0.0000
# 2 67.0105 78.7546 46.8656 0.0000 7.4412 0.0000
# 3 63.5628 46.8656 64.5040 0.0000 8.6179 0.0000
# 4 0.0000 0.0000 0.0000 11.5530 0.0000 13.6737
# 5 2.8669 7.4412 8.6179 0.0000 35.2581 0.0000
# 6 0.0000 0.0000 0.0000 13.6737 0.0000 31.5745
#
#
#
# Elastic Compliance Matrix: (Units=1/GPa)
#
#
# Indices 1 2 3 4 5 6 
#
# 1 0.011487 -0.005407 -0.007669 0.000000 0.002082 0.000000
# 2 -0.005407 0.024935 -0.012554 0.000000 -0.001754 0.000000
# 3 -0.007669 -0.012554 0.032815 0.000000 -0.004748 0.000000
# 4 0.000000 0.000000 0.000000 0.177575 0.000000 -0.076901
# 5 0.002082 -0.001754 -0.004748 0.000000 0.029724 0.000000
# 6 0.000000 0.000000 0.000000 -0.076901 0.000000 0.064974
#
#
# Mechanical properties :
#
#
# Convention : Reuss Voigt Hill
#
# Bulk Modulus (GPa) = 55.62573 73.18342 64.40457
# Shear Modulus (GPa) = 12.53879 24.09939 18.31909
#
# Velocity S-wave (km/s) = 2.69975 3.74282 3.26323
# Velocity P-wave (km/s) = 6.48482 7.82426 7.18581
#
# Compressibility (1/GPa) = 0.01797729
#
# Stress axis : x y z
#
# Youngs Moduli (GPa) = 87.05550 40.10463 30.47342
#
# Poissons Ratio (x) = 0.21684 0.23370
# Poissons Ratio (y) = 0.47070 0.38256
# Poissons Ratio (z) = 0.66763 0.50347
#
# Static dielectric constant tensor:
#      x y z
#    x 1.651150 0.000000 0.032420 
#    y 0.000000 1.565260 0.000000 
#    z 0.032420 0.000000 1.565550 
# 
# From -- ./inp_files/48402.got.cif
#   From: 2010.05.17/outbox.cif.g08.bks.cpg/sg12_25_cif.got.tgz:48402.got - 2010.06.03 13:09:07.
