data_PCOD9185976
_publ_section_title
;
Structure prediction by ZEFSAII (Michael W. Deem and Ramdas Pophale) SiO2 
 PCOD9185976
Probable space group: C 2/M
;
_chemical_formula_sum "Si O2"
_cell_formula_units_Z 56
_cell_length_a 14.594224
_cell_length_b 18.671338
_cell_length_c 16.590040
_cell_angle_alpha 90.000000
_cell_angle_beta 41.819563
_cell_angle_gamma 90.000000
_cell_volume 3014.331303
_symmetry_space_group_name_H-M "C 2/M"
_symmetry_group_IT_number 12
_symmetry_cell_setting 'monoclinic'
loop_
_space_group_symop_operation_xyz
x,y,z
-x,y,-z
-x,-y,-z
x,-y,z
1/2+x,1/2+y,z
1/2-x,1/2+y,-z
1/2-x,1/2-y,-z
1/2+x,1/2-y,z
loop_
_atom_site_type_symbol
_atom_site_label
_atom_site_fract_x
_atom_site_fract_y
_atom_site_fract_z
Si Si1 0.245368 0.084173 0.675202
Si Si2 0.387484 0.419433 0.403106
Si Si3 0.037047 0.139522 0.069073
Si Si4 0.680356 0.419280 0.116912
Si Si5 0.152346 0.715847 0.319469
Si Si6 0.350820 0.275444 0.504450
Si Si7 0.143567 0.717143 0.946259
O O1 0.230799 0.089163 0.588092
O O2 0.354253 0.132028 0.651598
O O3 0.106238 0.123203 0.794619
O O4 0.247335 0.000000 0.694167
O O5 0.380616 0.500000 0.438526
O O6 0.536446 0.411356 0.261229
O O7 0.368733 0.360029 0.482304
O O8 0.142167 0.088784 0.047331
O O9 0.095412 0.220222 0.039483
O O10 0.000000 0.126934 0.000000
O O11 0.732053 0.500000 0.098784
O O12 0.777845 0.352998 0.075062
O O13 0.194064 0.753744 0.376508
O O14 0.258824 0.740254 0.181141
O O15 0.001216 0.741310 0.394454
O O16 0.250000 0.250000 0.500000
O O17 0.000000 0.694662 0.000000
#
# Coordination Sequence:
#
# PCOD9185976 Si02
#       7
#     8   8   8   8   8   8   8
#     4  10  19  35  59  89 122 151 190 241 300 360
#     4   9  18  36  61  87 115 154 197 245 294 344
#     4  10  19  34  58  88 116 153 191 240 287 356
#     4  10  21  36  57  86 122 159 196 241 297 348
#     4  11  22  39  57  93 115 156 203 233 301 347
#     4  11  22  38  63  84 119 157 197 246 287 357
#     4  11  21  38  59  87 120 158 199 242 286 351
#
# _framework density 18.577919000000001
#
# number of rings (size 3 to 8) (size 9 to 14) (size 15 to 20)
#    0.000    1.714    5.714    1.714    0.000    1.429 
#    2.571    4.286    0.000    0.000    0.000    0.000 
#    0.000    0.000    0.000    0.000    0.000    0.000 
#
# Total GULP energy -155968.504629 kJ/mol
# GULP energy per Si atom -5570.303737 kJ/mol
# Density = 1.853564 g / cm^3
# Si number density = 18.577919 Si / 1000 Ang^3
#
#
#
# Elastic Constant Matrix: (Units=GPa)
#
#
# Indices 1 2 3 4 5 6 
#
# 1 71.4342 43.4405 12.5134 -0.0001 -11.7616 0.0001
# 2 43.4405 160.1657 23.9040 -0.0002 4.9844 0.0002
# 3 12.5134 23.9040 20.7778 -0.0001 3.1970 0.0002
# 4 -0.0001 -0.0002 -0.0001 25.3855 0.0000 2.8355
# 5 -11.7616 4.9844 3.1970 0.0000 14.7643 -0.0001
# 6 0.0001 0.0002 0.0002 2.8355 -0.0001 24.5074
#
#
#
# Elastic Compliance Matrix: (Units=1/GPa)
#
#
# Indices 1 2 3 4 5 6 
#
# 1 0.022807 -0.005213 -0.011176 0.000000 0.022348 0.000000
# 2 -0.005213 0.008736 -0.006019 0.000000 -0.005799 0.000000
# 3 -0.011176 -0.006019 0.065007 0.000000 -0.020948 -0.000001
# 4 0.000000 0.000000 0.000000 0.039908 0.000000 -0.004617
# 5 0.022348 -0.005799 -0.020948 0.000000 0.092028 0.000000
# 6 0.000000 0.000000 -0.000001 -0.004617 0.000000 0.041338
#
#
# Mechanical properties :
#
#
# Convention : Reuss Voigt Hill
#
# Bulk Modulus (GPa) = 19.33005 45.78816 32.55911
# Shear Modulus (GPa) = 15.06546 24.43275 19.74910
#
# Velocity S-wave (km/s) = 2.85078 3.63043 3.26397
# Velocity P-wave (km/s) = 4.61122 6.50180 5.63635
#
# Compressibility (1/GPa) = 0.05173294
#
# Stress axis : x y z
#
# Youngs Moduli (GPa) = 43.84708 114.46658 15.38302
#
# Poissons Ratio (x) = 0.59673 0.17193
# Poissons Ratio (y) = 0.22858 0.09259
# Poissons Ratio (z) = 0.49005 0.68894
#
# Static dielectric constant tensor:
#      x y z
#    x 1.684970 0.000000 0.000870 
#    y 0.000000 1.663670 0.000000 
#    z 0.000870 0.000000 1.682790 
# 
# From -- ./inp_files/271380.got.cif
#   From: 2010.05.17/outbox.cif.g08.bks.cpg/sg12_136_cif.got.tgz:271380.got - 2010.06.03 13:09:07.
