data_PCOD9185659
_publ_section_title
;
Structure prediction by ZEFSAII (Michael W. Deem and Ramdas Pophale) SiO2 
 PCOD9185659
Probable space group: C 2/M
;
_chemical_formula_sum "Si O2"
_cell_formula_units_Z 60
_cell_length_a 8.245211
_cell_length_b 32.914662
_cell_length_c 12.295223
_cell_angle_alpha 90.000000
_cell_angle_beta 106.154725
_cell_angle_gamma 90.000000
_cell_volume 3205.023457
_symmetry_space_group_name_H-M "C 2/M"
_symmetry_group_IT_number 12
_symmetry_cell_setting 'monoclinic'
loop_
_space_group_symop_operation_xyz
x,y,z
-x,y,-z
-x,-y,-z
x,-y,z
1/2+x,1/2+y,z
1/2-x,1/2+y,-z
1/2-x,1/2-y,-z
1/2+x,1/2-y,z
loop_
_atom_site_type_symbol
_atom_site_label
_atom_site_fract_x
_atom_site_fract_y
_atom_site_fract_z
Si Si1 0.992985 0.802420 0.628712
Si Si2 0.500000 0.596953 0.000000
Si Si3 0.441509 0.867723 0.366574
Si Si4 0.346416 0.046445 0.045457
Si Si5 0.943677 0.045230 0.366777
Si Si6 0.610554 0.217773 0.629391
Si Si7 0.543856 0.955891 0.308368
Si Si8 0.452061 0.620908 0.751113
O O1 0.800402 0.792018 0.627100
O O2 0.043538 0.842827 0.703397
O O3 0.000000 0.810546 0.500000
O O4 0.099288 0.762308 0.679187
O O5 0.329250 0.570419 0.984380
O O6 0.478613 0.622010 0.884889
O O7 0.500000 0.860819 0.500000
O O8 0.464018 0.821885 0.321729
O O9 0.522795 0.910968 0.353274
O O10 0.244440 0.875291 0.313598
O O11 0.426045 0.044852 0.180316
O O12 0.314292 0.000000 0.001571
O O13 0.500000 0.063469 0.000000
O O14 0.742430 0.042351 0.321758
O O15 0.000000 0.057489 0.500000
O O16 0.997259 0.077527 0.287798
O O17 0.016209 0.000000 0.361709
O O18 0.500000 0.223460 0.500000
O O19 0.504886 0.000000 0.357722
#
# Coordination Sequence:
#
# PCOD9185659 Si02
#       8
#     8   4   8   8   8   8   8   8
#     4  10  19  34  57  85 117 143 187 240 301 360
#     4  12  23  40  60  84 122 162 208 256 303 358
#     4  10  20  35  54  81 114 146 185 233 289 350
#     4  10  21  38  59  83 112 152 207 262 303 342
#     4  10  21  36  55  84 119 155 197 244 305 369
#     4   9  18  31  53  85 113 143 180 232 293 355
#     4  10  20  35  53  78 113 151 191 237 287 347
#     4  11  23  36  56  85 114 156 196 245 294 360
#
# _framework density 18.720611000000002
#
# number of rings (size 3 to 8) (size 9 to 14) (size 15 to 20)
#    0.000    1.867    1.333    3.800    0.000    6.133 
#    0.000    0.000    0.000    3.200    1.733    0.000 
#    0.000    0.000    0.000    0.000    0.000    0.000 
#
# Total GULP energy -167016.891314 kJ/mol
# GULP energy per Si atom -5567.229710 kJ/mol
# Density = 1.867800 g / cm^3
# Si number density = 18.720611 Si / 1000 Ang^3
#
#
#
# Elastic Constant Matrix: (Units=GPa)
#
#
# Indices 1 2 3 4 5 6 
#
# 1 51.7793 16.7134 29.1948 0.0000 11.6335 0.0000
# 2 16.7134 124.4060 46.5594 0.0000 -22.6784 0.0000
# 3 29.1948 46.5594 78.2291 0.0000 0.0506 0.0000
# 4 0.0000 0.0000 0.0000-1097.1305 0.0000 319.8201
# 5 11.6335 -22.6784 0.0506 0.0000 27.1073 0.0000
# 6 0.0000 0.0000 0.0000 319.8201 0.0000 -66.3960
#
#
#
# Elastic Compliance Matrix: (Units=1/GPa)
#
#
# Indices 1 2 3 4 5 6 
#
# 1 0.028695 -0.003350 -0.008705 0.000000 -0.015101 0.000000
# 2 -0.003350 0.013266 -0.006653 0.000000 0.012548 0.000000
# 3 -0.008705 -0.006653 0.019993 0.000000 -0.001867 0.000000
# 4 0.000000 0.000000 0.000000 0.002255 0.000000 0.010864
# 5 -0.015101 0.012548 -0.001867 0.000000 0.053873 0.000000
# 6 0.000000 0.000000 0.000000 0.010864 0.000000 0.037267
#
#
# Mechanical properties :
#
#
# Convention : Reuss Voigt Hill
#
# Bulk Modulus (GPa) = 40.75543 48.81662 44.78602
# Shear Modulus (GPa) = 24.88240 -216.48737 -95.80249
#
# Velocity S-wave (km/s) = 3.64970 -10.76533 -7.16142
# Velocity P-wave (km/s) = 6.29111 11.33093 6.66378
#
# Compressibility (1/GPa) = 0.02453661
#
# Stress axis : x y z
#
# Youngs Moduli (GPa) = 34.84888 75.38207 50.01795
#
# Poissons Ratio (x) = 0.25252 0.43543
# Poissons Ratio (y) = 0.11674 0.33278
# Poissons Ratio (z) = 0.30338 0.50154
#
# Static dielectric constant tensor:
#      x y z
#    x 1.573490 0.000000 -0.029070 
#    y 0.000000 1.771400 0.000000 
#    z -0.029070 0.000000 1.633420 
# 
# From -- ./inp_files/125795.got.cif
#   From: 2010.05.17/outbox.cif.g08.bks.cpg/sg12_63_cif.got.tgz:125795.got - 2010.06.03 13:09:07.
