data_PCOD9185304
_publ_section_title
;
Structure prediction by ZEFSAII (Michael W. Deem and Ramdas Pophale) SiO2 
 PCOD9185304
Probable space group: C 2/M
;
_chemical_formula_sum "Si O2"
_cell_formula_units_Z 64
_cell_length_a 25.868758
_cell_length_b 7.987640
_cell_length_c 14.968466
_cell_angle_alpha 90.000000
_cell_angle_beta 89.506193
_cell_angle_gamma 90.000000
_cell_volume 3092.824141
_symmetry_space_group_name_H-M "C 2/M"
_symmetry_group_IT_number 12
_symmetry_cell_setting 'monoclinic'
loop_
_space_group_symop_operation_xyz
x,y,z
-x,y,-z
-x,-y,-z
x,-y,z
1/2+x,1/2+y,z
1/2-x,1/2+y,-z
1/2-x,1/2-y,-z
1/2+x,1/2-y,z
loop_
_atom_site_type_symbol
_atom_site_label
_atom_site_fract_x
_atom_site_fract_y
_atom_site_fract_z
Si Si1 0.558891 0.201814 0.289211
Si Si2 0.302596 0.699779 0.546124
Si Si3 0.342760 0.802377 0.224242
Si Si4 0.736270 0.805993 0.272086
Si Si5 0.692083 0.201981 0.969810
Si Si6 0.585532 0.699588 0.491950
Si Si7 0.053776 0.299802 0.683155
Si Si8 0.647100 0.204996 0.150948
O O1 0.572572 0.245006 0.391604
O O2 0.500233 0.263587 0.275766
O O3 0.600244 0.263231 0.214944
O O4 0.559046 0.000000 0.283018
O O5 0.304051 0.500000 0.558542
O O6 0.250000 0.750000 0.500000
O O7 0.300025 0.786637 0.641836
O O8 0.354465 0.749105 0.494352
O O9 0.291146 0.780672 0.283887
O O10 0.325751 0.733601 0.127121
O O11 0.394232 0.731760 0.270274
O O12 0.351625 0.000000 0.212499
O O13 0.701539 0.736979 0.192681
O O14 0.747401 0.000000 0.256476
O O15 0.692044 0.000000 0.965808
O O16 0.750000 0.250000 0.000000
O O17 0.651235 0.253082 0.047476
O O18 0.580749 0.500000 0.494529
O O19 0.554306 0.767361 0.576721
O O20 0.054187 0.500000 0.694007
O O21 0.647186 0.000000 0.155163
#
# Coordination Sequence:
#
# PCOD9185304 Si02
#       8
#     8   8   8   8   8   8   8   8
#     4  10  20  38  60  79 106 147 189 227 268 323
#     4  11  23  36  51  77 112 148 184 224 275 332
#     4  10  21  36  55  82 116 147 180 228 277 329
#     4  11  20  33  55  80 109 145 182 223 274 328
#     4  10  19  34  56  83 113 143 178 223 275 329
#     4  11  23  37  55  81 110 141 183 231 277 321
#     4  10  22  38  56  79 108 147 189 224 270 327
#     4   9  18  33  55  82 108 136 177 224 270 319
#
# _framework density 20.693062000000001
#
# number of rings (size 3 to 8) (size 9 to 14) (size 15 to 20)
#    0.000    1.750    2.500    2.250    0.000    6.000 
#    0.000    1.250    0.000    3.750    0.000    0.000 
#    0.000    4.000    0.000    0.000    0.000    0.000 
#
# Total GULP energy -178586.691784 kJ/mol
# GULP energy per Si atom -5580.834118 kJ/mol
# Density = 2.064596 g / cm^3
# Si number density = 20.693062 Si / 1000 Ang^3
#
#
#
# Elastic Constant Matrix: (Units=GPa)
#
#
# Indices 1 2 3 4 5 6 
#
# 1 135.3675 11.6702 39.9468 0.0000 -17.6219 0.0000
# 2 11.6702 19.4809 1.1296 0.0000 0.9029 0.0000
# 3 39.9468 1.1296 86.2872 0.0000 -15.4151 0.0000
# 4 0.0000 0.0000 0.0000 11.8961 0.0000 0.8520
# 5 -17.6219 0.9029 -15.4151 0.0000 25.4300 0.0000
# 6 0.0000 0.0000 0.0000 0.8520 0.0000 16.3418
#
#
#
# Elastic Compliance Matrix: (Units=1/GPa)
#
#
# Indices 1 2 3 4 5 6 
#
# 1 0.009522 -0.005718 -0.003497 0.000000 0.004681 0.000000
# 2 -0.005718 0.054948 0.000977 0.000000 -0.005321 0.000000
# 3 -0.003497 0.000977 0.014305 0.000000 0.006214 0.000000
# 4 0.000000 0.000000 0.000000 0.084376 0.000000 -0.004399
# 5 0.004681 -0.005321 0.006214 0.000000 0.046523 0.000000
# 6 0.000000 0.000000 0.000000 -0.004399 0.000000 0.061422
#
#
# Mechanical properties :
#
#
# Convention : Reuss Voigt Hill
#
# Bulk Modulus (GPa) = 16.05153 38.51431 27.28292
# Shear Modulus (GPa) = 16.21595 23.29284 19.75440
#
# Velocity S-wave (km/s) = 2.80240 3.35869 3.09307
# Velocity P-wave (km/s) = 4.27142 5.80462 5.09601
#
# Compressibility (1/GPa) = 0.06229935
#
# Stress axis : x y z
#
# Youngs Moduli (GPa) = 105.02438 18.19906 69.90381
#
# Poissons Ratio (x) = 0.10407 0.24444
# Poissons Ratio (y) = 0.60055 -0.06832
# Poissons Ratio (z) = 0.36726 -0.01779
#
# Static dielectric constant tensor:
#      x y z
#    x 1.757890 0.000000 0.006050 
#    y 0.000000 1.739160 0.000000 
#    z 0.006050 0.000000 1.760640 
# 
# From -- ./inp_files/238652.got.cif
#   From: 2010.05.17/outbox.cif.g08.bks.cpg/sg12_120_cif.got.tgz:238652.got - 2010.06.03 13:09:07.
