data_PCOD9185675
_publ_section_title
;
Structure prediction by ZEFSAII (Michael W. Deem and Ramdas Pophale) SiO2 
 PCOD9185675
Probable space group: C 2/M
;
_chemical_formula_sum "Si O2"
_cell_formula_units_Z 64
_cell_length_a 33.466655
_cell_length_b 10.919693
_cell_length_c 15.424350
_cell_angle_alpha 90.000000
_cell_angle_beta 144.182264
_cell_angle_gamma 90.000000
_cell_volume 3298.681542
_symmetry_space_group_name_H-M "C 2/M"
_symmetry_group_IT_number 12
_symmetry_cell_setting 'monoclinic'
loop_
_space_group_symop_operation_xyz
x,y,z
-x,y,-z
-x,-y,-z
x,-y,z
1/2+x,1/2+y,z
1/2-x,1/2+y,-z
1/2-x,1/2-y,-z
1/2+x,1/2-y,z
loop_
_atom_site_type_symbol
_atom_site_label
_atom_site_fract_x
_atom_site_fract_y
_atom_site_fract_z
Si Si1 0.615124 0.147973 0.320987
Si Si2 0.261831 0.365924 0.899737
Si Si3 0.146269 0.717682 0.823089
Si Si4 0.405936 0.637380 0.423952
Si Si5 0.696282 0.256436 0.623295
Si Si6 0.494192 0.860851 0.351535
Si Si7 0.169226 0.352456 0.232263
Si Si8 0.032993 0.353860 0.899960
O O1 0.647216 0.195756 0.466235
O O2 0.657275 0.187093 0.310583
O O3 0.536410 0.190659 0.176619
O O4 0.614920 0.000000 0.323326
O O5 0.292988 0.500000 0.955188
O O6 0.201688 0.356994 0.865509
O O7 0.227109 0.337915 0.747194
O O8 0.316886 0.265307 0.025481
O O9 0.127342 0.832342 0.727744
O O10 0.077102 0.647632 0.722921
O O11 0.435124 0.500000 0.477039
O O12 0.347705 0.650807 0.395064
O O13 0.457550 0.750409 0.532170
O O14 0.760147 0.312205 0.685121
O O15 0.477238 0.838463 0.220656
O O16 0.522729 0.000000 0.410683
O O17 0.168125 0.500000 0.229536
O O18 0.104075 0.305632 0.062356
O O19 0.035079 0.500000 0.919113
#
# Coordination Sequence:
#
# PCOD9185675 Si02
#       8
#     8   8   8   8   8   8   8   8
#     4  10  19  34  57  86 115 146 187 241 297 346
#     4  10  21  37  57  82 117 156 192 238 295 352
#     4  10  22  37  57  84 113 152 199 242 290 351
#     4  11  24  39  57  81 117 158 197 244 297 354
#     4  11  21  36  56  83 116 153 197 239 289 351
#     4  11  22  38  61  87 116 151 198 249 296 349
#     4  10  20  34  56  84 115 148 189 239 292 350
#     4   9  18  34  56  85 115 145 185 237 295 346
#
# _framework density 19.401689999999999
#
# number of rings (size 3 to 8) (size 9 to 14) (size 15 to 20)
#    0.000    1.750    1.250    3.375    0.000    6.000 
#    0.000    3.750    0.000    0.000    0.000    0.875 
#    0.000    0.000    0.000    0.000    0.000    0.000 
#
# Total GULP energy -178615.348906 kJ/mol
# GULP energy per Si atom -5581.729653 kJ/mol
# Density = 1.935753 g / cm^3
# Si number density = 19.401690 Si / 1000 Ang^3
#
#
#
# Elastic Constant Matrix: (Units=GPa)
#
#
# Indices 1 2 3 4 5 6 
#
# 1 77.0878 6.2008 13.4521 0.0000 11.0988 0.0000
# 2 6.2008 67.3025 19.9252 0.0000 -2.4842 0.0000
# 3 13.4521 19.9252 83.0660 0.0000 2.3127 0.0000
# 4 0.0000 0.0000 0.0000 19.6021 0.0000 9.0300
# 5 11.0988 -2.4842 2.3127 0.0000 27.9009 0.0000
# 6 0.0000 0.0000 0.0000 9.0300 0.0000 3.5919
#
#
#
# Elastic Compliance Matrix: (Units=1/GPa)
#
#
# Indices 1 2 3 4 5 6 
#
# 1 0.014184 -0.000945 -0.001915 0.000000 -0.005568 0.000000
# 2 -0.000945 0.016142 -0.003778 0.000000 0.002126 0.000000
# 3 -0.001915 -0.003778 0.013274 0.000000 -0.000675 0.000000
# 4 0.000000 0.000000 0.000000 -0.322663 0.000000 0.811176
# 5 -0.005568 0.002126 -0.000675 0.000000 0.038301 0.000000
# 6 0.000000 0.000000 0.000000 0.811176 0.000000 -1.760891
#
#
# Mechanical properties :
#
#
# Convention : Reuss Voigt Hill
#
# Bulk Modulus (GPa) = 32.97850 34.06804 33.52327
# Shear Modulus (GPa) = -2.52746 22.74419 10.10836
#
# Velocity S-wave (km/s) = -1.14260 3.42757 2.28503
# Velocity P-wave (km/s) = 3.91075 5.76730 4.92726
#
# Compressibility (1/GPa) = 0.03032278
#
# Stress axis : x y z
#
# Youngs Moduli (GPa) = 70.50149 61.94854 75.33601
#
# Poissons Ratio (x) = 0.05856 0.14429
# Poissons Ratio (y) = 0.06665 0.28464
# Poissons Ratio (z) = 0.13503 0.23406
#
# Static dielectric constant tensor:
#      x y z
#    x 1.689930 0.000000 0.006410 
#    y 0.000000 1.660640 0.000000 
#    z 0.006410 0.000000 1.688350 
# 
# From -- ./inp_files/250876.got.cif
#   From: 2010.05.17/outbox.cif.g08.bks.cpg/sg12_126_cif.got.tgz:250876.got - 2010.06.03 13:09:07.
