data_PCOD9185386
_publ_section_title
;
Structure prediction by ZEFSAII (Michael W. Deem and Ramdas Pophale) SiO2 
 PCOD9185386
Probable space group: C 2/M
;
_chemical_formula_sum "Si O2"
_cell_formula_units_Z 64
_cell_length_a 15.308809
_cell_length_b 17.002710
_cell_length_c 18.611666
_cell_angle_alpha 90.000000
_cell_angle_beta 37.271096
_cell_angle_gamma 90.000000
_cell_volume 2933.738283
_symmetry_space_group_name_H-M "C 2/M"
_symmetry_group_IT_number 12
_symmetry_cell_setting 'monoclinic'
loop_
_space_group_symop_operation_xyz
x,y,z
-x,y,-z
-x,-y,-z
x,-y,z
1/2+x,1/2+y,z
1/2-x,1/2+y,-z
1/2-x,1/2-y,-z
1/2+x,1/2-y,z
loop_
_atom_site_type_symbol
_atom_site_label
_atom_site_fract_x
_atom_site_fract_y
_atom_site_fract_z
Si Si1 0.702980 0.297647 0.935379
Si Si2 0.436173 0.588223 0.463998
Si Si3 0.915769 0.413262 0.857675
Si Si4 0.658906 0.333703 0.650801
Si Si5 0.115834 0.374904 0.861569
Si Si6 0.853950 0.348310 0.388492
Si Si7 0.638547 0.700751 0.819455
Si Si8 0.874837 0.143064 0.773806
O O1 0.792271 0.347955 0.934203
O O2 0.689955 0.332600 0.862411
O O3 0.788327 0.215915 0.865029
O O4 0.536491 0.293283 0.068236
O O5 0.500000 0.584588 0.500000
O O6 0.447745 0.500000 0.423911
O O7 0.271779 0.612642 0.576135
O O8 0.519173 0.654176 0.364221
O O9 0.852592 0.500000 0.898933
O O10 0.025366 0.408495 0.853938
O O11 0.004823 0.394884 0.726756
O O12 0.787486 0.356083 0.511930
O O13 0.627259 0.242245 0.648763
O O14 0.697124 0.337607 0.709175
O O15 0.505956 0.379711 0.741307
O O16 0.180164 0.292625 0.792261
O O17 0.250494 0.411013 0.818249
O O18 0.000000 0.359708 0.000000
#
# Coordination Sequence:
#
# PCOD9185386 Si02
#       8
#     8   8   8   8   8   8   8   8
#     4  10  21  38  62  93 116 163 209 252 313 361
#     4  10  21  34  52  80 122 172 206 241 301 371
#     4  12  25  41  62  87 128 172 204 252 312 373
#     4  10  20  34  61  91 118 152 203 265 304 357
#     4  11  21  35  59  94 125 160 198 248 314 373
#     4  10  20  36  56  86 119 156 208 254 310 362
#     4  10  19  38  64  91 121 152 203 263 315 357
#     4  10  19  34  56  87 119 158 202 250 300 366
#
# _framework density 21.815170999999999
#
# number of rings (size 3 to 8) (size 9 to 14) (size 15 to 20)
#    0.000    1.625    5.000    1.125    3.500    2.750 
#    0.000    1.875    0.000    5.250    0.000    0.000 
#    0.000    0.000    0.000    0.000    0.000    0.000 
#
# Total GULP energy -178178.955984 kJ/mol
# GULP energy per Si atom -5568.092374 kJ/mol
# Density = 2.176552 g / cm^3
# Si number density = 21.815171 Si / 1000 Ang^3
#
#
#
# Elastic Constant Matrix: (Units=GPa)
#
#
# Indices 1 2 3 4 5 6 
#
# 1 88.3787 33.4398 31.9959 -0.0003 10.1390 0.0002
# 2 33.4398 66.4946 2.8516 -0.0003 0.1508 -0.0001
# 3 31.9959 2.8516 78.4988 -0.0004 5.8792 -0.0002
# 4 -0.0003 -0.0003 -0.0004 -15.9998 0.0003 -0.2131
# 5 10.1390 0.1508 5.8792 0.0003 43.0339 0.0000
# 6 0.0002 -0.0001 -0.0002 -0.2131 0.0000 -32.1294
#
#
#
# Elastic Compliance Matrix: (Units=1/GPa)
#
#
# Indices 1 2 3 4 5 6 
#
# 1 0.017174 -0.008353 -0.006462 0.000000 -0.003134 0.000000
# 2 -0.008353 0.019125 0.002594 0.000000 0.001547 0.000000
# 3 -0.006462 0.002594 0.015322 0.000000 -0.000580 0.000000
# 4 0.000000 0.000000 0.000000 -0.062506 0.000000 0.000415
# 5 -0.003134 0.001547 -0.000580 0.000000 0.024050 0.000000
# 6 0.000000 0.000000 0.000000 0.000415 0.000000 -0.031127
#
#
# Mechanical properties :
#
#
# Convention : Reuss Voigt Hill
#
# Bulk Modulus (GPa) = 36.79233 41.10520 38.94876
# Shear Modulus (GPa) = 321.76560 9.98658 165.87609
#
# Velocity S-wave (km/s) = 12.15798 2.14190 8.72938
# Velocity P-wave (km/s) = 14.62842 5.00004 10.93140
#
# Compressibility (1/GPa) = 0.02717958
#
# Stress axis : x y z
#
# Youngs Moduli (GPa) = 58.22615 52.28867 65.26489
#
# Poissons Ratio (x) = 0.43675 0.42175
# Poissons Ratio (y) = 0.48635 -0.16930
# Poissons Ratio (z) = 0.37626 -0.13564
#
# Static dielectric constant tensor:
#      x y z
#    x 1.891510 0.000000 -0.003520 
#    y 0.000000 1.835950 0.000000 
#    z -0.003520 0.000000 1.829780 
# 
# From -- ./inp_files/271682.got.cif
#   From: 2010.05.17/outbox.cif.g08.bks.cpg/sg12_136_cif.got.tgz:271682.got - 2010.06.03 13:09:07.
