data_PCOD9185851
_publ_section_title
;
Structure prediction by ZEFSAII (Michael W. Deem and Ramdas Pophale) SiO2 
 PCOD9185851
Probable space group: C 2/M
;
_chemical_formula_sum "Si O2"
_cell_formula_units_Z 52
_cell_length_a 8.006359
_cell_length_b 19.835607
_cell_length_c 17.246638
_cell_angle_alpha 90.000000
_cell_angle_beta 69.303974
_cell_angle_gamma 90.000000
_cell_volume 2562.206872
_symmetry_space_group_name_H-M "C 2/M"
_symmetry_group_IT_number 12
_symmetry_cell_setting 'monoclinic'
loop_
_space_group_symop_operation_xyz
x,y,z
-x,y,-z
-x,-y,-z
x,-y,z
1/2+x,1/2+y,z
1/2-x,1/2+y,-z
1/2-x,1/2-y,-z
1/2+x,1/2-y,z
loop_
_atom_site_type_symbol
_atom_site_label
_atom_site_fract_x
_atom_site_fract_y
_atom_site_fract_z
Si Si1 0.237890 0.425157 0.176446
Si Si2 0.725145 0.330528 0.095842
Si Si3 0.000874 0.301112 0.835766
Si Si4 0.686668 0.686062 0.334884
Si Si5 0.500000 0.384455 0.000000
Si Si6 0.964213 0.078659 0.752253
Si Si7 0.592787 0.202982 0.559382
O O1 0.156618 0.500000 0.189986
O O2 0.341299 0.413259 0.240327
O O3 0.105024 0.364937 0.179678
O O4 0.389545 0.423108 0.084096
O O5 0.924779 0.316484 0.090626
O O6 0.614610 0.265675 0.142097
O O7 0.667660 0.394124 0.158591
O O8 0.652453 0.343310 0.021629
O O9 0.169764 0.289715 0.752102
O O10 0.573863 0.626035 0.314650
O O11 0.555171 0.747084 0.379115
O O12 0.805691 0.663312 0.389258
O O13 0.935208 0.000000 0.741392
O O14 0.500000 0.168318 0.500000
O O15 0.750000 0.250000 0.500000
#
# Coordination Sequence:
#
# PCOD9185851 Si02
#       7
#     8   8   8   8   4   8   8
#     4  10  22  39  56  78 109 146 194 241 286 342
#     4  10  21  35  54  80 111 142 189 239 285 340
#     4  11  22  35  55  84 112 143 185 240 285 328
#     4  10  19  34  58  84 116 148 181 224 279 326
#     4  10  21  38  58  74 105 152 190 236 299 342
#     4   9  19  35  55  79 108 146 190 234 279 331
#     4   9  19  34  56  87 117 145 177 215 262 324
#
# _framework density 20.295005
#
# number of rings (size 3 to 8) (size 9 to 14) (size 15 to 20)
#    0.000    2.154    0.000    3.923    0.000    9.846 
#    0.000    0.769    0.000    4.615    0.000    0.000 
#    0.000    0.000    0.000    0.000    0.000    0.000 
#
# Total GULP energy -145061.081650 kJ/mol
# GULP energy per Si atom -5579.272371 kJ/mol
# Density = 2.024881 g / cm^3
# Si number density = 20.295005 Si / 1000 Ang^3
#
#
#
# Elastic Constant Matrix: (Units=GPa)
#
#
# Indices 1 2 3 4 5 6 
#
# 1 102.6266 51.3102 44.8849 0.0000 32.2196 0.0000
# 2 51.3102 107.4795 33.0483 0.0000 17.6396 0.0000
# 3 44.8849 33.0483 90.9326 0.0000 32.3258 0.0000
# 4 0.0000 0.0000 0.0000 8.5863 0.0000 4.9086
# 5 32.2196 17.6396 32.3258 0.0000 54.5658 0.0000
# 6 0.0000 0.0000 0.0000 4.9086 0.0000 25.0477
#
#
#
# Elastic Compliance Matrix: (Units=1/GPa)
#
#
# Indices 1 2 3 4 5 6 
#
# 1 0.015877 -0.005497 -0.003975 0.000000 -0.005243 0.000000
# 2 -0.005497 0.012467 -0.001949 0.000000 0.000370 0.000000
# 3 -0.003975 -0.001949 0.015973 0.000000 -0.006485 0.000000
# 4 0.000000 0.000000 0.000000 0.131158 0.000000 -0.025703
# 5 -0.005243 0.000370 -0.006485 0.000000 0.025145 0.000000
# 6 0.000000 0.000000 0.000000 -0.025703 0.000000 0.044961
#
#
# Mechanical properties :
#
#
# Convention : Reuss Voigt Hill
#
# Bulk Modulus (GPa) = 46.56761 62.16950 54.36855
# Shear Modulus (GPa) = 18.14341 29.09299 23.61820
#
# Velocity S-wave (km/s) = 2.99320 3.79027 3.41507
# Velocity P-wave (km/s) = 5.91108 7.06076 6.51134
#
# Compressibility (1/GPa) = 0.02147415
#
# Stress axis : x y z
#
# Youngs Moduli (GPa) = 62.98428 80.21284 62.60395
#
# Poissons Ratio (x) = 0.44091 0.24888
# Poissons Ratio (y) = 0.34621 0.12204
# Poissons Ratio (z) = 0.25039 0.15636
#
# Static dielectric constant tensor:
#      x y z
#    x 1.771040 0.000000 0.037140 
#    y 0.000000 1.678320 0.000000 
#    z 0.037140 0.000000 1.787220 
# 
# From -- ./inp_files/256573.got.cif
#   From: 2010.05.17/outbox.cif.g08.bks.cpg/sg12_129_cif.got.tgz:256573.got - 2010.06.03 13:09:07.
