data_PCOD9185560
_publ_section_title
;
Structure prediction by ZEFSAII (Michael W. Deem and Ramdas Pophale) SiO2 
 PCOD9185560
Probable space group: C 2/M
;
_chemical_formula_sum "Si O2"
_cell_formula_units_Z 64
_cell_length_a 32.708970
_cell_length_b 8.795613
_cell_length_c 12.307245
_cell_angle_alpha 90.000000
_cell_angle_beta 79.538647
_cell_angle_gamma 90.000000
_cell_volume 3481.882736
_symmetry_space_group_name_H-M "C 2/M"
_symmetry_group_IT_number 12
_symmetry_cell_setting 'monoclinic'
loop_
_space_group_symop_operation_xyz
x,y,z
-x,y,-z
-x,-y,-z
x,-y,z
1/2+x,1/2+y,z
1/2-x,1/2+y,-z
1/2-x,1/2-y,-z
1/2+x,1/2-y,z
loop_
_atom_site_type_symbol
_atom_site_label
_atom_site_fract_x
_atom_site_fract_y
_atom_site_fract_z
Si Si1 0.764907 0.818905 0.607222
Si Si2 0.856071 0.318142 0.582226
Si Si3 0.870842 0.681481 0.816423
Si Si4 0.796130 0.181151 0.982388
Si Si5 0.461238 0.315319 0.159845
Si Si6 0.191036 0.181653 0.775503
Si Si7 0.386328 0.683687 0.343489
Si Si8 0.054756 0.183874 0.079625
O O1 0.750000 0.750000 0.500000
O O2 0.809960 0.751056 0.608896
O O3 0.731361 0.768361 0.712513
O O4 0.767119 0.000000 0.598411
O O5 0.853100 0.500000 0.574871
O O6 0.877287 0.279207 0.686688
O O7 0.878194 0.253313 0.464942
O O8 0.869251 0.500000 0.826637
O O9 0.907660 0.746606 0.872032
O O10 0.827194 0.748037 0.879829
O O11 0.814645 0.211043 0.094072
O O12 0.793797 0.000000 0.968346
O O13 0.750000 0.250000 0.000000
O O14 0.461104 0.500000 0.160549
O O15 0.429263 0.264861 0.267229
O O16 0.509329 0.269558 0.146734
O O17 0.445203 0.271496 0.047572
O O18 0.151570 0.222966 0.720111
O O19 0.197881 0.000000 0.759420
O O20 0.386625 0.500000 0.352228
O O21 0.057596 0.000000 0.082470
#
# Coordination Sequence:
#
# PCOD9185560 Si02
#       8
#     8   8   8   8   8   8   8   8
#     4  12  23  36  56  81 110 146 188 233 278 331
#     4  11  24  40  55  76 110 152 195 238 280 329
#     4  11  24  40  57  80 115 154 194 236 281 334
#     4  11  23  39  59  84 115 149 187 232 284 337
#     4   8  16  33  60  92 118 141 177 230 286 340
#     4  10  21  36  56  83 113 144 182 232 283 332
#     4  10  19  34  57  83 110 142 182 231 284 335
#     4   9  17  35  63  89 114 147 185 225 280 345
#
# _framework density 18.380860999999999
#
# number of rings (size 3 to 8) (size 9 to 14) (size 15 to 20)
#    0.000    1.750    1.250    4.500    0.000    8.000 
#    0.000    4.375    0.000    3.750    0.000    0.000 
#    0.000    0.000    0.000    0.000    0.000    0.000 
#
# Total GULP energy -178781.032833 kJ/mol
# GULP energy per Si atom -5586.907276 kJ/mol
# Density = 1.833903 g / cm^3
# Si number density = 18.380861 Si / 1000 Ang^3
#
#
#
# Elastic Constant Matrix: (Units=GPa)
#
#
# Indices 1 2 3 4 5 6 
#
# 1 115.5823 32.3302 66.0270 0.0000 -8.3727 0.0000
# 2 32.3302 36.2854 45.2040 0.0000 -2.7310 0.0000
# 3 66.0270 45.2040 120.8341 0.0000 -11.3881 0.0000
# 4 0.0000 0.0000 0.0000 28.3903 0.0000 1.6928
# 5 -8.3727 -2.7310 -11.3881 0.0000 33.9171 0.0000
# 6 0.0000 0.0000 0.0000 1.6928 0.0000 25.5719
#
#
#
# Elastic Compliance Matrix: (Units=1/GPa)
#
#
# Indices 1 2 3 4 5 6 
#
# 1 0.013112 -0.005250 -0.005097 0.000000 0.001103 0.000000
# 2 -0.005250 0.053907 -0.017566 0.000000 -0.002854 0.000000
# 3 -0.005097 -0.017566 0.017948 0.000000 0.003354 0.000000
# 4 0.000000 0.000000 0.000000 0.035363 0.000000 -0.002341
# 5 0.001103 -0.002854 0.003354 0.000000 0.030652 0.000000
# 6 0.000000 0.000000 0.000000 -0.002341 0.000000 0.039260
#
#
# Mechanical properties :
#
#
# Convention : Reuss Voigt Hill
#
# Bulk Modulus (GPa) = 34.31699 62.20271 48.25985
# Shear Modulus (GPa) = 19.54788 26.18524 22.86656
#
# Velocity S-wave (km/s) = 3.26466 3.77847 3.53092
# Velocity P-wave (km/s) = 5.73770 7.27669 6.55254
#
# Compressibility (1/GPa) = 0.02914009
#
# Stress axis : x y z
#
# Youngs Moduli (GPa) = 76.26747 18.55060 55.71530
#
# Poissons Ratio (x) = 0.09740 0.28396
# Poissons Ratio (y) = 0.40043 0.97872
# Poissons Ratio (z) = 0.38870 0.32587
#
# Static dielectric constant tensor:
#      x y z
#    x 1.612750 0.000000 -0.002240 
#    y 0.000000 1.618130 0.000000 
#    z -0.002240 0.000000 1.641940 
# 
# From -- ./inp_files/187515.got.cif
#   From: 2010.05.17/outbox.cif.g08.bks.cpg/sg12_94_cif.got.tgz:187515.got - 2010.06.03 13:09:07.
