data_PCOD9185629
_publ_section_title
;
Structure prediction by ZEFSAII (Michael W. Deem and Ramdas Pophale) SiO2 
 PCOD9185629
Probable space group: C 2/M
;
_chemical_formula_sum "Si O2"
_cell_formula_units_Z 64
_cell_length_a 30.970863
_cell_length_b 7.837287
_cell_length_c 23.254513
_cell_angle_alpha 90.000000
_cell_angle_beta 148.089546
_cell_angle_gamma 90.000000
_cell_volume 2983.650165
_symmetry_space_group_name_H-M "C 2/M"
_symmetry_group_IT_number 12
_symmetry_cell_setting 'monoclinic'
loop_
_space_group_symop_operation_xyz
x,y,z
-x,y,-z
-x,-y,-z
x,-y,z
1/2+x,1/2+y,z
1/2-x,1/2+y,-z
1/2-x,1/2-y,-z
1/2+x,1/2-y,z
loop_
_atom_site_type_symbol
_atom_site_label
_atom_site_fract_x
_atom_site_fract_y
_atom_site_fract_z
Si Si1 0.372351 0.295273 0.511563
Si Si2 0.856228 0.794490 0.903018
Si Si3 0.522686 0.290810 0.144707
Si Si4 0.190994 0.206192 0.277007
Si Si5 0.504553 0.299937 0.253909
Si Si6 0.916506 0.208467 0.435544
Si Si7 0.661659 0.804327 0.876604
Si Si8 0.705333 0.703060 0.799916
O O1 0.383200 0.500000 0.523410
O O2 0.275896 0.260845 0.401518
O O3 0.426330 0.226718 0.625226
O O4 0.406135 0.229605 0.488596
O O5 0.819656 0.731189 0.801017
O O6 0.798923 0.744644 0.891741
O O7 0.856991 0.000000 0.900874
O O8 0.948246 0.736262 0.019536
O O9 0.521460 0.500000 0.142462
O O10 0.610975 0.238029 0.221415
O O11 0.506548 0.230238 0.191485
O O12 0.191314 0.000000 0.275871
O O13 0.523632 0.500000 0.268868
O O14 0.415882 0.288274 0.183336
O O15 0.843816 0.263885 0.311669
O O16 0.000000 0.261228 0.500000
O O17 0.915498 0.000000 0.435957
O O18 0.668456 0.780683 0.815840
O O19 0.649522 0.000000 0.877722
O O20 0.750000 0.750000 0.000000
O O21 0.695940 0.500000 0.794634
#
# Coordination Sequence:
#
# PCOD9185629 Si02
#       8
#     8   8   8   8   8   8   8   8
#     4  10  20  36  57  83 117 156 197 241 295 355
#     4  10  19  34  57  84 117 152 194 247 303 358
#     4   9  19  36  58  83 110 150 199 247 297 357
#     4  10  20  35  57  84 116 153 196 245 302 356
#     4  10  21  39  62  85 115 157 204 246 292 351
#     4   9  17  31  52  77 107 145 188 231 278 341
#     4  12  25  41  61  87 121 156 196 241 291 348
#     4  11  21  35  58  85 116 152 192 236 292 350
#
# _framework density 21.450234999999999
#
# number of rings (size 3 to 8) (size 9 to 14) (size 15 to 20)
#    0.000    1.875    1.250    3.375    0.000    5.500 
#    0.000    1.250    0.000    3.375    0.000    0.000 
#    0.000    0.000    0.000    0.000    0.000    0.000 
#
# Total GULP energy -178783.333146 kJ/mol
# GULP energy per Si atom -5586.979161 kJ/mol
# Density = 2.140141 g / cm^3
# Si number density = 21.450235 Si / 1000 Ang^3
#
#
#
# Elastic Constant Matrix: (Units=GPa)
#
#
# Indices 1 2 3 4 5 6 
#
# 1 101.6273 -15.4124 37.9063 0.0000 8.9043 0.0000
# 2 -15.4124 22.2926 -7.8006 0.0000 -10.1406 0.0000
# 3 37.9063 -7.8006 124.7919 0.0000 5.4763 0.0000
# 4 0.0000 0.0000 0.0000 19.1133 0.0000 7.3967
# 5 8.9043 -10.1406 5.4763 0.0000 39.3581 0.0000
# 6 0.0000 0.0000 0.0000 7.3967 0.0000 17.3578
#
#
#
# Elastic Compliance Matrix: (Units=1/GPa)
#
#
# Indices 1 2 3 4 5 6 
#
# 1 0.012157 0.007055 -0.003231 0.000000 -0.000483 0.000000
# 2 0.007055 0.055772 0.000788 0.000000 0.012664 0.000000
# 3 -0.003231 0.000788 0.009058 0.000000 -0.000327 0.000000
# 4 0.000000 0.000000 0.000000 0.062652 0.000000 -0.026698
# 5 -0.000483 0.012664 -0.000327 0.000000 0.028825 0.000000
# 6 0.000000 0.000000 0.000000 -0.026698 0.000000 0.068988
#
#
# Mechanical properties :
#
#
# Convention : Reuss Voigt Hill
#
# Bulk Modulus (GPa) = 11.59951 30.89982 21.24967
# Shear Modulus (GPa) = 19.45789 30.76707 25.11248
#
# Velocity S-wave (km/s) = 3.01511 3.79139 3.42531
# Velocity P-wave (km/s) = 4.18814 5.79679 5.05684
#
# Compressibility (1/GPa) = 0.08621052
#
# Stress axis : x y z
#
# Youngs Moduli (GPa) = 82.25642 17.93023 110.39701
#
# Poissons Ratio (x) = -0.12649 0.35665
# Poissons Ratio (y) = -0.58030 -0.08694
# Poissons Ratio (z) = 0.26574 -0.01412
#
# Static dielectric constant tensor:
#      x y z
#    x 1.745810 0.000000 -0.026950 
#    y 0.000000 1.786690 0.000000 
#    z -0.026950 0.000000 1.774610 
# 
# From -- ./inp_files/250053.got.cif
#   From: 2010.05.17/outbox.cif.g08.bks.cpg/sg12_126_cif.got.tgz:250053.got - 2010.06.03 13:09:07.
