data_PCOD9185140
_publ_section_title
;
Structure prediction by ZEFSAII (Michael W. Deem and Ramdas Pophale) SiO2 
 PCOD9185140
Probable space group: C 2/M
;
_chemical_formula_sum "Si O2"
_cell_formula_units_Z 64
_cell_length_a 15.720566
_cell_length_b 10.419986
_cell_length_c 23.238748
_cell_angle_alpha 90.000000
_cell_angle_beta 113.475302
_cell_angle_gamma 90.000000
_cell_volume 3491.621657
_symmetry_space_group_name_H-M "C 2/M"
_symmetry_group_IT_number 12
_symmetry_cell_setting 'monoclinic'
loop_
_space_group_symop_operation_xyz
x,y,z
-x,y,-z
-x,-y,-z
x,-y,z
1/2+x,1/2+y,z
1/2-x,1/2+y,-z
1/2-x,1/2-y,-z
1/2+x,1/2-y,z
loop_
_atom_site_type_symbol
_atom_site_label
_atom_site_fract_x
_atom_site_fract_y
_atom_site_fract_z
Si Si1 0.226543 0.345870 0.865233
Si Si2 0.623971 0.792229 0.404348
Si Si3 0.236499 0.351211 0.735142
Si Si4 0.197321 0.640050 0.545025
Si Si5 0.966588 0.652140 0.137641
Si Si6 0.120729 0.641413 0.272654
Si Si7 0.939109 0.848852 0.926060
Si Si8 0.934437 0.349508 0.397810
O O1 0.220638 0.500000 0.866617
O O2 0.215853 0.311823 0.795173
O O3 0.138935 0.302173 0.879251
O O4 0.331957 0.311874 0.910081
O O5 0.698773 0.681572 0.414536
O O6 0.676016 0.861060 0.471831
O O7 0.611186 0.856086 0.338984
O O8 0.522415 0.768210 0.401636
O O9 0.269488 0.500000 0.744435
O O10 0.311639 0.254490 0.729307
O O11 0.144035 0.347310 0.672096
O O12 0.188690 0.500000 0.568008
O O13 0.115277 0.707342 0.558586
O O14 0.967700 0.500000 0.119733
O O15 0.023518 0.656101 0.213101
O O16 0.018466 0.748735 0.108262
O O17 0.158042 0.500000 0.266341
O O18 0.939405 0.000000 0.906435
O O19 0.000000 0.842735 0.000000
O O20 0.968537 0.500000 0.413478
#
# Coordination Sequence:
#
# PCOD9185140 Si02
#       8
#     8   8   8   8   8   8   8   8
#     4   9  18  35  58  82 112 150 189 228 273 327
#     4  11  21  34  56  78 109 141 180 231 287 331
#     4  10  19  35  59  81 106 147 191 230 276 334
#     4  10  21  36  54  77 105 141 187 231 276 336
#     4  10  21  37  59  85 113 149 191 231 277 333
#     4  11  21  34  54  83 113 141 178 233 291 332
#     4  10  21  38  60  87 120 155 189 227 273 325
#     4  10  19  34  56  79 101 136 188 231 268 329
#
# _framework density 18.329592999999999
#
# number of rings (size 3 to 8) (size 9 to 14) (size 15 to 20)
#    0.000    1.875    2.500    2.250    0.000    3.750 
#    0.000    1.875    0.000    3.000    0.000    0.000 
#    0.000    0.000    0.000    0.000    0.000    0.000 
#
# Total GULP energy -178148.124258 kJ/mol
# GULP energy per Si atom -5567.128883 kJ/mol
# Density = 1.828787 g / cm^3
# Si number density = 18.329593 Si / 1000 Ang^3
#
#
#
# Elastic Constant Matrix: (Units=GPa)
#
#
# Indices 1 2 3 4 5 6 
#
# 1 133.3016 45.8287 22.5661 0.0000 4.2240 0.0000
# 2 45.8287 54.0739 20.4828 0.0000 0.1423 0.0000
# 3 22.5661 20.4828 77.4702 0.0000 12.6786 0.0000
# 4 0.0000 0.0000 0.0000 24.6181 0.0000 -0.9550
# 5 4.2240 0.1423 12.6786 0.0000 18.4918 0.0000
# 6 0.0000 0.0000 0.0000 -0.9550 0.0000 20.2316
#
#
#
# Elastic Compliance Matrix: (Units=1/GPa)
#
#
# Indices 1 2 3 4 5 6 
#
# 1 0.010700 -0.008904 -0.000421 0.000000 -0.002087 0.000000
# 2 -0.008904 0.028229 -0.005820 0.000000 0.005807 0.000000
# 3 -0.000421 -0.005820 0.016385 0.000000 -0.011093 0.000000
# 4 0.000000 0.000000 0.000000 0.040695 0.000000 0.001921
# 5 -0.002087 0.005807 -0.011093 0.000000 0.062116 0.000000
# 6 0.000000 0.000000 0.000000 0.001921 0.000000 0.049518
#
#
# Mechanical properties :
#
#
# Convention : Reuss Voigt Hill
#
# Bulk Modulus (GPa) = 39.96223 49.17788 44.57005
# Shear Modulus (GPa) = 20.30248 24.39952 22.35100
#
# Velocity S-wave (km/s) = 3.33172 3.65246 3.49577
# Velocity P-wave (km/s) = 6.05391 6.68396 6.37672
#
# Compressibility (1/GPa) = 0.02502363
#
# Stress axis : x y z
#
# Youngs Moduli (GPa) = 93.45567 35.42499 61.03029
#
# Poissons Ratio (x) = 0.31541 0.02571
# Poissons Ratio (y) = 0.83209 0.35522
# Poissons Ratio (z) = 0.03937 0.20619
#
# Static dielectric constant tensor:
#      x y z
#    x 1.654690 0.000000 0.002500 
#    y 0.000000 1.640960 0.000000 
#    z 0.002500 0.000000 1.645120 
# 
# From -- ./inp_files/309958.got.cif
#   From: 2010.05.17/outbox.cif.g08.bks.cpg/sg12_155_cif.got.tgz:309958.got - 2010.06.03 13:09:07.
