data_PCOD9185947
_publ_section_title
;
Structure prediction by ZEFSAII (Michael W. Deem and Ramdas Pophale) SiO2 
 PCOD9185947
Probable space group: C 2/M
;
_chemical_formula_sum "Si O2"
_cell_formula_units_Z 44
_cell_length_a 13.333957
_cell_length_b 8.625207
_cell_length_c 13.206402
_cell_angle_alpha 90.000000
_cell_angle_beta 108.178324
_cell_angle_gamma 90.000000
_cell_volume 1443.038451
_symmetry_space_group_name_H-M "C 2/M"
_symmetry_group_IT_number 12
_symmetry_cell_setting 'monoclinic'
loop_
_space_group_symop_operation_xyz
x,y,z
-x,y,-z
-x,-y,-z
x,-y,z
1/2+x,1/2+y,z
1/2-x,1/2+y,-z
1/2-x,1/2-y,-z
1/2+x,1/2-y,z
loop_
_atom_site_type_symbol
_atom_site_label
_atom_site_fract_x
_atom_site_fract_y
_atom_site_fract_z
Si Si1 0.556037 0.822634 0.732362
Si Si2 0.821495 0.000000 0.223296
Si Si3 0.625479 0.666880 0.016756
Si Si4 0.874872 0.000000 0.472939
Si Si5 0.873390 0.500000 0.982157
Si Si6 0.853334 0.170193 0.743621
Si Si7 0.641207 0.829603 0.547134
O O1 0.617678 0.662963 0.780743
O O2 0.440050 0.796187 0.742229
O O3 0.551532 0.820946 0.607379
O O4 0.590875 0.000000 0.767989
O O5 0.820602 0.000000 0.345876
O O6 0.703805 0.000000 0.139890
O O7 0.652689 0.500000 0.977855
O O8 0.647860 0.832825 0.973644
O O9 0.669604 0.671523 0.144095
O O10 0.500000 0.663453 0.000000
O O11 0.851483 0.168539 0.511280
O O12 0.000000 0.000000 0.500000
O O13 0.000000 0.500000 0.000000
O O14 0.742268 0.175371 0.654001
O O15 0.901265 0.000000 0.735631
O O16 0.642454 0.000000 0.497977
#
# Coordination Sequence:
#
# PCOD9185947 Si02
#       7
#     8   4   8   4   4   8   8
#     4  10  20  34  56  89 116 152 193 240 291 350
#     4  10  20  38  56  82 123 149 188 247 291 340
#     4   9  18  31  49  80 110 142 182 232 286 342
#     4  10  20  34  60  90 117 154 195 236 294 350
#     4  10  20  34  60  86 107 147 195 239 291 342
#     4  10  19  34  58  87 113 150 201 240 292 347
#     4   9  20  36  55  84 116 150 192 242 287 344
#
# _framework density 30.491219000000001
#
# number of rings (size 3 to 8) (size 9 to 14) (size 15 to 20)
#    0.000    2.364    0.909    2.182    2.545    2.545 
#    0.000    0.000    0.000   14.182    0.000    0.000 
#    0.000    0.000    0.000    0.000    0.000    0.000 
#
# Total GULP energy -123418.282293 kJ/mol
# GULP energy per Si atom -5609.921922 kJ/mol
# Density = 3.042182 g / cm^3
# Si number density = 30.491219 Si / 1000 Ang^3
#
#
#
# Elastic Constant Matrix: (Units=GPa)
#
#
# Indices 1 2 3 4 5 6 
#
# 1 93.9022 73.8104 22.3773 0.0000 -1.1645 0.0000
# 2 73.8104 420.6162 60.5488 0.0000 -1.0684 0.0000
# 3 22.3773 60.5488 80.7289 0.0000 -4.3674 0.0000
# 4 0.0000 0.0000 0.0000 60.1598 0.0000 -1.3113
# 5 -1.1645 -1.0684 -4.3674 0.0000 42.8794 0.0000
# 6 0.0000 0.0000 0.0000 -1.3113 0.0000 75.3782
#
#
#
# Elastic Compliance Matrix: (Units=1/GPa)
#
#
# Indices 1 2 3 4 5 6 
#
# 1 0.012653 -0.001924 -0.002060 0.000000 0.000086 0.000000
# 2 -0.001924 0.002958 -0.001694 0.000000 -0.000151 0.000000
# 3 -0.002060 -0.001694 0.014302 0.000000 0.001359 0.000000
# 4 0.000000 0.000000 0.000000 0.016629 0.000000 0.000289
# 5 0.000086 -0.000151 0.001359 0.000000 0.023458 0.000000
# 6 0.000000 0.000000 0.000000 0.000289 0.000000 0.013271
#
#
# Mechanical properties :
#
#
# Convention : Reuss Voigt Hill
#
# Bulk Modulus (GPa) = 53.88233 100.96892 77.42562
# Shear Modulus (GPa) = 49.59645 64.91755 57.25700
#
# Velocity S-wave (km/s) = 4.03747 4.61918 4.33808
# Velocity P-wave (km/s) = 6.28050 7.85080 7.10914
#
# Compressibility (1/GPa) = 0.01855896
#
# Stress axis : x y z
#
# Youngs Moduli (GPa) = 79.03003 338.00998 69.91987
#
# Poissons Ratio (x) = 0.65023 0.14403
# Poissons Ratio (y) = 0.15203 0.11844
# Poissons Ratio (z) = 0.16280 0.57255
#
# Static dielectric constant tensor:
#      x y z
#    x 2.360060 0.000000 0.059950 
#    y 0.000000 2.333750 0.000000 
#    z 0.059950 0.000000 2.367500 
# 
# From -- ./inp_files/308673.got.cif
#   From: 2010.05.17/outbox.cif.g08.bks.cpg/sg12_155_cif.got.tgz:308673.got - 2010.06.03 13:09:07.
