data_PCOD9185824
_publ_section_title
;
Structure prediction by ZEFSAII (Michael W. Deem and Ramdas Pophale) SiO2 
 PCOD9185824
Probable space group: C 2/M
;
_chemical_formula_sum "Si O2"
_cell_formula_units_Z 56
_cell_length_a 19.060238
_cell_length_b 7.504906
_cell_length_c 18.453637
_cell_angle_alpha 90.000000
_cell_angle_beta 110.478482
_cell_angle_gamma 90.000000
_cell_volume 2472.886152
_symmetry_space_group_name_H-M "C 2/M"
_symmetry_group_IT_number 12
_symmetry_cell_setting 'monoclinic'
loop_
_space_group_symop_operation_xyz
x,y,z
-x,y,-z
-x,-y,-z
x,-y,z
1/2+x,1/2+y,z
1/2-x,1/2+y,-z
1/2-x,1/2-y,-z
1/2+x,1/2-y,z
loop_
_atom_site_type_symbol
_atom_site_label
_atom_site_fract_x
_atom_site_fract_y
_atom_site_fract_z
Si Si1 0.635908 0.781133 0.163111
Si Si2 0.322008 0.287293 0.479031
Si Si3 0.902216 0.702798 0.261052
Si Si4 0.232926 0.796018 0.693159
Si Si5 0.979312 0.213074 0.576225
Si Si6 0.034633 0.282017 0.869196
Si Si7 0.826131 0.713231 0.983468
O O1 0.690715 0.718204 0.247169
O O2 0.549632 0.725904 0.141656
O O3 0.669701 0.723271 0.097964
O O4 0.637206 0.000000 0.164686
O O5 0.335916 0.500000 0.476694
O O6 0.250000 0.250000 0.500000
O O7 0.305731 0.215666 0.392374
O O8 0.394393 0.220026 0.548099
O O9 0.879068 0.500000 0.237541
O O10 0.828925 0.796346 0.265951
O O11 0.939052 0.775325 0.201234
O O12 0.964344 0.704884 0.346362
O O13 0.250512 0.000000 0.679491
O O14 0.000000 0.244689 0.500000
O O15 0.984403 0.000000 0.590549
O O16 0.032943 0.500000 0.869212
O O17 0.099567 0.223304 0.947651
O O18 0.832030 0.500000 0.982416
O O19 0.750000 0.750000 0.000000
#
# Coordination Sequence:
#
# PCOD9185824 Si02
#       7
#     8   8   8   8   8   8   8
#     4   9  18  33  57  82 105 142 187 220 258 319
#     4  10  22  37  56  79 107 143 178 224 276 321
#     4  11  22  34  55  83 110 141 179 229 275 314
#     4  10  20  37  57  77 107 146 183 222 268 325
#     4  10  20  39  59  76 105 145 184 222 271 325
#     4   9  19  34  53  82 114 140 175 225 271 310
#     4  10  19  34  58  84 110 142 178 219 264 317
#
# _framework density 22.645603000000001
#
# number of rings (size 3 to 8) (size 9 to 14) (size 15 to 20)
#    0.000    2.143    1.429    1.714    2.000    3.143 
#    0.000    0.714    0.000    4.286    0.000    0.000 
#    0.000    0.000    0.000    0.000    0.000    0.000 
#
# Total GULP energy -156412.104273 kJ/mol
# GULP energy per Si atom -5586.146581 kJ/mol
# Density = 2.259406 g / cm^3
# Si number density = 22.645603 Si / 1000 Ang^3
#
#
#
# Elastic Constant Matrix: (Units=GPa)
#
#
# Indices 1 2 3 4 5 6 
#
# 1 113.8242 -10.4010 15.4009 0.0000 19.1976 0.0000
# 2 -10.4010 56.2229 0.6187 0.0000 0.6076 0.0000
# 3 15.4009 0.6187 85.1253 0.0000 16.2295 0.0000
# 4 0.0000 0.0000 0.0000 -3.1465 0.0000 -9.9879
# 5 19.1976 0.6076 16.2295 0.0000 46.3178 0.0000
# 6 0.0000 0.0000 0.0000 -9.9879 0.0000 18.6759
#
#
#
# Elastic Compliance Matrix: (Units=1/GPa)
#
#
# Indices 1 2 3 4 5 6 
#
# 1 0.009720 0.001850 -0.001071 0.000000 -0.003678 0.000000
# 2 0.001850 0.018142 -0.000295 0.000000 -0.000901 0.000000
# 3 -0.001071 -0.000295 0.012707 0.000000 -0.004005 0.000000
# 4 0.000000 0.000000 0.000000 -0.117813 0.000000 -0.063006
# 5 -0.003678 -0.000901 -0.004005 0.000000 0.024529 0.000000
# 6 0.000000 0.000000 0.000000 -0.063006 0.000000 0.019849
#
#
# Mechanical properties :
#
#
# Convention : Reuss Voigt Hill
#
# Bulk Modulus (GPa) = 24.07529 29.60105 26.83817
# Shear Modulus (GPa) = -250.12707 29.00636 -110.56036
#
# Velocity S-wave (km/s) = -10.52106 3.58282 -6.99485
# Velocity P-wave (km/s) = 11.70195 5.49685 7.30481
#
# Compressibility (1/GPa) = 0.04153636
#
# Stress axis : x y z
#
# Youngs Moduli (GPa) = 102.88447 55.12219 78.69822
#
# Poissons Ratio (x) = -0.10195 0.08427
# Poissons Ratio (y) = -0.19030 0.02319
# Poissons Ratio (z) = 0.11017 0.01624
#
# Static dielectric constant tensor:
#      x y z
#    x 1.810210 0.000000 -0.004180 
#    y 0.000000 1.911630 0.000000 
#    z -0.004180 0.000000 1.799960 
# 
# From -- ./inp_files/275534.got.cif
#   From: 2010.05.17/outbox.cif.g08.bks.cpg/sg12_138_cif.got.tgz:275534.got - 2010.06.03 13:09:07.
