data_PCOD9185405
_publ_section_title
;
Structure prediction by ZEFSAII (Michael W. Deem and Ramdas Pophale) SiO2 
 PCOD9185405
Probable space group: C 2/M
;
_chemical_formula_sum "Si O2"
_cell_formula_units_Z 56
_cell_length_a 20.598648
_cell_length_b 14.885892
_cell_length_c 15.084312
_cell_angle_alpha 90.000000
_cell_angle_beta 148.740570
_cell_angle_gamma 90.000000
_cell_volume 2400.128191
_symmetry_space_group_name_H-M "C 2/M"
_symmetry_group_IT_number 12
_symmetry_cell_setting 'monoclinic'
loop_
_space_group_symop_operation_xyz
x,y,z
-x,y,-z
-x,-y,-z
x,-y,z
1/2+x,1/2+y,z
1/2-x,1/2+y,-z
1/2-x,1/2-y,-z
1/2+x,1/2-y,z
loop_
_atom_site_type_symbol
_atom_site_label
_atom_site_fract_x
_atom_site_fract_y
_atom_site_fract_z
Si Si1 0.582448 0.649742 0.322468
Si Si2 0.245484 0.391700 0.139070
Si Si3 0.692675 0.391755 0.985625
Si Si4 0.922140 0.148096 0.488889
Si Si5 0.024583 0.648833 0.626510
Si Si6 0.832999 0.645332 0.550500
Si Si7 0.013668 0.605948 0.112905
O O1 0.437221 0.644604 0.124889
O O2 0.585186 0.603899 0.423442
O O3 0.686413 0.621215 0.371470
O O4 0.632718 0.749233 0.404835
O O5 0.254164 0.500000 0.158012
O O6 0.310969 0.367391 0.123534
O O7 0.291057 0.347925 0.283924
O O8 0.101573 0.363596 0.961071
O O9 0.691857 0.500000 0.991667
O O10 0.828239 0.359697 0.178943
O O11 0.000000 0.101344 0.500000
O O12 0.982808 0.246585 0.570542
O O13 0.000000 0.610084 0.500000
O O14 0.930048 0.608650 0.590479
O O15 0.863939 0.616929 0.687074
O O16 0.996424 0.500000 0.082544
O O17 0.000000 0.647449 0.000000
#
# Coordination Sequence:
#
# PCOD9185405 Si02
#       7
#     8   8   8   8   8   8   8
#     4  10  22  38  59  90 128 171 207 259 322 372
#     4  10  20  34  57  92 129 164 202 254 316 378
#     4  11  23  41  64  92 125 161 209 265 319 376
#     4  10  19  34  56  89 127 163 207 253 308 383
#     4  10  23  41  63  91 118 168 221 265 314 362
#     4  10  21  39  61  89 129 164 213 263 308 380
#     4  10  20  35  59  92 130 169 203 248 316 383
#
# _framework density 23.332087000000001
#
# number of rings (size 3 to 8) (size 9 to 14) (size 15 to 20)
#    0.000    1.857    2.857    0.857    0.000    6.286 
#    0.000    0.714    0.000    0.857    0.000    0.000 
#    0.000    0.000    0.000    0.000    0.000    0.000 
#
# Total GULP energy -156007.895589 kJ/mol
# GULP energy per Si atom -5571.710557 kJ/mol
# Density = 2.327898 g / cm^3
# Si number density = 23.332087 Si / 1000 Ang^3
#
#
#
# Elastic Constant Matrix: (Units=GPa)
#
#
# Indices 1 2 3 4 5 6 
#
# 1 149.7307 12.6725 74.0365 0.0000 24.7893 0.0000
# 2 12.6725 54.7718 20.6945 0.0000 11.6576 0.0000
# 3 74.0365 20.6945 140.5645 0.0000 24.6431 0.0000
# 4 0.0000 0.0000 0.0000 50.9783 0.0000 -2.1139
# 5 24.7893 11.6576 24.6431 0.0000 46.2659 0.0000
# 6 0.0000 0.0000 0.0000 -2.1139 0.0000 6.2224
#
#
#
# Elastic Compliance Matrix: (Units=1/GPa)
#
#
# Indices 1 2 3 4 5 6 
#
# 1 0.009311 0.000091 -0.004455 0.000000 -0.002639 0.000000
# 2 0.000091 0.019926 -0.002308 0.000000 -0.003840 0.000000
# 3 -0.004455 -0.002308 0.010236 0.000000 -0.002484 0.000000
# 4 0.000000 0.000000 0.000000 0.019896 0.000000 0.006759
# 5 -0.002639 -0.003840 -0.002484 0.000000 0.025318 0.000000
# 6 0.000000 0.000000 0.000000 0.006759 0.000000 0.163007
#
#
# Mechanical properties :
#
#
# Convention : Reuss Voigt Hill
#
# Bulk Modulus (GPa) = 38.27346 62.20821 50.24084
# Shear Modulus (GPa) = 18.53586 36.53757 27.53671
#
# Velocity S-wave (km/s) = 2.82163 3.96154 3.43914
# Velocity P-wave (km/s) = 5.20143 6.90254 6.11146
#
# Compressibility (1/GPa) = 0.02612777
#
# Stress axis : x y z
#
# Youngs Moduli (GPa) = 107.40537 50.18584 97.69738
#
# Poissons Ratio (x) = -0.00454 0.43521
# Poissons Ratio (y) = -0.00973 0.22549
# Poissons Ratio (z) = 0.47845 0.11583
#
# Static dielectric constant tensor:
#      x y z
#    x 2.013180 0.000000 0.054640 
#    y 0.000000 1.948710 0.000000 
#    z 0.054640 0.000000 2.004460 
# 
# From -- ./inp_files/234740.got.cif
#   From: 2010.05.17/outbox.cif.g08.bks.cpg/sg12_118_cif.got.tgz:234740.got - 2010.06.03 13:09:07.
