data_PCOD9185973
_publ_section_title
;
Structure prediction by ZEFSAII (Michael W. Deem and Ramdas Pophale) SiO2 
 PCOD9185973
Probable space group: C 2/M
;
_chemical_formula_sum "Si O2"
_cell_formula_units_Z 52
_cell_length_a 18.535204
_cell_length_b 14.392637
_cell_length_c 11.262438
_cell_angle_alpha 90.000000
_cell_angle_beta 131.927086
_cell_angle_gamma 90.000000
_cell_volume 2235.324671
_symmetry_space_group_name_H-M "C 2/M"
_symmetry_group_IT_number 12
_symmetry_cell_setting 'monoclinic'
loop_
_space_group_symop_operation_xyz
x,y,z
-x,y,-z
-x,-y,-z
x,-y,z
1/2+x,1/2+y,z
1/2-x,1/2+y,-z
1/2-x,1/2-y,-z
1/2+x,1/2-y,z
loop_
_atom_site_type_symbol
_atom_site_label
_atom_site_fract_x
_atom_site_fract_y
_atom_site_fract_z
Si Si1 0.229088 0.604994 0.893827
Si Si2 0.216071 0.109089 0.594522
Si Si3 0.000000 0.248254 0.000000
Si Si4 0.376583 0.892644 0.972308
Si Si5 0.373425 0.604275 0.735692
Si Si6 0.564573 0.601013 0.783803
Si Si7 0.602813 0.248456 0.625910
O O1 0.200053 0.500000 0.831417
O O2 0.184808 0.677809 0.755643
O O3 0.189023 0.623671 0.983453
O O4 0.344208 0.609408 0.028894
O O5 0.311841 0.117805 0.781444
O O6 0.216537 0.123086 0.452226
O O7 0.142871 0.185510 0.566549
O O8 0.185803 0.000000 0.576959
O O9 0.037910 0.317911 0.939788
O O10 0.090290 0.183985 0.137201
O O11 0.410358 0.000000 0.013897
O O12 0.363449 0.500000 0.776875
O O13 0.466346 0.601530 0.749262
O O14 0.574044 0.500000 0.733788
O O15 0.577392 0.680453 0.703182
O O16 0.500000 0.196879 0.500000
#
# Coordination Sequence:
#
# PCOD9185973 Si02
#       7
#     8   8   4   8   8   8   8
#     4  10  22  38  57  83 118 153 187 228 278 335
#     4  10  21  37  58  85 116 146 183 234 285 335
#     4  12  24  38  62  82 110 152 196 240 278 326
#     4  10  22  40  61  82 109 151 197 239 275 321
#     4  10  22  38  58  87 119 147 183 230 290 342
#     4  10  19  34  58  88 116 143 179 229 283 342
#     4  12  21  30  56  88 120 147 182 221 282 344
#
# _framework density 23.262839
#
# number of rings (size 3 to 8) (size 9 to 14) (size 15 to 20)
#    0.000    1.538    3.077    2.308    2.154    1.538 
#    0.000    0.000    0.000    0.000    0.000    0.000 
#    0.000    0.000    0.000    0.000    0.000    0.000 
#
# Total GULP energy -145368.234498 kJ/mol
# GULP energy per Si atom -5591.085942 kJ/mol
# Density = 2.320989 g / cm^3
# Si number density = 23.262839 Si / 1000 Ang^3
#
#
#
# Elastic Constant Matrix: (Units=GPa)
#
#
# Indices 1 2 3 4 5 6 
#
# 1 41.3657 13.5364 1.3105 0.0000 -9.2397 0.0000
# 2 13.5364 87.3627 41.8598 0.0000 -9.8723 0.0000
# 3 1.3105 41.8598 64.1440 0.0000 -1.6963 0.0000
# 4 0.0000 0.0000 0.0000 18.2886 0.0000 -5.6249
# 5 -9.2397 -9.8723 -1.6963 0.0000 22.7926 0.0000
# 6 0.0000 0.0000 0.0000 -5.6249 0.0000 5.9413
#
#
#
# Elastic Compliance Matrix: (Units=1/GPa)
#
#
# Indices 1 2 3 4 5 6 
#
# 1 0.027669 -0.004460 0.002596 0.000000 0.009478 0.000000
# 2 -0.004460 0.018366 -0.011755 0.000000 0.005272 0.000000
# 3 0.002596 -0.011755 0.023147 0.000000 -0.002316 0.000000
# 4 0.000000 0.000000 0.000000 0.077141 0.000000 0.073033
# 5 0.009478 0.005272 -0.002316 0.000000 0.049827 0.000000
# 6 0.000000 0.000000 0.000000 0.073033 0.000000 0.237458
#
#
# Mechanical properties :
#
#
# Convention : Reuss Voigt Hill
#
# Bulk Modulus (GPa) = 23.84155 34.03177 28.93666
# Shear Modulus (GPa) = 10.53018 18.48220 14.50619
#
# Velocity S-wave (km/s) = 2.12989 2.82174 2.49986
# Velocity P-wave (km/s) = 4.03975 5.02765 4.56053
#
# Compressibility (1/GPa) = 0.04194357
#
# Stress axis : x y z
#
# Youngs Moduli (GPa) = 36.14169 54.44968 43.20279
#
# Poissons Ratio (x) = 0.24284 -0.11215
# Poissons Ratio (y) = 0.16119 0.50784
# Poissons Ratio (z) = -0.09382 0.64004
#
# Static dielectric constant tensor:
#      x y z
#    x 1.866530 0.000000 0.002860 
#    y 0.000000 1.858420 0.000000 
#    z 0.002860 0.000000 1.943850 
# 
# From -- ./inp_files/176502.got.cif
#   From: 2010.05.17/outbox.cif.g08.bks.cpg/sg12_89_cif.got.tgz:176502.got - 2010.06.03 13:09:07.
