data_PCOD9185577
_publ_section_title
;
Structure prediction by ZEFSAII (Michael W. Deem and Ramdas Pophale) SiO2 
 PCOD9185577
Probable space group: C 2/M
;
_chemical_formula_sum "Si O2"
_cell_formula_units_Z 48
_cell_length_a 19.569504
_cell_length_b 8.860466
_cell_length_c 30.149869
_cell_angle_alpha 90.000000
_cell_angle_beta 31.093279
_cell_angle_gamma 90.000000
_cell_volume 2699.825519
_symmetry_space_group_name_H-M "C 2/M"
_symmetry_group_IT_number 12
_symmetry_cell_setting 'monoclinic'
loop_
_space_group_symop_operation_xyz
x,y,z
-x,y,-z
-x,-y,-z
x,-y,z
1/2+x,1/2+y,z
1/2-x,1/2+y,-z
1/2-x,1/2-y,-z
1/2+x,1/2-y,z
loop_
_atom_site_type_symbol
_atom_site_label
_atom_site_fract_x
_atom_site_fract_y
_atom_site_fract_z
Si Si1 0.621985 0.679430 0.466027
Si Si2 0.032989 0.680415 0.370036
Si Si3 0.889975 0.179550 0.278661
Si Si4 0.819846 0.679418 0.228021
Si Si5 0.586630 0.820355 0.239142
Si Si6 0.369646 0.819829 0.099322
O O1 0.500000 0.706881 0.500000
O O2 0.644595 0.500000 0.455509
O O3 0.577646 0.742761 0.538250
O O4 0.752187 0.760180 0.375639
O O5 0.030921 0.500000 0.377161
O O6 0.174710 0.745282 0.306930
O O7 0.024727 0.713846 0.322190
O O8 0.898980 0.249917 0.224640
O O9 0.006141 0.236785 0.245857
O O10 0.888111 0.000000 0.277220
O O11 0.803894 0.500000 0.243550
O O12 0.883636 0.705626 0.144334
O O13 0.738164 0.765988 0.157054
O O14 0.580157 0.000000 0.236308
O O15 0.349134 0.000000 0.104482
O O16 0.500000 0.774900 0.000000
#
# Coordination Sequence:
#
# PCOD9185577 Si02
#       6
#     8   8   8   8   8   8
#     4  11  22  35  55  81 111 149 192 234 275 324
#     4  10  20  35  56  81 109 147 191 233 274 325
#     4  12  24  37  56  81 113 151 190 233 279 327
#     4  10  19  34  57  83 113 147 183 226 277 330
#     4  10  22  39  58  83 116 148 184 230 282 333
#     4   9  19  38  64  90 114 143 181 224 274 337
#
# _framework density 17.778926999999999
#
# number of rings (size 3 to 8) (size 9 to 14) (size 15 to 20)
#    0.000    1.667    1.667    3.500    0.000    4.333 
#    0.000    0.833    0.000    0.000    0.000    0.000 
#    0.000    0.000    0.000    0.000    0.000    0.000 
#
# Total GULP energy -134102.683734 kJ/mol
# GULP energy per Si atom -5587.611822 kJ/mol
# Density = 1.773846 g / cm^3
# Si number density = 17.778927 Si / 1000 Ang^3
#
#
#
# Elastic Constant Matrix: (Units=GPa)
#
#
# Indices 1 2 3 4 5 6 
#
# 1 132.5324 66.7132 41.0831 0.0001 -0.3063 -0.0004
# 2 66.7132 80.5469 35.2566 0.0001 0.2746 0.0000
# 3 41.0831 35.2566 82.7130 0.0001 12.5388 -0.0002
# 4 0.0001 0.0001 0.0001 22.5802 0.0000 -0.8783
# 5 -0.3063 0.2746 12.5388 0.0000 15.5285 0.0001
# 6 -0.0004 0.0000 -0.0002 -0.8783 0.0001 32.7188
#
#
#
# Elastic Compliance Matrix: (Units=1/GPa)
#
#
# Indices 1 2 3 4 5 6 
#
# 1 0.013402 -0.009850 -0.002876 0.000000 0.002761 0.000000
# 2 -0.009850 0.022955 -0.005471 0.000000 0.003817 0.000000
# 3 -0.002876 -0.005471 0.018055 0.000000 -0.014539 0.000000
# 4 0.000000 0.000000 0.000000 0.044333 0.000000 0.001190
# 5 0.002761 0.003817 -0.014539 0.000000 0.076124 0.000000
# 6 0.000000 0.000000 0.000000 0.001190 0.000000 0.030595
#
#
# Mechanical properties :
#
#
# Convention : Reuss Voigt Hill
#
# Bulk Modulus (GPa) = 55.50473 64.65537 60.08005
# Shear Modulus (GPa) = 20.17227 24.34812 22.26020
#
# Velocity S-wave (km/s) = 3.37206 3.70468 3.54228
# Velocity P-wave (km/s) = 6.81529 7.39897 7.11312
#
# Compressibility (1/GPa) = 0.01801648
#
# Stress axis : x y z
#
# Youngs Moduli (GPa) = 74.61684 43.56265 55.38754
#
# Poissons Ratio (x) = 0.42911 0.15932
# Poissons Ratio (y) = 0.73501 0.30302
# Poissons Ratio (z) = 0.21463 0.23832
#
# Static dielectric constant tensor:
#      x y z
#    x 1.605400 0.000000 0.020290 
#    y 0.000000 1.589920 0.000000 
#    z 0.020290 0.000000 1.578310 
# 
# From -- ./inp_files/274601.got.cif
#   From: 2010.05.17/outbox.cif.g08.bks.cpg/sg12_138_cif.got.tgz:274601.got - 2010.06.03 13:09:07.
