data_PCOD9185684
_publ_section_title
;
Structure prediction by ZEFSAII (Michael W. Deem and Ramdas Pophale) SiO2 
 PCOD9185684
Probable space group: C 2/M
;
_chemical_formula_sum "Si O2"
_cell_formula_units_Z 48
_cell_length_a 8.145372
_cell_length_b 22.287182
_cell_length_c 12.483582
_cell_angle_alpha 90.000000
_cell_angle_beta 84.046400
_cell_angle_gamma 90.000000
_cell_volume 2254.013288
_symmetry_space_group_name_H-M "C 2/M"
_symmetry_group_IT_number 12
_symmetry_cell_setting 'monoclinic'
loop_
_space_group_symop_operation_xyz
x,y,z
-x,y,-z
-x,-y,-z
x,-y,z
1/2+x,1/2+y,z
1/2-x,1/2+y,-z
1/2-x,1/2-y,-z
1/2+x,1/2-y,z
loop_
_atom_site_type_symbol
_atom_site_label
_atom_site_fract_x
_atom_site_fract_y
_atom_site_fract_z
Si Si1 0.113355 0.219490 0.082341
Si Si2 0.301839 0.432310 0.539853
Si Si3 0.412889 0.633948 0.721494
Si Si4 0.941056 0.681037 0.746483
Si Si5 0.263109 0.927029 0.690256
Si Si6 0.260774 0.268315 0.620321
O O1 0.150198 0.168973 0.169009
O O2 0.037032 0.277223 0.150339
O O3 0.250000 0.250000 0.000000
O O4 0.000000 0.189881 0.000000
O O5 0.500000 0.430821 0.500000
O O6 0.244292 0.500000 0.547380
O O7 0.292779 0.408493 0.661026
O O8 0.216945 0.407672 0.437478
O O9 0.579115 0.597039 0.731628
O O10 0.419203 0.689222 0.635414
O O11 0.891414 0.611465 0.752282
O O12 0.785341 0.712372 0.697356
O O13 0.099660 0.694582 0.663873
O O14 0.271676 0.000000 0.697228
O O15 0.250000 0.250000 0.500000
#
# Coordination Sequence:
#
# PCOD9185684 Si02
#       6
#     8   8   8   8   8   8
#     4  11  22  37  57  83 114 150 198 258 313 354
#     4   8  15  29  52  82 116 152 186 225 280 352
#     4  10  19  34  57  86 117 155 199 244 304 362
#     4  11  22  38  58  85 119 159 201 244 306 364
#     4  10  20  37  62  91 126 165 202 241 292 366
#     4  11  22  35  57  90 124 152 190 247 305 370
#
# _framework density 21.295348000000001
#
# number of rings (size 3 to 8) (size 9 to 14) (size 15 to 20)
#    0.000    1.833    0.000    8.000    0.000    5.333 
#    0.000    1.667    0.000   13.500    0.000    0.000 
#    0.000    0.000    0.000    0.000    0.000    0.000 
#
# Total GULP energy -133673.517046 kJ/mol
# GULP energy per Si atom -5569.729877 kJ/mol
# Density = 2.124688 g / cm^3
# Si number density = 21.295348 Si / 1000 Ang^3
#
#
#
# Elastic Constant Matrix: (Units=GPa)
#
#
# Indices 1 2 3 4 5 6 
#
# 1 47.5456 21.4025 15.5438 0.0000 -15.2621 0.0000
# 2 21.4025 115.9949 30.6818 0.0000 -3.4699 0.0000
# 3 15.5438 30.6818 124.5454 0.0000 1.6295 0.0000
# 4 0.0000 0.0000 0.0000 38.1021 0.0000 4.7963
# 5 -15.2621 -3.4699 1.6295 0.0000 31.3871 0.0000
# 6 0.0000 0.0000 0.0000 4.7963 0.0000 28.1352
#
#
#
# Elastic Compliance Matrix: (Units=1/GPa)
#
#
# Indices 1 2 3 4 5 6 
#
# 1 0.028006 -0.004064 -0.002668 0.000000 0.013307 0.000000
# 2 -0.004064 0.009852 -0.001910 0.000000 -0.000788 0.000000
# 3 -0.002668 -0.001910 0.008858 0.000000 -0.001968 0.000000
# 4 0.000000 0.000000 0.000000 0.026821 0.000000 -0.004572
# 5 0.013307 -0.000788 -0.001968 0.000000 0.038346 0.000000
# 6 0.000000 0.000000 0.000000 -0.004572 0.000000 0.036322
#
#
# Mechanical properties :
#
#
# Convention : Reuss Voigt Hill
#
# Bulk Modulus (GPa) = 33.97499 47.03801 40.50650
# Shear Modulus (GPa) = 28.52264 34.22208 31.37236
#
# Velocity S-wave (km/s) = 3.66373 4.01312 3.84240
# Velocity P-wave (km/s) = 5.82117 6.60377 6.22478
#
# Compressibility (1/GPa) = 0.02943342
#
# Stress axis : x y z
#
# Youngs Moduli (GPa) = 35.70724 101.49802 112.88698
#
# Poissons Ratio (x) = 0.41244 0.30121
# Poissons Ratio (y) = 0.14510 0.21558
# Poissons Ratio (z) = 0.09528 0.19383
#
# Static dielectric constant tensor:
#      x y z
#    x 1.870640 0.000000 -0.035160 
#    y 0.000000 1.896530 0.000000 
#    z -0.035160 0.000000 1.749390 
# 
# From -- ./inp_files/121865.got.cif
#   From: 2010.05.17/outbox.cif.g08.bks.cpg/sg12_61_cif.got.tgz:121865.got - 2010.06.03 13:09:07.
