data_PCOD9185261
_publ_section_title
;
Structure prediction by ZEFSAII (Michael W. Deem and Ramdas Pophale) SiO2 
 PCOD9185261
Probable space group: C 2/M
;
_chemical_formula_sum "Si O2"
_cell_formula_units_Z 56
_cell_length_a 14.677609
_cell_length_b 26.193513
_cell_length_c 9.115502
_cell_angle_alpha 90.000000
_cell_angle_beta 54.433811
_cell_angle_gamma 90.000000
_cell_volume 2850.738542
_symmetry_space_group_name_H-M "C 2/M"
_symmetry_group_IT_number 12
_symmetry_cell_setting 'monoclinic'
loop_
_space_group_symop_operation_xyz
x,y,z
-x,y,-z
-x,-y,-z
x,-y,z
1/2+x,1/2+y,z
1/2-x,1/2+y,-z
1/2-x,1/2-y,-z
1/2+x,1/2-y,z
loop_
_atom_site_type_symbol
_atom_site_label
_atom_site_fract_x
_atom_site_fract_y
_atom_site_fract_z
Si Si1 0.335371 0.203418 0.193146
Si Si2 0.143603 0.114242 0.717281
Si Si3 0.870899 0.000000 0.574903
Si Si4 0.481387 0.220786 0.764132
Si Si5 0.224845 0.306066 0.219258
Si Si6 0.187418 0.890359 0.330017
Si Si7 0.569828 0.333518 0.187098
Si Si8 0.888240 0.000000 0.203946
O O1 0.397063 0.204476 0.292714
O O2 0.244863 0.249013 0.264451
O O3 0.291602 0.146705 0.208057
O O4 0.413576 0.217007 0.981467
O O5 0.232401 0.152726 0.704820
O O6 0.161638 0.113761 0.525815
O O7 0.157741 0.058054 0.776525
O O8 0.016558 0.136641 0.836583
O O9 0.807966 0.950637 0.695629
O O10 0.000000 0.000000 0.500000
O O11 0.884891 0.000000 0.385271
O O12 0.401865 0.192001 0.722691
O O13 0.486272 0.280087 0.716329
O O14 0.314119 0.317411 0.003050
O O15 0.097974 0.868090 0.299556
O O16 0.000000 0.000000 0.000000
#
# Coordination Sequence:
#
# PCOD9185261 Si02
#       8
#     8   8   4   8   8   8   8   4
#     4  10  19  35  58  80 110 152 188 228 281 329
#     4  11  23  33  54  82 118 143 183 236 280 340
#     4  10  22  38  58  84 116 146 188 232 283 343
#     4  10  19  34  56  82 111 146 192 228 267 336
#     4  11  19  35  55  83 109 146 192 229 275 332
#     4  11  21  37  54  81 115 150 183 227 291 336
#     4  11  18  34  55  81 109 152 183 224 277 336
#     4  10  20  38  54  79 108 153 187 224 279 328
#
# _framework density 19.644034000000001
#
# number of rings (size 3 to 8) (size 9 to 14) (size 15 to 20)
#    0.000    1.429    4.286    4.286    0.000    0.571 
#    0.000    0.714    0.000    2.571    0.000    3.000 
#    0.000    0.000    0.000    0.000    0.000    0.000 
#
# Total GULP energy -155986.207756 kJ/mol
# GULP energy per Si atom -5570.935991 kJ/mol
# Density = 1.959932 g / cm^3
# Si number density = 19.644034 Si / 1000 Ang^3
#
#
#
# Elastic Constant Matrix: (Units=GPa)
#
#
# Indices 1 2 3 4 5 6 
#
# 1 133.4260 56.5538 6.0062 0.0000 29.5073 0.0000
# 2 56.5538 162.7284 24.3866 0.0000 15.3922 0.0000
# 3 6.0062 24.3866 44.2718 0.0000 5.9149 0.0000
# 4 0.0000 0.0000 0.0000 22.8426 0.0000 8.8886
# 5 29.5073 15.3922 5.9149 0.0000 16.0958 0.0000
# 6 0.0000 0.0000 0.0000 8.8886 0.0000 5.1357
#
#
#
# Elastic Compliance Matrix: (Units=1/GPa)
#
#
# Indices 1 2 3 4 5 6 
#
# 1 0.013866 -0.003027 0.002940 0.000000 -0.023605 0.000000
# 2 -0.003027 0.007820 -0.003827 0.000000 -0.000523 0.000000
# 3 0.002940 -0.003827 0.025795 0.000000 -0.011209 0.000000
# 4 0.000000 0.000000 0.000000 0.134075 0.000000 -0.232051
# 5 -0.023605 -0.000523 -0.011209 0.000000 0.110021 0.000000
# 6 0.000000 0.000000 0.000000 -0.232051 0.000000 0.596341
#
#
# Mechanical properties :
#
#
# Convention : Reuss Voigt Hill
#
# Bulk Modulus (GPa) = 25.21913 57.14657 41.18285
# Shear Modulus (GPa) = 5.50078 25.71345 15.60711
#
# Velocity S-wave (km/s) = 1.67520 3.62189 2.82174
# Velocity P-wave (km/s) = 4.07525 6.82972 5.62373
#
# Compressibility (1/GPa) = 0.03965243
#
# Stress axis : x y z
#
# Youngs Moduli (GPa) = 72.12139 127.87575 38.76788
#
# Poissons Ratio (x) = 0.38703 -0.11397
# Poissons Ratio (y) = 0.21828 0.14837
# Poissons Ratio (z) = -0.21202 0.48939
#
# Static dielectric constant tensor:
#      x y z
#    x 1.739560 0.000000 -0.008180 
#    y 0.000000 1.706180 0.000000 
#    z -0.008180 0.000000 1.759350 
# 
# From -- ./inp_files/66873.got.cif
#   From: 2010.05.17/outbox.cif.g08.bks.cpg/sg12_34_cif.got.tgz:66873.got - 2010.06.03 13:09:07.
