data_PCOD9185272
_publ_section_title
;
Structure prediction by ZEFSAII (Michael W. Deem and Ramdas Pophale) SiO2 
 PCOD9185272
Probable space group: C 2/M
;
_chemical_formula_sum "Si O2"
_cell_formula_units_Z 64
_cell_length_a 9.360298
_cell_length_b 18.456233
_cell_length_c 23.463251
_cell_angle_alpha 90.000000
_cell_angle_beta 61.002711
_cell_angle_gamma 90.000000
_cell_volume 3545.288442
_symmetry_space_group_name_H-M "C 2/M"
_symmetry_group_IT_number 12
_symmetry_cell_setting 'monoclinic'
loop_
_space_group_symop_operation_xyz
x,y,z
-x,y,-z
-x,-y,-z
x,-y,z
1/2+x,1/2+y,z
1/2-x,1/2+y,-z
1/2-x,1/2-y,-z
1/2+x,1/2-y,z
loop_
_atom_site_type_symbol
_atom_site_label
_atom_site_fract_x
_atom_site_fract_y
_atom_site_fract_z
Si Si1 0.832331 0.833654 0.280132
Si Si2 0.011419 0.582937 0.361935
Si Si3 0.835674 0.085179 0.993014
Si Si4 0.920795 0.712496 0.454765
Si Si5 0.352464 0.915285 0.268000
Si Si6 0.093935 0.792532 0.321360
Si Si7 0.642181 0.912115 0.133819
Si Si8 0.961804 0.087550 0.149354
O O1 0.700452 0.892410 0.327468
O O2 0.719480 0.769666 0.276767
O O3 0.939791 0.800386 0.309836
O O4 0.947146 0.870961 0.211278
O O5 0.991964 0.500000 0.383479
O O6 0.911678 0.639406 0.419422
O O7 0.952052 0.589306 0.308046
O O8 0.693928 0.115810 0.061163
O O9 0.799455 0.000000 0.991554
O O10 0.890829 0.112745 0.920564
O O11 0.000000 0.088086 0.000000
O O12 0.750000 0.750000 0.500000
O O13 0.000000 0.695823 0.500000
O O14 0.032165 0.766044 0.395016
O O15 0.192751 0.866923 0.303613
O O16 0.473569 0.888042 0.194650
O O17 0.314791 0.000000 0.265489
O O18 0.792334 0.898218 0.148011
O O19 0.633318 0.000000 0.131893
O O20 0.972447 0.000000 0.155002
#
# Coordination Sequence:
#
# PCOD9185272 Si02
#       8
#     8   8   8   8   8   8   8   8
#     4  11  21  35  55  78 110 145 182 228 273 319
#     4  10  20  36  59  87 114 141 176 218 267 323
#     4   7  11  20  39  74 110 136 177 222 259 313
#     4  11  22  40  61  79 106 142 180 220 266 325
#     4  10  19  34  56  82 113 143 177 222 270 320
#     4  11  24  39  56  82 106 140 184 224 272 327
#     4   8  13  24  47  78 109 143 177 217 267 315
#     4   9  15  26  49  81 110 140 179 225 273 314
#
# _framework density 18.052126999999999
#
# number of rings (size 3 to 8) (size 9 to 14) (size 15 to 20)
#    0.000    2.375    1.250    5.625    0.000    1.250 
#    0.000    0.625    0.000    3.750    0.000    3.500 
#    0.000    0.000    0.000    0.000    0.000    0.000 
#
# Total GULP energy -178338.579478 kJ/mol
# GULP energy per Si atom -5573.080609 kJ/mol
# Density = 1.801104 g / cm^3
# Si number density = 18.052127 Si / 1000 Ang^3
#
#
#
# Elastic Constant Matrix: (Units=GPa)
#
#
# Indices 1 2 3 4 5 6 
#
# 1 34.7169 20.3567 6.6623 0.0000 -10.7374 0.0000
# 2 20.3567 70.8703 46.5128 0.0000 -14.6010 0.0000
# 3 6.6623 46.5128 119.4160 0.0000 -10.6336 0.0000
# 4 0.0000 0.0000 0.0000 19.7785 0.0000 -1.7380
# 5 -10.7374 -14.6010 -10.6336 0.0000 16.1502 0.0000
# 6 0.0000 0.0000 0.0000 -1.7380 0.0000 18.8238
#
#
#
# Elastic Compliance Matrix: (Units=1/GPa)
#
#
# Indices 1 2 3 4 5 6 
#
# 1 0.039961 -0.009458 0.003249 0.000000 0.020157 0.000000
# 2 -0.009458 0.024189 -0.007974 0.000000 0.010330 0.000000
# 3 0.003249 -0.007974 0.011525 0.000000 0.002539 0.000000
# 4 0.000000 0.000000 0.000000 0.050974 0.000000 0.004706
# 5 0.020157 0.010330 0.002539 0.000000 0.086331 0.000000
# 6 0.000000 0.000000 0.000000 0.004706 0.000000 0.053559
#
#
# Mechanical properties :
#
#
# Convention : Reuss Voigt Hill
#
# Bulk Modulus (GPa) = 21.13770 41.34074 31.23922
# Shear Modulus (GPa) = 16.09408 21.04857 18.57132
#
# Velocity S-wave (km/s) = 2.98910 3.41836 3.21091
# Velocity P-wave (km/s) = 4.86288 6.20731 5.57577
#
# Compressibility (1/GPa) = 0.04730884
#
# Stress axis : x y z
#
# Youngs Moduli (GPa) = 25.02446 41.34161 86.76913
#
# Poissons Ratio (x) = 0.39102 -0.28195
# Poissons Ratio (y) = 0.23669 0.69190
# Poissons Ratio (z) = -0.08131 0.32966
#
# Static dielectric constant tensor:
#      x y z
#    x 1.576860 0.000000 -0.018570 
#    y 0.000000 1.617190 0.000000 
#    z -0.018570 0.000000 1.647940 
# 
# From -- ./inp_files/301704.got.cif
#   From: 2010.05.17/outbox.cif.g08.bks.cpg/sg12_151_cif.got.tgz:301704.got - 2010.06.03 13:09:07.
