data_PCOD9185753
_publ_section_title
;
Structure prediction by ZEFSAII (Michael W. Deem and Ramdas Pophale) SiO2 
 PCOD9185753
Probable space group: C 2/M
;
_chemical_formula_sum "Si O2"
_cell_formula_units_Z 56
_cell_length_a 16.652468
_cell_length_b 8.841569
_cell_length_c 28.292508
_cell_angle_alpha 90.000000
_cell_angle_beta 134.213927
_cell_angle_gamma 90.000000
_cell_volume 2985.669419
_symmetry_space_group_name_H-M "C 2/M"
_symmetry_group_IT_number 12
_symmetry_cell_setting 'monoclinic'
loop_
_space_group_symop_operation_xyz
x,y,z
-x,y,-z
-x,-y,-z
x,-y,z
1/2+x,1/2+y,z
1/2-x,1/2+y,-z
1/2-x,1/2-y,-z
1/2+x,1/2-y,z
loop_
_atom_site_type_symbol
_atom_site_label
_atom_site_fract_x
_atom_site_fract_y
_atom_site_fract_z
Si Si1 0.006454 0.184106 0.715374
Si Si2 0.743441 0.318476 0.356652
Si Si3 0.431096 0.682349 0.367313
Si Si4 0.658424 0.181152 0.498766
Si Si5 0.327617 0.320183 0.993878
Si Si6 0.438682 0.323201 0.922612
Si Si7 0.770557 0.178704 0.141379
O O1 0.885474 0.232962 0.686156
O O2 0.040476 0.228279 0.675605
O O3 0.109827 0.230998 0.791027
O O4 0.002581 0.000000 0.713108
O O5 0.741381 0.500000 0.347721
O O6 0.817165 0.244362 0.344977
O O7 0.804242 0.290969 0.431964
O O8 0.428756 0.500000 0.367847
O O9 0.537707 0.745910 0.439737
O O10 0.750000 0.250000 0.500000
O O11 0.653940 0.000000 0.489865
O O12 0.326742 0.500000 0.991024
O O13 0.276883 0.259242 0.924337
O O14 0.250000 0.250000 0.000000
O O15 0.452794 0.277931 0.061908
O O16 0.409603 0.500000 0.905992
O O17 0.332543 0.222417 0.866843
O O18 0.500000 0.308178 0.000000
O O19 0.774917 0.000000 0.135678
#
# Coordination Sequence:
#
# PCOD9185753 Si02
#       7
#     8   8   8   8   8   8   8
#     4   9  20  40  59  78 118 161 190 231 291 347
#     4  10  21  40  60  82 115 155 193 237 291 349
#     4  11  22  39  60  86 117 151 194 245 292 343
#     4  11  21  36  61  87 115 152 195 243 298 348
#     4  10  20  35  55  81 113 143 180 230 280 328
#     4   8  16  32  52  74 103 135 170 218 269 317
#     4  10  19  34  58  81 107 147 187 222 274 339
#
# _framework density 18.756263000000001
#
# number of rings (size 3 to 8) (size 9 to 14) (size 15 to 20)
#    0.000    2.143    1.429    3.000    0.000    6.000 
#    2.571    4.286    0.000    0.000    0.000    0.000 
#    0.000    0.000    0.000    0.000    0.000    0.000 
#
# Total GULP energy -155882.337035 kJ/mol
# GULP energy per Si atom -5567.226323 kJ/mol
# Density = 1.871357 g / cm^3
# Si number density = 18.756263 Si / 1000 Ang^3
#
#
#
# Elastic Constant Matrix: (Units=GPa)
#
#
# Indices 1 2 3 4 5 6 
#
# 1 137.0639 34.6339 52.9720 0.0000 35.3612 0.0000
# 2 34.6339 32.9779 31.4231 0.0000 10.9380 0.0000
# 3 52.9720 31.4231 106.2436 0.0000 35.8303 0.0000
# 4 0.0000 0.0000 0.0000 19.8970 0.0000 4.9216
# 5 35.3612 10.9380 35.8303 0.0000 26.3040 0.0000
# 6 0.0000 0.0000 0.0000 4.9216 0.0000 36.3413
#
#
#
# Elastic Compliance Matrix: (Units=1/GPa)
#
#
# Indices 1 2 3 4 5 6 
#
# 1 0.013406 -0.010502 0.001900 0.000000 -0.016243 0.000000
# 2 -0.010502 0.050464 -0.013639 0.000000 0.011712 0.000000
# 3 0.001900 -0.013639 0.021175 0.000000 -0.025726 0.000000
# 4 0.000000 0.000000 0.000000 0.052001 0.000000 -0.007042
# 5 -0.016243 0.011712 -0.025726 0.000000 0.090025 0.000000
# 6 0.000000 0.000000 0.000000 -0.007042 0.000000 0.028471
#
#
# Mechanical properties :
#
#
# Convention : Reuss Voigt Hill
#
# Bulk Modulus (GPa) = 24.65332 57.14927 40.90129
# Shear Modulus (GPa) = 15.94666 26.99223 21.46944
#
# Velocity S-wave (km/s) = 2.91899 3.79767 3.38694
# Velocity P-wave (km/s) = 4.95311 7.05445 6.09502
#
# Compressibility (1/GPa) = 0.04056248
#
# Stress axis : x y z
#
# Youngs Moduli (GPa) = 74.59520 19.81605 47.22494
#
# Poissons Ratio (x) = 0.20811 -0.08972
# Poissons Ratio (y) = 0.78339 0.64412
# Poissons Ratio (z) = -0.14172 0.27028
#
# Static dielectric constant tensor:
#      x y z
#    x 1.885200 0.000000 0.002430 
#    y 0.000000 1.623540 0.000000 
#    z 0.002430 0.000000 1.636010 
# 
# From -- ./inp_files/377771.got.cif
#   From: 2010.05.17/outbox.cif.g08.bks.cpg/sg12_189_cif.got.tgz:377771.got - 2010.06.03 13:09:07.
