data_PCOD9185158
_publ_section_title
;
Structure prediction by ZEFSAII (Michael W. Deem and Ramdas Pophale) SiO2 
 PCOD9185158
Probable space group: C 2/M
;
_chemical_formula_sum "Si O2"
_cell_formula_units_Z 64
_cell_length_a 31.920188
_cell_length_b 8.747177
_cell_length_c 17.049779
_cell_angle_alpha 90.000000
_cell_angle_beta 48.116675
_cell_angle_gamma 90.000000
_cell_volume 3544.216468
_symmetry_space_group_name_H-M "C 2/M"
_symmetry_group_IT_number 12
_symmetry_cell_setting 'monoclinic'
loop_
_space_group_symop_operation_xyz
x,y,z
-x,y,-z
-x,-y,-z
x,-y,z
1/2+x,1/2+y,z
1/2-x,1/2+y,-z
1/2-x,1/2-y,-z
1/2+x,1/2-y,z
loop_
_atom_site_type_symbol
_atom_site_label
_atom_site_fract_x
_atom_site_fract_y
_atom_site_fract_z
Si Si1 0.764879 0.317582 0.396480
Si Si2 0.229043 0.317496 0.149079
Si Si3 0.039500 0.681873 0.198593
Si Si4 0.176194 0.816520 0.372854
Si Si5 0.019186 0.326230 0.887213
Si Si6 0.165778 0.684336 0.065241
Si Si7 0.082769 0.683767 0.591741
Si Si8 0.125646 0.823681 0.698870
O O1 0.765014 0.500000 0.400353
O O2 0.750000 0.250000 0.500000
O O3 0.721413 0.270884 0.383554
O O4 0.827355 0.254714 0.306587
O O5 0.231289 0.500000 0.155553
O O6 0.199746 0.244209 0.261283
O O7 0.192085 0.282091 0.117695
O O8 0.291434 0.254507 0.051907
O O9 0.041326 0.500000 0.212522
O O10 0.027738 0.700181 0.120450
O O11 0.101404 0.741949 0.141373
O O12 0.982305 0.736647 0.313926
O O13 0.116255 0.748933 0.475451
O O14 0.172656 0.000000 0.375924
O O15 0.041435 0.500000 0.842650
O O16 0.066585 0.201475 0.814616
O O17 0.000000 0.323762 0.000000
O O18 0.165850 0.500000 0.054779
O O19 0.083481 0.500000 0.589064
O O20 0.116699 0.741595 0.626187
O O21 0.139494 0.000000 0.667733
#
# Coordination Sequence:
#
# PCOD9185158 Si02
#       8
#     8   8   8   8   8   8   8   8
#     4  11  22  35  53  76 104 141 183 225 267 318
#     4  10  21  36  57  84 111 143 180 227 282 330
#     4   8  16  32  56  81 103 139 184 225 271 322
#     4  11  23  37  55  80 111 145 183 226 279 334
#     4   9  18  33  52  75 105 141 183 227 268 316
#     4   9  18  37  61  82 109 143 185 229 274 332
#     4  10  19  34  56  79 107 142 182 225 266 320
#     4  11  21  33  50  74 107 144 180 218 267 323
#
# _framework density 18.057587999999999
#
# number of rings (size 3 to 8) (size 9 to 14) (size 15 to 20)
#    0.000    2.125    1.250    3.375    0.000    3.250 
#    0.000    6.250    0.000    3.750    0.000    0.000 
#    0.000    0.000    0.000    0.000    0.000    0.000 
#
# Total GULP energy -178417.923032 kJ/mol
# GULP energy per Si atom -5575.560095 kJ/mol
# Density = 1.801649 g / cm^3
# Si number density = 18.057588 Si / 1000 Ang^3
#
#
#
# Elastic Constant Matrix: (Units=GPa)
#
#
# Indices 1 2 3 4 5 6 
#
# 1 90.6131 30.1321 61.9669 0.0000 -25.3557 -0.0002
# 2 30.1321 44.9492 39.8190 -0.0001 -0.4930 -0.0002
# 3 61.9669 39.8190 141.6199 0.0000 -3.1522 0.0000
# 4 0.0000 -0.0001 0.0000 31.5344 0.0000 -2.9731
# 5 -25.3557 -0.4930 -3.1522 0.0000 27.5117 0.0000
# 6 -0.0002 -0.0002 0.0000 -2.9731 0.0000 18.9203
#
#
#
# Elastic Compliance Matrix: (Units=1/GPa)
#
#
# Indices 1 2 3 4 5 6 
#
# 1 0.026665 -0.010313 -0.008246 0.000000 0.023446 0.000000
# 2 -0.010313 0.033621 -0.005152 0.000000 -0.009493 0.000000
# 3 -0.008246 -0.005152 0.011977 0.000000 -0.006320 0.000000
# 4 0.000000 0.000000 0.000000 0.032188 0.000000 0.005058
# 5 0.023446 -0.009493 -0.006320 0.000000 0.057063 0.000000
# 6 0.000000 0.000000 0.000000 0.005058 0.000000 0.053648
#
#
# Mechanical properties :
#
#
# Convention : Reuss Voigt Hill
#
# Bulk Modulus (GPa) = 40.25597 60.11311 50.18454
# Shear Modulus (GPa) = 18.45943 25.27756 21.86849
#
# Velocity S-wave (km/s) = 3.20074 3.74549 3.48378
# Velocity P-wave (km/s) = 6.00009 7.21574 6.63581
#
# Compressibility (1/GPa) = 0.02484103
#
# Stress axis : x y z
#
# Youngs Moduli (GPa) = 37.50184 29.74373 83.49296
#
# Poissons Ratio (x) = 0.30676 0.68848
# Poissons Ratio (y) = 0.38677 0.43013
# Poissons Ratio (z) = 0.30924 0.15323
#
# Static dielectric constant tensor:
#      x y z
#    x 1.637400 0.000000 -0.043800 
#    y 0.000000 1.622910 0.000000 
#    z -0.043800 0.000000 1.651190 
# 
# From -- ./inp_files/249823.got.cif
#   From: 2010.05.17/outbox.cif.g08.bks.cpg/sg12_125_cif.got.tgz:249823.got - 2010.06.03 13:09:07.
