data_PCOD9185882
_publ_section_title
;
Structure prediction by ZEFSAII (Michael W. Deem and Ramdas Pophale) SiO2 
 PCOD9185882
Probable space group: C 2/M
;
_chemical_formula_sum "Si O2"
_cell_formula_units_Z 48
_cell_length_a 25.156692
_cell_length_b 7.815123
_cell_length_c 20.493940
_cell_angle_alpha 90.000000
_cell_angle_beta 147.102230
_cell_angle_gamma 90.000000
_cell_volume 2188.406593
_symmetry_space_group_name_H-M "C 2/M"
_symmetry_group_IT_number 12
_symmetry_cell_setting 'monoclinic'
loop_
_space_group_symop_operation_xyz
x,y,z
-x,y,-z
-x,-y,-z
x,-y,z
1/2+x,1/2+y,z
1/2-x,1/2+y,-z
1/2-x,1/2-y,-z
1/2+x,1/2-y,z
loop_
_atom_site_type_symbol
_atom_site_label
_atom_site_fract_x
_atom_site_fract_y
_atom_site_fract_z
Si Si1 0.914862 0.710168 0.362820
Si Si2 0.806535 0.208561 0.850404
Si Si3 0.314257 0.302431 0.503996
Si Si4 0.445985 0.703323 0.106455
Si Si5 0.641000 0.292546 0.236285
Si Si6 0.967465 0.305656 0.274399
O O1 0.918289 0.500000 0.365998
O O2 0.806009 0.762987 0.271092
O O3 0.000000 0.766356 0.500000
O O4 0.933456 0.771518 0.308008
O O5 0.866101 0.255766 0.846794
O O6 0.804589 0.000000 0.850063
O O7 0.859979 0.269583 0.971030
O O8 0.342378 0.500000 0.539907
O O9 0.250000 0.250000 0.500000
O O10 0.243071 0.273927 0.369834
O O11 0.414560 0.200048 0.603163
O O12 0.449485 0.500000 0.099907
O O13 0.550374 0.769572 0.186846
O O14 0.434489 0.731167 0.171311
O O15 0.644312 0.500000 0.243725
O O16 0.932198 0.500000 0.237918
#
# Coordination Sequence:
#
# PCOD9185882 Si02
#       6
#     8   8   8   8   8   8
#     4   9  18  34  57  83 110 145 193 241 280 327
#     4   9  18  34  57  84 113 151 198 236 274 332
#     4  12  23  36  56  83 114 147 183 229 283 338
#     4  10  20  34  55  84 117 151 189 236 285 336
#     4  10  19  34  58  85 114 149 190 236 282 333
#     4  11  22  36  57  84 114 150 190 236 284 334
#
# _framework density 21.933767
#
# number of rings (size 3 to 8) (size 9 to 14) (size 15 to 20)
#    0.000    1.833    1.667    3.500    0.000    5.333 
#    0.000    0.833    0.000   12.000    0.000    0.000 
#    0.000    0.000    0.000    0.000    0.000    0.000 
#
# Total GULP energy -134091.190885 kJ/mol
# GULP energy per Si atom -5587.132954 kJ/mol
# Density = 2.188384 g / cm^3
# Si number density = 21.933767 Si / 1000 Ang^3
#
#
#
# Elastic Constant Matrix: (Units=GPa)
#
#
# Indices 1 2 3 4 5 6 
#
# 1 110.2866 0.4927 24.4730 0.0000 -26.3507 0.0000
# 2 0.4927 31.0371 -0.8308 0.0000 -2.7662 0.0000
# 3 24.4730 -0.8308 111.9479 0.0000 -30.4449 0.0000
# 4 0.0000 0.0000 0.0000 15.9775 0.0000 -9.2898
# 5 -26.3507 -2.7662 -30.4449 0.0000 31.0428 0.0000
# 6 0.0000 0.0000 0.0000 -9.2898 0.0000 15.2675
#
#
#
# Elastic Compliance Matrix: (Units=1/GPa)
#
#
# Indices 1 2 3 4 5 6 
#
# 1 0.011393 0.000712 0.000221 0.000000 0.009951 0.000000
# 2 0.000712 0.032684 0.001423 0.000000 0.004912 0.000000
# 3 0.000221 0.001423 0.012247 0.000000 0.012325 0.000000
# 4 0.000000 0.000000 0.000000 0.096853 0.000000 0.058933
# 5 0.009951 0.004912 0.012325 0.000000 0.053186 0.000000
# 6 0.000000 0.000000 0.000000 0.058933 0.000000 0.101358
#
#
# Mechanical properties :
#
#
# Convention : Reuss Voigt Hill
#
# Bulk Modulus (GPa) = 16.38407 33.50460 24.94434
# Shear Modulus (GPa) = 15.46293 27.73335 21.59814
#
# Velocity S-wave (km/s) = 2.65803 3.55972 3.14139
# Velocity P-wave (km/s) = 4.11171 5.67485 4.95531
#
# Compressibility (1/GPa) = 0.06103490
#
# Stress axis : x y z
#
# Youngs Moduli (GPa) = 87.77639 30.59590 81.65302
#
# Poissons Ratio (x) = -0.02178 -0.01804
# Poissons Ratio (y) = -0.06249 -0.11618
# Poissons Ratio (z) = -0.01939 -0.04353
#
# Static dielectric constant tensor:
#      x y z
#    x 1.796410 0.000000 -0.006080 
#    y 0.000000 1.824660 0.000000 
#    z -0.006080 0.000000 1.841870 
# 
# From -- ./inp_files/327312.got.cif
#   From: 2010.05.17/outbox.cif.g08.bks.cpg/sg12_164_cif.got.tgz:327312.got - 2010.06.03 13:09:07.
