data_PCOD9185296
_publ_section_title
;
Structure prediction by ZEFSAII (Michael W. Deem and Ramdas Pophale) SiO2 
 PCOD9185296
Probable space group: C 2/M
;
_chemical_formula_sum "Si O2"
_cell_formula_units_Z 56
_cell_length_a 20.533593
_cell_length_b 7.627198
_cell_length_c 16.720637
_cell_angle_alpha 90.000000
_cell_angle_beta 91.115816
_cell_angle_gamma 90.000000
_cell_volume 2618.185587
_symmetry_space_group_name_H-M "C 2/M"
_symmetry_group_IT_number 12
_symmetry_cell_setting 'monoclinic'
loop_
_space_group_symop_operation_xyz
x,y,z
-x,y,-z
-x,-y,-z
x,-y,z
1/2+x,1/2+y,z
1/2-x,1/2+y,-z
1/2-x,1/2-y,-z
1/2+x,1/2-y,z
loop_
_atom_site_type_symbol
_atom_site_label
_atom_site_fract_x
_atom_site_fract_y
_atom_site_fract_z
Si Si1 0.015700 0.712418 0.239276
Si Si2 0.929789 0.296646 0.473958
Si Si3 0.378654 0.786203 0.303619
Si Si4 0.449516 0.206232 0.934776
Si Si5 0.803651 0.791586 0.934954
Si Si6 0.127469 0.203690 0.364075
Si Si7 0.263022 0.715103 0.756915
O O1 0.019789 0.500000 0.242836
O O2 0.041681 0.777805 0.154595
O O3 0.061371 0.779194 0.311282
O O4 0.940803 0.761937 0.251405
O O5 0.943490 0.500000 0.453940
O O6 0.895697 0.224157 0.393816
O O7 0.884285 0.289257 0.550471
O O8 0.000000 0.217148 0.500000
O O9 0.309333 0.726909 0.268681
O O10 0.375071 0.000000 0.304137
O O11 0.374964 0.222863 0.958949
O O12 0.465107 0.000000 0.927847
O O13 0.500000 0.282002 0.000000
O O14 0.783370 0.725765 0.846187
O O15 0.809283 0.000000 0.929326
O O16 0.750000 0.750000 0.000000
O O17 0.184780 0.273243 0.308384
O O18 0.140958 0.000000 0.379743
O O19 0.264347 0.500000 0.757697
#
# Coordination Sequence:
#
# PCOD9185296 Si02
#       7
#     8   8   8   8   8   8   8
#     4  10  19  35  60  84 109 147 193 233 273 330
#     4  10  19  34  56  83 109 141 191 238 279 329
#     4   9  18  34  57  81 108 146 192 234 276 333
#     4  10  22  38  61  92 119 148 194 243 289 346
#     4  11  23  40  61  85 119 157 195 238 291 348
#     4  11  21  35  56  82 115 149 183 225 285 343
#     4   9  20  37  57  81 112 151 187 227 283 344
#
# _framework density 21.388856000000001
#
# number of rings (size 3 to 8) (size 9 to 14) (size 15 to 20)
#    0.000    2.000    2.857    0.857    2.000    1.143 
#    0.000    0.000    0.000    4.286    0.000    0.000 
#    0.000    0.000    0.000    0.000    0.000    0.000 
#
# Total GULP energy -156419.229734 kJ/mol
# GULP energy per Si atom -5586.401062 kJ/mol
# Density = 2.134017 g / cm^3
# Si number density = 21.388856 Si / 1000 Ang^3
#
#
#
# Elastic Constant Matrix: (Units=GPa)
#
#
# Indices 1 2 3 4 5 6 
#
# 1 133.7378 -18.2673 37.6091 0.0000 0.4813 0.0000
# 2 -18.2673 39.1832 -8.7896 0.0000 5.2378 0.0000
# 3 37.6091 -8.7896 95.2118 0.0000 -6.3010 0.0000
# 4 0.0000 0.0000 0.0000 2.7928 0.0000 -8.4581
# 5 0.4813 5.2378 -6.3010 0.0000 39.1123 0.0000
# 6 0.0000 0.0000 0.0000 -8.4581 0.0000 13.9412
#
#
#
# Elastic Compliance Matrix: (Units=1/GPa)
#
#
# Indices 1 2 3 4 5 6 
#
# 1 0.008882 0.003560 -0.003253 0.000000 -0.001110 0.000000
# 2 0.003560 0.027873 0.000927 0.000000 -0.003627 0.000000
# 3 -0.003253 0.000927 0.011996 0.000000 0.001848 0.000000
# 4 0.000000 0.000000 0.000000 -0.427585 0.000000 -0.259415
# 5 -0.001110 -0.003627 0.001848 0.000000 0.026365 0.000000
# 6 0.000000 0.000000 0.000000 -0.259415 0.000000 -0.085657
#
#
# Mechanical properties :
#
#
# Convention : Reuss Voigt Hill
#
# Bulk Modulus (GPa) = 19.52427 32.13745 25.83086
# Shear Modulus (GPa) = -11.80584 28.34130 8.26773
#
# Velocity S-wave (km/s) = -2.35194 3.64407 1.96821
# Velocity P-wave (km/s) = 1.33139 5.72395 4.15549
#
# Compressibility (1/GPa) = 0.05121831
#
# Stress axis : x y z
#
# Youngs Moduli (GPa) = 112.58162 35.87639 83.36154
#
# Poissons Ratio (x) = -0.12771 0.27121
# Poissons Ratio (y) = -0.40074 -0.07728
# Poissons Ratio (z) = 0.36628 -0.03326
#
# Static dielectric constant tensor:
#      x y z
#    x 1.731730 0.000000 0.003050 
#    y 0.000000 1.821400 0.000000 
#    z 0.003050 0.000000 1.759040 
# 
# From -- ./inp_files/231047.got.cif
#   From: 2010.05.17/outbox.cif.g08.bks.cpg/sg12_116_cif.got.tgz:231047.got - 2010.06.03 13:09:07.
