data_PCOD9185271
_publ_section_title
;
Structure prediction by ZEFSAII (Michael W. Deem and Ramdas Pophale) SiO2 
 PCOD9185271
Probable space group: C 2/M
;
_chemical_formula_sum "Si O2"
_cell_formula_units_Z 40
_cell_length_a 17.401944
_cell_length_b 19.938831
_cell_length_c 10.933843
_cell_angle_alpha 90.000000
_cell_angle_beta 35.891409
_cell_angle_gamma 90.000000
_cell_volume 2224.097433
_symmetry_space_group_name_H-M "C 2/M"
_symmetry_group_IT_number 12
_symmetry_cell_setting 'monoclinic'
loop_
_space_group_symop_operation_xyz
x,y,z
-x,y,-z
-x,-y,-z
x,-y,z
1/2+x,1/2+y,z
1/2-x,1/2+y,-z
1/2-x,1/2-y,-z
1/2+x,1/2-y,z
loop_
_atom_site_type_symbol
_atom_site_label
_atom_site_fract_x
_atom_site_fract_y
_atom_site_fract_z
Si Si1 0.936349 0.849670 0.447866
Si Si2 0.180507 0.422129 0.792985
Si Si3 0.502838 0.845772 0.826168
Si Si4 0.624889 0.201230 0.429204
Si Si5 0.922464 0.190336 0.975948
O O1 0.832226 0.908724 0.577452
O O2 0.860863 0.777965 0.542426
O O3 0.000000 0.852582 0.500000
O O4 0.029854 0.846474 0.209236
O O5 0.149040 0.500000 0.822905
O O6 0.105180 0.377247 0.789870
O O7 0.125872 0.391880 0.991146
O O8 0.577273 0.844250 0.602254
O O9 0.458712 0.769338 0.910344
O O10 0.500000 0.201453 0.500000
O O11 0.766240 0.182448 0.193755
O O12 0.000000 0.169425 0.000000
#
# Coordination Sequence:
#
# PCOD9185271 Si02
#       5
#     8   8   8   8   8
#     4  10  22  34  55  85 117 144 186 226 287 337
#     4  11  21  37  57  79 110 152 195 230 263 324
#     4  10  19  34  56  82 113 140 190 226 280 330
#     4  10  21  33  57  88 117 145 172 232 298 343
#     4  11  19  34  59  86 120 143 177 235 293 338
#
# _framework density 17.984822999999999
#
# number of rings (size 3 to 8) (size 9 to 14) (size 15 to 20)
#    0.000    1.600    4.000    2.400    2.800    6.000 
#    0.000    0.000    0.000    9.000    0.000    0.000 
#    0.000    0.000    0.000    0.000    0.000    0.000 
#
# Total GULP energy -111429.201979 kJ/mol
# GULP energy per Si atom -5571.460099 kJ/mol
# Density = 1.794389 g / cm^3
# Si number density = 17.984823 Si / 1000 Ang^3
#
#
#
# Elastic Constant Matrix: (Units=GPa)
#
#
# Indices 1 2 3 4 5 6 
#
# 1 73.7324 31.0996 66.2659 -0.0003 7.7484 0.0002
# 2 31.0996 63.4246 40.2900 -0.0001 3.0704 0.0000
# 3 66.2659 40.2900 188.7216 -0.0004 7.6140 0.0003
# 4 -0.0003 -0.0001 -0.0004 10.5225 0.0003 6.3943
# 5 7.7484 3.0704 7.6140 0.0003 27.3762 -0.0002
# 6 0.0002 0.0000 0.0003 6.3943 -0.0002 -2.5678
#
#
#
# Elastic Compliance Matrix: (Units=1/GPa)
#
#
# Indices 1 2 3 4 5 6 
#
# 1 0.022507 -0.006858 -0.006283 0.000000 -0.003854 0.000001
# 2 -0.006858 0.020356 -0.001946 0.000000 0.000199 0.000000
# 3 -0.006283 -0.001946 0.007929 0.000000 -0.000209 0.000000
# 4 0.000000 0.000000 0.000000 0.037813 0.000000 0.094163
# 5 -0.003854 0.000199 -0.000209 0.000000 0.037654 -0.000002
# 6 0.000001 0.000000 0.000000 0.094163 -0.000002 -0.154956
#
#
# Mechanical properties :
#
#
# Convention : Reuss Voigt Hill
#
# Bulk Modulus (GPa) = 48.50219 66.79883 57.65051
# Shear Modulus (GPa) = 598.68731 19.61440 309.15086
#
# Velocity S-wave (km/s) = 18.26492 3.30602 13.12511
# Velocity P-wave (km/s) = 21.72181 7.19690 16.18073
#
# Compressibility (1/GPa) = 0.02061763
#
# Stress axis : x y z
#
# Youngs Moduli (GPa) = 44.42986 49.12567 126.12102
#
# Poissons Ratio (x) = 0.33692 0.79247
# Poissons Ratio (y) = 0.30471 0.24539
# Poissons Ratio (z) = 0.27917 0.09558
#
# Static dielectric constant tensor:
#      x y z
#    x 1.711260 0.000000 0.000440 
#    y 0.000000 1.587280 0.000000 
#    z 0.000440 0.000000 1.654500 
# 
# From -- ./inp_files/130866.got.cif
#   From: 2010.05.17/outbox.cif.g08.bks.cpg/sg12_66_cif.got.tgz:130866.got - 2010.06.03 13:09:07.
