data_PCOD9185599
_publ_section_title
;
Structure prediction by ZEFSAII (Michael W. Deem and Ramdas Pophale) SiO2 
 PCOD9185599
Probable space group: C 2/M
;
_chemical_formula_sum "Si O2"
_cell_formula_units_Z 56
_cell_length_a 30.131482
_cell_length_b 7.382192
_cell_length_c 18.393605
_cell_angle_alpha 90.000000
_cell_angle_beta 147.202498
_cell_angle_gamma 90.000000
_cell_volume 2216.198828
_symmetry_space_group_name_H-M "C 2/M"
_symmetry_group_IT_number 12
_symmetry_cell_setting 'monoclinic'
loop_
_space_group_symop_operation_xyz
x,y,z
-x,y,-z
-x,-y,-z
x,-y,z
1/2+x,1/2+y,z
1/2-x,1/2+y,-z
1/2-x,1/2-y,-z
1/2+x,1/2-y,z
loop_
_atom_site_type_symbol
_atom_site_label
_atom_site_fract_x
_atom_site_fract_y
_atom_site_fract_z
Si Si1 0.849271 0.721019 0.258675
Si Si2 0.384023 0.792227 0.700142
Si Si3 0.261963 0.218917 0.404716
Si Si4 0.607957 0.220116 0.526398
Si Si5 0.455534 0.706284 0.007720
Si Si6 0.670409 0.289838 0.055504
Si Si7 0.563371 0.219639 0.768857
O O1 0.849599 0.500000 0.256140
O O2 0.898909 0.774253 0.399241
O O3 0.886760 0.779617 0.234136
O O4 0.756656 0.784221 0.146342
O O5 0.325417 0.721549 0.555563
O O6 0.327070 0.784244 0.693809
O O7 0.469909 0.698899 0.831967
O O8 0.402865 0.000000 0.708043
O O9 0.305850 0.275008 0.390828
O O10 0.257712 0.000000 0.400311
O O11 0.530383 0.277878 0.372112
O O12 0.607549 0.000000 0.524925
O O13 0.433232 0.500000 0.955292
O O14 0.377610 0.788241 0.941157
O O15 0.500000 0.794935 0.000000
O O16 0.686835 0.500000 0.096971
O O17 0.608133 0.283958 0.902418
O O18 0.563932 0.000000 0.772170
#
# Coordination Sequence:
#
# PCOD9185599 Si02
#       7
#     8   8   8   8   8   8   8
#     4   9  18  32  54  83 111 139 180 229 267 311
#     4  10  20  34  52  78 109 138 175 222 274 320
#     4   9  18  32  53  77 104 142 181 218 261 319
#     4   9  17  30  54  82 107 138 181 227 266 309
#     4  10  22  37  55  77 103 141 186 224 264 318
#     4  10  21  36  55  80 108 144 184 221 267 322
#     4  10  19  34  57  84 111 141 178 222 273 321
#
# _framework density 25.268488999999999
#
# number of rings (size 3 to 8) (size 9 to 14) (size 15 to 20)
#    0.000    2.429    0.000    2.143    2.000    4.286 
#    0.000    0.714    0.000    3.429    0.000    0.000 
#    0.000    0.000    0.000    0.000    0.000    0.000 
#
# Total GULP energy -156611.948124 kJ/mol
# GULP energy per Si atom -5593.283862 kJ/mol
# Density = 2.521098 g / cm^3
# Si number density = 25.268489 Si / 1000 Ang^3
#
#
#
# Elastic Constant Matrix: (Units=GPa)
#
#
# Indices 1 2 3 4 5 6 
#
# 1 117.1615 -6.7293 1.1926 0.0000 21.3032 0.0000
# 2 -6.7293 90.2331 -8.5548 0.0000 3.9196 0.0000
# 3 1.1926 -8.5548 90.5601 0.0000 15.3855 0.0000
# 4 0.0000 0.0000 0.0000 13.9100 0.0000 -5.4140
# 5 21.3032 3.9196 15.3855 0.0000 40.5281 0.0000
# 6 0.0000 0.0000 0.0000 -5.4140 0.0000 -0.9992
#
#
#
# Elastic Compliance Matrix: (Units=1/GPa)
#
#
# Indices 1 2 3 4 5 6 
#
# 1 0.009582 0.001038 0.000903 0.000000 -0.005480 0.000000
# 2 0.001038 0.011391 0.001435 0.000000 -0.002192 0.000000
# 3 0.000903 0.001435 0.012047 0.000000 -0.005187 0.000000
# 4 0.000000 0.000000 0.000000 0.023124 0.000000 -0.125296
# 5 -0.005480 -0.002192 -0.005187 0.000000 0.029736 0.000000
# 6 0.000000 0.000000 0.000000 -0.125296 0.000000 -0.321919
#
#
# Mechanical properties :
#
#
# Convention : Reuss Voigt Hill
#
# Bulk Modulus (GPa) = 25.14314 29.97462 27.55888
# Shear Modulus (GPa) = -21.78328 31.49086 4.85379
#
# Velocity S-wave (km/s) = -2.93929 3.53406 1.38746
# Velocity P-wave (km/s) = 1.24389 5.34237 3.67380
#
# Compressibility (1/GPa) = 0.03977228
#
# Stress axis : x y z
#
# Youngs Moduli (GPa) = 104.36166 87.78786 83.00656
#
# Poissons Ratio (x) = -0.09114 -0.07495
# Poissons Ratio (y) = -0.10835 -0.11910
# Poissons Ratio (z) = -0.09423 -0.12596
#
# Static dielectric constant tensor:
#      x y z
#    x 1.990880 0.000000 -0.010330 
#    y 0.000000 2.022540 0.000000 
#    z -0.010330 0.000000 1.954190 
# 
# From -- ./inp_files/329725.got.cif
#   From: 2010.05.17/outbox.cif.g08.bks.cpg/sg12_165_cif.got.tgz:329725.got - 2010.06.03 13:09:07.
