data_PCOD9185532
_publ_section_title
;
Structure prediction by ZEFSAII (Michael W. Deem and Ramdas Pophale) SiO2 
 PCOD9185532
Probable space group: C 2/M
;
_chemical_formula_sum "Si O2"
_cell_formula_units_Z 64
_cell_length_a 15.400753
_cell_length_b 9.236172
_cell_length_c 28.887351
_cell_angle_alpha 90.000000
_cell_angle_beta 129.568251
_cell_angle_gamma 90.000000
_cell_volume 3167.530218
_symmetry_space_group_name_H-M "C 2/M"
_symmetry_group_IT_number 12
_symmetry_cell_setting 'monoclinic'
loop_
_space_group_symop_operation_xyz
x,y,z
-x,y,-z
-x,-y,-z
x,-y,z
1/2+x,1/2+y,z
1/2-x,1/2+y,-z
1/2-x,1/2-y,-z
1/2+x,1/2-y,z
loop_
_atom_site_type_symbol
_atom_site_label
_atom_site_fract_x
_atom_site_fract_y
_atom_site_fract_z
Si Si1 0.635886 0.332346 0.240531
Si Si2 0.559846 0.826508 0.881105
Si Si3 0.527902 0.327752 0.063260
Si Si4 0.818619 0.174908 0.483008
Si Si5 0.472917 0.663244 0.389413
Si Si6 0.383929 0.167405 0.277039
Si Si7 0.270915 0.165796 0.646050
Si Si8 0.786420 0.323700 0.149990
O O1 0.600363 0.500000 0.228688
O O2 0.549337 0.234818 0.182731
O O3 0.758556 0.327201 0.257325
O O4 0.650118 0.267440 0.296689
O O5 0.553704 0.755452 0.929488
O O6 0.664271 0.784832 0.883350
O O7 0.556017 0.000000 0.883007
O O8 0.521716 0.500000 0.071191
O O9 0.657558 0.278945 0.114047
O O10 0.500000 0.307085 0.000000
O O11 0.750000 0.250000 0.500000
O O12 0.765884 0.222274 0.416558
O O13 0.946760 0.211174 0.541109
O O14 0.810040 0.000000 0.479587
O O15 0.507560 0.500000 0.388925
O O16 0.468530 0.756049 0.341244
O O17 0.347036 0.659100 0.366300
O O18 0.365632 0.227630 0.219105
O O19 0.416821 0.000000 0.284921
O O20 0.314278 0.000000 0.657975
O O21 0.786455 0.500000 0.152303
#
# Coordination Sequence:
#
# PCOD9185532 Si02
#       8
#     8   8   8   8   8   8   8   8
#     4  10  19  34  57  82 111 145 187 235 283 337
#     4  11  22  36  59  88 121 156 192 237 288 340
#     4  10  21  41  66  87 116 159 198 235 283 339
#     4  10  21  35  50  70 102 141 177 226 283 338
#     4   9  18  33  53  76 101 133 180 230 276 326
#     4   9  17  33  56  77 105 144 183 225 279 339
#     4   9  18  34  55  76 101 138 184 228 282 338
#     4   9  19  37  58  84 118 156 191 231 288 345
#
# _framework density 20.205016000000001
#
# number of rings (size 3 to 8) (size 9 to 14) (size 15 to 20)
#    0.000    2.375    1.250    1.125    0.000    4.750 
#    0.000    6.250    0.000    3.750    0.000    0.000 
#    0.000    0.000    0.000    0.000    0.000    0.000 
#
# Total GULP energy -178521.525327 kJ/mol
# GULP energy per Si atom -5578.797666 kJ/mol
# Density = 2.015903 g / cm^3
# Si number density = 20.205016 Si / 1000 Ang^3
#
#
#
# Elastic Constant Matrix: (Units=GPa)
#
#
# Indices 1 2 3 4 5 6 
#
# 1 66.1096 19.2030 17.6113 0.0000 -24.7715 0.0000
# 2 19.2030 32.4260 22.8943 0.0000 -19.5886 0.0000
# 3 17.6113 22.8943 63.9698 0.0000 -29.7688 0.0000
# 4 0.0000 0.0000 0.0000 28.6982 0.0000 -7.6619
# 5 -24.7715 -19.5886 -29.7688 0.0000 34.7904 0.0000
# 6 0.0000 0.0000 0.0000 -7.6619 0.0000 18.2922
#
#
#
# Elastic Compliance Matrix: (Units=1/GPa)
#
#
# Indices 1 2 3 4 5 6 
#
# 1 0.021517 -0.006140 0.002982 0.000000 0.014415 0.000000
# 2 -0.006140 0.050724 -0.008653 0.000000 0.016785 0.000000
# 3 0.002982 -0.008653 0.027632 0.000000 0.020894 0.000000
# 4 0.000000 0.000000 0.000000 0.039233 0.000000 0.016433
# 5 0.014415 0.016785 0.020894 0.000000 0.066336 0.000000
# 6 0.000000 0.000000 0.000000 0.016433 0.000000 0.061551
#
#
# Mechanical properties :
#
#
# Convention : Reuss Voigt Hill
#
# Bulk Modulus (GPa) = 13.11452 31.32472 22.21962
# Shear Modulus (GPa) = 15.82122 23.20929 19.51526
#
# Velocity S-wave (km/s) = 2.80131 3.39291 3.11120
# Velocity P-wave (km/s) = 4.11922 5.55754 4.89153
#
# Compressibility (1/GPa) = 0.07625137
#
# Stress axis : x y z
#
# Youngs Moduli (GPa) = 46.47543 19.71441 36.19050
#
# Poissons Ratio (x) = 0.12104 -0.10791
# Poissons Ratio (y) = 0.28534 0.31314
# Poissons Ratio (z) = -0.13857 0.17058
#
# Static dielectric constant tensor:
#      x y z
#    x 1.742360 0.000000 0.003810 
#    y 0.000000 1.690480 0.000000 
#    z 0.003810 0.000000 1.734140 
# 
# From -- ./inp_files/375563.got.cif
#   From: 2010.05.17/outbox.cif.g08.bks.cpg/sg12_188_cif.got.tgz:375563.got - 2010.06.03 13:09:07.
