data_PCOD9185339
_publ_section_title
;
Structure prediction by ZEFSAII (Michael W. Deem and Ramdas Pophale) SiO2 
 PCOD9185339
Probable space group: C 2/M
;
_chemical_formula_sum "Si O2"
_cell_formula_units_Z 48
_cell_length_a 9.629082
_cell_length_b 19.140963
_cell_length_c 19.529083
_cell_angle_alpha 90.000000
_cell_angle_beta 44.294476
_cell_angle_gamma 90.000000
_cell_volume 2513.629963
_symmetry_space_group_name_H-M "C 2/M"
_symmetry_group_IT_number 12
_symmetry_cell_setting 'monoclinic'
loop_
_space_group_symop_operation_xyz
x,y,z
-x,y,-z
-x,-y,-z
x,-y,z
1/2+x,1/2+y,z
1/2-x,1/2+y,-z
1/2-x,1/2-y,-z
1/2+x,1/2-y,z
loop_
_atom_site_type_symbol
_atom_site_label
_atom_site_fract_x
_atom_site_fract_y
_atom_site_fract_z
Si Si1 0.698189 0.360960 0.469089
Si Si2 0.226504 0.919282 0.935975
Si Si3 0.396984 0.716510 0.374688
Si Si4 0.567894 0.801810 0.054430
Si Si5 0.691269 0.718547 0.745886
Si Si6 0.116122 0.420640 0.271200
O O1 0.500000 0.385186 0.500000
O O2 0.669990 0.352998 0.561296
O O3 0.740218 0.279726 0.436062
O O4 0.893457 0.402204 0.375361
O O5 0.346163 0.875006 0.948990
O O6 0.354606 0.916250 0.820929
O O7 0.204469 0.000000 0.964693
O O8 0.000000 0.893103 0.000000
O O9 0.429196 0.711755 0.282042
O O10 0.595732 0.744823 0.340300
O O11 0.408258 0.767266 0.161926
O O12 0.500000 0.804524 0.000000
O O13 0.750000 0.750000 0.000000
O O14 0.740092 0.640066 0.752279
O O15 0.166896 0.500000 0.273717
#
# Coordination Sequence:
#
# PCOD9185339 Si02
#       6
#     8   8   8   8   8   8
#     4  10  19  34  56  84 116 150 200 249 299 359
#     4  10  22  42  65  88 122 165 202 245 309 375
#     4  10  20  33  56  84 114 151 195 248 302 361
#     4  12  23  37  61  95 125 155 204 259 304 356
#     4  11  21  37  58  86 119 157 199 252 304 357
#     4  10  22  38  59  84 118 162 205 246 305 366
#
# _framework density 19.095891000000002
#
# number of rings (size 3 to 8) (size 9 to 14) (size 15 to 20)
#    0.000    1.500    1.667    5.500    0.000    0.667 
#    0.000    1.667    0.000    3.000    0.000    0.000 
#    0.000    0.000    0.000    0.000    0.000    0.000 
#
# Total GULP energy -133815.727085 kJ/mol
# GULP energy per Si atom -5575.655295 kJ/mol
# Density = 1.905243 g / cm^3
# Si number density = 19.095891 Si / 1000 Ang^3
#
#
#
# Elastic Constant Matrix: (Units=GPa)
#
#
# Indices 1 2 3 4 5 6 
#
# 1 115.2138 45.0379 44.2573 0.0003 17.8847 -0.0006
# 2 45.0379 85.8755 30.9701 0.0002 7.7088 -0.0004
# 3 44.2573 30.9701 96.0729 -0.0003 6.6182 -0.0003
# 4 0.0003 0.0002 -0.0003 28.9059 -0.0001 3.0193
# 5 17.8847 7.7088 6.6182 -0.0001 35.2738 0.0005
# 6 -0.0006 -0.0004 -0.0003 3.0193 0.0005 19.3402
#
#
#
# Elastic Compliance Matrix: (Units=1/GPa)
#
#
# Indices 1 2 3 4 5 6 
#
# 1 0.012861 -0.004869 -0.004031 0.000000 -0.004700 0.000000
# 2 -0.004869 0.015177 -0.002625 0.000000 -0.000355 0.000000
# 3 -0.004031 -0.002625 0.013101 0.000000 0.000159 0.000000
# 4 0.000000 0.000000 0.000000 0.035169 0.000000 -0.005490
# 5 -0.004700 -0.000355 0.000159 0.000000 0.030781 -0.000001
# 6 0.000000 0.000000 0.000000 -0.005490 -0.000001 0.052563
#
#
# Mechanical properties :
#
#
# Convention : Reuss Voigt Hill
#
# Bulk Modulus (GPa) = 55.28417 59.74364 57.51391
# Shear Modulus (GPa) = 26.49266 28.49708 27.49487
#
# Velocity S-wave (km/s) = 3.72875 3.86724 3.79863
# Velocity P-wave (km/s) = 6.89578 7.16204 7.03017
#
# Compressibility (1/GPa) = 0.01808836
#
# Stress axis : x y z
#
# Youngs Moduli (GPa) = 77.75361 65.88891 76.33032
#
# Poissons Ratio (x) = 0.32084 0.30770
# Poissons Ratio (y) = 0.37861 0.20036
# Poissons Ratio (z) = 0.31344 0.17295
#
# Static dielectric constant tensor:
#      x y z
#    x 1.715130 0.000010 0.078010 
#    y 0.000010 1.720690 0.000010 
#    z 0.078010 0.000010 1.547700 
# 
# From -- ./inp_files/257914.got.cif
#   From: 2010.05.17/outbox.cif.g08.bks.cpg/sg12_129_cif.got.tgz:257914.got - 2010.06.03 13:09:07.
