data_PCOD9185799
_publ_section_title
;
Structure prediction by ZEFSAII (Michael W. Deem and Ramdas Pophale) SiO2 
 PCOD9185799
Probable space group: C 2/M
;
_chemical_formula_sum "Si O2"
_cell_formula_units_Z 64
_cell_length_a 30.081443
_cell_length_b 7.547617
_cell_length_c 18.865812
_cell_angle_alpha 90.000000
_cell_angle_beta 138.973188
_cell_angle_gamma 90.000000
_cell_volume 2811.645865
_symmetry_space_group_name_H-M "C 2/M"
_symmetry_group_IT_number 12
_symmetry_cell_setting 'monoclinic'
loop_
_space_group_symop_operation_xyz
x,y,z
-x,y,-z
-x,-y,-z
x,-y,z
1/2+x,1/2+y,z
1/2-x,1/2+y,-z
1/2-x,1/2-y,-z
1/2+x,1/2-y,z
loop_
_atom_site_type_symbol
_atom_site_label
_atom_site_fract_x
_atom_site_fract_y
_atom_site_fract_z
Si Si1 0.695997 0.292217 0.075801
Si Si2 0.579330 0.284188 0.834947
Si Si3 0.563734 0.703958 0.119343
Si Si4 0.072884 0.213851 0.558393
Si Si5 0.711595 0.717699 0.253606
Si Si6 0.150398 0.710770 0.509779
Si Si7 0.935473 0.705040 0.719745
Si Si8 0.160693 0.786365 0.794737
O O1 0.682985 0.500000 0.070101
O O2 0.713730 0.220935 0.174578
O O3 0.762005 0.272317 0.106602
O O4 0.629586 0.221081 0.957638
O O5 0.576954 0.500000 0.832354
O O6 0.504612 0.216957 0.758623
O O7 0.612961 0.228794 0.801492
O O8 0.567860 0.500000 0.099209
O O9 0.638731 0.776993 0.195089
O O10 0.552802 0.706979 0.190288
O O11 0.500000 0.783936 0.000000
O O12 0.095894 0.263635 0.507370
O O13 0.129210 0.275710 0.682454
O O14 0.000000 0.274980 0.500000
O O15 0.071198 0.000000 0.557896
O O16 0.714633 0.500000 0.258995
O O17 0.777319 0.779970 0.375856
O O18 0.157099 0.500000 0.508092
O O19 0.122271 0.781864 0.401397
O O20 0.920259 0.500000 0.716735
O O21 0.160634 0.000000 0.794643
#
# Coordination Sequence:
#
# PCOD9185799 Si02
#       8
#     8   8   8   8   8   8   8   8
#     4  10  19  34  58  83 110 149 193 233 281 342
#     4  10  21  37  57  81 112 154 197 235 282 347
#     4  10  21  40  66  90 113 147 190 231 281 350
#     4  10  20  34  53  78 112 155 198 239 283 332
#     4   9  18  35  59  84 111 147 190 236 279 335
#     4  10  21  38  57  80 114 152 192 236 284 340
#     4  11  24  39  57  85 117 148 186 238 294 338
#     4  10  20  33  51  81 117 149 189 240 290 337
#
# _framework density 22.762468999999999
#
# number of rings (size 3 to 8) (size 9 to 14) (size 15 to 20)
#    0.000    2.000    1.250    2.250    0.000    6.000 
#    0.000    1.250    0.000    0.000    0.000    0.000 
#    0.000    0.000    0.000    0.000    0.000    0.000 
#
# Total GULP energy -178824.788296 kJ/mol
# GULP energy per Si atom -5588.274634 kJ/mol
# Density = 2.271066 g / cm^3
# Si number density = 22.762469 Si / 1000 Ang^3
#
#
#
# Elastic Constant Matrix: (Units=GPa)
#
#
# Indices 1 2 3 4 5 6 
#
# 1 93.2837 -9.9922 52.6275 0.0000 5.3939 0.0000
# 2 -9.9922 54.0892 4.5324 0.0000 -1.9065 0.0001
# 3 52.6275 4.5324 148.5173 0.0000 -11.4629 0.0000
# 4 0.0000 0.0000 0.0000 -1.6509 0.0000 -4.7236
# 5 5.3939 -1.9065 -11.4629 0.0000 33.4158 0.0000
# 6 0.0000 0.0001 0.0000 -4.7236 0.0000 4.7189
#
#
#
# Elastic Compliance Matrix: (Units=1/GPa)
#
#
# Indices 1 2 3 4 5 6 
#
# 1 0.014372 0.002973 -0.005495 0.000000 -0.004035 0.000000
# 2 0.002973 0.019176 -0.001635 0.000000 0.000053 0.000000
# 3 -0.005495 -0.001635 0.009031 0.000000 0.003892 0.000000
# 4 0.000000 0.000000 0.000000 -0.156758 0.000000 -0.156915
# 5 -0.004035 0.000053 0.003892 0.000000 0.031915 0.000000
# 6 0.000000 0.000000 0.000000 -0.156915 0.000000 0.054843
#
#
# Mechanical properties :
#
#
# Convention : Reuss Voigt Hill
#
# Bulk Modulus (GPa) = 29.18355 43.35839 36.27097
# Shear Modulus (GPa) = -650.52780 23.87825 -313.32477
#
# Velocity S-wave (km/s) = -16.92365 3.24237 -11.74515
# Velocity P-wave (km/s) = 19.21019 5.75385 12.96003
#
# Compressibility (1/GPa) = 0.03426588
#
# Stress axis : x y z
#
# Youngs Moduli (GPa) = 69.58068 52.14822 110.73483
#
# Poissons Ratio (x) = -0.15505 0.60847
# Poissons Ratio (y) = -0.20688 0.18101
# Poissons Ratio (z) = 0.38234 0.08524
#
# Static dielectric constant tensor:
#      x y z
#    x 1.811240 0.000000 -0.000450 
#    y 0.000000 1.874210 0.000000 
#    z -0.000450 0.000000 1.851710 
# 
# From -- ./inp_files/295825.got.cif
#   From: 2010.05.17/outbox.cif.g08.bks.cpg/sg12_148_cif.got.tgz:295825.got - 2010.06.03 13:09:07.
