data_PCOD9185898
_publ_section_title
;
Structure prediction by ZEFSAII (Michael W. Deem and Ramdas Pophale) SiO2 
 PCOD9185898
Probable space group: C 2/M
;
_chemical_formula_sum "Si O2"
_cell_formula_units_Z 56
_cell_length_a 16.963908
_cell_length_b 16.084758
_cell_length_c 15.828077
_cell_angle_alpha 90.000000
_cell_angle_beta 137.378644
_cell_angle_gamma 90.000000
_cell_volume 2924.513718
_symmetry_space_group_name_H-M "C 2/M"
_symmetry_group_IT_number 12
_symmetry_cell_setting 'monoclinic'
loop_
_space_group_symop_operation_xyz
x,y,z
-x,y,-z
-x,-y,-z
x,-y,z
1/2+x,1/2+y,z
1/2-x,1/2+y,-z
1/2-x,1/2-y,-z
1/2+x,1/2-y,z
loop_
_atom_site_type_symbol
_atom_site_label
_atom_site_fract_x
_atom_site_fract_y
_atom_site_fract_z
Si Si1 0.801719 0.090173 0.499254
Si Si2 0.025230 0.216009 0.294003
Si Si3 0.098508 0.371461 0.461221
Si Si4 0.486159 0.783791 0.084882
Si Si5 0.664363 0.095992 0.706266
Si Si6 0.690941 0.099921 0.237416
Si Si7 0.233179 0.769263 0.843768
O O1 0.904737 0.134802 0.628059
O O2 0.691206 0.086364 0.473639
O O3 0.753634 0.125698 0.373839
O O4 0.845179 0.000000 0.510030
O O5 0.081244 0.282329 0.403429
O O6 0.041141 0.237386 0.208077
O O7 0.888977 0.214367 0.207668
O O8 0.147488 0.377160 0.594922
O O9 0.967610 0.406727 0.361315
O O10 0.555624 0.871160 0.136376
O O11 0.500000 0.748381 0.000000
O O12 0.348091 0.783523 0.990511
O O13 0.727598 0.174173 0.802357
O O14 0.710481 0.000000 0.747852
O O15 0.748382 0.159961 0.213154
O O16 0.699197 0.000000 0.230502
#
# Coordination Sequence:
#
# PCOD9185898 Si02
#       7
#     8   8   8   8   8   8   8
#     4  11  22  35  58  91 122 152 193 248 308 363
#     4  11  22  38  61  86 122 158 197 244 307 360
#     4  10  19  34  58  85 119 155 194 246 298 353
#     4  10  22  40  62  84 115 156 206 248 290 341
#     4  10  20  35  57  89 124 156 194 243 302 361
#     4  10  22  41  65  92 119 156 204 251 298 350
#     4  10  23  39  60  88 121 163 200 243 294 355
#
# _framework density 19.148482999999999
#
# number of rings (size 3 to 8) (size 9 to 14) (size 15 to 20)
#    0.000    1.714    1.429    3.429    4.000    4.857 
#    0.000    2.143    0.000    7.714    0.000    0.000 
#    0.000    0.000    0.000    0.000    0.000    0.000 
#
# Total GULP energy -155902.233408 kJ/mol
# GULP energy per Si atom -5567.936907 kJ/mol
# Density = 1.910490 g / cm^3
# Si number density = 19.148483 Si / 1000 Ang^3
#
#
#
# Elastic Constant Matrix: (Units=GPa)
#
#
# Indices 1 2 3 4 5 6 
#
# 1 46.0424 35.2896 36.3670 0.0000 -5.3935 0.0000
# 2 35.2896 71.5605 50.2608 0.0000 -0.0508 0.0000
# 3 36.3670 50.2608 81.8936 0.0000 -11.1193 0.0000
# 4 0.0000 0.0000 0.0000 21.7524 0.0000 -15.1610
# 5 -5.3935 -0.0508 -11.1193 0.0000 25.7470 0.0000
# 6 0.0000 0.0000 0.0000 -15.1610 0.0000 18.4378
#
#
#
# Elastic Compliance Matrix: (Units=1/GPa)
#
#
# Indices 1 2 3 4 5 6 
#
# 1 0.039269 -0.013249 -0.008704 0.000000 0.004441 0.000000
# 2 -0.013249 0.030229 -0.013850 0.000000 -0.008697 0.000000
# 3 -0.008704 -0.013850 0.025841 0.000000 0.009309 0.000000
# 4 0.000000 0.000000 0.000000 0.107691 0.000000 0.088552
# 5 0.004441 -0.008697 0.009309 0.000000 0.043773 0.000000
# 6 0.000000 0.000000 0.000000 0.088552 0.000000 0.127051
#
#
# Mechanical properties :
#
#
# Convention : Reuss Voigt Hill
#
# Bulk Modulus (GPa) = 42.13607 49.25905 45.69756
# Shear Modulus (GPa) = 11.02850 18.35938 14.69394
#
# Velocity S-wave (km/s) = 2.40249 3.09979 2.77315
# Velocity P-wave (km/s) = 5.45423 6.21227 5.84555
#
# Compressibility (1/GPa) = 0.02373263
#
# Stress axis : x y z
#
# Youngs Moduli (GPa) = 25.46530 33.08070 38.69878
#
# Poissons Ratio (x) = 0.43827 0.33685
# Poissons Ratio (y) = 0.33738 0.53598
# Poissons Ratio (z) = 0.22166 0.45817
#
# Static dielectric constant tensor:
#      x y z
#    x 1.695390 0.000000 -0.010430 
#    y 0.000000 1.702970 0.000000 
#    z -0.010430 0.000000 1.685090 
# 
# From -- ./inp_files/277870.got.cif
#   From: 2010.05.17/outbox.cif.g08.bks.cpg/sg12_139_cif.got.tgz:277870.got - 2010.06.03 13:09:07.
