data_PCOD9185791
_publ_section_title
;
Structure prediction by ZEFSAII (Michael W. Deem and Ramdas Pophale) SiO2 
 PCOD9185791
Probable space group: C 2/M
;
_chemical_formula_sum "Si O2"
_cell_formula_units_Z 56
_cell_length_a 19.981222
_cell_length_b 8.832788
_cell_length_c 21.436169
_cell_angle_alpha 90.000000
_cell_angle_beta 124.740311
_cell_angle_gamma 90.000000
_cell_volume 3108.874597
_symmetry_space_group_name_H-M "C 2/M"
_symmetry_group_IT_number 12
_symmetry_cell_setting 'monoclinic'
loop_
_space_group_symop_operation_xyz
x,y,z
-x,y,-z
-x,-y,-z
x,-y,z
1/2+x,1/2+y,z
1/2-x,1/2+y,-z
1/2-x,1/2-y,-z
1/2+x,1/2-y,z
loop_
_atom_site_type_symbol
_atom_site_label
_atom_site_fract_x
_atom_site_fract_y
_atom_site_fract_z
Si Si1 0.610125 0.819762 0.802542
Si Si2 0.091510 0.822484 0.053432
Si Si3 0.838631 0.175976 0.048460
Si Si4 0.175354 0.183342 0.499645
Si Si5 0.344825 0.316842 0.369020
Si Si6 0.493686 0.317090 0.361391
Si Si7 0.258035 0.819048 0.804508
O O1 0.606782 0.758891 0.870994
O O2 0.541149 0.754157 0.720359
O O3 0.695320 0.758871 0.819187
O O4 0.609751 0.000000 0.801264
O O5 0.151940 0.735650 0.131520
O O6 0.088707 0.000000 0.070471
O O7 0.126841 0.813770 0.002569
O O8 0.000000 0.763048 0.000000
O O9 0.831882 0.000000 0.062477
O O10 0.750000 0.250000 0.000000
O O11 0.250000 0.250000 0.500000
O O12 0.173331 0.236228 0.570848
O O13 0.086745 0.223553 0.424564
O O14 0.181592 0.000000 0.502369
O O15 0.348124 0.500000 0.374127
O O16 0.431254 0.270321 0.383926
O O17 0.275289 0.277074 0.281825
O O18 0.488281 0.500000 0.354002
O O19 0.251315 0.000000 0.807515
#
# Coordination Sequence:
#
# PCOD9185791 Si02
#       7
#     8   8   8   8   8   8   8
#     4  11  21  34  55  84 114 143 180 234 283 321
#     4  10  22  39  56  78 111 149 184 226 277 327
#     4  11  21  35  58  83 112 147 185 227 274 330
#     4  10  20  36  57  81 114 146 178 220 273 332
#     4   8  16  33  58  83 104 137 182 227 269 316
#     4   9  18  35  59  82 105 141 188 229 268 322
#     4  10  19  34  58  83 109 142 185 231 274 329
#
# _framework density 18.012948000000002
#
# number of rings (size 3 to 8) (size 9 to 14) (size 15 to 20)
#    0.000    2.143    1.429    3.429    0.000    3.143 
#    2.571    3.571    0.000    4.286    0.000    0.000 
#    0.000    0.000    0.000    0.000    0.000    0.000 
#
# Total GULP energy -156240.320869 kJ/mol
# GULP energy per Si atom -5580.011460 kJ/mol
# Density = 1.797195 g / cm^3
# Si number density = 18.012948 Si / 1000 Ang^3
#
#
#
# Elastic Constant Matrix: (Units=GPa)
#
#
# Indices 1 2 3 4 5 6 
#
# 1 83.4239 33.6189 70.9437 0.0000 21.2319 0.0000
# 2 33.6189 58.6328 48.4688 0.0000 7.3430 0.0000
# 3 70.9437 48.4688 145.7456 0.0000 15.4993 0.0000
# 4 0.0000 0.0000 0.0000 26.3961 0.0000 5.0526
# 5 21.2319 7.3430 15.4993 0.0000 27.5033 0.0000
# 6 0.0000 0.0000 0.0000 5.0526 0.0000 23.6188
#
#
#
# Elastic Compliance Matrix: (Units=1/GPa)
#
#
# Indices 1 2 3 4 5 6 
#
# 1 0.025134 -0.005265 -0.009116 0.000000 -0.012860 0.000000
# 2 -0.005265 0.024728 -0.005734 0.000000 0.000694 0.000000
# 3 -0.009116 -0.005734 0.013078 0.000000 0.001198 0.000000
# 4 0.000000 0.000000 0.000000 0.039502 0.000000 -0.008450
# 5 -0.012860 0.000694 0.001198 0.000000 0.045426 0.000000
# 6 0.000000 0.000000 0.000000 -0.008450 0.000000 0.044147
#
#
# Mechanical properties :
#
#
# Convention : Reuss Voigt Hill
#
# Bulk Modulus (GPa) = 44.03525 65.98500 55.01012
# Shear Modulus (GPa) = 20.84950 24.48836 22.66893
#
# Velocity S-wave (km/s) = 3.40586 3.69112 3.55135
# Velocity P-wave (km/s) = 6.32187 7.40792 6.88634
#
# Compressibility (1/GPa) = 0.02270908
#
# Stress axis : x y z
#
# Youngs Moduli (GPa) = 39.78744 40.44076 76.46443
#
# Poissons Ratio (x) = 0.21293 0.69702
# Poissons Ratio (y) = 0.20949 0.43847
# Poissons Ratio (z) = 0.36269 0.23190
#
# Static dielectric constant tensor:
#      x y z
#    x 1.602420 0.000000 -0.003740 
#    y 0.000000 1.613720 0.000000 
#    z -0.003740 0.000000 1.622100 
# 
# From -- ./inp_files/314425.got.cif
#   From: 2010.05.17/outbox.cif.g08.bks.cpg/sg12_158_cif.got.tgz:314425.got - 2010.06.03 13:09:07.
