data_PCOD9185170
_publ_section_title
;
Structure prediction by ZEFSAII (Michael W. Deem and Ramdas Pophale) SiO2 
 PCOD9185170
Probable space group: C 2/M
;
_chemical_formula_sum "Si O2"
_cell_formula_units_Z 36
_cell_length_a 27.564650
_cell_length_b 14.322964
_cell_length_c 5.008917
_cell_angle_alpha 90.000000
_cell_angle_beta 72.804616
_cell_angle_gamma 90.000000
_cell_volume 1889.165422
_symmetry_space_group_name_H-M "C 2/M"
_symmetry_group_IT_number 12
_symmetry_cell_setting 'monoclinic'
loop_
_space_group_symop_operation_xyz
x,y,z
-x,y,-z
-x,-y,-z
x,-y,z
1/2+x,1/2+y,z
1/2-x,1/2+y,-z
1/2-x,1/2-y,-z
1/2+x,1/2-y,z
loop_
_atom_site_type_symbol
_atom_site_label
_atom_site_fract_x
_atom_site_fract_y
_atom_site_fract_z
Si Si1 0.158819 0.605946 0.112375
Si Si2 0.807474 0.282373 0.432291
Si Si3 0.461880 0.500000 0.305332
Si Si4 0.409025 0.687174 0.202478
Si Si5 0.442730 0.199648 0.648382
O O1 0.170055 0.500000 0.167482
O O2 0.180682 0.678846 0.292601
O O3 0.098136 0.623134 0.196472
O O4 0.181524 0.634057 0.791309
O O5 0.750000 0.250000 0.500000
O O6 0.848273 0.201795 0.283086
O O7 0.500000 0.500000 0.500000
O O8 0.427195 0.591077 0.307752
O O9 0.500000 0.500000 0.000000
O O10 0.425323 0.764188 0.389551
O O11 0.436122 0.716436 0.879043
O O12 0.500000 0.169462 0.500000
#
# Coordination Sequence:
#
# PCOD9185170 Si02
#       5
#     8   8   4   8   8
#     4  10  21  37  58  88 113 142 190 234 279 342
#     4  10  21  40  62  78 114 152 188 238 292 338
#     4  12  22  34  54  80 118 148 184 240 281 332
#     4  10  21  35  53  81 110 146 196 226 275 347
#     4  10  19  34  56  79 112 152 180 222 279 336
#
# _framework density 19.056035000000001
#
# number of rings (size 3 to 8) (size 9 to 14) (size 15 to 20)
#    0.000    1.778    0.000    5.333    0.000    0.444 
#    4.000    0.000    0.000    8.000    0.000    0.000 
#    0.000    0.000    0.000    0.000    0.000    0.000 
#
# Total GULP energy -100331.394253 kJ/mol
# GULP energy per Si atom -5573.966347 kJ/mol
# Density = 1.901266 g / cm^3
# Si number density = 19.056035 Si / 1000 Ang^3
#
#
#
# Elastic Constant Matrix: (Units=GPa)
#
#
# Indices 1 2 3 4 5 6 
#
# 1 123.8387 31.0587 31.2769 0.0000 -20.9846 0.0000
# 2 31.0587 56.5311 -10.0504 0.0000 -10.3136 0.0000
# 3 31.2769 -10.0504 83.7827 0.0000 4.9668 0.0000
# 4 0.0000 0.0000 0.0000 14.7829 0.0000 8.9240
# 5 -20.9846 -10.3136 4.9668 0.0000 37.6475 0.0000
# 6 0.0000 0.0000 0.0000 8.9240 0.0000 12.3092
#
#
#
# Elastic Compliance Matrix: (Units=1/GPa)
#
#
# Indices 1 2 3 4 5 6 
#
# 1 0.012134 -0.006635 -0.005663 0.000000 0.005693 0.000000
# 2 -0.006635 0.022568 0.005076 0.000000 0.001815 0.000000
# 3 -0.005663 0.005076 0.014880 0.000000 -0.003729 0.000000
# 4 0.000000 0.000000 0.000000 0.120292 0.000000 -0.087210
# 5 0.005693 0.001815 -0.003729 0.000000 0.030725 0.000000
# 6 0.000000 0.000000 0.000000 -0.087210 0.000000 0.144467
#
#
# Mechanical properties :
#
#
# Convention : Reuss Voigt Hill
#
# Bulk Modulus (GPa) = 28.45827 40.96919 34.71373
# Shear Modulus (GPa) = 13.46908 27.07243 20.27076
#
# Velocity S-wave (km/s) = 2.66148 3.77327 3.26505
# Velocity P-wave (km/s) = 4.94076 6.36627 5.69827
#
# Compressibility (1/GPa) = 0.03513917
#
# Stress axis : x y z
#
# Youngs Moduli (GPa) = 82.41331 44.31026 67.20542
#
# Poissons Ratio (x) = 0.29398 0.38059
# Poissons Ratio (y) = 0.54679 -0.34116
# Poissons Ratio (z) = 0.46672 -0.22494
#
# Static dielectric constant tensor:
#      x y z
#    x 1.654050 0.000000 -0.014690 
#    y 0.000000 1.592040 0.000000 
#    z -0.014690 0.000000 1.653670 
# 
# From -- ./inp_files/24052.got.cif
#   From: 2010.05.17/outbox.cif.g08.bks.cpg/sg12_13_cif.got.tgz:24052.got - 2010.06.03 13:09:07.
