data_PCOD9185769
_publ_section_title
;
Structure prediction by ZEFSAII (Michael W. Deem and Ramdas Pophale) SiO2 
 PCOD9185769
Probable space group: C 2/M
;
_chemical_formula_sum "Si O2"
_cell_formula_units_Z 56
_cell_length_a 12.283271
_cell_length_b 18.704964
_cell_length_c 14.812288
_cell_angle_alpha 90.000000
_cell_angle_beta 116.278132
_cell_angle_gamma 90.000000
_cell_volume 3051.537145
_symmetry_space_group_name_H-M "C 2/M"
_symmetry_group_IT_number 12
_symmetry_cell_setting 'monoclinic'
loop_
_space_group_symop_operation_xyz
x,y,z
-x,y,-z
-x,-y,-z
x,-y,z
1/2+x,1/2+y,z
1/2-x,1/2+y,-z
1/2-x,1/2-y,-z
1/2+x,1/2-y,z
loop_
_atom_site_type_symbol
_atom_site_label
_atom_site_fract_x
_atom_site_fract_y
_atom_site_fract_z
Si Si1 0.341525 0.790872 0.168957
Si Si2 0.608694 0.283201 0.973592
Si Si3 0.774644 0.082559 0.768693
Si Si4 0.562279 0.415708 0.840774
Si Si5 0.425070 0.670884 0.333121
Si Si6 0.192662 0.176735 0.516667
Si Si7 0.366383 0.083973 0.470756
O O1 0.426622 0.777043 0.113506
O O2 0.297322 0.866450 0.189520
O O3 0.396133 0.743944 0.269036
O O4 0.219211 0.759367 0.078027
O O5 0.630431 0.358861 0.930024
O O6 0.500000 0.297045 0.000000
O O7 0.713370 0.092736 0.648533
O O8 0.918444 0.096727 0.809477
O O9 0.761459 0.000000 0.790510
O O10 0.587361 0.500000 0.863820
O O11 0.588305 0.391129 0.747283
O O12 0.563202 0.667314 0.419254
O O13 0.338386 0.671339 0.388791
O O14 0.250000 0.250000 0.500000
O O15 0.291706 0.118788 0.523716
O O16 0.500000 0.115361 0.500000
O O17 0.381152 0.000000 0.494453
#
# Coordination Sequence:
#
# PCOD9185769 Si02
#       7
#     8   8   8   8   8   8   8
#     4  10  21  36  54  80 115 144 188 231 288 350
#     4  10  20  36  56  81 111 148 182 232 294 348
#     4  10  19  34  58  82 110 148 190 238 286 340
#     4  10  20  36  59  87 116 145 188 243 296 350
#     4  10  23  37  55  86 119 159 194 240 290 341
#     4  11  23  36  57  86 118 157 202 240 282 335
#     4  10  22  39  58  83 117 156 195 236 284 342
#
# _framework density 18.351406000000001
#
# number of rings (size 3 to 8) (size 9 to 14) (size 15 to 20)
#    0.000    1.857    2.857    0.857    4.000    1.429 
#    0.000    1.429    0.000    0.429    0.000    0.000 
#    0.000    0.000    0.000    0.000    0.000    0.000 
#
# Total GULP energy -155992.482300 kJ/mol
# GULP energy per Si atom -5571.160082 kJ/mol
# Density = 1.830964 g / cm^3
# Si number density = 18.351406 Si / 1000 Ang^3
#
#
#
# Elastic Constant Matrix: (Units=GPa)
#
#
# Indices 1 2 3 4 5 6 
#
# 1 92.2449 31.9114 36.9480 0.0000 -23.8404 0.0000
# 2 31.9114 53.4833 14.1181 0.0000 -17.0111 0.0000
# 3 36.9480 14.1181 54.4628 0.0000 -14.5405 0.0000
# 4 0.0000 0.0000 0.0000 22.2952 0.0000 -1.1836
# 5 -23.8404 -17.0111 -14.5405 0.0000 37.7404 0.0000
# 6 0.0000 0.0000 0.0000 -1.1836 0.0000 34.7823
#
#
#
# Elastic Compliance Matrix: (Units=1/GPa)
#
#
# Indices 1 2 3 4 5 6 
#
# 1 0.018170 -0.006865 -0.009261 0.000000 0.004815 0.000000
# 2 -0.006865 0.024993 0.000032 0.000000 0.006941 0.000000
# 3 -0.009261 0.000032 0.025724 0.000000 0.004075 0.000000
# 4 0.000000 0.000000 0.000000 0.044934 0.000000 0.001529
# 5 0.004815 0.006941 0.004075 0.000000 0.034237 0.000000
# 6 0.000000 0.000000 0.000000 0.001529 0.000000 0.028802
#
#
# Mechanical properties :
#
#
# Convention : Reuss Voigt Hill
#
# Bulk Modulus (GPa) = 27.25027 40.68289 33.96658
# Shear Modulus (GPa) = 22.59574 26.77782 24.68678
#
# Velocity S-wave (km/s) = 3.51277 3.82405 3.67171
# Velocity P-wave (km/s) = 5.59769 6.45870 6.04355
#
# Compressibility (1/GPa) = 0.03669688
#
# Stress axis : x y z
#
# Youngs Moduli (GPa) = 55.03719 40.01162 38.87458
#
# Poissons Ratio (x) = 0.27467 0.36003
# Poissons Ratio (y) = 0.37782 -0.00122
# Poissons Ratio (z) = 0.50971 -0.00126
#
# Static dielectric constant tensor:
#      x y z
#    x 1.729000 0.000000 -0.022110 
#    y 0.000000 1.657830 0.000000 
#    z -0.022110 0.000000 1.654000 
# 
# From -- ./inp_files/206113.got.cif
#   From: 2010.05.17/outbox.cif.g08.bks.cpg/sg12_104_cif.got.tgz:206113.got - 2010.06.03 13:09:07.
