data_PCOD9185393
_publ_section_title
;
Structure prediction by ZEFSAII (Michael W. Deem and Ramdas Pophale) SiO2 
 PCOD9185393
Probable space group: C 2/M
;
_chemical_formula_sum "Si O2"
_cell_formula_units_Z 52
_cell_length_a 9.024053
_cell_length_b 17.358715
_cell_length_c 15.966872
_cell_angle_alpha 90.000000
_cell_angle_beta 95.514027
_cell_angle_gamma 90.000000
_cell_volume 2489.572516
_symmetry_space_group_name_H-M "C 2/M"
_symmetry_group_IT_number 12
_symmetry_cell_setting 'monoclinic'
loop_
_space_group_symop_operation_xyz
x,y,z
-x,y,-z
-x,-y,-z
x,-y,z
1/2+x,1/2+y,z
1/2-x,1/2+y,-z
1/2-x,1/2-y,-z
1/2+x,1/2-y,z
loop_
_atom_site_type_symbol
_atom_site_label
_atom_site_fract_x
_atom_site_fract_y
_atom_site_fract_z
Si Si1 0.639806 0.500000 0.944262
Si Si2 0.753774 0.848067 0.753685
Si Si3 0.995600 0.268921 0.834081
Si Si4 0.121421 0.202902 0.393546
Si Si5 0.747391 0.674842 0.937628
Si Si6 0.911792 0.000000 0.404221
Si Si7 0.306965 0.661448 0.411210
Si Si8 0.937298 0.000000 0.772628
O O1 0.720435 0.584720 0.961991
O O2 0.575500 0.500000 0.845033
O O3 0.500000 0.500000 0.000000
O O4 0.865572 0.777790 0.781104
O O5 0.598511 0.826749 0.786877
O O6 0.762449 0.846373 0.653902
O O7 0.834451 0.925949 0.785211
O O8 0.904751 0.317033 0.898614
O O9 0.105495 0.201927 0.874485
O O10 0.161377 0.291501 0.384822
O O11 0.150966 0.179981 0.490807
O O12 0.949637 0.188351 0.364885
O O13 0.750000 0.750000 0.000000
O O14 0.805634 0.927459 0.397530
O O15 0.000000 0.000000 0.500000
O O16 0.010251 0.000000 0.323416
#
# Coordination Sequence:
#
# PCOD9185393 Si02
#       8
#     4   8   8   8   8   4   8   4
#     4  12  26  43  69  99 132 171 217 273 326 398
#     4  11  21  38  60  90 126 163 212 260 323 377
#     4  10  23  38  64  90 126 164 211 263 322 392
#     4  10  19  34  56  88 117 167 202 262 299 386
#     4  11  23  45  67  95 127 170 214 265 331 391
#     4  12  20  38  61  95 123 171 207 268 308 383
#     4  10  20  34  58  85 122 157 220 248 317 365
#     4  12  24  39  63  97 129 166 217 271 321 386
#
# _framework density 20.887119999999999
#
# number of rings (size 3 to 8) (size 9 to 14) (size 15 to 20)
#    0.000    1.231    4.615    2.308    2.154    0.615 
#    0.000    1.538    0.000   12.000    0.000    0.000 
#    0.000    0.000    0.000    0.000    0.000    0.000 
#
# Total GULP energy -144869.758965 kJ/mol
# GULP energy per Si atom -5571.913806 kJ/mol
# Density = 2.083958 g / cm^3
# Si number density = 20.887120 Si / 1000 Ang^3
#
#
#
# Elastic Constant Matrix: (Units=GPa)
#
#
# Indices 1 2 3 4 5 6 
#
# 1 78.1369 49.1855 37.9133 0.0000 -32.2697 0.0000
# 2 49.1855 193.2559 26.9504 0.0000 -23.0728 0.0000
# 3 37.9133 26.9504 83.8219 0.0000 -25.7566 0.0000
# 4 0.0000 0.0000 0.0000 14.6227 0.0000 -9.5432
# 5 -32.2697 -23.0728 -25.7566 0.0000 39.0647 0.0000
# 6 0.0000 0.0000 0.0000 -9.5432 0.0000 35.0409
#
#
#
# Elastic Compliance Matrix: (Units=1/GPa)
#
#
# Indices 1 2 3 4 5 6 
#
# 1 0.023164 -0.003549 -0.005142 0.000000 0.013648 0.000000
# 2 -0.003549 0.006175 -0.000201 0.000000 0.000583 0.000000
# 3 -0.005142 -0.000201 0.016276 0.000000 0.006365 0.000000
# 4 0.000000 0.000000 0.000000 0.083169 0.000000 0.022651
# 5 0.013648 0.000583 0.006365 0.000000 0.041414 0.000000
# 6 0.000000 0.000000 0.000000 0.022651 0.000000 0.034707
#
#
# Mechanical properties :
#
#
# Convention : Reuss Voigt Hill
#
# Bulk Modulus (GPa) = 35.93141 64.81256 50.37199
# Shear Modulus (GPa) = 21.55485 33.82337 27.68911
#
# Velocity S-wave (km/s) = 3.21591 4.02847 3.64490
# Velocity P-wave (km/s) = 5.57041 7.26191 6.47166
#
# Compressibility (1/GPa) = 0.02783080
#
# Stress axis : x y z
#
# Youngs Moduli (GPa) = 43.17136 161.93360 61.43845
#
# Poissons Ratio (x) = 0.57467 0.31594
# Poissons Ratio (y) = 0.15321 0.01236
# Poissons Ratio (z) = 0.22200 0.03257
#
# Static dielectric constant tensor:
#      x y z
#    x 1.746520 0.000000 0.024850 
#    y 0.000000 1.774620 0.000000 
#    z 0.024850 0.000000 1.935280 
# 
# From -- ./inp_files/256582.got.cif
#   From: 2010.05.17/outbox.cif.g08.bks.cpg/sg12_129_cif.got.tgz:256582.got - 2010.06.03 13:09:07.
