data_PCOD9185950
_publ_section_title
;
Structure prediction by ZEFSAII (Michael W. Deem and Ramdas Pophale) SiO2 
 PCOD9185950
Probable space group: C 2/M
;
_chemical_formula_sum "Si O2"
_cell_formula_units_Z 64
_cell_length_a 20.332168
_cell_length_b 8.992836
_cell_length_c 24.727559
_cell_angle_alpha 90.000000
_cell_angle_beta 52.327807
_cell_angle_gamma 90.000000
_cell_volume 3578.686277
_symmetry_space_group_name_H-M "C 2/M"
_symmetry_group_IT_number 12
_symmetry_cell_setting 'monoclinic'
loop_
_space_group_symop_operation_xyz
x,y,z
-x,y,-z
-x,-y,-z
x,-y,z
1/2+x,1/2+y,z
1/2-x,1/2+y,-z
1/2-x,1/2-y,-z
1/2+x,1/2-y,z
loop_
_atom_site_type_symbol
_atom_site_label
_atom_site_fract_x
_atom_site_fract_y
_atom_site_fract_z
Si Si1 0.100741 0.821633 0.794846
Si Si2 0.996750 0.679192 0.938738
Si Si3 0.071551 0.822442 0.421364
Si Si4 0.539576 0.821556 0.208787
Si Si5 0.997545 0.677995 0.650806
Si Si6 0.161301 0.322069 0.054363
Si Si7 0.177123 0.174950 0.570960
Si Si8 0.255074 0.825538 0.649735
O O1 0.193593 0.781067 0.729353
O O2 0.069102 0.753560 0.866927
O O3 0.037100 0.759239 0.781805
O O4 0.095473 0.000000 0.798662
O O5 0.004453 0.500000 0.930555
O O6 0.909154 0.720749 0.954347
O O7 0.000000 0.720203 0.000000
O O8 0.161559 0.768627 0.395350
O O9 0.000000 0.777905 0.500000
O O10 0.052000 0.747923 0.373828
O O11 0.069559 0.000000 0.417370
O O12 0.541773 0.785539 0.270877
O O13 0.620923 0.783325 0.132840
O O14 0.526929 0.000000 0.209806
O O15 0.000695 0.500000 0.643870
O O16 0.090368 0.744030 0.603922
O O17 0.170066 0.500000 0.047507
O O18 0.250000 0.250000 0.000000
O O19 0.250000 0.250000 0.500000
O O20 0.202864 0.188277 0.620756
O O21 0.169851 0.000000 0.561374
O O22 0.276928 0.000000 0.645093
#
# Coordination Sequence:
#
# PCOD9185950 Si02
#       8
#     8   8   8   8   8   8   8   8
#     4  10  19  34  58  87 115 145 186 236 284 329
#     4   9  19  37  58  80 113 151 189 229 275 333
#     4  11  25  42  59  81 112 151 193 238 286 343
#     4   9  19  36  58  83 113 150 188 227 280 338
#     4  11  22  38  61  85 113 150 189 234 289 342
#     4   9  18  34  55  81 111 145 182 223 271 325
#     4  11  22  37  58  87 117 145 186 235 281 336
#     4  10  22  39  58  82 115 150 185 232 286 339
#
# _framework density 17.883658
#
# number of rings (size 3 to 8) (size 9 to 14) (size 15 to 20)
#    0.000    2.000    1.250    3.000    0.000    7.750 
#    2.250    0.000    0.000    0.000    0.000    0.000 
#    0.000    0.000    0.000    0.000    0.000    0.000 
#
# Total GULP energy -178659.778606 kJ/mol
# GULP energy per Si atom -5583.118081 kJ/mol
# Density = 1.784295 g / cm^3
# Si number density = 17.883658 Si / 1000 Ang^3
#
#
#
# Elastic Constant Matrix: (Units=GPa)
#
#
# Indices 1 2 3 4 5 6 
#
# 1 15.3548 8.3147 1.6917 0.0000 -5.3070 0.0003
# 2 8.3147 32.7342 26.8959 0.0000 -1.3369 0.0004
# 3 1.6917 26.8959 101.6912 0.0000 -6.2841 0.0000
# 4 0.0000 0.0000 0.0000 29.8979 0.0000 -2.2393
# 5 -5.3070 -1.3369 -6.2841 0.0000 35.1937 0.0000
# 6 0.0003 0.0004 0.0000 -2.2393 0.0000 30.3562
#
#
#
# Elastic Compliance Matrix: (Units=1/GPa)
#
#
# Indices 1 2 3 4 5 6 
#
# 1 0.082624 -0.025531 0.006156 0.000000 0.012589 -0.000001
# 2 -0.025531 0.046925 -0.012249 0.000000 -0.004255 0.000000
# 3 0.006156 -0.012249 0.013145 0.000000 0.002810 0.000000
# 4 0.000000 0.000000 0.000000 0.033633 0.000000 0.002481
# 5 0.012589 -0.004255 0.002810 0.000000 0.030653 0.000000
# 6 -0.000001 0.000000 0.000000 0.002481 0.000000 0.033125
#
#
# Mechanical properties :
#
#
# Convention : Reuss Voigt Hill
#
# Bulk Modulus (GPa) = 12.58728 24.84276 18.71502
# Shear Modulus (GPa) = 15.15910 26.61477 20.88694
#
# Velocity S-wave (km/s) = 2.91460 3.86193 3.42121
# Velocity P-wave (km/s) = 4.28722 5.81442 5.10821
#
# Compressibility (1/GPa) = 0.07944530
#
# Stress axis : x y z
#
# Youngs Moduli (GPa) = 12.10299 21.31065 76.07641
#
# Poissons Ratio (x) = 0.54408 -0.46833
# Poissons Ratio (y) = 0.30900 0.93187
# Poissons Ratio (z) = -0.07451 0.26104
#
# Static dielectric constant tensor:
#      x y z
#    x 1.577800 0.000000 0.007890 
#    y 0.000000 1.598840 0.000000 
#    z 0.007890 0.000000 1.612460 
# 
# From -- ./inp_files/345935.got.cif
#   From: 2010.05.17/outbox.cif.g08.bks.cpg/sg12_173_cif.got.tgz:345935.got - 2010.06.03 13:09:07.
