data_PCOD9185846
_publ_section_title
;
Structure prediction by ZEFSAII (Michael W. Deem and Ramdas Pophale) SiO2 
 PCOD9185846
Probable space group: C 2/M
;
_chemical_formula_sum "Si O2"
_cell_formula_units_Z 64
_cell_length_a 15.907289
_cell_length_b 8.418067
_cell_length_c 24.578233
_cell_angle_alpha 90.000000
_cell_angle_beta 90.408120
_cell_angle_gamma 90.000000
_cell_volume 3291.153881
_symmetry_space_group_name_H-M "C 2/M"
_symmetry_group_IT_number 12
_symmetry_cell_setting 'monoclinic'
loop_
_space_group_symop_operation_xyz
x,y,z
-x,y,-z
-x,-y,-z
x,-y,z
1/2+x,1/2+y,z
1/2-x,1/2+y,-z
1/2-x,1/2-y,-z
1/2+x,1/2-y,z
loop_
_atom_site_type_symbol
_atom_site_label
_atom_site_fract_x
_atom_site_fract_y
_atom_site_fract_z
Si Si1 0.472547 0.690768 0.058913
Si Si2 0.121355 0.808817 0.756602
Si Si3 0.280559 0.689503 0.559150
Si Si4 0.221457 0.808783 0.174004
Si Si5 0.962486 0.805566 0.825402
Si Si6 0.285224 0.809806 0.057378
Si Si7 0.029590 0.690738 0.439411
Si Si8 0.872869 0.191059 0.368162
O O1 0.482330 0.500000 0.057363
O O2 0.522027 0.747452 0.112324
O O3 0.375994 0.733894 0.066799
O O4 0.500000 0.753884 0.000000
O O5 0.202565 0.760961 0.791393
O O6 0.038085 0.750592 0.787518
O O7 0.126442 0.753600 0.694464
O O8 0.116822 0.000000 0.755503
O O9 0.281647 0.500000 0.558619
O O10 0.250000 0.750000 0.500000
O O11 0.375504 0.749555 0.570544
O O12 0.210108 0.747092 0.601422
O O13 0.230537 0.768017 0.110113
O O14 0.129910 0.756404 0.193595
O O15 0.226360 0.000000 0.177693
O O16 0.963996 0.000000 0.825902
O O17 0.291840 0.000000 0.055288
O O18 0.250000 0.750000 0.000000
O O19 0.030478 0.500000 0.437584
O O20 0.000000 0.740008 0.500000
O O21 0.958038 0.752884 0.398316
O O22 0.870959 0.000000 0.369519
#
# Coordination Sequence:
#
# PCOD9185846 Si02
#       8
#     8   8   8   8   8   8   8   8
#     4  10  19  34  58  84 114 153 197 245 306 369
#     4  10  22  41  63  88 120 161 206 251 299 358
#     4  12  24  40  65  95 129 169 211 259 316 368
#     4  10  21  38  61  87 117 157 204 252 302 365
#     4   9  18  36  60  83 115 156 198 242 298 361
#     4  11  22  35  54  84 120 155 199 250 307 368
#     4  11  23  40  65  96 130 167 208 256 316 373
#     4  11  24  41  63  94 130 168 215 258 304 375
#
# _framework density 19.446066999999999
#
# number of rings (size 3 to 8) (size 9 to 14) (size 15 to 20)
#    0.000    1.500    2.500    3.000    0.000    5.250 
#    0.000    2.500    0.000    0.000    0.000    0.000 
#    0.000    0.000    0.000    0.000    0.000    0.000 
#
# Total GULP energy -178772.259104 kJ/mol
# GULP energy per Si atom -5586.633097 kJ/mol
# Density = 1.940181 g / cm^3
# Si number density = 19.446067 Si / 1000 Ang^3
#
#
#
# Elastic Constant Matrix: (Units=GPa)
#
#
# Indices 1 2 3 4 5 6 
#
# 1 165.8673 9.2835 79.1288 0.0000 -15.7808 0.0000
# 2 9.2835 22.6338 26.6746 0.0000 -7.0488 0.0000
# 3 79.1288 26.6746 154.8773 0.0000 -9.9081 0.0000
# 4 0.0000 0.0000 0.0000 13.5467 0.0000 -0.5262
# 5 -15.7808 -7.0488 -9.9081 0.0000 27.8794 0.0000
# 6 0.0000 0.0000 0.0000 -0.5262 0.0000 31.9303
#
#
#
# Elastic Compliance Matrix: (Units=1/GPa)
#
#
# Indices 1 2 3 4 5 6 
#
# 1 0.008419 0.003194 -0.004600 0.000000 0.003938 0.000000
# 2 0.003194 0.060063 -0.011143 0.000000 0.013034 0.000000
# 3 -0.004600 -0.011143 0.010621 0.000000 -0.001646 0.000000
# 4 0.000000 0.000000 0.000000 0.073866 0.000000 0.001217
# 5 0.003938 0.013034 -0.001646 0.000000 0.040808 0.000000
# 6 0.000000 0.000000 0.000000 0.001217 0.000000 0.031338
#
#
# Mechanical properties :
#
#
# Convention : Reuss Voigt Hill
#
# Bulk Modulus (GPa) = 18.51650 63.72802 41.12226
# Shear Modulus (GPa) = 18.64187 29.89071 24.26629
#
# Velocity S-wave (km/s) = 3.09956 3.92485 3.53636
# Velocity P-wave (km/s) = 4.72783 7.30630 6.15363
#
# Compressibility (1/GPa) = 0.05400588
#
# Stress axis : x y z
#
# Youngs Moduli (GPa) = 118.77685 16.64928 94.15727
#
# Poissons Ratio (x) = -0.05318 0.43309
# Poissons Ratio (y) = -0.37939 1.04917
# Poissons Ratio (z) = 0.54633 0.18552
#
# Static dielectric constant tensor:
#      x y z
#    x 1.661000 0.000000 -0.016330 
#    y 0.000000 1.677660 0.000000 
#    z -0.016330 0.000000 1.685540 
# 
# From -- ./inp_files/338740.got.cif
#   From: 2010.05.17/outbox.cif.g08.bks.cpg/sg12_170_cif.got.tgz:338740.got - 2010.06.03 13:09:07.
