data_PCOD9185036
_publ_section_title
;
Structure prediction by ZEFSAII (Michael W. Deem and Ramdas Pophale) SiO2 
 PCOD9185036
Probable space group: C 2/M
;
_chemical_formula_sum "Si O2"
_cell_formula_units_Z 58
_cell_length_a 25.105404
_cell_length_b 7.751136
_cell_length_c 27.430058
_cell_angle_alpha 90.000000
_cell_angle_beta 146.743206
_cell_angle_gamma 90.000000
_cell_volume 2927.188682
_symmetry_space_group_name_H-M "C 2/M"
_symmetry_group_IT_number 12
_symmetry_cell_setting 'monoclinic'
loop_
_space_group_symop_operation_xyz
x,y,z
-x,y,-z
-x,-y,-z
x,-y,z
1/2+x,1/2+y,z
1/2-x,1/2+y,-z
1/2-x,1/2-y,-z
1/2+x,1/2-y,z
loop_
_atom_site_type_symbol
_atom_site_label
_atom_site_fract_x
_atom_site_fract_y
_atom_site_fract_z
Si Si1 0.318541 0.797100 0.729399
Si Si2 0.872592 0.201098 0.871883
Si Si3 0.310166 0.299258 0.930444
Si Si4 0.892146 0.800457 0.180405
Si Si5 0.738487 0.708758 0.568020
Si Si6 0.040316 0.789180 0.873991
Si Si7 0.000000 0.500000 0.000000
Si Si8 0.092018 0.296089 0.375557
O O1 0.307284 0.713853 0.773769
O O2 0.253721 0.730676 0.634837
O O3 0.430468 0.768812 0.798878
O O4 0.300307 0.000000 0.720469
O O5 0.822863 0.262454 0.884570
O O6 0.956309 0.344402 0.931082
O O7 0.904432 0.000000 0.899148
O O8 0.334440 0.500000 0.946010
O O9 0.201662 0.282579 0.867165
O O10 0.385646 0.225772 0.027606
O O11 0.921037 0.730475 0.149233
O O12 0.987725 0.785503 0.286691
O O13 0.866451 0.000000 0.154100
O O14 0.741535 0.500000 0.570247
O O15 0.829856 0.769204 0.604798
O O16 0.642006 0.763596 0.465799
O O17 0.039098 0.000000 0.872999
O O18 0.080693 0.500000 0.359685
#
# Coordination Sequence:
#
# PCOD9185036 Si02
#       8
#     8   8   8   8   8   8   2   8
#     4  11  21  36  59  87 119 156 193 244 299 356
#     4  11  24  40  60  88 120 158 204 253 301 350
#     4  10  23  40  57  78 114 160 201 244 290 345
#     4  11  22  35  57  83 115 155 198 242 291 353
#     4   9  19  34  55  84 117 147 186 238 297 356
#     4  10  21  36  54  82 115 153 197 243 292 346
#     4  12  22  40  64  86 116 154 206 252 300 352
#     4  10  19  34  55  82 113 149 188 236 296 357
#
# _framework density 19.814233000000002
#
# number of rings (size 3 to 8) (size 9 to 14) (size 15 to 20)
#    0.000    1.655    2.069    2.690    0.966    3.862 
#    0.000    0.000    0.000    0.828    0.000    5.793 
#    0.000    0.000    0.000    0.000    0.000    0.000 
#
# Total GULP energy -161655.619532 kJ/mol
# GULP energy per Si atom -5574.331708 kJ/mol
# Density = 1.976913 g / cm^3
# Si number density = 19.814233 Si / 1000 Ang^3
#
#
#
# Elastic Constant Matrix: (Units=GPa)
#
#
# Indices 1 2 3 4 5 6 
#
# 1 102.0973 0.1282 57.3569 0.0000 -25.1999 0.0000
# 2 0.1282 68.6614 -0.2244 0.0000 -8.4007 0.0006
# 3 57.3569 -0.2244 102.7665 0.0001 -30.9200 0.0000
# 4 0.0000 0.0000 0.0001 17.0709 0.0000 -6.0638
# 5 -25.1999 -8.4007 -30.9200 0.0000 36.3423 0.0000
# 6 0.0000 0.0006 0.0000 -6.0638 0.0000 18.6821
#
#
#
# Elastic Compliance Matrix: (Units=1/GPa)
#
#
# Indices 1 2 3 4 5 6 
#
# 1 0.014776 0.000500 -0.006893 0.000000 0.004497 0.000000
# 2 0.000500 0.015166 0.001227 0.000000 0.004897 -0.000001
# 3 -0.006893 0.001227 0.016435 0.000000 0.009487 0.000000
# 4 0.000000 0.000000 0.000000 0.066213 0.000000 0.021491
# 5 0.004497 0.004897 0.009487 0.000000 0.039838 0.000000
# 6 0.000000 -0.000001 0.000000 0.021491 0.000000 0.060503
#
#
# Mechanical properties :
#
#
# Convention : Reuss Voigt Hill
#
# Bulk Modulus (GPa) = 27.74176 43.11629 35.42903
# Shear Modulus (GPa) = 21.25144 28.83670 25.04407
#
# Velocity S-wave (km/s) = 3.27851 3.81905 3.55906
# Velocity P-wave (km/s) = 5.32568 6.42295 5.89988
#
# Compressibility (1/GPa) = 0.03604673
#
# Stress axis : x y z
#
# Youngs Moduli (GPa) = 67.67608 65.93513 60.84551
#
# Poissons Ratio (x) = -0.03297 0.41940
# Poissons Ratio (y) = -0.03384 -0.07468
# Poissons Ratio (z) = 0.46649 -0.08092
#
# Static dielectric constant tensor:
#      x y z
#    x 1.734090 0.000000 -0.042830 
#    y 0.000000 1.688440 0.000000 
#    z -0.042830 0.000000 1.706300 
# 
# From -- ./inp_files/243192.got.cif
#   From: 2010.05.17/outbox.cif.g08.bks.cpg/sg12_122_cif.got.tgz:243192.got - 2010.06.03 13:09:07.
