data_PCOD9185230
_publ_section_title
;
Structure prediction by ZEFSAII (Michael W. Deem and Ramdas Pophale) SiO2 
 PCOD9185230
Probable space group: C 2/M
;
_chemical_formula_sum "Si O2"
_cell_formula_units_Z 56
_cell_length_a 19.296016
_cell_length_b 7.870497
_cell_length_c 17.577258
_cell_angle_alpha 90.000000
_cell_angle_beta 79.678918
_cell_angle_gamma 90.000000
_cell_volume 2626.250942
_symmetry_space_group_name_H-M "C 2/M"
_symmetry_group_IT_number 12
_symmetry_cell_setting 'monoclinic'
loop_
_space_group_symop_operation_xyz
x,y,z
-x,y,-z
-x,-y,-z
x,-y,z
1/2+x,1/2+y,z
1/2-x,1/2+y,-z
1/2-x,1/2-y,-z
1/2+x,1/2-y,z
loop_
_atom_site_type_symbol
_atom_site_label
_atom_site_fract_x
_atom_site_fract_y
_atom_site_fract_z
Si Si1 0.873848 0.795827 0.206591
Si Si2 0.284599 0.791395 0.765442
Si Si3 0.578400 0.794394 0.972048
Si Si4 0.597990 0.797190 0.376186
Si Si5 0.188006 0.704131 0.069322
Si Si6 0.832908 0.295986 0.480412
Si Si7 0.551793 0.300756 0.662156
O O1 0.794362 0.736471 0.240707
O O2 0.890971 0.756318 0.115703
O O3 0.930369 0.729461 0.257085
O O4 0.873235 0.000000 0.213866
O O5 0.346285 0.733334 0.697443
O O6 0.299869 0.732281 0.848254
O O7 0.284584 0.000000 0.764992
O O8 0.579637 0.000000 0.972937
O O9 0.500000 0.733673 0.000000
O O10 0.620894 0.731840 0.036869
O O11 0.624611 0.733598 0.452932
O O12 0.517452 0.767298 0.367082
O O13 0.606257 0.000000 0.377793
O O14 0.184014 0.500000 0.076089
O O15 0.250000 0.750000 0.000000
O O16 0.837068 0.500000 0.476536
O O17 0.750000 0.250000 0.500000
O O18 0.877154 0.226490 0.400577
O O19 0.538463 0.500000 0.672232
#
# Coordination Sequence:
#
# PCOD9185230 Si02
#       7
#     8   8   8   8   8   8   8
#     4  10  21  39  59  81 112 154 198 240 292 350
#     4   9  18  35  59  81 108 149 193 236 286 347
#     4  10  22  36  54  83 115 147 191 243 294 350
#     4  10  22  40  63  89 118 156 197 237 292 358
#     4  10  19  34  56  81 109 148 192 237 289 346
#     4  11  23  41  66  94 122 157 198 239 290 353
#     4  11  24  40  60  89 123 157 198 246 294 348
#
# _framework density 21.323170999999999
#
# number of rings (size 3 to 8) (size 9 to 14) (size 15 to 20)
#    0.000    1.857    1.429    2.143    2.000    6.571 
#    0.000    1.429    0.000    0.000    0.000    0.000 
#    0.000    0.000    0.000    0.000    0.000    0.000 
#
# Total GULP energy -156329.328343 kJ/mol
# GULP energy per Si atom -5583.190298 kJ/mol
# Density = 2.127464 g / cm^3
# Si number density = 21.323171 Si / 1000 Ang^3
#
#
#
# Elastic Constant Matrix: (Units=GPa)
#
#
# Indices 1 2 3 4 5 6 
#
# 1 130.8318 -3.3333 12.8700 0.0000 16.0401 0.0000
# 2 -3.3333 16.4654 -5.4514 0.0000 8.3184 0.0000
# 3 12.8700 -5.4514 72.2515 0.0000 17.6982 0.0000
# 4 0.0000 0.0000 0.0000 21.3771 0.0000 -7.3071
# 5 16.0401 8.3184 17.6982 0.0000 44.2404 0.0000
# 6 0.0000 0.0000 0.0000 -7.3071 0.0000 19.4169
#
#
#
# Elastic Compliance Matrix: (Units=1/GPa)
#
#
# Indices 1 2 3 4 5 6 
#
# 1 0.008184 0.003269 -0.000370 0.000000 -0.003434 0.000000
# 2 0.003269 0.074199 0.009671 0.000000 -0.019006 0.000000
# 3 -0.000370 0.009671 0.016684 0.000000 -0.008359 0.000000
# 4 0.000000 0.000000 0.000000 0.053685 0.000000 0.020203
# 5 -0.003434 -0.019006 -0.008359 0.000000 0.030766 0.000000
# 6 0.000000 0.000000 0.000000 0.020203 0.000000 0.059105
#
#
# Mechanical properties :
#
#
# Convention : Reuss Voigt Hill
#
# Bulk Modulus (GPa) = 8.05102 25.30217 16.67659
# Shear Modulus (GPa) = 19.31369 31.37110 25.34239
#
# Velocity S-wave (km/s) = 3.01285 3.83981 3.45119
# Velocity P-wave (km/s) = 3.98584 5.61700 4.87020
#
# Compressibility (1/GPa) = 0.12420788
#
# Stress axis : x y z
#
# Youngs Moduli (GPa) = 122.18825 13.47728 59.93900
#
# Poissons Ratio (x) = -0.04406 0.02218
# Poissons Ratio (y) = -0.39945 -0.57970
# Poissons Ratio (z) = 0.04521 -0.13035
#
# Static dielectric constant tensor:
#      x y z
#    x 1.638900 0.000000 -0.022770 
#    y 0.000000 1.784870 0.000000 
#    z -0.022770 0.000000 1.730350 
# 
# From -- ./inp_files/275032.got.cif
#   From: 2010.05.17/outbox.cif.g08.bks.cpg/sg12_138_cif.got.tgz:275032.got - 2010.06.03 13:09:07.
