data_PCOD9185800
_publ_section_title
;
Structure prediction by ZEFSAII (Michael W. Deem and Ramdas Pophale) SiO2 
 PCOD9185800
Probable space group: C 2/M
;
_chemical_formula_sum "Si O2"
_cell_formula_units_Z 48
_cell_length_a 31.065291
_cell_length_b 9.115234
_cell_length_c 19.649378
_cell_angle_alpha 90.000000
_cell_angle_beta 28.974889
_cell_angle_gamma 90.000000
_cell_volume 2695.378303
_symmetry_space_group_name_H-M "C 2/M"
_symmetry_group_IT_number 12
_symmetry_cell_setting 'monoclinic'
loop_
_space_group_symop_operation_xyz
x,y,z
-x,y,-z
-x,-y,-z
x,-y,z
1/2+x,1/2+y,z
1/2-x,1/2+y,-z
1/2-x,1/2-y,-z
1/2+x,1/2-y,z
loop_
_atom_site_type_symbol
_atom_site_label
_atom_site_fract_x
_atom_site_fract_y
_atom_site_fract_z
Si Si1 0.805233 0.824145 0.863184
Si Si2 0.807268 0.675086 0.116031
Si Si3 0.170527 0.672883 0.570042
Si Si4 0.514908 0.673145 0.180041
Si Si5 0.502215 0.327001 0.360711
Si Si6 0.681363 0.828254 0.392277
O O1 0.757872 0.791763 0.857572
O O2 0.908550 0.779622 0.723982
O O3 0.803560 0.000000 0.875946
O O4 0.750000 0.750000 0.000000
O O5 0.817348 0.500000 0.106782
O O6 0.759689 0.740287 0.247769
O O7 0.901036 0.750142 0.970475
O O8 0.166321 0.500000 0.591671
O O9 0.250000 0.750000 0.500000
O O10 0.185376 0.688107 0.468314
O O11 0.076796 0.750692 0.714882
O O12 0.513224 0.500000 0.167677
O O13 0.521656 0.689758 0.252934
O O14 0.485748 0.500000 0.396599
O O15 0.413733 0.237114 0.498932
O O16 0.687069 0.000000 0.367673
#
# Coordination Sequence:
#
# PCOD9185800 Si02
#       6
#     8   8   8   8   8   8
#     4  10  20  33  52  79 110 147 192 235 272 317
#     4  11  22  35  54  81 115 151 186 230 278 322
#     4  10  21  39  63  88 111 139 179 224 274 334
#     4  10  19  34  58  83 111 147 185 225 273 329
#     4   9  18  34  54  77 107 147 190 230 273 321
#     4  10  22  38  56  80 112 146 182 226 276 330
#
# _framework density 17.808261000000002
#
# number of rings (size 3 to 8) (size 9 to 14) (size 15 to 20)
#    0.000    2.000    1.667    2.000    0.000    4.667 
#    0.000    4.167    0.000    5.000    0.000    0.000 
#    0.000    0.000    0.000    0.000    0.000    0.000 
#
# Total GULP energy -134037.162032 kJ/mol
# GULP energy per Si atom -5584.881751 kJ/mol
# Density = 1.776773 g / cm^3
# Si number density = 17.808261 Si / 1000 Ang^3
#
#
#
# Elastic Constant Matrix: (Units=GPa)
#
#
# Indices 1 2 3 4 5 6 
#
# 1 76.7037 57.6005 48.9067 0.0001 -39.3303 -0.0001
# 2 57.6005 107.7099 85.7470 0.0017 -19.2286 -0.0012
# 3 48.9067 85.7470 133.5656 0.0017 -29.0396 -0.0006
# 4 0.0001 0.0017 0.0017 38.9403 -0.0006 -5.2260
# 5 -39.3303 -19.2286 -29.0396 -0.0006 30.1484 0.0002
# 6 -0.0001 -0.0012 -0.0006 -5.2260 0.0002 24.9627
#
#
#
# Elastic Compliance Matrix: (Units=1/GPa)
#
#
# Indices 1 2 3 4 5 6 
#
# 1 0.084067 -0.040715 0.017145 0.000002 0.100216 -0.000001
# 2 -0.040715 0.038713 -0.020396 -0.000001 -0.048070 0.000001
# 3 0.017145 -0.020396 0.020666 0.000000 0.029264 -0.000001
# 4 0.000002 -0.000001 0.000000 0.026423 0.000003 0.005532
# 5 0.100216 -0.048070 0.029264 0.000003 0.161436 -0.000002
# 6 -0.000001 0.000001 -0.000001 0.005532 -0.000002 0.041218
#
#
# Mechanical properties :
#
#
# Convention : Reuss Voigt Hill
#
# Bulk Modulus (GPa) = 18.01368 78.05418 48.03393
# Shear Modulus (GPa) = 10.43931 27.19195 18.81563
#
# Velocity S-wave (km/s) = 2.42380 3.91183 3.25401
# Velocity P-wave (km/s) = 4.23915 8.02052 6.41479
#
# Compressibility (1/GPa) = 0.05551335
#
# Stress axis : x y z
#
# Youngs Moduli (GPa) = 11.89529 25.83083 48.38959
#
# Poissons Ratio (x) = 1.05171 -0.82965
# Poissons Ratio (y) = 0.48432 0.98697
# Poissons Ratio (z) = -0.20395 0.52685
#
# Static dielectric constant tensor:
#      x y z
#    x 1.597750 0.000000 0.002360 
#    y 0.000000 1.591690 0.000000 
#    z 0.002360 0.000000 1.580470 
# 
# From -- ./inp_files/273591.got.cif
#   From: 2010.05.17/outbox.cif.g08.bks.cpg/sg12_137_cif.got.tgz:273591.got - 2010.06.03 13:09:07.
