data_PCOD9185288
_publ_section_title
;
Structure prediction by ZEFSAII (Michael W. Deem and Ramdas Pophale) SiO2 
 PCOD9185288
Probable space group: C 2/M
;
_chemical_formula_sum "Si O2"
_cell_formula_units_Z 48
_cell_length_a 11.567217
_cell_length_b 26.986368
_cell_length_c 14.853179
_cell_angle_alpha 90.000000
_cell_angle_beta 30.106341
_cell_angle_gamma 90.000000
_cell_volume 2325.711690
_symmetry_space_group_name_H-M "C 2/M"
_symmetry_group_IT_number 12
_symmetry_cell_setting 'monoclinic'
loop_
_space_group_symop_operation_xyz
x,y,z
-x,y,-z
-x,-y,-z
x,-y,z
1/2+x,1/2+y,z
1/2-x,1/2+y,-z
1/2-x,1/2-y,-z
1/2+x,1/2-y,z
loop_
_atom_site_type_symbol
_atom_site_label
_atom_site_fract_x
_atom_site_fract_y
_atom_site_fract_z
Si Si1 0.269758 0.194021 0.597639
Si Si2 0.196110 0.943760 0.444480
Si Si3 0.675970 0.689011 0.296412
Si Si4 0.071624 0.365524 0.132761
Si Si5 0.485640 0.608469 0.740585
Si Si6 0.940147 0.726964 0.758294
O O1 0.500000 0.199745 0.500000
O O2 0.354437 0.202162 0.438085
O O3 0.169775 0.139262 0.674787
O O4 0.069121 0.235779 0.741534
O O5 0.396704 0.903107 0.298975
O O6 0.000000 0.934737 0.500000
O O7 0.084367 0.937083 0.618409
O O8 0.278600 0.000000 0.376068
O O9 0.500000 0.694664 0.500000
O O10 0.914013 0.667091 0.171914
O O11 0.579143 0.647336 0.294752
O O12 0.691793 0.737897 0.223346
O O13 0.181491 0.321147 0.118508
O O14 0.260200 0.396979 0.952594
#
# Coordination Sequence:
#
# PCOD9185288 Si02
#       6
#     8   8   8   8   8   8
#     4  10  19  34  56  82 116 165 208 242 283 352
#     4  11  23  41  66  92 118 155 200 248 311 364
#     4  11  19  35  57  83 121 168 198 233 287 353
#     4  12  21  38  61  87 128 160 195 246 302 352
#     4  11  22  37  60  88 119 159 201 243 304 357
#     4  10  20  33  56  84 120 167 205 235 289 356
#
# _framework density 20.638843999999999
#
# number of rings (size 3 to 8) (size 9 to 14) (size 15 to 20)
#    0.000    1.167    5.000    4.000    0.000    4.000 
#    0.000    9.167    0.000    0.500    0.000    1.167 
#    0.000    0.000    0.000    0.000    0.000    0.000 
#
# Total GULP energy -133940.967807 kJ/mol
# GULP energy per Si atom -5580.873659 kJ/mol
# Density = 2.059187 g / cm^3
# Si number density = 20.638844 Si / 1000 Ang^3
#
#
#
# Elastic Constant Matrix: (Units=GPa)
#
#
# Indices 1 2 3 4 5 6 
#
# 1 44.9628 20.5320 10.8648 0.0002 2.9069 -0.0006
# 2 20.5320 97.8665 28.3776 0.0000 4.8375 0.0000
# 3 10.8648 28.3776 97.7790 0.0002 9.7025 -0.0008
# 4 0.0002 0.0000 0.0002 18.4395 -0.0001 4.5433
# 5 2.9069 4.8375 9.7025 -0.0001 14.8046 0.0006
# 6 -0.0006 0.0000 -0.0008 4.5433 0.0006 19.9391
#
#
#
# Elastic Compliance Matrix: (Units=1/GPa)
#
#
# Indices 1 2 3 4 5 6 
#
# 1 0.024853 -0.004760 -0.001123 0.000000 -0.002588 0.000001
# 2 -0.004760 0.012106 -0.002871 0.000000 -0.001139 0.000000
# 3 -0.001123 -0.002871 0.011840 0.000000 -0.006601 0.000001
# 4 0.000000 0.000000 0.000000 0.057457 0.000001 -0.013092
# 5 -0.002588 -0.001139 -0.006601 0.000001 0.072753 -0.000003
# 6 0.000001 0.000000 0.000001 -0.013092 -0.000003 0.053136
#
#
# Mechanical properties :
#
#
# Convention : Reuss Voigt Hill
#
# Bulk Modulus (GPa) = 31.95995 40.01748 35.98871
# Shear Modulus (GPa) = 19.22448 22.69223 20.95835
#
# Velocity S-wave (km/s) = 3.05531 3.31945 3.19012
# Velocity P-wave (km/s) = 5.28824 5.84151 5.57175
#
# Compressibility (1/GPa) = 0.03128916
#
# Stress axis : x y z
#
# Youngs Moduli (GPa) = 40.23629 82.60627 84.45752
#
# Poissons Ratio (x) = 0.39325 0.09486
# Poissons Ratio (y) = 0.19154 0.24250
# Poissons Ratio (z) = 0.04519 0.23719
#
# Static dielectric constant tensor:
#      x y z
#    x 1.815530 0.000000 0.022620 
#    y 0.000000 1.738260 0.000000 
#    z 0.022620 0.000000 1.789220 
# 
# From -- ./inp_files/209782.got.cif
#   From: 2010.05.17/outbox.cif.g08.bks.cpg/sg12_105_cif.got.tgz:209782.got - 2010.06.03 13:09:07.
