data_PCOD9185338
_publ_section_title
;
Structure prediction by ZEFSAII (Michael W. Deem and Ramdas Pophale) SiO2 
 PCOD9185338
Probable space group: C 2/M
;
_chemical_formula_sum "Si O2"
_cell_formula_units_Z 64
_cell_length_a 19.451927
_cell_length_b 13.815134
_cell_length_c 25.870728
_cell_angle_alpha 90.000000
_cell_angle_beta 29.659249
_cell_angle_gamma 90.000000
_cell_volume 3440.264460
_symmetry_space_group_name_H-M "C 2/M"
_symmetry_group_IT_number 12
_symmetry_cell_setting 'monoclinic'
loop_
_space_group_symop_operation_xyz
x,y,z
-x,y,-z
-x,-y,-z
x,-y,z
1/2+x,1/2+y,z
1/2-x,1/2+y,-z
1/2-x,1/2-y,-z
1/2+x,1/2-y,z
loop_
_atom_site_type_symbol
_atom_site_label
_atom_site_fract_x
_atom_site_fract_y
_atom_site_fract_z
Si Si1 0.293407 0.190179 0.858551
Si Si2 0.229225 0.894175 0.797975
Si Si3 0.952649 0.112205 0.839604
Si Si4 0.134202 0.385063 0.074077
Si Si5 0.489513 0.111779 0.449579
Si Si6 0.499494 0.270978 0.094139
Si Si7 0.940687 0.212785 0.326330
Si Si8 0.188113 0.614129 0.533501
O O1 0.288265 0.110599 0.817385
O O2 0.350838 0.151117 0.876291
O O3 0.396562 0.271907 0.769099
O O4 0.137579 0.224554 0.969967
O O5 0.357722 0.888830 0.674846
O O6 0.134060 0.799948 0.851347
O O7 0.159733 0.000000 0.837385
O O8 0.994594 0.139457 0.869744
O O9 0.049844 0.172630 0.737830
O O10 0.969593 0.000000 0.816747
O O11 0.786394 0.134479 0.948330
O O12 0.110839 0.500000 0.088343
O O13 0.020514 0.323546 0.116498
O O14 0.500000 0.156886 0.500000
O O15 0.387409 0.148202 0.470820
O O16 0.442778 0.000000 0.487775
O O17 0.872660 0.317625 0.381838
O O18 0.849737 0.139327 0.419440
O O19 0.163662 0.500000 0.556873
#
# Coordination Sequence:
#
# PCOD9185338 Si02
#       8
#     8   8   8   8   8   8   8   8
#     4  11  20  37  56  84 121 148 195 240 288 349
#     4  11  23  36  56  85 119 157 190 235 302 355
#     4  10  19  34  56  84 116 149 191 238 287 340
#     4  10  20  35  58  83 117 156 193 240 283 335
#     4   9  19  34  51  76 109 143 183 231 286 346
#     4  11  21  36  53  87 122 154 193 234 282 349
#     4  11  20  35  58  81 113 148 191 240 294 345
#     4  10  22  37  55  83 115 144 187 243 293 345
#
# _framework density 18.603221999999999
#
# number of rings (size 3 to 8) (size 9 to 14) (size 15 to 20)
#    0.000    1.625    3.750    2.250    1.750    2.500 
#    0.000    0.000    0.000    3.000    0.000    0.000 
#    0.000    6.750    0.000    0.000    0.000    0.000 
#
# Total GULP energy -178203.199062 kJ/mol
# GULP energy per Si atom -5568.849971 kJ/mol
# Density = 1.856088 g / cm^3
# Si number density = 18.603222 Si / 1000 Ang^3
#
#
#
# Elastic Constant Matrix: (Units=GPa)
#
#
# Indices 1 2 3 4 5 6 
#
# 1 68.4003 43.9273 30.4059 0.0001 10.7338 0.0000
# 2 43.9273 77.6445 29.5495 0.0003 10.0614 -0.0001
# 3 30.4059 29.5495 92.3376 0.0000 13.4010 0.0002
# 4 0.0001 0.0003 0.0000 17.9779 -0.0003 -12.0568
# 5 10.7338 10.0614 13.4010 -0.0003 19.4562 0.0000
# 6 0.0000 -0.0001 0.0002 -12.0568 0.0000 11.5414
#
#
#
# Elastic Compliance Matrix: (Units=1/GPa)
#
#
# Indices 1 2 3 4 5 6 
#
# 1 0.024662 -0.011948 -0.003577 0.000000 -0.004963 0.000000
# 2 -0.011948 0.020875 -0.002373 -0.000001 -0.002569 -0.000001
# 3 -0.003577 -0.002373 0.013669 -0.000001 -0.006214 -0.000001
# 4 0.000000 -0.000001 -0.000001 0.185784 0.000003 0.194080
# 5 -0.004963 -0.002569 -0.006214 0.000003 0.059744 0.000003
# 6 0.000000 -0.000001 -0.000001 0.194080 0.000003 0.289391
#
#
# Mechanical properties :
#
#
# Convention : Reuss Voigt Hill
#
# Bulk Modulus (GPa) = 42.71776 49.57199 46.14487
# Shear Modulus (GPa) = 7.84038 18.76174 13.30106
#
# Velocity S-wave (km/s) = 2.05516 3.17917 2.67682
# Velocity P-wave (km/s) = 5.35201 6.33885 5.86622
#
# Compressibility (1/GPa) = 0.02340947
#
# Stress axis : x y z
#
# Youngs Moduli (GPa) = 40.54842 47.90473 73.15811
#
# Poissons Ratio (x) = 0.57236 0.26169
# Poissons Ratio (y) = 0.48447 0.17361
# Poissons Ratio (z) = 0.14504 0.11368
#
# Static dielectric constant tensor:
#      x y z
#    x 1.683940 0.000000 -0.007590 
#    y 0.000000 1.669780 0.000000 
#    z -0.007590 0.000000 1.671660 
# 
# From -- ./inp_files/344006.got.cif
#   From: 2010.05.17/outbox.cif.g08.bks.cpg/sg12_173_cif.got.tgz:344006.got - 2010.06.03 13:09:07.
