data_PCOD9185974
_publ_section_title
;
Structure prediction by ZEFSAII (Michael W. Deem and Ramdas Pophale) SiO2 
 PCOD9185974
Probable space group: C 2/M
;
_chemical_formula_sum "Si O2"
_cell_formula_units_Z 56
_cell_length_a 14.873137
_cell_length_b 18.400865
_cell_length_c 12.317250
_cell_angle_alpha 90.000000
_cell_angle_beta 59.810191
_cell_angle_gamma 90.000000
_cell_volume 2913.743880
_symmetry_space_group_name_H-M "C 2/M"
_symmetry_group_IT_number 12
_symmetry_cell_setting 'monoclinic'
loop_
_space_group_symop_operation_xyz
x,y,z
-x,y,-z
-x,-y,-z
x,-y,z
1/2+x,1/2+y,z
1/2-x,1/2+y,-z
1/2-x,1/2-y,-z
1/2+x,1/2-y,z
loop_
_atom_site_type_symbol
_atom_site_label
_atom_site_fract_x
_atom_site_fract_y
_atom_site_fract_z
Si Si1 0.219909 0.224818 0.749488
Si Si2 0.501526 0.577698 0.369632
Si Si3 0.142000 0.724122 0.017126
Si Si4 0.533464 0.081965 0.105662
Si Si5 0.939823 0.235197 0.719317
Si Si6 0.622985 0.166813 0.639279
Si Si7 0.779262 0.084017 0.387554
O O1 0.142681 0.250520 0.893058
O O2 0.336586 0.232832 0.726444
O O3 0.197900 0.280079 0.663513
O O4 0.205617 0.142487 0.717787
O O5 0.500000 0.576173 0.500000
O O6 0.545972 0.500000 0.304287
O O7 0.560206 0.650373 0.303545
O O8 0.385500 0.583883 0.392697
O O9 0.250000 0.750000 0.000000
O O10 0.128456 0.638388 0.044264
O O11 0.059307 0.757798 0.150091
O O12 0.444803 0.116554 0.237141
O O13 0.557363 0.000000 0.126047
O O14 0.500000 0.080248 0.000000
O O15 0.042075 0.280514 0.624553
O O16 0.688516 0.116817 0.518478
O O17 0.758551 0.000000 0.368217
#
# Coordination Sequence:
#
# PCOD9185974 Si02
#       7
#     8   8   8   8   8   8   8
#     4  11  21  39  61  85 120 156 198 240 295 350
#     4  10  21  38  58  85 121 152 193 253 298 340
#     4   9  20  39  57  85 115 157 197 240 284 355
#     4  10  19  34  58  88 116 146 187 245 301 342
#     4  10  22  36  61  88 114 152 206 237 290 359
#     4  11  21  37  60  87 117 158 195 241 293 358
#     4  11  24  40  58  88 121 157 198 241 299 353
#
# _framework density 19.219259000000001
#
# number of rings (size 3 to 8) (size 9 to 14) (size 15 to 20)
#    0.000    1.714    2.857    1.714    2.000    0.000 
#    0.000   12.143    0.000    1.714    0.000    0.000 
#    0.000    0.000    0.000    0.000    0.000    0.000 
#
# Total GULP energy -156126.449571 kJ/mol
# GULP energy per Si atom -5575.944628 kJ/mol
# Density = 1.917552 g / cm^3
# Si number density = 19.219259 Si / 1000 Ang^3
#
#
#
# Elastic Constant Matrix: (Units=GPa)
#
#
# Indices 1 2 3 4 5 6 
#
# 1 79.6282 32.6284 1.3269 0.0000 10.1285 0.0000
# 2 32.6284 182.3101 43.2555 0.0000 13.7746 0.0000
# 3 1.3269 43.2555 50.5753 0.0000 6.8693 0.0000
# 4 0.0000 0.0000 0.0000 30.1875 0.0000 4.7813
# 5 10.1285 13.7746 6.8693 0.0000 9.8934 0.0000
# 6 0.0000 0.0000 0.0000 4.7813 0.0000 24.3944
#
#
#
# Elastic Compliance Matrix: (Units=1/GPa)
#
#
# Indices 1 2 3 4 5 6 
#
# 1 0.015428 -0.002534 0.003786 0.000000 -0.014895 0.000000
# 2 -0.002534 0.007644 -0.005938 0.000000 -0.003926 0.000000
# 3 0.003786 -0.005938 0.026671 0.000000 -0.014126 0.000000
# 4 0.000000 0.000000 0.000000 0.034188 0.000000 -0.006701
# 5 -0.014895 -0.003926 -0.014126 0.000000 0.131601 0.000000
# 6 0.000000 0.000000 0.000000 -0.006701 0.000000 0.042306
#
#
# Mechanical properties :
#
#
# Convention : Reuss Voigt Hill
#
# Bulk Modulus (GPa) = 24.77092 51.88167 38.32629
# Shear Modulus (GPa) = 17.81469 28.58191 23.19830
#
# Velocity S-wave (km/s) = 3.04784 3.86054 3.47801
# Velocity P-wave (km/s) = 5.03014 6.85018 6.00946
#
# Compressibility (1/GPa) = 0.04036992
#
# Stress axis : x y z
#
# Youngs Moduli (GPa) = 64.81624 130.81835 37.49451
#
# Poissons Ratio (x) = 0.33149 -0.14194
# Poissons Ratio (y) = 0.16424 0.22265
# Poissons Ratio (z) = -0.24537 0.77682
#
# Static dielectric constant tensor:
#      x y z
#    x 1.671700 0.000000 -0.019710 
#    y 0.000000 1.695710 0.000000 
#    z -0.019710 0.000000 1.758660 
# 
# From -- ./inp_files/146049.got.cif
#   From: 2010.05.17/outbox.cif.g08.bks.cpg/sg12_74_cif.got.tgz:146049.got - 2010.06.03 13:09:07.
