data_PCOD9185347
_publ_section_title
;
Structure prediction by ZEFSAII (Michael W. Deem and Ramdas Pophale) SiO2 
 PCOD9185347
Probable space group: C 2/M
;
_chemical_formula_sum "Si O2"
_cell_formula_units_Z 56
_cell_length_a 24.951556
_cell_length_b 14.648828
_cell_length_c 13.777508
_cell_angle_alpha 90.000000
_cell_angle_beta 30.592532
_cell_angle_gamma 90.000000
_cell_volume 2562.881776
_symmetry_space_group_name_H-M "C 2/M"
_symmetry_group_IT_number 12
_symmetry_cell_setting 'monoclinic'
loop_
_space_group_symop_operation_xyz
x,y,z
-x,y,-z
-x,-y,-z
x,-y,z
1/2+x,1/2+y,z
1/2-x,1/2+y,-z
1/2-x,1/2-y,-z
1/2+x,1/2-y,z
loop_
_atom_site_type_symbol
_atom_site_label
_atom_site_fract_x
_atom_site_fract_y
_atom_site_fract_z
Si Si1 0.581120 0.767413 0.817356
Si Si2 0.262020 0.596860 0.559890
Si Si3 0.842264 0.903625 0.225229
Si Si4 0.867486 0.394355 0.572792
Si Si5 0.592787 0.394071 0.478329
Si Si6 0.765766 0.240159 0.861104
Si Si7 0.978392 0.258929 0.768735
O O1 0.690831 0.817994 0.649445
O O2 0.594007 0.688629 0.881431
O O3 0.546752 0.750953 0.760640
O O4 0.500000 0.832981 0.000000
O O5 0.202882 0.500000 0.652609
O O6 0.337131 0.591713 0.349493
O O7 0.324551 0.604961 0.561506
O O8 0.725916 0.894555 0.362590
O O9 0.886659 0.000000 0.117559
O O10 0.886455 0.500000 0.569813
O O11 0.818920 0.331068 0.732979
O O12 0.969933 0.343905 0.370191
O O13 0.564685 0.500000 0.501427
O O14 0.655917 0.341407 0.294650
O O15 0.499811 0.329819 0.666570
O O16 0.750000 0.250000 0.000000
O O17 0.644584 0.229145 0.014530
#
# Coordination Sequence:
#
# PCOD9185347 Si02
#       7
#     8   8   8   8   8   8   8
#     4  12  21  31  54  87 123 162 199 235 288 350
#     4  10  19  34  56  84 121 158 188 227 283 351
#     4  10  19  34  56  84 121 158 188 227 283 351
#     4  10  22  41  65  93 125 163 204 247 303 368
#     4  10  22  41  65  93 125 163 204 247 303 368
#     4  11  26  46  64  88 121 156 205 270 325 362
#     4  11  22  39  63  91 121 161 210 257 298 362
#
# _framework density 21.850403
#
# number of rings (size 3 to 8) (size 9 to 14) (size 15 to 20)
#    0.000    1.429    2.857    3.857    0.000    4.571 
#    0.000    1.429    0.000    0.000    0.000    0.000 
#    0.000    0.000    0.000    0.000    0.000    0.000 
#
# Total GULP energy -156082.591279 kJ/mol
# GULP energy per Si atom -5574.378260 kJ/mol
# Density = 2.180067 g / cm^3
# Si number density = 21.850403 Si / 1000 Ang^3
#
#
#
# Elastic Constant Matrix: (Units=GPa)
#
#
# Indices 1 2 3 4 5 6 
#
# 1 59.9281 6.5160 -14.3990 0.0000 20.5476 0.0000
# 2 6.5160 118.7400 34.8126 0.0000 10.4165 0.0000
# 3 -14.3990 34.8126 71.9522 0.0000 15.3785 0.0000
# 4 0.0000 0.0000 0.0000 -23.6513 0.0000 -24.1693
# 5 20.5476 10.4165 15.3785 0.0000 38.3259 0.0000
# 6 0.0000 0.0000 0.0000 -24.1693 0.0000 -26.5379
#
#
#
# Elastic Compliance Matrix: (Units=1/GPa)
#
#
# Indices 1 2 3 4 5 6 
#
# 1 0.025112 -0.002835 0.009965 0.000000 -0.016691 0.000000
# 2 -0.002835 0.010158 -0.005707 0.000000 0.001049 0.000000
# 3 0.009965 -0.005707 0.021289 0.000000 -0.012334 0.000000
# 4 0.000000 0.000000 0.000000 -0.610074 0.000000 0.555623
# 5 -0.016691 0.001049 -0.012334 0.000000 0.039705 0.000000
# 6 0.000000 0.000000 0.000000 0.555623 0.000000 -0.543714
#
#
# Mechanical properties :
#
#
# Convention : Reuss Voigt Hill
#
# Bulk Modulus (GPa) = 16.83348 33.83103 25.33225
# Shear Modulus (GPa) = -4.80507 12.54007 3.86750
#
# Velocity S-wave (km/s) = -1.48454 2.39823 1.33185
# Velocity P-wave (km/s) = 2.18683 4.81511 3.73949
#
# Compressibility (1/GPa) = 0.05940544
#
# Stress axis : x y z
#
# Youngs Moduli (GPa) = 39.82155 98.44082 46.97185
#
# Poissons Ratio (x) = 0.27911 -0.46806
# Poissons Ratio (y) = 0.11290 0.26805
# Poissons Ratio (z) = -0.39681 0.56175
#
# Static dielectric constant tensor:
#      x y z
#    x 1.828230 0.000000 -0.095380 
#    y 0.000000 1.974660 0.000000 
#    z -0.095380 0.000000 2.046570 
# 
# From -- ./inp_files/246517.got.cif
#   From: 2010.05.17/outbox.cif.g08.bks.cpg/sg12_124_cif.got.tgz:246517.got - 2010.06.03 13:09:07.
