data_PCOD9185478
_publ_section_title
;
Structure prediction by ZEFSAII (Michael W. Deem and Ramdas Pophale) SiO2 
 PCOD9185478
Probable space group: C 2/M
;
_chemical_formula_sum "Si O2"
_cell_formula_units_Z 56
_cell_length_a 29.732465
_cell_length_b 9.545151
_cell_length_c 11.296927
_cell_angle_alpha 90.000000
_cell_angle_beta 68.475964
_cell_angle_gamma 90.000000
_cell_volume 2982.497809
_symmetry_space_group_name_H-M "C 2/M"
_symmetry_group_IT_number 12
_symmetry_cell_setting 'monoclinic'
loop_
_space_group_symop_operation_xyz
x,y,z
-x,y,-z
-x,-y,-z
x,-y,z
1/2+x,1/2+y,z
1/2-x,1/2+y,-z
1/2-x,1/2-y,-z
1/2+x,1/2-y,z
loop_
_atom_site_type_symbol
_atom_site_label
_atom_site_fract_x
_atom_site_fract_y
_atom_site_fract_z
Si Si1 0.628887 0.837977 0.897983
Si Si2 0.362274 0.342872 0.732428
Si Si3 0.536090 0.668019 0.076873
Si Si4 0.523061 0.663697 0.356820
Si Si5 0.303293 0.660634 0.313312
Si Si6 0.701984 0.840969 0.041379
Si Si7 0.213557 0.155908 0.390180
O O1 0.650219 0.750769 0.767884
O O2 0.616350 0.000000 0.884030
O O3 0.584194 0.755892 0.000299
O O4 0.674268 0.838503 0.943669
O O5 0.350879 0.500000 0.790248
O O6 0.419461 0.329214 0.678036
O O7 0.336895 0.225995 0.833775
O O8 0.336525 0.331982 0.630730
O O9 0.546842 0.500000 0.075208
O O10 0.515715 0.712903 0.226961
O O11 0.500000 0.686614 0.000000
O O12 0.500000 0.726363 0.500000
O O13 0.507506 0.500000 0.369192
O O14 0.308163 0.500000 0.268620
O O15 0.253520 0.730819 0.315706
O O16 0.296972 0.663642 0.460837
O O17 0.713778 0.000000 0.060826
O O18 0.750000 0.750000 0.000000
O O19 0.233811 0.000000 0.344537
#
# Coordination Sequence:
#
# PCOD9185478 Si02
#       7
#     8   8   8   8   8   8   8
#     4  11  23  38  56  80 114 152 191 235 288 348
#     4  10  19  34  57  81 110 146 186 232 284 344
#     4  10  21  38  62  89 114 146 194 249 297 351
#     4   9  18  34  58  86 114 146 187 239 297 352
#     4  10  20  34  54  80 113 151 190 235 283 340
#     4  11  23  36  54  82 115 151 190 234 283 340
#     4   9  19  34  52  79 113 150 190 234 285 344
#
# _framework density 18.776209000000001
#
# number of rings (size 3 to 8) (size 9 to 14) (size 15 to 20)
#    0.000    2.000    1.429    2.143    0.000    7.714 
#    0.000    4.286    0.000    1.714    0.000    0.000 
#    0.000    0.000    0.000    0.000    0.000    0.000 
#
# Total GULP energy -156095.670714 kJ/mol
# GULP energy per Si atom -5574.845383 kJ/mol
# Density = 1.873347 g / cm^3
# Si number density = 18.776209 Si / 1000 Ang^3
#
#
#
# Elastic Constant Matrix: (Units=GPa)
#
#
# Indices 1 2 3 4 5 6 
#
# 1 55.0596 33.6731 36.0990 0.0000 9.3951 0.0000
# 2 33.6731 109.9247 45.7642 0.0000 -9.9971 0.0000
# 3 36.0990 45.7642 95.1736 0.0000 -5.1088 0.0000
# 4 0.0000 0.0000 0.0000 18.2891 0.0000 -5.7949
# 5 9.3951 -9.9971 -5.1088 0.0000 25.9241 0.0000
# 6 0.0000 0.0000 0.0000 -5.7949 0.0000 22.8030
#
#
#
# Elastic Compliance Matrix: (Units=1/GPa)
#
#
# Indices 1 2 3 4 5 6 
#
# 1 0.031391 -0.007196 -0.009304 0.000000 -0.015985 0.000000
# 2 -0.007196 0.013318 -0.003294 0.000000 0.007095 0.000000
# 3 -0.009304 -0.003294 0.015901 0.000000 0.005235 0.000000
# 4 0.000000 0.000000 0.000000 0.059466 0.000000 0.015112
# 5 -0.015985 0.007095 0.005235 0.000000 0.048135 0.000000
# 6 0.000000 0.000000 0.000000 0.015112 0.000000 0.047694
#
#
# Mechanical properties :
#
#
# Convention : Reuss Voigt Hill
#
# Bulk Modulus (GPa) = 47.56971 54.58118 51.07544
# Shear Modulus (GPa) = 19.04766 23.04468 21.04617
#
# Velocity S-wave (km/s) = 3.18851 3.50713 3.35161
# Velocity P-wave (km/s) = 6.24064 6.74777 6.49915
#
# Compressibility (1/GPa) = 0.02102178
#
# Stress axis : x y z
#
# Youngs Moduli (GPa) = 31.85644 75.08662 62.88922
#
# Poissons Ratio (x) = 0.54033 0.58514
# Poissons Ratio (y) = 0.22924 0.20714
# Poissons Ratio (z) = 0.29640 0.24731
#
# Static dielectric constant tensor:
#      x y z
#    x 1.743770 0.000000 0.077100 
#    y 0.000000 1.660560 0.000000 
#    z 0.077100 0.000000 1.698370 
# 
# From -- ./inp_files/180755.got.cif
#   From: 2010.05.17/outbox.cif.g08.bks.cpg/sg12_91_cif.got.tgz:180755.got - 2010.06.03 13:09:07.
