data_PCOD9185459
_publ_section_title
;
Structure prediction by ZEFSAII (Michael W. Deem and Ramdas Pophale) SiO2 
 PCOD9185459
Probable space group: C 2/M
;
_chemical_formula_sum "Si O2"
_cell_formula_units_Z 64
_cell_length_a 13.313581
_cell_length_b 11.782860
_cell_length_c 29.731608
_cell_angle_alpha 90.000000
_cell_angle_beta 44.335984
_cell_angle_gamma 90.000000
_cell_volume 3259.545609
_symmetry_space_group_name_H-M "C 2/M"
_symmetry_group_IT_number 12
_symmetry_cell_setting 'monoclinic'
loop_
_space_group_symop_operation_xyz
x,y,z
-x,y,-z
-x,-y,-z
x,-y,z
1/2+x,1/2+y,z
1/2-x,1/2+y,-z
1/2-x,1/2-y,-z
1/2+x,1/2-y,z
loop_
_atom_site_type_symbol
_atom_site_label
_atom_site_fract_x
_atom_site_fract_y
_atom_site_fract_z
Si Si1 0.222033 0.874841 0.726061
Si Si2 0.616446 0.628831 0.996475
Si Si3 0.591005 0.666000 0.858819
Si Si4 0.640380 0.370740 0.425725
Si Si5 0.913180 0.374290 0.784979
Si Si6 0.876490 0.872468 0.675563
Si Si7 0.391791 0.700390 0.331202
Si Si8 0.064681 0.370004 0.116044
O O1 0.101693 0.874385 0.803882
O O2 0.297673 0.750417 0.709482
O O3 0.168572 0.869845 0.691882
O O4 0.296934 0.000000 0.707928
O O5 0.640247 0.500000 0.971073
O O6 0.538274 0.621854 0.069252
O O7 0.500000 0.683929 0.000000
O O8 0.776169 0.678035 0.946060
O O9 0.742576 0.636416 0.832637
O O10 0.560501 0.799483 0.866643
O O11 0.500000 0.345217 0.500000
O O12 0.687627 0.500000 0.421596
O O13 0.601793 0.370077 0.385050
O O14 0.765001 0.278249 0.391837
O O15 0.958923 0.500000 0.756394
O O16 0.949000 0.361780 0.825834
O O17 0.995653 0.284568 0.728927
O O18 0.020945 0.865580 0.658698
O O19 0.809129 0.000000 0.706629
O O20 0.058336 0.500000 0.104031
#
# Coordination Sequence:
#
# PCOD9185459 Si02
#       8
#     8   8   8   8   8   8   8   8
#     4  11  23  37  57  88 122 154 197 249 296 356
#     4  10  19  34  57  81 106 146 195 248 299 356
#     4  12  21  35  58  84 112 149 198 247 297 352
#     4   9  20  39  62  91 125 162 203 243 287 351
#     4  11  21  36  57  86 116 150 197 245 293 353
#     4  10  22  39  62  88 122 162 196 239 299 356
#     4  11  21  37  59  89 123 155 195 242 299 350
#     4  10  22  38  56  81 114 151 196 243 301 363
#
# _framework density 19.634637000000001
#
# number of rings (size 3 to 8) (size 9 to 14) (size 15 to 20)
#    0.000    1.500    3.750    2.250    0.000    2.000 
#    0.000    0.000    0.000    9.750    0.000    0.000 
#    0.000    0.000    0.000    0.000    0.000    0.000 
#
# Total GULP energy -178297.298070 kJ/mol
# GULP energy per Si atom -5571.790565 kJ/mol
# Density = 1.958995 g / cm^3
# Si number density = 19.634637 Si / 1000 Ang^3
#
#
#
# Elastic Constant Matrix: (Units=GPa)
#
#
# Indices 1 2 3 4 5 6 
#
# 1 51.9509 33.2086 -5.6511 0.0000 -0.0001 0.0000
# 2 33.2086 126.9627 30.9222 0.0000 -4.0596 0.0000
# 3 -5.6511 30.9222 73.2961 0.0000 -5.1124 0.0000
# 4 0.0000 0.0000 0.0000 18.9834 0.0000 -37.9444
# 5 -0.0001 -4.0596 -5.1124 0.0000 14.5722 0.0000
# 6 0.0000 0.0000 0.0000 -37.9444 0.0000 193.9791
#
#
#
# Elastic Compliance Matrix: (Units=1/GPa)
#
#
# Indices 1 2 3 4 5 6 
#
# 1 0.024758 -0.007741 0.005150 0.000000 -0.000350 0.000000
# 2 -0.007741 0.011218 -0.005240 0.000000 0.001287 0.000000
# 3 0.005150 -0.005240 0.016554 0.000000 0.004348 0.000000
# 4 0.000000 0.000000 0.000000 0.086497 0.000000 0.016920
# 5 -0.000350 0.001287 0.004348 0.000000 0.070508 0.000000
# 6 0.000000 0.000000 0.000000 0.016920 0.000000 0.008465
#
#
# Mechanical properties :
#
#
# Convention : Reuss Voigt Hill
#
# Bulk Modulus (GPa) = 27.12332 41.01878 34.07105
# Shear Modulus (GPa) = 20.32921 58.42226 39.37573
#
# Velocity S-wave (km/s) = 3.22121 5.46070 4.48305
# Velocity P-wave (km/s) = 5.26108 7.79073 6.64735
#
# Compressibility (1/GPa) = 0.03686864
#
# Stress axis : x y z
#
# Youngs Moduli (GPa) = 40.39167 89.13864 60.40734
#
# Poissons Ratio (x) = 0.69004 -0.31111
# Poissons Ratio (y) = 0.31268 0.31653
# Poissons Ratio (z) = -0.20803 0.46708
#
# Static dielectric constant tensor:
#      x y z
#    x 1.720660 0.000000 -0.014450 
#    y 0.000000 1.752230 0.000000 
#    z -0.014450 0.000000 1.680260 
# 
# From -- ./inp_files/376069.got.cif
#   From: 2010.05.17/outbox.cif.g08.bks.cpg/sg12_189_cif.got.tgz:376069.got - 2010.06.03 13:09:07.
