data_PCOD9185211
_publ_section_title
;
Structure prediction by ZEFSAII (Michael W. Deem and Ramdas Pophale) SiO2 
 PCOD9185211
Probable space group: C 2/M
;
_chemical_formula_sum "Si O2"
_cell_formula_units_Z 50
_cell_length_a 25.411374
_cell_length_b 7.957238
_cell_length_c 12.774743
_cell_angle_alpha 90.000000
_cell_angle_beta 81.258546
_cell_angle_gamma 90.000000
_cell_volume 2553.103715
_symmetry_space_group_name_H-M "C 2/M"
_symmetry_group_IT_number 12
_symmetry_cell_setting 'monoclinic'
loop_
_space_group_symop_operation_xyz
x,y,z
-x,y,-z
-x,-y,-z
x,-y,z
1/2+x,1/2+y,z
1/2-x,1/2+y,-z
1/2-x,1/2-y,-z
1/2+x,1/2-y,z
loop_
_atom_site_type_symbol
_atom_site_label
_atom_site_fract_x
_atom_site_fract_y
_atom_site_fract_z
Si Si1 0.397765 0.797717 0.685683
Si Si2 0.701847 0.797330 0.150179
Si Si3 0.432063 0.683535 0.066042
Si Si4 0.442717 0.689879 0.459646
Si Si5 0.990185 0.692104 0.243159
Si Si6 0.817413 0.699661 0.084379
Si Si7 0.000000 0.500000 0.000000
O O1 0.344915 0.736480 0.759604
O O2 0.402975 0.740145 0.564181
O O3 0.451719 0.753851 0.733525
O O4 0.397850 0.000000 0.684976
O O5 0.761640 0.740298 0.156792
O O6 0.701193 0.000000 0.151706
O O7 0.689236 0.744069 0.034870
O O8 0.438627 0.500000 0.013629
O O9 0.464860 0.692302 0.163777
O O10 0.370151 0.712441 0.109709
O O11 0.454099 0.847110 0.999136
O O12 0.500000 0.693327 0.500000
O O13 0.432227 0.500000 0.427616
O O14 0.451697 0.804578 0.355952
O O15 0.991848 0.500000 0.196353
O O16 0.825275 0.500000 0.084116
#
# Coordination Sequence:
#
# PCOD9185211 Si02
#       7
#     8   8   8   8   8   8   2
#     4   9  18  31  53  80 110 146 184 233 283 333
#     4   9  19  34  56  80 108 146 191 234 280 334
#     4  12  25  40  61  84 115 154 190 231 281 335
#     4   9  17  30  48  75 110 142 183 231 278 338
#     4  10  19  34  56  80 114 151 186 226 284 340
#     4  10  20  37  57  78 113 151 189 234 280 331
#     4  12  26  44  56  86 118 152 190 236 272 338
#
# _framework density 19.584007
#
# number of rings (size 3 to 8) (size 9 to 14) (size 15 to 20)
#    0.000    2.080    1.600    1.680    2.240    3.840 
#    0.000    0.000    0.000    0.960    0.000    0.000 
#    0.000    0.000    0.000    0.000    0.000    0.000 
#
# Total GULP energy -139300.049364 kJ/mol
# GULP energy per Si atom -5572.001975 kJ/mol
# Density = 1.953943 g / cm^3
# Si number density = 19.584007 Si / 1000 Ang^3
#
#
#
# Elastic Constant Matrix: (Units=GPa)
#
#
# Indices 1 2 3 4 5 6 
#
# 1 116.5077 34.6957 42.9517 0.0000 -32.9040 0.0000
# 2 34.6957 96.2667 27.1043 0.0000 -2.4488 0.0000
# 3 42.9517 27.1043 67.2556 0.0000 -32.4608 0.0000
# 4 0.0000 0.0000 0.0000 23.2395 0.0000 -5.9698
# 5 -32.9040 -2.4488 -32.4608 0.0000 33.0871 0.0000
# 6 0.0000 0.0000 0.0000 -5.9698 0.0000 22.1505
#
#
#
# Elastic Compliance Matrix: (Units=1/GPa)
#
#
# Indices 1 2 3 4 5 6 
#
# 1 0.013744 -0.004325 -0.001124 0.000000 0.012245 0.000000
# 2 -0.004325 0.014043 -0.008493 0.000000 -0.011594 0.000000
# 3 -0.001124 -0.008493 0.034505 0.000000 0.032105 0.000000
# 4 0.000000 0.000000 0.000000 0.046231 0.000000 0.012460
# 5 0.012245 -0.011594 0.032105 0.000000 0.073039 0.000000
# 6 0.000000 0.000000 0.000000 0.012460 0.000000 0.048504
#
#
# Mechanical properties :
#
#
# Convention : Reuss Voigt Hill
#
# Bulk Modulus (GPa) = 29.06457 54.39260 41.72858
# Shear Modulus (GPa) = 18.55841 27.38065 22.96953
#
# Velocity S-wave (km/s) = 3.08170 3.74319 3.42844
# Velocity P-wave (km/s) = 5.24745 6.82028 6.08490
#
# Compressibility (1/GPa) = 0.03440616
#
# Stress axis : x y z
#
# Youngs Moduli (GPa) = 72.75997 71.20954 28.98147
#
# Poissons Ratio (x) = 0.30801 0.03258
# Poissons Ratio (y) = 0.31472 0.24614
# Poissons Ratio (z) = 0.08180 0.60479
#
# Static dielectric constant tensor:
#      x y z
#    x 1.685390 0.000000 -0.024170 
#    y 0.000000 1.716140 0.000000 
#    z -0.024170 0.000000 1.557060 
# 
# From -- ./inp_files/230082.got.cif
#   From: 2010.05.17/outbox.cif.g08.bks.cpg/sg12_116_cif.got.tgz:230082.got - 2010.06.03 13:09:07.
