data_PCOD9185312
_publ_section_title
;
Structure prediction by ZEFSAII (Michael W. Deem and Ramdas Pophale) SiO2 
 PCOD9185312
Probable space group: C 2/M
;
_chemical_formula_sum "Si O2"
_cell_formula_units_Z 64
_cell_length_a 19.677505
_cell_length_b 9.134700
_cell_length_c 23.309791
_cell_angle_alpha 90.000000
_cell_angle_beta 130.275489
_cell_angle_gamma 90.000000
_cell_volume 3196.656016
_symmetry_space_group_name_H-M "C 2/M"
_symmetry_group_IT_number 12
_symmetry_cell_setting 'monoclinic'
loop_
_space_group_symop_operation_xyz
x,y,z
-x,y,-z
-x,-y,-z
x,-y,z
1/2+x,1/2+y,z
1/2-x,1/2+y,-z
1/2-x,1/2-y,-z
1/2+x,1/2-y,z
loop_
_atom_site_type_symbol
_atom_site_label
_atom_site_fract_x
_atom_site_fract_y
_atom_site_fract_z
Si Si1 0.027778 0.830435 0.452798
Si Si2 0.325183 0.667523 0.325561
Si Si3 0.230648 0.169894 0.369662
Si Si4 0.939114 0.831276 0.809052
Si Si5 0.735263 0.825739 0.820060
Si Si6 0.952153 0.671326 0.223438
Si Si7 0.912696 0.325931 0.915125
Si Si8 0.381102 0.828345 0.598147
O O1 0.930329 0.833680 0.370103
O O2 0.000000 0.771300 0.500000
O O3 0.094326 0.739071 0.449986
O O4 0.058060 0.000000 0.475940
O O5 0.292716 0.500000 0.306547
O O6 0.304157 0.735713 0.376280
O O7 0.279750 0.764165 0.252092
O O8 0.194444 0.240541 0.408462
O O9 0.146762 0.176244 0.279697
O O10 0.255821 0.000000 0.390647
O O11 0.019064 0.770115 0.813999
O O12 0.926109 0.735502 0.858407
O O13 0.951786 0.000000 0.832273
O O14 0.645073 0.792256 0.805401
O O15 0.824187 0.750177 0.891556
O O16 0.746274 0.000000 0.823677
O O17 0.952867 0.500000 0.207049
O O18 0.028482 0.686221 0.314023
O O19 0.899971 0.500000 0.906536
O O20 0.000000 0.292827 0.000000
O O21 0.359326 0.000000 0.582597
#
# Coordination Sequence:
#
# PCOD9185312 Si02
#       8
#     8   8   8   8   8   8   8   8
#     4  10  22  39  57  81 116 154 190 231 282 339
#     4  11  21  34  57  85 113 147 188 234 280 330
#     4  10  20  34  55  84 115 145 184 234 283 331
#     4  10  20  34  56  84 113 147 186 230 279 333
#     4  11  21  36  58  86 115 145 186 233 281 331
#     4   9  19  34  55  83 115 145 180 233 282 329
#     4  11  24  40  58  82 115 153 190 230 279 334
#     4  10  19  34  56  83 114 147 187 232 282 335
#
# _framework density 20.020921999999999
#
# number of rings (size 3 to 8) (size 9 to 14) (size 15 to 20)
#    0.000    1.750    2.500    2.250    0.000    4.250 
#    0.000    1.250    0.000    0.000    0.000    0.000 
#    0.000    0.000    0.000    0.000    0.000    0.000 
#
# Total GULP energy -178863.262950 kJ/mol
# GULP energy per Si atom -5589.476967 kJ/mol
# Density = 1.997535 g / cm^3
# Si number density = 20.020922 Si / 1000 Ang^3
#
#
#
# Elastic Constant Matrix: (Units=GPa)
#
#
# Indices 1 2 3 4 5 6 
#
# 1 118.5467 57.6038 12.0496 0.0000 3.9048 0.0000
# 2 57.6038 72.2809 15.8876 0.0000 0.7137 0.0000
# 3 12.0496 15.8876 50.5465 0.0000 9.3504 0.0000
# 4 0.0000 0.0000 0.0000 20.5861 0.0000 -4.9879
# 5 3.9048 0.7137 9.3504 0.0000 26.2110 0.0000
# 6 0.0000 0.0000 0.0000 -4.9879 0.0000 35.7827
#
#
#
# Elastic Compliance Matrix: (Units=1/GPa)
#
#
# Indices 1 2 3 4 5 6 
#
# 1 0.013861 -0.011151 0.000564 0.000000 -0.001962 0.000000
# 2 -0.011151 0.023877 -0.005389 0.000000 0.002934 0.000000
# 3 0.000564 -0.005389 0.022839 0.000000 -0.008085 0.000000
# 4 0.000000 0.000000 0.000000 0.050274 0.000000 0.007008
# 5 -0.001962 0.002934 -0.008085 0.000000 0.041248 0.000000
# 6 0.000000 0.000000 0.000000 0.007008 0.000000 0.028923
#
#
# Mechanical properties :
#
#
# Convention : Reuss Voigt Hill
#
# Bulk Modulus (GPa) = 34.93604 45.82844 40.38224
# Shear Modulus (GPa) = 22.46994 26.90484 24.68739
#
# Velocity S-wave (km/s) = 3.35374 3.66981 3.51533
# Velocity P-wave (km/s) = 5.69951 6.39505 6.05727
#
# Compressibility (1/GPa) = 0.02862374
#
# Stress axis : x y z
#
# Youngs Moduli (GPa) = 72.14263 41.88043 43.78483
#
# Poissons Ratio (x) = 0.46702 -0.02468
# Poissons Ratio (y) = 0.80448 0.23598
# Poissons Ratio (z) = -0.04066 0.22571
#
# Static dielectric constant tensor:
#      x y z
#    x 1.695180 0.000000 0.023790 
#    y 0.000000 1.673350 0.000000 
#    z 0.023790 0.000000 1.733220 
# 
# From -- ./inp_files/346277.got.cif
#   From: 2010.05.17/outbox.cif.g08.bks.cpg/sg12_174_cif.got.tgz:346277.got - 2010.06.03 13:09:07.
