data_PCOD9185328
_publ_section_title
;
Structure prediction by ZEFSAII (Michael W. Deem and Ramdas Pophale) SiO2 
 PCOD9185328
Probable space group: C 2/M
;
_chemical_formula_sum "Si O2"
_cell_formula_units_Z 48
_cell_length_a 23.040511
_cell_length_b 13.929393
_cell_length_c 14.025458
_cell_angle_alpha 90.000000
_cell_angle_beta 150.051994
_cell_angle_gamma 90.000000
_cell_volume 2247.129102
_symmetry_space_group_name_H-M "C 2/M"
_symmetry_group_IT_number 12
_symmetry_cell_setting 'monoclinic'
loop_
_space_group_symop_operation_xyz
x,y,z
-x,y,-z
-x,-y,-z
x,-y,z
1/2+x,1/2+y,z
1/2-x,1/2+y,-z
1/2-x,1/2-y,-z
1/2+x,1/2-y,z
loop_
_atom_site_type_symbol
_atom_site_label
_atom_site_fract_x
_atom_site_fract_y
_atom_site_fract_z
Si Si1 0.453097 0.606530 0.660894
Si Si2 0.238071 0.766493 0.693331
Si Si3 0.133723 0.305251 0.715166
Si Si4 0.541850 0.893068 0.949627
Si Si5 0.190816 0.891518 0.897078
Si Si6 0.588851 0.286805 0.214963
O O1 0.413661 0.500000 0.578772
O O2 0.382982 0.681623 0.498123
O O3 0.589200 0.613132 0.832356
O O4 0.420927 0.628857 0.723855
O O5 0.213115 0.683835 0.733920
O O6 0.291110 0.731292 0.668540
O O7 0.331903 0.843573 0.866892
O O8 0.155426 0.193663 0.775491
O O9 0.000000 0.324194 0.500000
O O10 0.187761 0.365693 0.878992
O O11 0.455423 0.809161 0.792065
O O12 0.539994 0.000000 0.904381
O O13 0.500000 0.903220 0.000000
O O14 0.191241 0.000000 0.858532
O O15 0.500000 0.302302 0.000000
#
# Coordination Sequence:
#
# PCOD9185328 Si02
#       6
#     8   8   8   8   8   8
#     4  11  21  35  56  84 118 153 195 247 299 353
#     4  10  19  34  56  84 114 154 196 243 297 352
#     4  11  22  41  64  86 122 162 203 250 304 355
#     4   8  15  29  50  74 102 137 180 229 286 343
#     4  10  23  40  62  93 122 156 204 251 301 362
#     4   9  19  34  53  79 112 152 193 239 294 358
#
# _framework density 21.360589000000001
#
# number of rings (size 3 to 8) (size 9 to 14) (size 15 to 20)
#    0.000    2.500    1.667    3.000    0.000    3.000 
#    0.000    0.833    0.000    1.000    0.000    0.000 
#    0.000    0.000    0.000    0.000    0.000    0.000 
#
# Total GULP energy -133855.953166 kJ/mol
# GULP energy per Si atom -5577.331382 kJ/mol
# Density = 2.131197 g / cm^3
# Si number density = 21.360589 Si / 1000 Ang^3
#
#
#
# Elastic Constant Matrix: (Units=GPa)
#
#
# Indices 1 2 3 4 5 6 
#
# 1 57.2033 1.0013 2.5131 0.0000 11.0262 0.0000
# 2 1.0013 22.2732 -3.6917 0.0000 4.7534 0.0000
# 3 2.5131 -3.6917 89.7844 0.0000 14.0891 0.0000
# 4 0.0000 0.0000 0.0000 12.1786 0.0000 -3.2545
# 5 11.0262 4.7534 14.0891 0.0000 26.9646 0.0000
# 6 0.0000 0.0000 0.0000 -3.2545 0.0000 14.4100
#
#
#
# Elastic Compliance Matrix: (Units=1/GPa)
#
#
# Indices 1 2 3 4 5 6 
#
# 1 0.019048 0.001077 0.000831 0.000000 -0.008413 0.000000
# 2 0.001077 0.047742 0.003619 0.000000 -0.010748 0.000000
# 3 0.000831 0.003619 0.012437 0.000000 -0.007476 0.000000
# 4 0.000000 0.000000 0.000000 0.087385 0.000000 0.019736
# 5 -0.008413 -0.010748 -0.007476 0.000000 0.046327 0.000000
# 6 0.000000 0.000000 0.000000 0.019736 0.000000 0.073854
#
#
# Mechanical properties :
#
#
# Convention : Reuss Voigt Hill
#
# Bulk Modulus (GPa) = 11.07640 18.76735 14.92188
# Shear Modulus (GPa) = 16.34891 22.00653 19.17772
#
# Velocity S-wave (km/s) = 2.76955 3.21322 2.99960
# Velocity P-wave (km/s) = 3.92732 4.75094 4.35863
#
# Compressibility (1/GPa) = 0.09028207
#
# Stress axis : x y z
#
# Youngs Moduli (GPa) = 52.49946 20.94582 80.40843
#
# Poissons Ratio (x) = -0.02256 -0.06685
# Poissons Ratio (y) = -0.05654 -0.29103
# Poissons Ratio (z) = -0.04365 -0.07581
#
# Static dielectric constant tensor:
#      x y z
#    x 1.799500 0.000000 0.011320 
#    y 0.000000 1.789710 0.000000 
#    z 0.011320 0.000000 1.785020 
# 
# From -- ./inp_files/143893.got.cif
#   From: 2010.05.17/outbox.cif.g08.bks.cpg/sg12_72_cif.got.tgz:143893.got - 2010.06.03 13:09:07.
