data_PCOD9185196
_publ_section_title
;
Structure prediction by ZEFSAII (Michael W. Deem and Ramdas Pophale) SiO2 
 PCOD9185196
Probable space group: C 2/M
;
_chemical_formula_sum "Si O2"
_cell_formula_units_Z 56
_cell_length_a 24.678822
_cell_length_b 7.880164
_cell_length_c 15.136989
_cell_angle_alpha 90.000000
_cell_angle_beta 110.229763
_cell_angle_gamma 90.000000
_cell_volume 2762.149330
_symmetry_space_group_name_H-M "C 2/M"
_symmetry_group_IT_number 12
_symmetry_cell_setting 'monoclinic'
loop_
_space_group_symop_operation_xyz
x,y,z
-x,y,-z
-x,-y,-z
x,-y,z
1/2+x,1/2+y,z
1/2-x,1/2+y,-z
1/2-x,1/2-y,-z
1/2+x,1/2-y,z
loop_
_atom_site_type_symbol
_atom_site_label
_atom_site_fract_x
_atom_site_fract_y
_atom_site_fract_z
Si Si1 0.432510 0.292759 0.303187
Si Si2 0.939982 0.200864 0.663082
Si Si3 0.859706 0.694656 0.772250
Si Si4 0.676217 0.704117 0.871292
Si Si5 0.251579 0.696404 0.603215
Si Si6 0.805632 0.705372 0.917915
Si Si7 0.876444 0.205452 0.452512
O O1 0.432460 0.500000 0.297912
O O2 0.494950 0.231178 0.306513
O O3 0.378611 0.232008 0.214160
O O4 0.419652 0.250232 0.397751
O O5 0.908202 0.225061 0.737769
O O6 0.900419 0.267700 0.560265
O O7 0.944196 0.000000 0.649022
O O8 0.876849 0.500000 0.794142
O O9 0.799628 0.703078 0.684257
O O10 0.844750 0.770282 0.859610
O O11 0.677130 0.500000 0.863058
O O12 0.739025 0.766438 0.873634
O O13 0.672604 0.746950 0.972759
O O14 0.268327 0.500000 0.617632
O O15 0.250000 0.750000 0.500000
O O16 0.187160 0.724797 0.602148
O O17 0.804367 0.500000 0.911004
O O18 0.870943 0.000000 0.451950
#
# Coordination Sequence:
#
# PCOD9185196 Si02
#       7
#     8   8   8   8   8   8   8
#     4   9  18  34  56  81 108 143 185 224 271 323
#     4  10  20  34  54  79 109 146 187 225 262 319
#     4  11  22  37  56  78 110 147 180 221 273 325
#     4   9  17  33  57  81 105 134 175 226 270 319
#     4  12  23  35  53  79 111 143 177 220 266 317
#     4   9  19  35  56  81 107 137 172 218 278 330
#     4  10  19  34  56  80 109 145 183 224 269 320
#
# _framework density 20.274066999999999
#
# number of rings (size 3 to 8) (size 9 to 14) (size 15 to 20)
#    0.000    2.000    1.429    3.000    0.000    5.143 
#    0.000    5.714    0.000    6.000    0.000    0.000 
#    0.000    0.000    0.000    0.000    0.000    0.000 
#
# Total GULP energy -156373.041141 kJ/mol
# GULP energy per Si atom -5584.751469 kJ/mol
# Density = 2.022792 g / cm^3
# Si number density = 20.274067 Si / 1000 Ang^3
#
#
#
# Elastic Constant Matrix: (Units=GPa)
#
#
# Indices 1 2 3 4 5 6 
#
# 1 115.9060 -0.9268 33.1255 0.0000 -19.5590 0.0000
# 2 -0.9268 23.8048 -3.9747 0.0000 2.7299 0.0000
# 3 33.1255 -3.9747 58.9938 0.0000 -17.8595 0.0000
# 4 0.0000 0.0000 0.0000 19.0209 0.0000 -3.7795
# 5 -19.5590 2.7299 -17.8595 0.0000 27.4987 0.0000
# 6 0.0000 0.0000 0.0000 -3.7795 0.0000 15.5039
#
#
#
# Elastic Compliance Matrix: (Units=1/GPa)
#
#
# Indices 1 2 3 4 5 6 
#
# 1 0.010749 -0.000901 -0.004674 0.000000 0.004700 0.000000
# 2 -0.000901 0.042753 0.002374 0.000000 -0.003343 0.000000
# 3 -0.004674 0.002374 0.023224 0.000000 0.011523 0.000000
# 4 0.000000 0.000000 0.000000 0.055250 0.000000 0.013469
# 5 0.004700 -0.003343 0.011523 0.000000 0.047524 0.000000
# 6 0.000000 0.000000 0.000000 0.013469 0.000000 0.067783
#
#
# Mechanical properties :
#
#
# Convention : Reuss Voigt Hill
#
# Bulk Modulus (GPa) = 14.21962 28.35029 21.28495
# Shear Modulus (GPa) = 18.04235 23.77005 20.90620
#
# Velocity S-wave (km/s) = 2.98639 3.42780 3.21468
# Velocity P-wave (km/s) = 4.34975 5.44796 4.92953
#
# Compressibility (1/GPa) = 0.07032539
#
# Stress axis : x y z
#
# Youngs Moduli (GPa) = 93.02955 23.39013 43.05958
#
# Poissons Ratio (x) = 0.02107 0.20125
# Poissons Ratio (y) = 0.08380 -0.10223
# Poissons Ratio (z) = 0.43480 -0.05553
#
# Static dielectric constant tensor:
#      x y z
#    x 1.727010 0.000000 -0.007220 
#    y 0.000000 1.750560 0.000000 
#    z -0.007220 0.000000 1.701900 
# 
# From -- ./inp_files/237447.got.cif
#   From: 2010.05.17/outbox.cif.g08.bks.cpg/sg12_119_cif.got.tgz:237447.got - 2010.06.03 13:09:07.
