data_PCOD9185159
_publ_section_title
;
Structure prediction by ZEFSAII (Michael W. Deem and Ramdas Pophale) SiO2 
 PCOD9185159
Probable space group: C 2/M
;
_chemical_formula_sum "Si O2"
_cell_formula_units_Z 56
_cell_length_a 14.873007
_cell_length_b 8.710212
_cell_length_c 26.861193
_cell_angle_alpha 90.000000
_cell_angle_beta 64.748131
_cell_angle_gamma 90.000000
_cell_volume 3147.263878
_symmetry_space_group_name_H-M "C 2/M"
_symmetry_group_IT_number 12
_symmetry_cell_setting 'monoclinic'
loop_
_space_group_symop_operation_xyz
x,y,z
-x,y,-z
-x,-y,-z
x,-y,z
1/2+x,1/2+y,z
1/2-x,1/2+y,-z
1/2-x,1/2-y,-z
1/2+x,1/2-y,z
loop_
_atom_site_type_symbol
_atom_site_label
_atom_site_fract_x
_atom_site_fract_y
_atom_site_fract_z
Si Si1 0.681970 0.683733 0.766186
Si Si2 0.550791 0.314237 0.936315
Si Si3 0.990445 0.818193 0.560623
Si Si4 0.535697 0.686120 0.148612
Si Si5 0.242606 0.184747 0.149098
Si Si6 0.681522 0.181435 0.559566
Si Si7 0.236303 0.816677 0.354888
O O1 0.685474 0.500000 0.770466
O O2 0.565821 0.731772 0.798997
O O3 0.741986 0.756163 0.798208
O O4 0.726197 0.735098 0.703364
O O5 0.559249 0.500000 0.933389
O O6 0.484171 0.268465 0.904119
O O7 0.660568 0.245738 0.903063
O O8 0.500000 0.268603 0.000000
O O9 0.880083 0.793514 0.606712
O O10 0.000000 0.778099 0.500000
O O11 0.069648 0.722815 0.572616
O O12 0.013935 0.000000 0.558996
O O13 0.539315 0.500000 0.148620
O O14 0.638741 0.738911 0.148937
O O15 0.243505 0.000000 0.148880
O O16 0.750000 0.250000 0.500000
O O17 0.709300 0.239286 0.607855
O O18 0.698889 0.000000 0.555720
O O19 0.252866 0.000000 0.345459
#
# Coordination Sequence:
#
# PCOD9185159 Si02
#       7
#     8   8   8   8   8   8   8
#     4  10  21  38  57  78 106 139 182 226 271 328
#     4   9  18  34  54  79 114 151 185 222 267 319
#     4  10  20  38  58  78 108 145 178 216 273 329
#     4   8  17  34  54  76 106 145 181 219 270 322
#     4  10  19  34  56  79 107 143 184 227 274 321
#     4  11  22  37  57  82 110 141 179 220 267 327
#     4  10  22  39  57  79 111 143 176 222 277 330
#
# _framework density 17.793234000000002
#
# number of rings (size 3 to 8) (size 9 to 14) (size 15 to 20)
#    0.000    2.286    1.429    2.143    0.000    4.000 
#    0.000   11.429    0.000    0.000    0.000    0.000 
#    0.000    0.000    0.000    0.000    0.000    0.000 
#
# Total GULP energy -156217.260504 kJ/mol
# GULP energy per Si atom -5579.187875 kJ/mol
# Density = 1.775274 g / cm^3
# Si number density = 17.793234 Si / 1000 Ang^3
#
#
#
# Elastic Constant Matrix: (Units=GPa)
#
#
# Indices 1 2 3 4 5 6 
#
# 1 130.6602 31.6618 63.4274 0.0000 7.8596 0.0000
# 2 31.6618 30.0279 35.9948 0.0000 2.6910 0.0000
# 3 63.4274 35.9948 152.9179 0.0000 11.6400 0.0000
# 4 0.0000 0.0000 0.0000 29.7777 0.0000 -3.1467
# 5 7.8596 2.6910 11.6400 0.0000 11.9406 0.0000
# 6 0.0000 0.0000 0.0000 -3.1467 0.0000 28.0718
#
#
#
# Elastic Compliance Matrix: (Units=1/GPa)
#
#
# Indices 1 2 3 4 5 6 
#
# 1 0.011048 -0.008583 -0.002329 0.000000 -0.003068 0.000000
# 2 -0.008583 0.053061 -0.009127 0.000000 0.002588 0.000000
# 3 -0.002329 -0.009127 0.010132 0.000000 -0.006288 0.000000
# 4 0.000000 0.000000 0.000000 0.033985 0.000000 0.003810
# 5 -0.003068 0.002588 -0.006288 0.000000 0.091313 0.000000
# 6 0.000000 0.000000 0.000000 0.003810 0.000000 0.036050
#
#
# Mechanical properties :
#
#
# Convention : Reuss Voigt Hill
#
# Bulk Modulus (GPa) = 29.27026 63.97489 46.62258
# Shear Modulus (GPa) = 17.41827 26.12615 21.77221
#
# Velocity S-wave (km/s) = 3.13217 3.83602 3.50183
# Velocity P-wave (km/s) = 5.43752 7.46008 6.52761
#
# Compressibility (1/GPa) = 0.03416437
#
# Stress axis : x y z
#
# Youngs Moduli (GPa) = 90.51154 18.84623 98.69414
#
# Poissons Ratio (x) = 0.16176 0.22984
# Poissons Ratio (y) = 0.77687 0.90076
# Poissons Ratio (z) = 0.21078 0.17201
#
# Static dielectric constant tensor:
#      x y z
#    x 1.605440 0.000000 0.002600 
#    y 0.000000 1.606140 0.000000 
#    z 0.002600 0.000000 1.587380 
# 
# From -- ./inp_files/359652.got.cif
#   From: 2010.05.17/outbox.cif.g08.bks.cpg/sg12_180_cif.got.tgz:359652.got - 2010.06.03 13:09:07.
