data_PCOD9185901
_publ_section_title
;
Structure prediction by ZEFSAII (Michael W. Deem and Ramdas Pophale) SiO2 
 PCOD9185901
Probable space group: C 2/M
;
_chemical_formula_sum "Si O2"
_cell_formula_units_Z 40
_cell_length_a 8.648131
_cell_length_b 21.464608
_cell_length_c 19.798053
_cell_angle_alpha 90.000000
_cell_angle_beta 30.058655
_cell_angle_gamma 90.000000
_cell_volume 1840.801094
_symmetry_space_group_name_H-M "C 2/M"
_symmetry_group_IT_number 12
_symmetry_cell_setting 'monoclinic'
loop_
_space_group_symop_operation_xyz
x,y,z
-x,y,-z
-x,-y,-z
x,-y,z
1/2+x,1/2+y,z
1/2-x,1/2+y,-z
1/2-x,1/2-y,-z
1/2+x,1/2-y,z
loop_
_atom_site_type_symbol
_atom_site_label
_atom_site_fract_x
_atom_site_fract_y
_atom_site_fract_z
Si Si1 0.215654 0.682485 0.303113
Si Si2 0.939505 0.570018 0.206755
Si Si3 0.144740 0.810897 0.269725
Si Si4 0.645331 0.930255 0.610016
Si Si5 0.333560 0.335429 0.993275
O O1 0.080029 0.750894 0.339628
O O2 0.403499 0.684739 0.301100
O O3 0.971518 0.626587 0.390655
O O4 0.455497 0.669061 0.151399
O O5 0.841688 0.500000 0.228368
O O6 0.680193 0.622770 0.293185
O O7 0.028996 0.573109 0.251525
O O8 0.216186 0.594380 0.055190
O O9 0.501266 0.801907 0.109137
O O10 0.000000 0.925573 0.500000
O O11 0.600532 0.000000 0.598212
O O12 0.500000 0.313885 0.000000
#
# Coordination Sequence:
#
# PCOD9185901 Si02
#       5
#     8   8   8   8   8
#     4  12  20  39  58  87 120 155 195 237 290 345
#     4   9  20  38  57  82 116 150 191 235 291 346
#     4  10  23  35  59  90 120 156 190 238 294 342
#     4  10  22  41  64  86 113 152 196 242 291 345
#     4  10  19  34  58  85 120 153 191 230 289 348
#
# _framework density 21.729668
#
# number of rings (size 3 to 8) (size 9 to 14) (size 15 to 20)
#    1.200    0.600    2.000    3.600    0.000    2.000 
#    0.000    6.000    0.000    3.600    0.000    0.000 
#    0.000    0.000    0.000    0.000    0.000    0.000 
#
# Total GULP energy -111577.828219 kJ/mol
# GULP energy per Si atom -5578.891411 kJ/mol
# Density = 2.168021 g / cm^3
# Si number density = 21.729668 Si / 1000 Ang^3
#
#
#
# Elastic Constant Matrix: (Units=GPa)
#
#
# Indices 1 2 3 4 5 6 
#
# 1 119.5699 82.8687 3.0438 0.0129 -36.4149 -0.0013
# 2 82.8687 222.9614 29.9813 -0.0024 -36.4180 -0.0005
# 3 3.0438 29.9813 71.9434 0.0083 -10.7199 -0.0084
# 4 0.0129 -0.0024 0.0083 6.0765 -0.0311 -13.7225
# 5 -36.4149 -36.4180 -10.7199 -0.0311 29.3706 0.0013
# 6 -0.0013 -0.0005 -0.0084 -13.7225 0.0013 27.3147
#
#
#
# Elastic Compliance Matrix: (Units=1/GPa)
#
#
# Indices 1 2 3 4 5 6 
#
# 1 0.015733 -0.003644 0.003264 -0.000339 0.016179 -0.000169
# 2 -0.003644 0.006600 -0.002168 -0.000194 0.002875 -0.000098
# 3 0.003264 -0.002168 0.015723 -0.000130 0.007097 -0.000061
# 4 -0.000339 -0.000194 -0.000130 -1.223142 -0.001978 -0.614491
# 5 0.016179 0.002875 0.007097 -0.001978 0.060260 -0.000994
# 6 -0.000169 -0.000098 -0.000061 -0.614491 -0.000994 -0.272102
#
#
# Mechanical properties :
#
#
# Convention : Reuss Voigt Hill
#
# Bulk Modulus (GPa) = 30.33997 71.80691 51.07344
# Shear Modulus (GPa) = -3.62097 32.45775 14.41839
#
# Velocity S-wave (km/s) = -1.29228 3.86904 2.57871
# Velocity P-wave (km/s) = 3.43018 7.28537 5.69398
#
# Compressibility (1/GPa) = 0.03295982
#
# Stress axis : x y z
#
# Youngs Moduli (GPa) = 63.56104 151.50385 63.60239
#
# Poissons Ratio (x) = 0.55203 -0.20757
# Poissons Ratio (y) = 0.23160 0.13789
# Poissons Ratio (z) = -0.20744 0.32847
#
# Static dielectric constant tensor:
#      x y z
#    x 1.726910 0.000000 -0.000100 
#    y 0.000000 1.827870 0.000000 
#    z -0.000100 0.000000 1.866300 
# 
# From -- ./inp_files/257857.got.cif
#   From: 2010.05.17/outbox.cif.g08.bks.cpg/sg12_129_cif.got.tgz:257857.got - 2010.06.03 13:09:07.
