data_PCOD9185346
_publ_section_title
;
Structure prediction by ZEFSAII (Michael W. Deem and Ramdas Pophale) SiO2 
 PCOD9185346
Probable space group: C 2/M
;
_chemical_formula_sum "Si O2"
_cell_formula_units_Z 56
_cell_length_a 14.800276
_cell_length_b 14.435309
_cell_length_c 16.161282
_cell_angle_alpha 90.000000
_cell_angle_beta 37.778485
_cell_angle_gamma 90.000000
_cell_volume 2115.222234
_symmetry_space_group_name_H-M "C 2/M"
_symmetry_group_IT_number 12
_symmetry_cell_setting 'monoclinic'
loop_
_space_group_symop_operation_xyz
x,y,z
-x,y,-z
-x,-y,-z
x,-y,z
1/2+x,1/2+y,z
1/2-x,1/2+y,-z
1/2-x,1/2-y,-z
1/2+x,1/2-y,z
loop_
_atom_site_type_symbol
_atom_site_label
_atom_site_fract_x
_atom_site_fract_y
_atom_site_fract_z
Si Si1 0.339200 0.766192 0.621720
Si Si2 0.491528 0.606967 0.741441
Si Si3 0.803221 0.610409 0.490027
Si Si4 0.073783 0.136304 0.030761
Si Si5 0.622276 0.105001 0.247982
Si Si6 0.372759 0.900477 0.213526
Si Si7 0.164539 0.653173 0.949521
O O1 0.500000 0.719458 0.500000
O O2 0.336693 0.844714 0.554224
O O3 0.331058 0.820182 0.715392
O O4 0.215255 0.689911 0.693446
O O5 0.464353 0.500000 0.737034
O O6 0.637096 0.644431 0.589555
O O7 0.337221 0.659187 0.843667
O O8 0.516646 0.610638 0.822416
O O9 0.784998 0.500000 0.509030
O O10 0.958700 0.627755 0.331467
O O11 0.241983 0.102877 0.913122
O O12 0.092176 0.245882 0.007939
O O13 0.000000 0.101550 0.000000
O O14 0.610289 0.000000 0.291959
O O15 0.343662 0.891299 0.135480
O O16 0.315491 0.000000 0.286364
O O17 0.549657 0.900402 0.090450
#
# Coordination Sequence:
#
# PCOD9185346 Si02
#       7
#     8   8   8   8   8   8   8
#     4  10  19  34  57  83 117 151 196 243 293 356
#     4  11  23  37  58  89 121 156 199 245 294 354
#     4   9  19  35  57  85 119 157 191 231 293 366
#     4  12  22  37  60  92 126 153 193 248 304 350
#     4  10  19  34  56  84 120 158 191 231 293 363
#     4  11  21  37  62  84 112 154 205 255 294 343
#     4  11  21  40  60  84 114 155 201 245 297 355
#
# _framework density 26.474758999999999
#
# number of rings (size 3 to 8) (size 9 to 14) (size 15 to 20)
#    0.000    1.429    2.857    4.714    0.000    4.286 
#    0.000    0.714    3.143    0.000    0.000    0.000 
#    0.000    0.000    0.000    0.000    0.000    0.000 
#
# Total GULP energy -156662.188757 kJ/mol
# GULP energy per Si atom -5595.078170 kJ/mol
# Density = 2.641450 g / cm^3
# Si number density = 26.474759 Si / 1000 Ang^3
#
#
#
# Elastic Constant Matrix: (Units=GPa)
#
#
# Indices 1 2 3 4 5 6 
#
# 1 94.4789 7.9359 41.0105 -0.0008 -17.2454 0.0002
# 2 7.9359 133.0083 13.2846 -0.0009 -5.7892 0.0003
# 3 41.0105 13.2846 185.8097 -0.0023 -30.0748 0.0008
# 4 -0.0008 -0.0009 -0.0023 231.0787 0.0009 -74.5677
# 5 -17.2454 -5.7892 -30.0748 0.0009 52.9252 -0.0003
# 6 0.0002 0.0003 0.0008 -74.5677 -0.0003 33.8035
#
#
#
# Elastic Compliance Matrix: (Units=1/GPa)
#
#
# Indices 1 2 3 4 5 6 
#
# 1 0.012055 -0.000384 -0.002207 0.000000 0.002632 0.000000
# 2 -0.000384 0.007600 -0.000379 0.000000 0.000491 0.000000
# 3 -0.002207 -0.000379 0.006358 0.000000 0.002852 0.000000
# 4 0.000000 0.000000 0.000000 0.015018 0.000000 0.033128
# 5 0.002632 0.000491 0.002852 0.000000 0.021427 0.000000
# 6 0.000000 0.000000 0.000000 0.033128 0.000000 0.102660
#
#
# Mechanical properties :
#
#
# Convention : Reuss Voigt Hill
#
# Bulk Modulus (GPa) = 49.82062 59.75097 54.78579
# Shear Modulus (GPa) = 28.12952 86.96587 57.54769
#
# Velocity S-wave (km/s) = 3.26314 5.73759 4.66733
# Velocity P-wave (km/s) = 5.74948 8.15544 7.05577
#
# Compressibility (1/GPa) = 0.02007201
#
# Stress axis : x y z
#
# Youngs Moduli (GPa) = 82.95206 131.57059 157.28790
#
# Poissons Ratio (x) = 0.05056 0.34718
# Poissons Ratio (y) = 0.03188 0.05964
# Poissons Ratio (z) = 0.18310 0.04989
#
# Static dielectric constant tensor:
#      x y z
#    x 2.084580 0.000000 -0.029090 
#    y 0.000000 2.064270 0.000000 
#    z -0.029090 0.000000 2.085280 
# 
# From -- ./inp_files/316712.got.cif
#   From: 2010.05.17/outbox.cif.g08.bks.cpg/sg12_159_cif.got.tgz:316712.got - 2010.06.03 13:09:07.
