data_PCOD9185187
_publ_section_title
;
Structure prediction by ZEFSAII (Michael W. Deem and Ramdas Pophale) SiO2 
 PCOD9185187
Probable space group: C 2/M
;
_chemical_formula_sum "Si O2"
_cell_formula_units_Z 56
_cell_length_a 27.482458
_cell_length_b 19.375864
_cell_length_c 8.992697
_cell_angle_alpha 90.000000
_cell_angle_beta 45.469182
_cell_angle_gamma 90.000000
_cell_volume 3413.649966
_symmetry_space_group_name_H-M "C 2/M"
_symmetry_group_IT_number 12
_symmetry_cell_setting 'monoclinic'
loop_
_space_group_symop_operation_xyz
x,y,z
-x,y,-z
-x,-y,-z
x,-y,z
1/2+x,1/2+y,z
1/2-x,1/2+y,-z
1/2-x,1/2-y,-z
1/2+x,1/2-y,z
loop_
_atom_site_type_symbol
_atom_site_label
_atom_site_fract_x
_atom_site_fract_y
_atom_site_fract_z
Si Si1 0.729008 0.807109 0.848492
Si Si2 0.325743 0.181723 0.700313
Si Si3 0.699159 0.420082 0.482955
Si Si4 0.022947 0.267242 0.620575
Si Si5 0.677457 0.080725 0.555945
Si Si6 0.566966 0.672272 0.775381
Si Si7 0.602261 0.196089 0.903817
O O1 0.786576 0.747770 0.713350
O O2 0.761184 0.878997 0.729586
O O3 0.666798 0.788714 0.871930
O O4 0.702129 0.817070 0.072597
O O5 0.406817 0.190893 0.531812
O O6 0.313013 0.115560 0.625085
O O7 0.689283 0.500000 0.470762
O O8 0.749993 0.414084 0.514608
O O9 0.628216 0.380854 0.653364
O O10 0.043504 0.196802 0.662195
O O11 0.000000 0.256710 0.500000
O O12 0.964337 0.303947 0.846456
O O13 0.623320 0.127544 0.766112
O O14 0.658135 0.000000 0.591810
O O15 0.589077 0.742266 0.815424
O O16 0.500000 0.644425 0.000000
#
# Coordination Sequence:
#
# PCOD9185187 Si02
#       7
#     8   8   8   8   8   8   8
#     4  10  20  33  56  82 104 140 179 227 266 314
#     4  11  20  34  55  80 108 139 183 220 269 315
#     4  10  20  36  55  79 110 141 178 221 267 318
#     4  11  20  34  54  82 111 137 175 228 268 313
#     4  10  21  36  56  79 109 143 180 222 264 317
#     4  10  20  34  57  81 105 142 175 222 271 318
#     4  10  19  34  56  80 108 135 180 224 268 315
#
# _framework density 16.404727000000001
#
# number of rings (size 3 to 8) (size 9 to 14) (size 15 to 20)
#    0.000    1.714    4.286    0.857    0.000    3.143 
#    0.000    1.429    0.000    1.286    0.000    0.000 
#    0.000    0.000    0.000    0.000    0.000    0.000 
#
# Total GULP energy -156092.060786 kJ/mol
# GULP energy per Si atom -5574.716457 kJ/mol
# Density = 1.636739 g / cm^3
# Si number density = 16.404727 Si / 1000 Ang^3
#
#
#
# Elastic Constant Matrix: (Units=GPa)
#
#
# Indices 1 2 3 4 5 6 
#
# 1 94.8472 53.7162 53.4764 0.0000 -3.9186 0.0000
# 2 53.7162 82.8183 36.6363 0.0000 -12.0400 0.0000
# 3 53.4764 36.6363 85.1970 0.0000 -14.9507 0.0000
# 4 0.0000 0.0000 0.0000 13.3776 0.0000 -1.7460
# 5 -3.9186 -12.0400 -14.9507 0.0000 32.5910 0.0000
# 6 0.0000 0.0000 0.0000 -1.7460 0.0000 24.0434
#
#
#
# Elastic Compliance Matrix: (Units=1/GPa)
#
#
# Indices 1 2 3 4 5 6 
#
# 1 0.022212 -0.010681 -0.010411 0.000000 -0.006051 0.000000
# 2 -0.010681 0.020285 -0.001010 0.000000 0.005746 0.000000
# 3 -0.010411 -0.001010 0.020034 0.000000 0.007566 0.000000
# 4 0.000000 0.000000 0.000000 0.075467 0.000000 0.005480
# 5 -0.006051 0.005746 0.007566 0.000000 0.035549 0.000000
# 6 0.000000 0.000000 0.000000 0.005480 0.000000 0.041989
#
#
# Mechanical properties :
#
#
# Convention : Reuss Voigt Hill
#
# Bulk Modulus (GPa) = 54.56506 61.16894 57.86700
# Shear Modulus (GPa) = 18.80753 21.93797 20.37275
#
# Velocity S-wave (km/s) = 3.38963 3.66087 3.52786
# Velocity P-wave (km/s) = 6.97520 7.43220 7.20733
#
# Compressibility (1/GPa) = 0.01832675
#
# Stress axis : x y z
#
# Youngs Moduli (GPa) = 45.01977 49.29825 49.91442
#
# Poissons Ratio (x) = 0.52657 0.51966
# Poissons Ratio (y) = 0.48087 0.05042
# Poissons Ratio (z) = 0.46870 0.04979
#
# Static dielectric constant tensor:
#      x y z
#    x 1.560800 0.000000 0.003130 
#    y 0.000000 1.523130 0.000000 
#    z 0.003130 0.000000 1.561960 
# 
# From -- ./inp_files/76890.got.cif
#   From: 2010.05.17/outbox.cif.g08.bks.cpg/sg12_39_cif.got.tgz:76890.got - 2010.06.03 13:09:07.
