data_PCOD9185117
_publ_section_title
;
Structure prediction by ZEFSAII (Michael W. Deem and Ramdas Pophale) SiO2 
 PCOD9185117
Probable space group: C 2/M
;
_chemical_formula_sum "Si O2"
_cell_formula_units_Z 56
_cell_length_a 14.490448
_cell_length_b 10.192561
_cell_length_c 19.779412
_cell_angle_alpha 90.000000
_cell_angle_beta 109.880422
_cell_angle_gamma 90.000000
_cell_volume 2747.218181
_symmetry_space_group_name_H-M "C 2/M"
_symmetry_group_IT_number 12
_symmetry_cell_setting 'monoclinic'
loop_
_space_group_symop_operation_xyz
x,y,z
-x,y,-z
-x,-y,-z
x,-y,z
1/2+x,1/2+y,z
1/2-x,1/2+y,-z
1/2-x,1/2-y,-z
1/2+x,1/2-y,z
loop_
_atom_site_type_symbol
_atom_site_label
_atom_site_fract_x
_atom_site_fract_y
_atom_site_fract_z
Si Si1 0.837092 0.652030 0.005419
Si Si2 0.415453 0.353309 0.772881
Si Si3 0.193714 0.654657 0.729978
Si Si4 0.441888 0.347140 0.386150
Si Si5 0.657107 0.653903 0.489496
Si Si6 0.903801 0.138859 0.930328
Si Si7 0.577515 0.850187 0.826237
O O1 0.813714 0.500000 0.991343
O O2 0.905097 0.665150 0.089223
O O3 0.750000 0.750000 0.000000
O O4 0.871528 0.716436 0.944287
O O5 0.431922 0.500000 0.748846
O O6 0.303234 0.312057 0.732904
O O7 0.421919 0.363960 0.855815
O O8 0.497667 0.248637 0.776698
O O9 0.179299 0.500000 0.711529
O O10 0.115111 0.746244 0.674938
O O11 0.176870 0.668966 0.806869
O O12 0.431787 0.500000 0.363203
O O13 0.387873 0.335741 0.445866
O O14 0.558707 0.318281 0.420694
O O15 0.684557 0.500000 0.485457
O O16 0.750000 0.750000 0.500000
O O17 0.846243 0.000000 0.930969
O O18 0.000000 0.126638 0.000000
O O19 0.546080 0.000000 0.807322
#
# Coordination Sequence:
#
# PCOD9185117 Si02
#       7
#     8   8   8   8   8   8   8
#     4  11  22  35  54  77 104 136 179 233 290 348
#     4  10  21  38  58  80 110 147 189 235 289 347
#     4  10  22  39  57  80 115 155 190 230 278 331
#     4   9  20  39  59  84 119 154 187 227 272 323
#     4   9  19  37  62  90 120 151 185 227 273 320
#     4  10  19  34  56  77 102 136 178 232 292 345
#     4  10  22  39  56  77 109 145 186 234 283 338
#
# _framework density 20.384257000000002
#
# number of rings (size 3 to 8) (size 9 to 14) (size 15 to 20)
#    0.000    2.143    1.429    2.143    0.000    7.143 
#    0.000    8.571    0.000    0.000    0.000    0.000 
#    0.000    0.000    0.000    0.000    0.000    0.000 
#
# Total GULP energy -155989.376552 kJ/mol
# GULP energy per Si atom -5571.049163 kJ/mol
# Density = 2.033786 g / cm^3
# Si number density = 20.384257 Si / 1000 Ang^3
#
#
#
# Elastic Constant Matrix: (Units=GPa)
#
#
# Indices 1 2 3 4 5 6 
#
# 1 97.9761 73.0566 9.8021 0.0000 19.1404 0.0000
# 2 73.0566 136.3114 27.0422 0.0000 22.0566 0.0000
# 3 9.8021 27.0422 47.8516 0.0000 15.2550 0.0000
# 4 0.0000 0.0000 0.0000 30.3959 0.0000 7.6075
# 5 19.1404 22.0566 15.2550 0.0000 26.1406 0.0000
# 6 0.0000 0.0000 0.0000 7.6075 0.0000 44.2794
#
#
#
# Elastic Compliance Matrix: (Units=1/GPa)
#
#
# Indices 1 2 3 4 5 6 
#
# 1 0.018304 -0.009336 0.004039 0.000000 -0.007882 0.000000
# 2 -0.009336 0.013647 -0.005293 0.000000 -0.001590 0.000000
# 3 0.004039 -0.005293 0.027742 0.000000 -0.014681 0.000000
# 4 0.000000 0.000000 0.000000 0.034377 0.000000 -0.005906
# 5 -0.007882 -0.001590 -0.014681 0.000000 0.053935 0.000000
# 6 0.000000 0.000000 0.000000 -0.005906 0.000000 0.023599
#
#
# Mechanical properties :
#
#
# Convention : Reuss Voigt Hill
#
# Bulk Modulus (GPa) = 25.96474 55.77123 40.86798
# Shear Modulus (GPa) = 24.31659 31.64572 27.98116
#
# Velocity S-wave (km/s) = 3.45760 3.94440 3.70900
# Velocity P-wave (km/s) = 5.35773 6.94001 6.19956
#
# Compressibility (1/GPa) = 0.03851377
#
# Stress axis : x y z
#
# Youngs Moduli (GPa) = 54.63406 73.27569 36.04645
#
# Poissons Ratio (x) = 0.68409 -0.14560
# Poissons Ratio (y) = 0.51005 0.19079
# Poissons Ratio (z) = -0.22068 0.38784
#
# Static dielectric constant tensor:
#      x y z
#    x 1.879590 0.000000 -0.064970 
#    y 0.000000 1.715440 0.000000 
#    z -0.064970 0.000000 1.740910 
# 
# From -- ./inp_files/338196.got.cif
#   From: 2010.05.17/outbox.cif.g08.bks.cpg/sg12_170_cif.got.tgz:338196.got - 2010.06.03 13:09:07.
