data_PCOD9185291
_publ_section_title
;
Structure prediction by ZEFSAII (Michael W. Deem and Ramdas Pophale) SiO2 
 PCOD9185291
Probable space group: C 2/M
;
_chemical_formula_sum "Si O2"
_cell_formula_units_Z 64
_cell_length_a 30.465130
_cell_length_b 8.749743
_cell_length_c 18.858261
_cell_angle_alpha 90.000000
_cell_angle_beta 140.338556
_cell_angle_gamma 90.000000
_cell_volume 3208.416528
_symmetry_space_group_name_H-M "C 2/M"
_symmetry_group_IT_number 12
_symmetry_cell_setting 'monoclinic'
loop_
_space_group_symop_operation_xyz
x,y,z
-x,y,-z
-x,-y,-z
x,-y,z
1/2+x,1/2+y,z
1/2-x,1/2+y,-z
1/2-x,1/2-y,-z
1/2+x,1/2-y,z
loop_
_atom_site_type_symbol
_atom_site_label
_atom_site_fract_x
_atom_site_fract_y
_atom_site_fract_z
Si Si1 0.349620 0.181507 0.483096
Si Si2 0.436881 0.815913 0.870307
Si Si3 0.288653 0.818035 0.753182
Si Si4 0.066693 0.816389 0.291625
Si Si5 0.931262 0.820453 0.455078
Si Si6 0.922772 0.814696 0.174850
Si Si7 0.798013 0.181536 0.920427
Si Si8 0.837241 0.179422 0.202218
O O1 0.274954 0.239260 0.365363
O O2 0.370410 0.250545 0.584842
O O3 0.404709 0.238089 0.492340
O O4 0.350440 0.000000 0.487038
O O5 0.363020 0.779428 0.812975
O O6 0.438966 0.740861 0.795681
O O7 0.441414 0.000000 0.868334
O O8 0.500000 0.767747 0.000000
O O9 0.289816 0.765944 0.835974
O O10 0.278760 0.000000 0.737056
O O11 0.997962 0.761794 0.247174
O O12 0.069437 0.000000 0.295921
O O13 0.871245 0.810111 0.321905
O O14 0.000000 0.765159 0.500000
O O15 0.943139 0.000000 0.487634
O O16 0.892769 0.767721 0.213384
O O17 0.925510 0.000000 0.179570
O O18 0.867252 0.770649 0.046539
O O19 0.732253 0.225126 0.885828
O O20 0.799813 0.000000 0.911160
O O21 0.821937 0.000000 0.169669
#
# Coordination Sequence:
#
# PCOD9185291 Si02
#       8
#     8   8   8   8   8   8   8   8
#     4  12  25  41  62  90 126 162 206 262 312 360
#     4  10  23  44  69  98 129 159 199 254 313 371
#     4  11  23  41  65  90 122 166 208 248 310 381
#     4  11  23  42  67  92 122 161 207 253 307 372
#     4  10  20  36  60  86 119 166 214 256 305 368
#     4   9  20  37  58  87 121 162 205 248 302 368
#     4  11  21  35  57  88 125 158 201 257 306 356
#     4  10  19  34  56  82 118 162 207 247 298 365
#
# _framework density 19.947535999999999
#
# number of rings (size 3 to 8) (size 9 to 14) (size 15 to 20)
#    0.000    1.500    1.250    4.125    0.000    4.000 
#    0.000    5.000    0.000    0.000    0.000    0.000 
#    0.000    0.000    0.000    0.000    0.000    0.000 
#
# Total GULP energy -178893.515680 kJ/mol
# GULP energy per Si atom -5590.422365 kJ/mol
# Density = 1.990213 g / cm^3
# Si number density = 19.947536 Si / 1000 Ang^3
#
#
#
# Elastic Constant Matrix: (Units=GPa)
#
#
# Indices 1 2 3 4 5 6 
#
# 1 111.7935 44.7105 53.7540 0.0000 -9.3250 0.0000
# 2 44.7105 48.5813 38.5051 0.0000 -1.2840 0.0000
# 3 53.7540 38.5051 99.9739 0.0000 -18.6453 0.0000
# 4 0.0000 0.0000 0.0000 18.9933 0.0000 -12.8433
# 5 -9.3250 -1.2840 -18.6453 0.0000 32.2938 0.0000
# 6 0.0000 0.0000 0.0000 -12.8433 0.0000 24.4422
#
#
#
# Elastic Compliance Matrix: (Units=1/GPa)
#
#
# Indices 1 2 3 4 5 6 
#
# 1 0.015296 -0.011216 -0.003546 0.000000 0.001924 0.000000
# 2 -0.011216 0.038952 -0.010408 0.000000 -0.007699 0.000000
# 3 -0.003546 -0.010408 0.017538 0.000000 0.008688 0.000000
# 4 0.000000 0.000000 0.000000 0.081668 0.000000 0.042913
# 5 0.001924 -0.007699 0.008688 0.000000 0.036231 0.000000
# 6 0.000000 0.000000 0.000000 0.042913 0.000000 0.063462
#
#
# Mechanical properties :
#
#
# Convention : Reuss Voigt Hill
#
# Bulk Modulus (GPa) = 46.62636 59.36531 52.99583
# Shear Modulus (GPa) = 16.09601 23.37114 19.73358
#
# Velocity S-wave (km/s) = 2.84371 3.42662 3.14868
# Velocity P-wave (km/s) = 5.84872 6.74396 6.31223
#
# Compressibility (1/GPa) = 0.02144710
#
# Stress axis : x y z
#
# Youngs Moduli (GPa) = 65.37540 25.67249 57.01928
#
# Poissons Ratio (x) = 0.28795 0.20217
# Poissons Ratio (y) = 0.73327 0.59343
# Poissons Ratio (z) = 0.23180 0.26719
#
# Static dielectric constant tensor:
#      x y z
#    x 1.704030 0.000000 0.015520 
#    y 0.000000 1.673440 0.000000 
#    z 0.015520 0.000000 1.694710 
# 
# From -- ./inp_files/295713.got.cif
#   From: 2010.05.17/outbox.cif.g08.bks.cpg/sg12_148_cif.got.tgz:295713.got - 2010.06.03 13:09:07.
