data_PCOD9185960
_publ_section_title
;
Structure prediction by ZEFSAII (Michael W. Deem and Ramdas Pophale) SiO2 
 PCOD9185960
Probable space group: C 2/M
;
_chemical_formula_sum "Si O2"
_cell_formula_units_Z 56
_cell_length_a 30.500103
_cell_length_b 8.769960
_cell_length_c 11.486611
_cell_angle_alpha 90.000000
_cell_angle_beta 67.999931
_cell_angle_gamma 90.000000
_cell_volume 2848.764058
_symmetry_space_group_name_H-M "C 2/M"
_symmetry_group_IT_number 12
_symmetry_cell_setting 'monoclinic'
loop_
_space_group_symop_operation_xyz
x,y,z
-x,y,-z
-x,-y,-z
x,-y,z
1/2+x,1/2+y,z
1/2-x,1/2+y,-z
1/2-x,1/2-y,-z
1/2+x,1/2-y,z
loop_
_atom_site_type_symbol
_atom_site_label
_atom_site_fract_x
_atom_site_fract_y
_atom_site_fract_z
Si Si1 0.774965 0.817784 0.358939
Si Si2 0.943466 0.317728 0.678120
Si Si3 0.947132 0.327142 0.016029
Si Si4 0.274621 0.315107 0.092935
Si Si5 0.621752 0.322809 0.085327
Si Si6 0.624203 0.824918 0.697458
Si Si7 0.453331 0.185680 0.399584
O O1 0.750000 0.750000 0.500000
O O2 0.759687 0.768513 0.240841
O O3 0.829920 0.771015 0.316567
O O4 0.769572 0.000000 0.367744
O O5 0.943619 0.500000 0.681955
O O6 0.895333 0.259836 0.781717
O O7 0.946955 0.273592 0.540209
O O8 0.993279 0.266252 0.687687
O O9 0.948584 0.500000 0.963197
O O10 0.912973 0.333230 0.160621
O O11 0.921732 0.211528 0.956280
O O12 0.000000 0.287563 0.000000
O O13 0.270868 0.500000 0.093310
O O14 0.250000 0.250000 0.000000
O O15 0.329672 0.268941 0.021182
O O16 0.627108 0.500000 0.103033
O O17 0.591667 0.758744 0.627032
O O18 0.639290 0.000000 0.655254
O O19 0.452626 0.000000 0.389187
#
# Coordination Sequence:
#
# PCOD9185960 Si02
#       7
#     8   8   8   8   8   8   8
#     4  11  24  44  65  89 121 158 202 257 315 377
#     4   9  17  33  56  81 113 157 200 240 284 344
#     4  10  20  34  57  88 119 154 196 236 278 344
#     4  10  24  44  65  88 120 157 202 258 316 376
#     4  11  22  37  55  82 119 152 187 240 300 356
#     4  10  19  34  58  87 117 150 193 243 295 352
#     4   8  16  32  55  82 115 153 197 243 287 340
#
# _framework density 19.657647000000001
#
# number of rings (size 3 to 8) (size 9 to 14) (size 15 to 20)
#    0.000    2.143    1.429    2.571    0.000    6.000 
#    0.000    8.571    0.000    0.000    0.000    0.000 
#    0.000    0.000    0.000    0.000    0.000    0.000 
#
# Total GULP energy -155995.062216 kJ/mol
# GULP energy per Si atom -5571.252222 kJ/mol
# Density = 1.961291 g / cm^3
# Si number density = 19.657647 Si / 1000 Ang^3
#
#
#
# Elastic Constant Matrix: (Units=GPa)
#
#
# Indices 1 2 3 4 5 6 
#
# 1 82.8321 15.0310 49.7322 0.0000 9.3733 0.0000
# 2 15.0310 18.6350 25.8444 0.0000 1.3792 0.0000
# 3 49.7322 25.8444 131.2671 0.0000 1.1355 0.0000
# 4 0.0000 0.0000 0.0000 41.0306 0.0000 -1.6263
# 5 9.3733 1.3792 1.1355 0.0000 31.4351 0.0000
# 6 0.0000 0.0000 0.0000 -1.6263 0.0000 24.9300
#
#
#
# Elastic Compliance Matrix: (Units=1/GPa)
#
#
# Indices 1 2 3 4 5 6 
#
# 1 0.016762 -0.006095 -0.005111 0.000000 -0.004546 0.000000
# 2 -0.006095 0.076268 -0.012697 0.000000 -0.001070 0.000000
# 3 -0.005111 -0.012697 0.012040 0.000000 0.001646 0.000000
# 4 0.000000 0.000000 0.000000 0.024435 0.000000 0.001594
# 5 -0.004546 -0.001070 0.001646 0.000000 0.033155 0.000000
# 6 0.000000 0.000000 0.000000 0.001594 0.000000 0.040216
#
#
# Mechanical properties :
#
#
# Convention : Reuss Voigt Hill
#
# Bulk Modulus (GPa) = 17.46344 45.99436 31.72890
# Shear Modulus (GPa) = 18.53426 28.95425 23.74425
#
# Velocity S-wave (km/s) = 3.07392 3.84203 3.47924
# Velocity P-wave (km/s) = 4.63700 6.56735 5.68471
#
# Compressibility (1/GPa) = 0.05726250
#
# Stress axis : x y z
#
# Youngs Moduli (GPa) = 59.65969 13.11166 83.05568
#
# Poissons Ratio (x) = 0.07992 0.42450
# Poissons Ratio (y) = 0.36364 1.05459
# Poissons Ratio (z) = 0.30492 0.16648
#
# Static dielectric constant tensor:
#      x y z
#    x 1.705610 0.000000 0.030640 
#    y 0.000000 1.688270 0.000000 
#    z 0.030640 0.000000 1.757820 
# 
# From -- ./inp_files/186829.got.cif
#   From: 2010.05.17/outbox.cif.g08.bks.cpg/sg12_94_cif.got.tgz:186829.got - 2010.06.03 13:09:07.
