data_PCOD9185451
_publ_section_title
;
Structure prediction by ZEFSAII (Michael W. Deem and Ramdas Pophale) SiO2 
 PCOD9185451
Probable space group: C 2/M
;
_chemical_formula_sum "Si O2"
_cell_formula_units_Z 40
_cell_length_a 23.705035
_cell_length_b 22.887005
_cell_length_c 5.403197
_cell_angle_alpha 90.000000
_cell_angle_beta 139.100882
_cell_angle_gamma 90.000000
_cell_volume 1919.296465
_symmetry_space_group_name_H-M "C 2/M"
_symmetry_group_IT_number 12
_symmetry_cell_setting 'monoclinic'
loop_
_space_group_symop_operation_xyz
x,y,z
-x,y,-z
-x,-y,-z
x,-y,z
1/2+x,1/2+y,z
1/2-x,1/2+y,-z
1/2-x,1/2-y,-z
1/2+x,1/2-y,z
loop_
_atom_site_type_symbol
_atom_site_label
_atom_site_fract_x
_atom_site_fract_y
_atom_site_fract_z
Si Si1 0.103522 0.319392 0.346922
Si Si2 0.867572 0.119270 0.966252
Si Si3 0.210418 0.566593 0.675766
Si Si4 0.604981 0.752778 0.851916
Si Si5 0.383175 0.433022 0.517615
O O1 0.138582 0.385047 0.474249
O O2 0.131934 0.283312 0.684544
O O3 0.131415 0.289075 0.182726
O O4 0.000000 0.319795 0.000000
O O5 0.774054 0.087903 0.667251
O O6 0.905685 0.106780 0.824238
O O7 0.860917 0.187226 0.005961
O O8 0.915213 0.089711 0.358289
O O9 0.181394 0.500000 0.544828
O O10 0.279663 0.568540 0.129102
O O11 0.500000 0.749181 0.500000
O O12 0.406823 0.500000 0.640665
#
# Coordination Sequence:
#
# PCOD9185451 Si02
#       5
#     8   8   8   8   8
#     4  10  22  38  55  79 110 144 181 219 264 318
#     4  10  19  34  57  81 105 143 179 218 270 318
#     4   9  21  36  57  81 110 141 178 224 267 314
#     4  10  22  39  56  78 111 144 178 222 267 317
#     4   9  18  33  52  80 112 139 173 220 264 313
#
# _framework density 20.840969999999999
#
# number of rings (size 3 to 8) (size 9 to 14) (size 15 to 20)
#    1.200    1.200    0.000    2.400    2.800    2.000 
#    0.000    0.000    0.000   10.200    0.000    0.000 
#    0.000    0.000    0.000    0.000    0.000    0.000 
#
# Total GULP energy -111527.579429 kJ/mol
# GULP energy per Si atom -5576.378971 kJ/mol
# Density = 2.079354 g / cm^3
# Si number density = 20.840970 Si / 1000 Ang^3
#
#
#
# Elastic Constant Matrix: (Units=GPa)
#
#
# Indices 1 2 3 4 5 6 
#
# 1 80.7082 41.3162 46.1408 0.0000 -42.3174 0.0000
# 2 41.3162 175.7254 50.9651 0.0000 -25.4855 0.0000
# 3 46.1408 50.9651 60.8521 0.0000 -29.1982 0.0000
# 4 0.0000 0.0000 0.0000 -38.2188 0.0000 34.4485
# 5 -42.3174 -25.4855 -29.1982 0.0000 30.4066 0.0000
# 6 0.0000 0.0000 0.0000 34.4485 0.0000 48.0909
#
#
#
# Elastic Compliance Matrix: (Units=1/GPa)
#
#
# Indices 1 2 3 4 5 6 
#
# 1 0.047902 -0.000505 -0.007628 0.000000 0.058918 0.000000
# 2 -0.000505 0.007525 -0.005991 0.000000 -0.000149 0.000000
# 3 -0.007628 -0.005991 0.036591 0.000000 0.019499 0.000000
# 4 0.000000 0.000000 0.000000 -0.015900 0.000000 0.011389
# 5 0.058918 -0.000149 0.019499 0.000000 0.133485 0.000000
# 6 0.000000 0.000000 0.000000 0.011389 0.000000 0.012636
#
#
# Mechanical properties :
#
#
# Convention : Reuss Voigt Hill
#
# Bulk Modulus (GPa) = 15.68145 66.01445 40.84795
# Shear Modulus (GPa) = 18.39955 19.97996 19.18976
#
# Velocity S-wave (km/s) = 2.97451 3.09963 3.03771
# Velocity P-wave (km/s) = 4.39746 6.67490 5.65208
#
# Compressibility (1/GPa) = 0.06376962
#
# Stress axis : x y z
#
# Youngs Moduli (GPa) = 20.87574 132.88169 27.32908
#
# Poissons Ratio (x) = 0.06716 0.20848
# Poissons Ratio (y) = 0.01055 0.16373
# Poissons Ratio (z) = 0.15925 0.79608
#
# Static dielectric constant tensor:
#      x y z
#    x 1.789930 0.000000 0.028230 
#    y 0.000000 1.696640 0.000000 
#    z 0.028230 0.000000 1.770360 
# 
# From -- ./inp_files/29274.got.cif
#   From: 2010.05.17/outbox.cif.g08.bks.cpg/sg12_15_cif.got.tgz:29274.got - 2010.06.03 13:09:07.
