data_PCOD9185392
_publ_section_title
;
Structure prediction by ZEFSAII (Michael W. Deem and Ramdas Pophale) SiO2 
 PCOD9185392
Probable space group: C 2/M
;
_chemical_formula_sum "Si O2"
_cell_formula_units_Z 52
_cell_length_a 27.960234
_cell_length_b 20.609283
_cell_length_c 4.947987
_cell_angle_alpha 90.000000
_cell_angle_beta 67.245044
_cell_angle_gamma 90.000000
_cell_volume 2629.311588
_symmetry_space_group_name_H-M "C 2/M"
_symmetry_group_IT_number 12
_symmetry_cell_setting 'monoclinic'
loop_
_space_group_symop_operation_xyz
x,y,z
-x,y,-z
-x,-y,-z
x,-y,z
1/2+x,1/2+y,z
1/2-x,1/2+y,-z
1/2-x,1/2-y,-z
1/2+x,1/2-y,z
loop_
_atom_site_type_symbol
_atom_site_label
_atom_site_fract_x
_atom_site_fract_y
_atom_site_fract_z
Si Si1 0.857285 0.078004 0.012112
Si Si2 0.883582 0.394771 0.265301
Si Si3 0.038886 0.500000 0.671075
Si Si4 0.036385 0.701646 0.179004
Si Si5 0.681805 0.074959 0.110395
Si Si6 0.292090 0.578374 0.649401
Si Si7 0.463815 0.650238 0.816738
O O1 0.811134 0.098920 0.314251
O O2 0.862311 0.000000 0.020925
O O3 0.838178 0.094613 0.754694
O O4 0.911411 0.110517 0.965838
O O5 0.924040 0.438599 0.350473
O O6 0.841234 0.382629 0.593073
O O7 0.915354 0.338958 0.039712
O O8 0.855000 0.427862 0.073239
O O9 0.000000 0.500000 0.500000
O O10 0.000000 0.500000 0.000000
O O11 0.050751 0.775213 0.226958
O O12 0.000000 0.673606 0.500000
O O13 0.000000 0.706123 0.000000
O O14 0.687400 0.000000 0.200740
O O15 0.736912 0.100584 0.882854
O O16 0.287225 0.500000 0.653489
O O17 0.500000 0.623230 0.500000
O O18 0.500000 0.650408 0.000000
#
# Coordination Sequence:
#
# PCOD9185392 Si02
#       7
#     8   8   4   8   8   8   8
#     4  10  19  34  56  88 116 143 179 220 284 331
#     4  12  22  36  56  77 107 144 189 237 275 332
#     4  12  24  36  50  78 114 144 178 234 298 330
#     4  10  22  40  56  76 104 149 196 224 273 337
#     4  11  20  36  55  80 109 141 190 232 282 328
#     4   9  19  33  55  81 113 148 177 225 272 342
#     4  10  21  37  59  82 112 149 185 225 267 336
#
# _framework density 19.77704
#
# number of rings (size 3 to 8) (size 9 to 14) (size 15 to 20)
#    0.000    1.538    1.538    4.154    0.000    4.308 
#    0.000    0.000    0.000    5.538    0.000    0.000 
#    0.000    0.000    0.000    0.000    0.000    0.000 
#
# Total GULP energy -144978.205835 kJ/mol
# GULP energy per Si atom -5576.084840 kJ/mol
# Density = 1.973203 g / cm^3
# Si number density = 19.777040 Si / 1000 Ang^3
#
#
#
# Elastic Constant Matrix: (Units=GPa)
#
#
# Indices 1 2 3 4 5 6 
#
# 1 57.0222 19.7104 19.8085 0.0000 -7.4045 0.0000
# 2 19.7104 31.7561 12.2831 0.0000 -9.6431 0.0000
# 3 19.8085 12.2831 123.8110 0.0000 1.0797 0.0000
# 4 0.0000 0.0000 0.0000 66.7861 0.0000 -43.2700
# 5 -7.4045 -9.6431 1.0797 0.0000 38.3833 0.0000
# 6 0.0000 0.0000 0.0000 -43.2700 0.0000 92.8980
#
#
#
# Elastic Compliance Matrix: (Units=1/GPa)
#
#
# Indices 1 2 3 4 5 6 
#
# 1 0.023021 -0.012979 -0.002406 0.000000 0.001248 0.000000
# 2 -0.012979 0.042955 -0.002258 0.000000 0.008351 0.000000
# 3 -0.002406 -0.002258 0.008697 0.000000 -0.001276 0.000000
# 4 0.000000 0.000000 0.000000 0.021445 0.000000 0.009988
# 5 0.001248 0.008351 -0.001276 0.000000 0.028428 0.000000
# 6 0.000000 0.000000 0.000000 0.009988 0.000000 0.015417
#
#
# Mechanical properties :
#
#
# Convention : Reuss Voigt Hill
#
# Bulk Modulus (GPa) = 25.38926 35.13260 30.26093
# Shear Modulus (GPa) = 26.54225 50.33264 38.43745
#
# Velocity S-wave (km/s) = 3.66741 5.05028 4.41334
# Velocity P-wave (km/s) = 5.54966 7.19791 6.42685
#
# Compressibility (1/GPa) = 0.03938674
#
# Stress axis : x y z
#
# Youngs Moduli (GPa) = 43.43770 23.28001 114.98275
#
# Poissons Ratio (x) = 0.30216 0.27670
# Poissons Ratio (y) = 0.56379 0.25961
# Poissons Ratio (z) = 0.10453 0.05256
#
# Static dielectric constant tensor:
#      x y z
#    x 1.658480 0.000000 -0.025650 
#    y 0.000000 1.711420 0.000000 
#    z -0.025650 0.000000 1.717750 
# 
# From -- ./inp_files/25569.got.cif
#   From: 2010.05.17/outbox.cif.g08.bks.cpg/sg12_13_cif.got.tgz:25569.got - 2010.06.03 13:09:07.
