data_PCOD9185192
_publ_section_title
;
Structure prediction by ZEFSAII (Michael W. Deem and Ramdas Pophale) SiO2 
 PCOD9185192
Probable space group: C 2/M
;
_chemical_formula_sum "Si O2"
_cell_formula_units_Z 56
_cell_length_a 8.950415
_cell_length_b 19.691639
_cell_length_c 16.681412
_cell_angle_alpha 90.000000
_cell_angle_beta 75.476409
_cell_angle_gamma 90.000000
_cell_volume 2846.119649
_symmetry_space_group_name_H-M "C 2/M"
_symmetry_group_IT_number 12
_symmetry_cell_setting 'monoclinic'
loop_
_space_group_symop_operation_xyz
x,y,z
-x,y,-z
-x,-y,-z
x,-y,z
1/2+x,1/2+y,z
1/2-x,1/2+y,-z
1/2-x,1/2-y,-z
1/2+x,1/2-y,z
loop_
_atom_site_type_symbol
_atom_site_label
_atom_site_fract_x
_atom_site_fract_y
_atom_site_fract_z
Si Si1 0.941778 0.578667 0.597124
Si Si2 0.191313 0.173407 0.714479
Si Si3 0.364470 0.076979 0.272701
Si Si4 0.917054 0.079175 0.803344
Si Si5 0.876726 0.699706 0.949487
Si Si6 0.824121 0.079120 0.993607
Si Si7 0.476782 0.784418 0.772660
O O1 0.886256 0.500000 0.608186
O O2 0.086451 0.582266 0.640073
O O3 0.000000 0.592778 0.500000
O O4 0.805913 0.630258 0.641883
O O5 0.307515 0.209641 0.759675
O O6 0.081762 0.236228 0.703201
O O7 0.071255 0.121803 0.770620
O O8 0.192749 0.086647 0.260270
O O9 0.458033 0.139985 0.226222
O O10 0.409259 0.000000 0.242053
O O11 0.826759 0.096420 0.897793
O O12 0.957789 0.000000 0.805790
O O13 0.959371 0.738864 0.865807
O O14 0.750000 0.750000 0.000000
O O15 0.786280 0.629832 0.943544
O O16 0.000000 0.683064 0.000000
O O17 0.779585 0.000000 0.008718
O O18 0.000000 0.086361 0.000000
#
# Coordination Sequence:
#
# PCOD9185192 Si02
#       7
#     8   8   8   8   8   8   8
#     4   9  19  38  63  89 114 139 171 217 275 336
#     4  11  21  36  56  80 110 145 183 224 271 326
#     4   9  19  36  57  81 109 141 179 226 274 324
#     4  10  19  34  56  80 108 145 189 231 273 326
#     4  12  23  35  52  75 107 146 187 233 279 321
#     4  10  21  36  53  76 109 147 189 237 282 320
#     4  11  22  35  54  78 108 146 188 228 269 326
#
# _framework density 19.675912
#
# number of rings (size 3 to 8) (size 9 to 14) (size 15 to 20)
#    0.000    1.714    0.000    5.143    0.000    1.429 
#    0.000    3.571    0.000    3.429    0.000    0.000 
#    0.000    0.000    0.000    0.000    0.000    0.000 
#
# Total GULP energy -156073.757736 kJ/mol
# GULP energy per Si atom -5574.062776 kJ/mol
# Density = 1.963113 g / cm^3
# Si number density = 19.675912 Si / 1000 Ang^3
#
#
#
# Elastic Constant Matrix: (Units=GPa)
#
#
# Indices 1 2 3 4 5 6 
#
# 1 86.9603 43.6299 22.6292 0.0000 -2.0747 0.0000
# 2 43.6299 81.9502 30.9415 0.0000 -6.9326 0.0000
# 3 22.6292 30.9415 83.6576 0.0000 -2.1589 0.0000
# 4 0.0000 0.0000 0.0000 12.1923 0.0000 -17.8199
# 5 -2.0747 -6.9326 -2.1589 0.0000 15.5464 0.0000
# 6 0.0000 0.0000 0.0000 -17.8199 0.0000 38.6452
#
#
#
# Elastic Compliance Matrix: (Units=1/GPa)
#
#
# Indices 1 2 3 4 5 6 
#
# 1 0.015863 -0.008079 -0.001346 0.000000 -0.001673 0.000000
# 2 -0.008079 0.018803 -0.004597 0.000000 0.006669 0.000000
# 3 -0.001346 -0.004597 0.014011 0.000000 -0.000284 0.000000
# 4 0.000000 0.000000 0.000000 0.251556 0.000000 0.115996
# 5 -0.001673 0.006669 -0.000284 0.000000 0.067035 0.000000
# 6 0.000000 0.000000 0.000000 0.115996 0.000000 0.079364
#
#
# Mechanical properties :
#
#
# Convention : Reuss Voigt Hill
#
# Bulk Modulus (GPa) = 48.46591 49.66325 49.06458
# Shear Modulus (GPa) = 10.38305 23.63461 17.00883
#
# Velocity S-wave (km/s) = 2.29967 3.46959 2.94334
# Velocity P-wave (km/s) = 5.63355 6.43010 6.04496
#
# Compressibility (1/GPa) = 0.02063306
#
# Stress axis : x y z
#
# Youngs Moduli (GPa) = 63.03909 53.18161 71.37442
#
# Poissons Ratio (x) = 0.42964 0.09608
# Poissons Ratio (y) = 0.50928 0.32813
# Poissons Ratio (z) = 0.08486 0.24449
#
# Static dielectric constant tensor:
#      x y z
#    x 1.695380 0.000000 0.035280 
#    y 0.000000 1.751370 0.000000 
#    z 0.035280 0.000000 1.680840 
# 
# From -- ./inp_files/257045.got.cif
#   From: 2010.05.17/outbox.cif.g08.bks.cpg/sg12_129_cif.got.tgz:257045.got - 2010.06.03 13:09:07.
