data_PCOD9185195
_publ_section_title
;
Structure prediction by ZEFSAII (Michael W. Deem and Ramdas Pophale) SiO2 
 PCOD9185195
Probable space group: C 2/M
;
_chemical_formula_sum "Si O2"
_cell_formula_units_Z 48
_cell_length_a 25.769895
_cell_length_b 7.634189
_cell_length_c 17.484961
_cell_angle_alpha 90.000000
_cell_angle_beta 146.629274
_cell_angle_gamma 90.000000
_cell_volume 1892.106805
_symmetry_space_group_name_H-M "C 2/M"
_symmetry_group_IT_number 12
_symmetry_cell_setting 'monoclinic'
loop_
_space_group_symop_operation_xyz
x,y,z
-x,y,-z
-x,-y,-z
x,-y,z
1/2+x,1/2+y,z
1/2-x,1/2+y,-z
1/2-x,1/2-y,-z
1/2+x,1/2-y,z
loop_
_atom_site_type_symbol
_atom_site_label
_atom_site_fract_x
_atom_site_fract_y
_atom_site_fract_z
Si Si1 0.143463 0.710415 0.395613
Si Si2 0.219812 0.707345 0.212487
Si Si3 0.923416 0.713922 0.843641
Si Si4 0.585043 0.210391 0.491028
Si Si5 0.883812 0.299649 0.231032
Si Si6 0.173133 0.204926 0.994534
O O1 0.135190 0.500000 0.389283
O O2 0.250000 0.750000 0.500000
O O3 0.076993 0.774960 0.244190
O O4 0.117097 0.779170 0.446987
O O5 0.212159 0.500000 0.200448
O O6 0.175000 0.767220 0.237259
O O7 0.329609 0.755310 0.346268
O O8 0.158401 0.775581 0.066258
O O9 0.928416 0.500000 0.847128
O O10 0.000000 0.771493 0.000000
O O11 0.480584 0.278874 0.381104
O O12 0.575091 0.000000 0.474300
O O13 0.876356 0.500000 0.249162
O O14 0.780507 0.220691 0.117754
O O15 0.891455 0.297828 0.147440
O O16 0.171485 0.000000 0.972992
#
# Coordination Sequence:
#
# PCOD9185195 Si02
#       6
#     8   8   8   8   8   8
#     4  10  19  34  56  80 109 143 179 222 271 325
#     4  11  22  36  57  82 113 148 186 228 273 329
#     4   9  19  34  54  80 108 142 184 226 268 319
#     4  10  21  36  58  83 111 146 187 230 272 325
#     4   9  20  39  61  84 108 144 186 224 275 333
#     4  10  21  38  59  83 114 143 179 231 279 327
#
# _framework density 25.368549000000002
#
# number of rings (size 3 to 8) (size 9 to 14) (size 15 to 20)
#    0.000    2.167    1.667    1.000    2.333    2.000 
#    0.000    3.333    0.000    2.500    0.000    0.000 
#    0.000    0.000    0.000    0.000    0.000    0.000 
#
# Total GULP energy -134148.574269 kJ/mol
# GULP energy per Si atom -5589.523928 kJ/mol
# Density = 2.531081 g / cm^3
# Si number density = 25.368549 Si / 1000 Ang^3
#
#
#
# Elastic Constant Matrix: (Units=GPa)
#
#
# Indices 1 2 3 4 5 6 
#
# 1 43.7152 0.2578 6.8249 0.0000 -13.1018 0.0000
# 2 0.2578 68.4887 -7.9176 0.0000 -1.0695 0.0000
# 3 6.8249 -7.9176 131.6949 0.0000 -1.9052 0.0000
# 4 0.0000 0.0000 0.0000 20.2841 0.0000 -3.8869
# 5 -13.1018 -1.0695 -1.9052 0.0000 47.2255 0.0000
# 6 0.0000 0.0000 0.0000 -3.8869 0.0000 12.5669
#
#
#
# Elastic Compliance Matrix: (Units=1/GPa)
#
#
# Indices 1 2 3 4 5 6 
#
# 1 0.025140 -0.000126 -0.001210 0.000000 0.006923 0.000000
# 2 -0.000126 0.014710 0.000896 0.000000 0.000334 0.000000
# 3 -0.001210 0.000896 0.007710 0.000000 -0.000004 0.000000
# 4 0.000000 0.000000 0.000000 0.052406 0.000000 0.016209
# 5 0.006923 0.000334 -0.000004 0.000000 0.023103 0.000000
# 6 0.000000 0.000000 0.000000 0.016209 0.000000 0.084588
#
#
# Mechanical properties :
#
#
# Convention : Reuss Voigt Hill
#
# Bulk Modulus (GPa) = 21.42338 26.91434 24.16886
# Shear Modulus (GPa) = 22.31173 32.33087 27.32130
#
# Velocity S-wave (km/s) = 2.96886 3.57381 3.28529
# Velocity P-wave (km/s) = 4.49615 5.25946 4.89271
#
# Compressibility (1/GPa) = 0.04667798
#
# Stress axis : x y z
#
# Youngs Moduli (GPa) = 39.77748 67.98003 129.70471
#
# Poissons Ratio (x) = 0.00859 0.15698
# Poissons Ratio (y) = 0.00503 -0.11619
# Poissons Ratio (z) = 0.04814 -0.06089
#
# Static dielectric constant tensor:
#      x y z
#    x 2.086530 0.000000 0.009780 
#    y 0.000000 1.938380 0.000000 
#    z 0.009780 0.000000 2.016820 
# 
# From -- ./inp_files/244723.got.cif
#   From: 2010.05.17/outbox.cif.g08.bks.cpg/sg12_123_cif.got.tgz:244723.got - 2010.06.03 13:09:07.
