data_PCOD9185429
_publ_section_title
;
Structure prediction by ZEFSAII (Michael W. Deem and Ramdas Pophale) SiO2 
 PCOD9185429
Probable space group: C 2/M
;
_chemical_formula_sum "Si O2"
_cell_formula_units_Z 64
_cell_length_a 21.253171
_cell_length_b 7.607416
_cell_length_c 23.060611
_cell_angle_alpha 90.000000
_cell_angle_beta 123.444905
_cell_angle_gamma 90.000000
_cell_volume 3111.103255
_symmetry_space_group_name_H-M "C 2/M"
_symmetry_group_IT_number 12
_symmetry_cell_setting 'monoclinic'
loop_
_space_group_symop_operation_xyz
x,y,z
-x,y,-z
-x,-y,-z
x,-y,z
1/2+x,1/2+y,z
1/2-x,1/2+y,-z
1/2-x,1/2-y,-z
1/2+x,1/2-y,z
loop_
_atom_site_type_symbol
_atom_site_label
_atom_site_fract_x
_atom_site_fract_y
_atom_site_fract_z
Si Si1 0.943024 0.210872 0.805740
Si Si2 0.546169 0.210807 0.968055
Si Si3 0.178158 0.208023 0.797157
Si Si4 0.007377 0.215598 0.714048
Si Si5 0.732795 0.790282 0.583243
Si Si6 0.782970 0.288507 0.953687
Si Si7 0.868937 0.211269 0.570359
Si Si8 0.771365 0.787001 0.729959
O O1 0.858409 0.274298 0.776359
O O2 0.000523 0.253513 0.886223
O O3 0.973402 0.271892 0.758833
O O4 0.938128 0.000000 0.799058
O O5 0.550856 0.000000 0.976619
O O6 0.500000 0.279432 0.000000
O O7 0.631595 0.279118 0.008913
O O8 0.093021 0.278007 0.750825
O O9 0.227861 0.280664 0.875442
O O10 0.223376 0.230261 0.760658
O O11 0.170195 0.000000 0.804171
O O12 0.949658 0.272464 0.634442
O O13 0.007747 0.000000 0.713762
O O14 0.803544 0.721985 0.581073
O O15 0.658216 0.755793 0.507929
O O16 0.736739 0.725755 0.650995
O O17 0.742326 0.000000 0.591171
O O18 0.786433 0.500000 0.949310
O O19 0.750000 0.250000 0.000000
O O20 0.868645 0.000000 0.574107
O O21 0.771812 0.000000 0.730641
#
# Coordination Sequence:
#
# PCOD9185429 Si02
#       8
#     8   8   8   8   8   8   8   8
#     4  10  19  34  57  79  99 130 176 219 256 304
#     4  10  21  36  52  74 107 138 166 211 267 311
#     4  10  21  36  55  77 104 139 176 213 256 310
#     4   9  17  33  55  78 102 132 172 218 258 295
#     4   9  17  31  51  77 107 135 166 209 260 307
#     4  10  21  37  56  78 104 138 177 217 261 310
#     4   9  16  30  53  78 103 132 170 214 256 299
#     4  10  20  35  54  78 108 140 171 212 264 310
#
# _framework density 20.571480000000001
#
# number of rings (size 3 to 8) (size 9 to 14) (size 15 to 20)
#    0.000    2.375    1.250    1.500    0.000    4.250 
#    0.000    2.500    0.000    3.750    0.000    0.000 
#    0.000    0.000    0.000    0.000    0.000    0.000 
#
# Total GULP energy -178681.755284 kJ/mol
# GULP energy per Si atom -5583.804853 kJ/mol
# Density = 2.052466 g / cm^3
# Si number density = 20.571480 Si / 1000 Ang^3
#
#
#
# Elastic Constant Matrix: (Units=GPa)
#
#
# Indices 1 2 3 4 5 6 
#
# 1 158.3253 -2.5155 92.9019 0.0000 24.4690 0.0000
# 2 -2.5155 37.8240 -4.6939 0.0000 3.8260 -0.0001
# 3 92.9019 -4.6939 196.8640 0.0000 27.2236 0.0000
# 4 0.0000 0.0000 0.0000 24.5962 0.0000 -3.7601
# 5 24.4690 3.8260 27.2236 0.0000 30.4379 0.0000
# 6 0.0000 -0.0001 0.0000 -3.7601 0.0000 15.5777
#
#
#
# Elastic Compliance Matrix: (Units=1/GPa)
#
#
# Indices 1 2 3 4 5 6 
#
# 1 0.009151 0.000557 -0.003741 0.000000 -0.004081 0.000000
# 2 0.000557 0.027089 0.001045 0.000000 -0.004788 0.000000
# 3 -0.003741 0.001045 0.007386 0.000000 -0.003730 0.000000
# 4 0.000000 0.000000 0.000000 0.042214 0.000000 0.010190
# 5 -0.004081 -0.004788 -0.003730 0.000000 0.040072 0.000000
# 6 0.000000 0.000000 0.000000 0.010190 0.000000 0.066654
#
#
# Mechanical properties :
#
#
# Convention : Reuss Voigt Hill
#
# Bulk Modulus (GPa) = 25.41398 62.71090 44.06244
# Shear Modulus (GPa) = 23.81420 34.61042 29.21231
#
# Velocity S-wave (km/s) = 3.40609 4.10621 3.77243
# Velocity P-wave (km/s) = 5.27725 7.28230 6.35930
#
# Compressibility (1/GPa) = 0.03934842
#
# Stress axis : x y z
#
# Youngs Moduli (GPa) = 109.28321 36.91501 135.39839
#
# Poissons Ratio (x) = -0.02057 0.50648
# Poissons Ratio (y) = -0.06088 -0.14150
# Poissons Ratio (z) = 0.40879 -0.03858
#
# Static dielectric constant tensor:
#      x y z
#    x 1.711600 0.000000 0.011010 
#    y 0.000000 1.777770 0.000000 
#    z 0.011010 0.000000 1.729520 
# 
# From -- ./inp_files/319878.got.cif
#   From: 2010.05.17/outbox.cif.g08.bks.cpg/sg12_160_cif.got.tgz:319878.got - 2010.06.03 13:09:07.
