data_PCOD9185721
_publ_section_title
;
Structure prediction by ZEFSAII (Michael W. Deem and Ramdas Pophale) SiO2 
 PCOD9185721
Probable space group: C 2/M
;
_chemical_formula_sum "Si O2"
_cell_formula_units_Z 44
_cell_length_a 24.699288
_cell_length_b 9.167000
_cell_length_c 10.722041
_cell_angle_alpha 90.000000
_cell_angle_beta 118.179913
_cell_angle_gamma 90.000000
_cell_volume 2139.913435
_symmetry_space_group_name_H-M "C 2/M"
_symmetry_group_IT_number 12
_symmetry_cell_setting 'monoclinic'
loop_
_space_group_symop_operation_xyz
x,y,z
-x,y,-z
-x,-y,-z
x,-y,z
1/2+x,1/2+y,z
1/2-x,1/2+y,-z
1/2-x,1/2-y,-z
1/2+x,1/2-y,z
loop_
_atom_site_type_symbol
_atom_site_label
_atom_site_fract_x
_atom_site_fract_y
_atom_site_fract_z
Si Si1 0.068982 0.831127 0.721239
Si Si2 0.241962 0.825690 0.129003
Si Si3 0.000000 0.736966 0.000000
Si Si4 0.941566 0.170138 0.679663
Si Si5 0.159100 0.831796 0.591793
Si Si6 0.624088 0.837511 0.003530
O O1 0.101667 0.835999 0.625125
O O2 0.998839 0.780005 0.656581
O O3 0.071039 0.000000 0.772266
O O4 0.107254 0.723361 0.849404
O O5 0.290627 0.763860 0.281977
O O6 0.175137 0.774880 0.106072
O O7 0.245675 0.000000 0.119582
O O8 0.250000 0.750000 0.000000
O O9 0.032031 0.815791 0.152206
O O10 0.059392 0.659580 0.005461
O O11 0.874640 0.231534 0.568944
O O12 0.933113 0.000000 0.645713
O O13 0.181861 0.000000 0.601314
O O14 0.650213 0.000000 0.028490
#
# Coordination Sequence:
#
# PCOD9185721 Si02
#       6
#     8   8   4   8   8   8
#     4   9  17  31  55  86 120 155 193 241 299 355
#     4  12  24  39  60  89 123 159 198 243 299 361
#     4  10  22  40  62  88 121 158 203 252 297 348
#     4   9  18  33  57  88 120 158 202 247 293 350
#     4  10  19  34  57  88 124 157 195 244 300 354
#     4  11  22  38  61  88 120 159 202 246 298 354
#
# _framework density 20.561581
#
# number of rings (size 3 to 8) (size 9 to 14) (size 15 to 20)
#    0.000    1.818    1.818    3.273    0.000    4.364 
#    0.000    5.455    0.000    5.455    0.000    0.000 
#    0.000    0.000    0.000    0.000    0.000    0.000 
#
# Total GULP energy -122477.374159 kJ/mol
# GULP energy per Si atom -5567.153371 kJ/mol
# Density = 2.051478 g / cm^3
# Si number density = 20.561581 Si / 1000 Ang^3
#
#
#
# Elastic Constant Matrix: (Units=GPa)
#
#
# Indices 1 2 3 4 5 6 
#
# 1 53.4427 19.7700 31.5078 0.0000 10.9510 0.0000
# 2 19.7700 101.8520 50.5767 0.0000 17.9194 0.0000
# 3 31.5078 50.5767 150.5373 0.0000 35.6846 0.0000
# 4 0.0000 0.0000 0.0000 20.8494 0.0000 12.6911
# 5 10.9510 17.9194 35.6846 0.0000 32.8408 0.0000
# 6 0.0000 0.0000 0.0000 12.6911 0.0000 3.5794
#
#
#
# Elastic Compliance Matrix: (Units=1/GPa)
#
#
# Indices 1 2 3 4 5 6 
#
# 1 0.021970 -0.002196 -0.003243 0.000000 -0.002604 0.000000
# 2 -0.002196 0.012207 -0.003012 0.000000 -0.002656 0.000000
# 3 -0.003243 -0.003012 0.010355 0.000000 -0.008526 0.000000
# 4 0.000000 0.000000 0.000000 -0.041411 0.000000 0.146827
# 5 -0.002604 -0.002656 -0.008526 0.000000 0.042032 0.000000
# 6 0.000000 0.000000 0.000000 0.146827 0.000000 -0.241212
#
#
# Mechanical properties :
#
#
# Convention : Reuss Voigt Hill
#
# Bulk Modulus (GPa) = 36.19384 56.61566 46.40475
# Shear Modulus (GPa) = -29.42100 25.05242 -2.18429
#
# Velocity S-wave (km/s) = -3.78679 3.49436 -1.03181
# Velocity P-wave (km/s) = 1.21608 6.62383 4.60415
#
# Compressibility (1/GPa) = 0.02762901
#
# Stress axis : x y z
#
# Youngs Moduli (GPa) = 45.51749 81.91746 96.57196
#
# Poissons Ratio (x) = 0.17987 0.31322
# Poissons Ratio (y) = 0.09995 0.29090
# Poissons Ratio (z) = 0.14763 0.24676
#
# Static dielectric constant tensor:
#      x y z
#    x 1.780350 0.000000 0.005250 
#    y 0.000000 1.716690 0.000000 
#    z 0.005250 0.000000 1.836500 
# 
# From -- ./inp_files/181279.got.cif
#   From: 2010.05.17/outbox.cif.g08.bks.cpg/sg12_91_cif.got.tgz:181279.got - 2010.06.03 13:09:07.
