data_PCOD9185760
_publ_section_title
;
Structure prediction by ZEFSAII (Michael W. Deem and Ramdas Pophale) SiO2 
 PCOD9185760
Probable space group: C 2/M
;
_chemical_formula_sum "Si O2"
_cell_formula_units_Z 48
_cell_length_a 30.577886
_cell_length_b 8.807031
_cell_length_c 19.869320
_cell_angle_alpha 90.000000
_cell_angle_beta 148.951797
_cell_angle_gamma 90.000000
_cell_volume 2759.731467
_symmetry_space_group_name_H-M "C 2/M"
_symmetry_group_IT_number 12
_symmetry_cell_setting 'monoclinic'
loop_
_space_group_symop_operation_xyz
x,y,z
-x,y,-z
-x,-y,-z
x,-y,z
1/2+x,1/2+y,z
1/2-x,1/2+y,-z
1/2-x,1/2-y,-z
1/2+x,1/2-y,z
loop_
_atom_site_type_symbol
_atom_site_label
_atom_site_fract_x
_atom_site_fract_y
_atom_site_fract_z
Si Si1 0.598199 0.683653 0.128322
Si Si2 0.276747 0.317203 0.823474
Si Si3 0.761635 0.317875 0.589145
Si Si4 0.636438 0.682527 0.542117
Si Si5 0.781243 0.681068 0.110684
Si Si6 0.036009 0.818927 0.622544
O O1 0.601858 0.500000 0.139288
O O2 0.643356 0.727268 0.117341
O O3 0.655670 0.754184 0.263140
O O4 0.500000 0.729536 0.000000
O O5 0.272465 0.500000 0.816960
O O6 0.194370 0.253555 0.676784
O O7 0.273787 0.267431 0.896953
O O8 0.766664 0.500000 0.592358
O O9 0.750000 0.250000 0.500000
O O10 0.681427 0.276762 0.531268
O O11 0.640402 0.500000 0.554362
O O12 0.539096 0.726256 0.425209
O O13 0.776094 0.500000 0.100031
O O14 0.877450 0.731420 0.251429
O O15 0.750000 0.750000 0.000000
O O16 0.000000 0.793148 0.500000
O O17 0.051819 0.000000 0.650076
#
# Coordination Sequence:
#
# PCOD9185760 Si02
#       6
#     8   8   8   8   8   8
#     4   9  18  35  58  80 103 135 177 219 263 315
#     4   9  18  33  54  78 103 136 175 218 261 310
#     4  10  20  35  55  79 110 141 173 215 265 313
#     4   9  18  33  55  81 104 136 175 215 261 313
#     4  11  23  37  53  76 110 145 178 216 264 313
#     4  10  19  34  58  82 105 134 175 219 261 313
#
# _framework density 17.392996
#
# number of rings (size 3 to 8) (size 9 to 14) (size 15 to 20)
#    0.000    2.333    1.667    1.000    0.000    2.667 
#    3.000    0.000    0.000    0.000    0.000    0.000 
#    0.000    0.000    0.000    0.000    0.000    0.000 
#
# Total GULP energy -133854.215286 kJ/mol
# GULP energy per Si atom -5577.258970 kJ/mol
# Density = 1.735341 g / cm^3
# Si number density = 17.392996 Si / 1000 Ang^3
#
#
#
# Elastic Constant Matrix: (Units=GPa)
#
#
# Indices 1 2 3 4 5 6 
#
# 1 158.7229 42.6204 90.6464 0.0000 -10.8268 0.0000
# 2 42.6204 24.5580 36.2148 0.0000 -5.0256 0.0000
# 3 90.6464 36.2148 97.7863 0.0000 -4.4439 0.0000
# 4 0.0000 0.0000 0.0000 33.0306 0.0000 -1.9610
# 5 -10.8268 -5.0256 -4.4439 0.0000 34.9636 0.0000
# 6 0.0000 0.0000 0.0000 -1.9610 0.0000 23.1211
#
#
#
# Elastic Compliance Matrix: (Units=1/GPa)
#
#
# Indices 1 2 3 4 5 6 
#
# 1 0.014952 -0.011607 -0.009482 0.000000 0.001756 0.000000
# 2 -0.011607 0.101455 -0.026467 0.000000 0.007625 0.000000
# 3 -0.009482 -0.026467 0.028677 0.000000 -0.003096 0.000000
# 4 0.000000 0.000000 0.000000 0.030428 0.000000 0.002581
# 5 0.001756 0.007625 -0.003096 0.000000 0.029848 0.000000
# 6 0.000000 0.000000 0.000000 0.002581 0.000000 0.043469
#
#
# Mechanical properties :
#
#
# Convention : Reuss Voigt Hill
#
# Bulk Modulus (GPa) = 20.01127 68.89225 44.45176
# Shear Modulus (GPa) = 13.86582 25.66210 19.76396
#
# Velocity S-wave (km/s) = 2.82655 3.84530 3.37459
# Velocity P-wave (km/s) = 4.70987 7.70780 6.38722
#
# Compressibility (1/GPa) = 0.04997185
#
# Stress axis : x y z
#
# Youngs Moduli (GPa) = 66.88158 9.85655 34.87119
#
# Poissons Ratio (x) = 0.11441 0.33063
# Poissons Ratio (y) = 0.77632 0.92294
# Poissons Ratio (z) = 0.63414 0.26088
#
# Static dielectric constant tensor:
#      x y z
#    x 1.626890 0.000000 0.008260 
#    y 0.000000 1.584370 0.000000 
#    z 0.008260 0.000000 1.543010 
# 
# From -- ./inp_files/274102.got.cif
#   From: 2010.05.17/outbox.cif.g08.bks.cpg/sg12_138_cif.got.tgz:274102.got - 2010.06.03 13:09:07.
