data_PCOD9185519
_publ_section_title
;
Structure prediction by ZEFSAII (Michael W. Deem and Ramdas Pophale) SiO2 
 PCOD9185519
Probable space group: C 2/M
;
_chemical_formula_sum "Si O2"
_cell_formula_units_Z 64
_cell_length_a 22.947657
_cell_length_b 8.809448
_cell_length_c 21.761591
_cell_angle_alpha 90.000000
_cell_angle_beta 127.318087
_cell_angle_gamma 90.000000
_cell_volume 3498.637297
_symmetry_space_group_name_H-M "C 2/M"
_symmetry_group_IT_number 12
_symmetry_cell_setting 'monoclinic'
loop_
_space_group_symop_operation_xyz
x,y,z
-x,y,-z
-x,-y,-z
x,-y,z
1/2+x,1/2+y,z
1/2-x,1/2+y,-z
1/2-x,1/2-y,-z
1/2+x,1/2-y,z
loop_
_atom_site_type_symbol
_atom_site_label
_atom_site_fract_x
_atom_site_fract_y
_atom_site_fract_z
Si Si1 0.346200 0.182527 0.269155
Si Si2 0.165354 0.324983 0.878096
Si Si3 0.363788 0.818397 0.542141
Si Si4 0.009761 0.181182 0.578494
Si Si5 0.658114 0.672261 0.998351
Si Si6 0.198979 0.316118 0.234696
Si Si7 0.278896 0.817319 0.610685
Si Si8 0.081514 0.681136 0.062157
O O1 0.353907 0.228292 0.202481
O O2 0.416598 0.240430 0.350582
O O3 0.272223 0.250669 0.250488
O O4 0.341383 0.000000 0.267646
O O5 0.141226 0.500000 0.870204
O O6 0.253780 0.323793 0.939358
O O7 0.137425 0.226099 0.916907
O O8 0.439146 0.741781 0.569945
O O9 0.337422 0.780005 0.594677
O O10 0.297485 0.761105 0.456497
O O11 0.370672 0.000000 0.541955
O O12 0.000000 0.214285 0.500000
O O13 0.015743 0.000000 0.589643
O O14 0.634152 0.500000 0.994338
O O15 0.626098 0.781035 0.029398
O O16 0.202372 0.500000 0.233424
O O17 0.197010 0.274612 0.305313
O O18 0.128736 0.262889 0.150489
O O19 0.267974 0.000000 0.602025
O O20 0.075660 0.500000 0.065913
O O21 0.000000 0.743701 0.000000
#
# Coordination Sequence:
#
# PCOD9185519 Si02
#       8
#     8   8   8   8   8   8   8   8
#     4  11  22  37  58  85 114 144 185 237 284 331
#     4   9  19  35  55  81 110 143 180 225 279 334
#     4  10  20  36  58  84 114 148 188 233 278 327
#     4  11  24  40  57  81 117 155 188 227 279 337
#     4  10  19  34  57  82 110 142 182 229 279 331
#     4  10  20  36  58  81 109 145 186 229 276 336
#     4   9  19  36  58  83 111 148 189 229 278 332
#     4  10  21  37  56  80 111 149 189 229 279 337
#
# _framework density 18.292836000000001
#
# number of rings (size 3 to 8) (size 9 to 14) (size 15 to 20)
#    0.000    2.000    1.250    2.250    0.000    6.750 
#    2.250    0.000    0.000    0.000    0.000    0.000 
#    0.000    0.000    0.000    0.000    0.000    0.000 
#
# Total GULP energy -178610.407465 kJ/mol
# GULP energy per Si atom -5581.575233 kJ/mol
# Density = 1.825120 g / cm^3
# Si number density = 18.292836 Si / 1000 Ang^3
#
#
#
# Elastic Constant Matrix: (Units=GPa)
#
#
# Indices 1 2 3 4 5 6 
#
# 1 58.2968 10.4553 62.5545 0.0000 3.2070 0.0000
# 2 10.4553 10.8730 34.8934 0.0000 1.2082 0.0000
# 3 62.5545 34.8934 163.0679 0.0000 -14.6336 0.0000
# 4 0.0000 0.0000 0.0000 15.0150 0.0000 -5.8358
# 5 3.2070 1.2082 -14.6336 0.0000 26.8458 0.0000
# 6 0.0000 0.0000 0.0000 -5.8358 0.0000 25.3848
#
#
#
# Elastic Compliance Matrix: (Units=1/GPa)
#
#
# Indices 1 2 3 4 5 6 
#
# 1 0.041837 0.069430 -0.033261 0.000000 -0.026253 0.000000
# 2 0.069430 0.489897 -0.141087 0.000000 -0.107249 0.000000
# 3 -0.033261 -0.141087 0.052580 0.000000 0.038985 0.000000
# 4 0.000000 0.000000 0.000000 0.073135 0.000000 0.016813
# 5 -0.026253 -0.107249 0.038985 0.000000 0.066463 0.000000
# 6 0.000000 0.000000 0.000000 0.016813 0.000000 0.043259
#
#
# Mechanical properties :
#
#
# Convention : Reuss Voigt Hill
#
# Bulk Modulus (GPa) = 2.67039 49.78266 26.22653
# Shear Modulus (GPa) = 4.53789 21.73808 13.13799
#
# Velocity S-wave (km/s) = 1.57673 3.45097 2.68284
# Velocity P-wave (km/s) = 2.18581 6.56904 4.89541
#
# Compressibility (1/GPa) = 0.37447647
#
# Stress axis : x y z
#
# Youngs Moduli (GPa) = 23.90251 2.04125 19.01861
#
# Poissons Ratio (x) = -0.14172 0.63259
# Poissons Ratio (y) = -1.65954 2.68327
# Poissons Ratio (z) = 0.79503 0.28799
#
# Static dielectric constant tensor:
#      x y z
#    x 1.601090 0.000000 -0.008690 
#    y 0.000000 1.617290 0.000000 
#    z -0.008690 0.000000 1.626560 
# 
# From -- ./inp_files/324306.got.cif
#   From: 2010.05.17/outbox.cif.g08.bks.cpg/sg12_163_cif.got.tgz:324306.got - 2010.06.03 13:09:07.
