data_PCOD9185009
_publ_section_title
;
Structure prediction by ZEFSAII (Michael W. Deem and Ramdas Pophale) SiO2 
 PCOD9185009
Probable space group: C 2/M
;
_chemical_formula_sum "Si O2"
_cell_formula_units_Z 56
_cell_length_a 24.700514
_cell_length_b 14.537040
_cell_length_c 11.900717
_cell_angle_alpha 90.000000
_cell_angle_beta 39.474444
_cell_angle_gamma 90.000000
_cell_volume 2716.630248
_symmetry_space_group_name_H-M "C 2/M"
_symmetry_group_IT_number 12
_symmetry_cell_setting 'monoclinic'
loop_
_space_group_symop_operation_xyz
x,y,z
-x,y,-z
-x,-y,-z
x,-y,z
1/2+x,1/2+y,z
1/2-x,1/2+y,-z
1/2-x,1/2-y,-z
1/2+x,1/2-y,z
loop_
_atom_site_type_symbol
_atom_site_label
_atom_site_fract_x
_atom_site_fract_y
_atom_site_fract_z
Si Si1 0.904567 0.393045 0.706187
Si Si2 0.251731 0.650442 0.441183
Si Si3 0.026467 0.248656 0.233169
Si Si4 0.425434 0.391039 0.030119
Si Si5 0.763767 0.400557 0.283235
Si Si6 0.034546 0.596476 0.068639
Si Si7 0.845818 0.276927 0.600428
O O1 0.880344 0.500000 0.770874
O O2 0.913560 0.318523 0.792489
O O3 0.845152 0.342205 0.710260
O O4 0.000000 0.397986 0.500000
O O5 0.250000 0.750000 0.500000
O O6 0.337724 0.630752 0.234940
O O7 0.245308 0.594214 0.566545
O O8 0.178988 0.655410 0.463261
O O9 0.994422 0.315090 0.186073
O O10 0.940457 0.232153 0.440699
O O11 0.065873 0.163931 0.101573
O O12 0.431280 0.500000 0.999639
O O13 0.500000 0.366321 0.000000
O O14 0.733640 0.500000 0.285826
O O15 0.717122 0.310709 0.308545
O O16 0.864054 0.392535 0.099216
O O17 0.014386 0.500000 0.161699
O O18 0.000000 0.590363 0.000000
#
# Coordination Sequence:
#
# PCOD9185009 Si02
#       7
#     8   8   8   8   8   8   8
#     4   9  20  38  59  83 109 142 188 240 291 339
#     4  10  19  34  55  81 112 146 186 228 272 323
#     4  11  20  36  59  80 109 145 187 236 282 333
#     4  11  23  37  55  83 120 158 190 222 271 339
#     4  10  20  35  55  82 117 151 185 227 278 338
#     4  10  20  34  55  84 114 145 184 231 284 336
#     4  10  21  36  57  83 109 143 188 236 286 338
#
# _framework density 20.613773999999999
#
# number of rings (size 3 to 8) (size 9 to 14) (size 15 to 20)
#    0.000    1.857    0.000    5.571    0.000    3.429 
#    0.000    3.571    0.000    4.286    0.000    0.000 
#    0.000    0.000    0.000    0.000    0.000    0.286 
#
# Total GULP energy -155967.827432 kJ/mol
# GULP energy per Si atom -5570.279551 kJ/mol
# Density = 2.056686 g / cm^3
# Si number density = 20.613774 Si / 1000 Ang^3
#
#
#
# Elastic Constant Matrix: (Units=GPa)
#
#
# Indices 1 2 3 4 5 6 
#
# 1 103.4446 49.9312 19.9235 0.0000 14.2892 0.0000
# 2 49.9312 141.4423 24.2792 0.0000 7.2448 0.0000
# 3 19.9235 24.2792 65.2061 0.0000 -3.9547 0.0000
# 4 0.0000 0.0000 0.0000 5.7266 0.0000 21.6602
# 5 14.2892 7.2448 -3.9547 0.0000 27.7704 0.0000
# 6 0.0000 0.0000 0.0000 21.6602 0.0000 40.7235
#
#
#
# Elastic Compliance Matrix: (Units=1/GPa)
#
#
# Indices 1 2 3 4 5 6 
#
# 1 0.012866 -0.003732 -0.002909 0.000000 -0.006061 0.000000
# 2 -0.003732 0.008796 -0.002176 0.000000 -0.000684 0.000000
# 3 -0.002909 -0.002176 0.017310 0.000000 0.004530 0.000000
# 4 0.000000 0.000000 0.000000 -0.172588 0.000000 0.091797
# 5 -0.006061 -0.000684 0.004530 0.000000 0.039952 0.000000
# 6 0.000000 0.000000 0.000000 0.091797 0.000000 -0.024269
#
#
# Mechanical properties :
#
#
# Convention : Reuss Voigt Hill
#
# Bulk Modulus (GPa) = 46.86718 55.37342 51.12030
# Shear Modulus (GPa) = -53.65592 29.24138 -12.20727
#
# Velocity S-wave (km/s) = -5.10741 3.77043 -2.43614
# Velocity P-wave (km/s) = 3.46348 6.77315 4.11581
#
# Compressibility (1/GPa) = 0.02133689
#
# Stress axis : x y z
#
# Youngs Moduli (GPa) = 77.72480 113.68638 57.77032
#
# Poissons Ratio (x) = 0.42428 0.16806
# Poissons Ratio (y) = 0.29007 0.12573
# Poissons Ratio (z) = 0.22611 0.24742
#
# Static dielectric constant tensor:
#      x y z
#    x 1.763650 0.000000 0.028470 
#    y 0.000000 1.759190 0.000000 
#    z 0.028470 0.000000 1.799130 
# 
# From -- ./inp_files/183435.got.cif
#   From: 2010.05.17/outbox.cif.g08.bks.cpg/sg12_92_cif.got.tgz:183435.got - 2010.06.03 13:09:07.
