data_PCOD9185650
_publ_section_title
;
Structure prediction by ZEFSAII (Michael W. Deem and Ramdas Pophale) SiO2 
 PCOD9185650
Probable space group: C 2/M
;
_chemical_formula_sum "Si O2"
_cell_formula_units_Z 48
_cell_length_a 24.154207
_cell_length_b 14.444294
_cell_length_c 15.050746
_cell_angle_alpha 90.000000
_cell_angle_beta 27.872770
_cell_angle_gamma 90.000000
_cell_volume 2454.922586
_symmetry_space_group_name_H-M "C 2/M"
_symmetry_group_IT_number 12
_symmetry_cell_setting 'monoclinic'
loop_
_space_group_symop_operation_xyz
x,y,z
-x,y,-z
-x,-y,-z
x,-y,z
1/2+x,1/2+y,z
1/2-x,1/2+y,-z
1/2-x,1/2-y,-z
1/2+x,1/2-y,z
loop_
_atom_site_type_symbol
_atom_site_label
_atom_site_fract_x
_atom_site_fract_y
_atom_site_fract_z
Si Si1 0.122369 0.270126 0.221685
Si Si2 0.687851 0.892146 0.588688
Si Si3 0.755509 0.216906 0.779190
Si Si4 0.964305 0.100056 0.446484
Si Si5 0.556463 0.893813 0.168946
Si Si6 0.136566 0.783564 0.780658
O O1 0.150576 0.264685 0.286413
O O2 0.069947 0.361250 0.251579
O O3 0.041954 0.184844 0.302958
O O4 0.250000 0.250000 0.000000
O O5 0.576422 0.885677 0.678967
O O6 0.804952 0.854014 0.372738
O O7 0.654660 0.819298 0.713089
O O8 0.699194 0.000000 0.599361
O O9 0.829102 0.131349 0.633918
O O10 0.711152 0.283913 0.765699
O O11 0.643610 0.173042 0.989278
O O12 0.000000 0.093045 0.500000
O O13 0.986311 0.000000 0.373894
O O14 0.595273 0.000000 0.103439
O O15 0.000000 0.799255 0.000000
#
# Coordination Sequence:
#
# PCOD9185650 Si02
#       6
#     8   8   8   8   8   8
#     4   9  19  32  51  79 114 151 188 236 293 354
#     4  10  23  40  61  91 123 156 201 252 304 360
#     4  10  19  34  57  85 114 153 194 242 297 351
#     4   9  17  30  50  76 104 136 181 232 287 344
#     4  10  19  35  57  84 119 155 192 242 298 352
#     4  11  22  40  64  87 121 160 206 250 301 355
#
# _framework density 19.552551999999999
#
# number of rings (size 3 to 8) (size 9 to 14) (size 15 to 20)
#    0.000    2.167    1.667    1.500    0.000    6.000 
#    0.000    0.833    0.000    7.500    0.000    0.000 
#    0.000    0.000    0.000    0.000    0.000    0.000 
#
# Total GULP energy -133776.456755 kJ/mol
# GULP energy per Si atom -5574.019031 kJ/mol
# Density = 1.950805 g / cm^3
# Si number density = 19.552552 Si / 1000 Ang^3
#
#
#
# Elastic Constant Matrix: (Units=GPa)
#
#
# Indices 1 2 3 4 5 6 
#
# 1 58.4052 -0.3198 -3.9940 0.0000 -7.0025 0.0000
# 2 -0.3198 38.7836 18.7553 0.0000 -0.2826 0.0000
# 3 -3.9940 18.7553 98.8061 0.0000 -12.5346 0.0000
# 4 0.0000 0.0000 0.0000 18.3052 0.0000 -1.9699
# 5 -7.0025 -0.2826 -12.5346 0.0000 18.1936 0.0000
# 6 0.0000 0.0000 0.0000 -1.9699 0.0000 13.7284
#
#
#
# Elastic Compliance Matrix: (Units=1/GPa)
#
#
# Indices 1 2 3 4 5 6 
#
# 1 0.018251 -0.000724 0.001934 0.000000 0.008346 0.000000
# 2 -0.000724 0.028634 -0.005965 0.000000 -0.003943 0.000000
# 3 0.001934 -0.005965 0.012507 0.000000 0.009268 0.000000
# 4 0.000000 0.000000 0.000000 0.055486 0.000000 0.007962
# 5 0.008346 -0.003943 0.009268 0.000000 0.064501 0.000000
# 6 0.000000 0.000000 0.000000 0.007962 0.000000 0.073984
#
#
# Mechanical properties :
#
#
# Convention : Reuss Voigt Hill
#
# Bulk Modulus (GPa) = 20.04733 24.98644 22.51688
# Shear Modulus (GPa) = 17.88913 22.14901 20.01907
#
# Velocity S-wave (km/s) = 3.02805 3.36935 3.20325
# Velocity P-wave (km/s) = 4.74350 5.28617 5.02217
#
# Compressibility (1/GPa) = 0.04988197
#
# Stress axis : x y z
#
# Youngs Moduli (GPa) = 54.79259 34.92364 79.95502
#
# Poissons Ratio (x) = 0.02528 -0.15462
# Poissons Ratio (y) = 0.03966 0.47691
# Poissons Ratio (z) = -0.10596 0.20831
#
# Static dielectric constant tensor:
#      x y z
#    x 1.731280 0.000000 0.023780 
#    y 0.000000 1.673930 0.000000 
#    z 0.023780 0.000000 1.711050 
# 
# From -- ./inp_files/142705.got.cif
#   From: 2010.05.17/outbox.cif.g08.bks.cpg/sg12_72_cif.got.tgz:142705.got - 2010.06.03 13:09:07.
