data_PCOD9185173
_publ_section_title
;
Structure prediction by ZEFSAII (Michael W. Deem and Ramdas Pophale) SiO2 
 PCOD9185173
Probable space group: C 2/M
;
_chemical_formula_sum "Si O2"
_cell_formula_units_Z 60
_cell_length_a 14.209677
_cell_length_b 23.577014
_cell_length_c 12.308152
_cell_angle_alpha 90.000000
_cell_angle_beta 49.094281
_cell_angle_gamma 90.000000
_cell_volume 3116.491273
_symmetry_space_group_name_H-M "C 2/M"
_symmetry_group_IT_number 12
_symmetry_cell_setting 'monoclinic'
loop_
_space_group_symop_operation_xyz
x,y,z
-x,y,-z
-x,-y,-z
x,-y,z
1/2+x,1/2+y,z
1/2-x,1/2+y,-z
1/2-x,1/2-y,-z
1/2+x,1/2-y,z
loop_
_atom_site_type_symbol
_atom_site_label
_atom_site_fract_x
_atom_site_fract_y
_atom_site_fract_z
Si Si1 0.066447 0.731447 0.283794
Si Si2 0.234280 0.359063 0.677517
Si Si3 0.500000 0.326663 0.500000
Si Si4 0.730779 0.348901 0.764310
Si Si5 0.060711 0.748648 0.840108
Si Si6 0.096700 0.624167 0.565831
Si Si7 0.157503 0.432968 0.180192
Si Si8 0.640490 0.065716 0.939096
O O1 0.052832 0.787337 0.364332
O O2 0.043043 0.743384 0.175215
O O3 0.954166 0.688696 0.399140
O O4 0.188011 0.697773 0.229928
O O5 0.380579 0.358399 0.544729
O O6 0.171816 0.296293 0.732125
O O7 0.163528 0.387245 0.629616
O O8 0.213444 0.392348 0.805068
O O9 0.615429 0.312262 0.808348
O O10 0.806603 0.375869 0.605770
O O11 0.726855 0.400109 0.853112
O O12 0.000000 0.732404 0.000000
O O13 0.970807 0.586801 0.662919
O O14 0.169645 0.500000 0.179575
O O15 0.143926 0.417370 0.063098
O O16 0.683003 0.000000 0.899041
O O17 0.500000 0.067565 0.000000
#
# Coordination Sequence:
#
# PCOD9185173 Si02
#       8
#     8   8   4   8   8   8   8   8
#     4  10  19  35  54  77 112 159 190 225 286 339
#     4  11  22  34  57  86 115 155 198 235 285 347
#     4  12  20  36  55  80 119 158 196 224 288 348
#     4  11  21  37  54  84 123 153 189 242 285 344
#     4  11  24  36  56  85 120 155 196 238 286 344
#     4  10  19  34  56  79 116 149 193 239 284 337
#     4  10  21  36  61  87 112 149 192 244 300 342
#     4  10  20  38  58  81 112 146 188 242 296 338
#
# _framework density 19.252420999999998
#
# number of rings (size 3 to 8) (size 9 to 14) (size 15 to 20)
#    0.000    1.467    4.000    2.400    3.733    4.800 
#    0.000    0.333    0.000    0.400    0.000    0.933 
#    0.000    0.000    0.000    0.000    0.000    0.000 
#
# Total GULP energy -167334.784685 kJ/mol
# GULP energy per Si atom -5577.826156 kJ/mol
# Density = 1.920860 g / cm^3
# Si number density = 19.252421 Si / 1000 Ang^3
#
#
#
# Elastic Constant Matrix: (Units=GPa)
#
#
# Indices 1 2 3 4 5 6 
#
# 1 34.0316 9.9322 18.5725 0.0000 11.3431 0.0000
# 2 9.9322 52.2333 11.3461 0.0000 6.7056 0.0000
# 3 18.5725 11.3461 39.9602 0.0000 25.2035 0.0000
# 4 0.0000 0.0000 0.0000 15.9557 0.0000 0.7389
# 5 11.3431 6.7056 25.2035 0.0000 32.0975 0.0000
# 6 0.0000 0.0000 0.0000 0.7389 0.0000 4.3362
#
#
#
# Elastic Compliance Matrix: (Units=1/GPa)
#
#
# Indices 1 2 3 4 5 6 
#
# 1 0.040080 -0.003802 -0.018061 0.000000 0.000812 0.000000
# 2 -0.003802 0.020769 -0.004439 0.000000 0.000491 0.000000
# 3 -0.018061 -0.004439 0.059572 0.000000 -0.039467 0.000000
# 4 0.000000 0.000000 0.000000 0.063172 0.000000 -0.010765
# 5 0.000812 0.000491 -0.039467 0.000000 0.061756 0.000000
# 6 0.000000 0.000000 0.000000 -0.010765 0.000000 0.232449
#
#
# Mechanical properties :
#
#
# Convention : Reuss Voigt Hill
#
# Bulk Modulus (GPa) = 14.74561 22.88074 18.81317
# Shear Modulus (GPa) = 9.04144 16.23618 12.63881
#
# Velocity S-wave (km/s) = 2.16944 2.90717 2.56496
# Velocity P-wave (km/s) = 3.73510 4.81448 4.30873
#
# Compressibility (1/GPa) = 0.06781681
#
# Stress axis : x y z
#
# Youngs Moduli (GPa) = 24.95000 48.14820 16.78635
#
# Poissons Ratio (x) = 0.18308 0.30317
# Poissons Ratio (y) = 0.09487 0.07452
# Poissons Ratio (z) = 0.45062 0.21374
#
# Static dielectric constant tensor:
#      x y z
#    x 1.716850 0.000000 0.006970 
#    y 0.000000 1.683730 0.000000 
#    z 0.006970 0.000000 1.691330 
# 
# From -- ./inp_files/148605.got.cif
#   From: 2010.05.17/outbox.cif.g08.bks.cpg/sg12_75_cif.got.tgz:148605.got - 2010.06.03 13:09:07.
