data_PCOD9185079
_publ_section_title
;
Structure prediction by ZEFSAII (Michael W. Deem and Ramdas Pophale) SiO2 
 PCOD9185079
Probable space group: C 2/M
;
_chemical_formula_sum "Si O2"
_cell_formula_units_Z 50
_cell_length_a 11.024923
_cell_length_b 21.575958
_cell_length_c 15.654187
_cell_angle_alpha 90.000000
_cell_angle_beta 141.493877
_cell_angle_gamma 90.000000
_cell_volume 2318.377100
_symmetry_space_group_name_H-M "C 2/M"
_symmetry_group_IT_number 12
_symmetry_cell_setting 'monoclinic'
loop_
_space_group_symop_operation_xyz
x,y,z
-x,y,-z
-x,-y,-z
x,-y,z
1/2+x,1/2+y,z
1/2-x,1/2+y,-z
1/2-x,1/2-y,-z
1/2+x,1/2-y,z
loop_
_atom_site_type_symbol
_atom_site_label
_atom_site_fract_x
_atom_site_fract_y
_atom_site_fract_z
Si Si1 0.500000 0.000000 0.000000
Si Si2 0.273224 0.107007 0.975492
Si Si3 0.265191 0.348924 0.859915
Si Si4 0.310480 0.572880 0.719653
Si Si5 0.243971 0.168629 0.447834
Si Si6 0.717486 0.698269 0.612726
Si Si7 0.210370 0.204455 0.798908
O O1 0.593030 0.946110 0.988928
O O2 0.292386 0.166502 0.923864
O O3 0.045718 0.084503 0.846956
O O4 0.315846 0.124059 0.096618
O O5 0.229277 0.391165 0.757426
O O6 0.212505 0.277304 0.817474
O O7 0.500000 0.348900 0.000000
O O8 0.273115 0.500000 0.701426
O O9 0.226400 0.607309 0.590064
O O10 0.306960 0.229877 0.430382
O O11 0.319815 0.167805 0.586873
O O12 0.012384 0.181075 0.328693
O O13 0.500000 0.670875 0.500000
O O14 0.800874 0.694734 0.754150
#
# Coordination Sequence:
#
# PCOD9185079 Si02
#       7
#     2   8   8   8   8   8   8
#     4  12  24  40  50  72 114 166 188 214 278 340
#     4  10  23  35  53  75 113 152 188 225 269 329
#     4  10  21  34  56  84 110 142 192 236 279 318
#     4  10  19  36  59  80 109 145 188 228 270 335
#     4   9  18  32  55  85 107 140 176 227 281 331
#     4   9  17  32  56  83 109 136 177 225 285 329
#     4  10  19  34  55  85 110 141 182 235 282 323
#
# _framework density 21.56681
#
# number of rings (size 3 to 8) (size 9 to 14) (size 15 to 20)
#    0.000    2.240    2.400    0.480    2.240    2.240 
#    0.000    0.000    1.760    2.880    0.000    0.000 
#    0.000    0.000    0.000    0.000    0.000    0.000 
#
# Total GULP energy -139408.585289 kJ/mol
# GULP energy per Si atom -5576.343412 kJ/mol
# Density = 2.151772 g / cm^3
# Si number density = 21.566810 Si / 1000 Ang^3
#
#
#
# Elastic Constant Matrix: (Units=GPa)
#
#
# Indices 1 2 3 4 5 6 
#
# 1 134.9250 71.9395 61.7359 -0.0004 -48.4747 -0.0002
# 2 71.9395 198.7067 69.7900 0.0000 -55.9443 0.0000
# 3 61.7359 69.7900 108.3046 -0.0005 -51.9561 -0.0005
# 4 -0.0004 0.0000 -0.0005 6.8888 -0.0005 2.9816
# 5 -48.4747 -55.9443 -51.9561 -0.0005 51.5505 -0.0003
# 6 -0.0002 0.0000 -0.0005 2.9816 -0.0003 23.9852
#
#
#
# Elastic Compliance Matrix: (Units=1/GPa)
#
#
# Indices 1 2 3 4 5 6 
#
# 1 0.011846 -0.001428 -0.002385 0.000001 0.007185 0.000000
# 2 -0.001428 0.007592 -0.001490 0.000000 0.005394 0.000000
# 3 -0.002385 -0.001490 0.018783 0.000002 0.015070 0.000000
# 4 0.000001 0.000000 0.000002 0.153417 0.000004 -0.019072
# 5 0.007185 0.005394 0.015070 0.000004 0.047197 0.000000
# 6 0.000000 0.000000 0.000000 -0.019072 0.000000 0.044063
#
#
# Mechanical properties :
#
#
# Convention : Reuss Voigt Hill
#
# Bulk Modulus (GPa) = 36.21511 94.31856 65.26683
# Shear Modulus (GPa) = 16.51754 32.38297 24.45025
#
# Velocity S-wave (km/s) = 2.77045 3.87915 3.37070
# Velocity P-wave (km/s) = 5.20215 7.99324 6.74367
#
# Compressibility (1/GPa) = 0.02761279
#
# Stress axis : x y z
#
# Youngs Moduli (GPa) = 84.41875 131.72575 53.24036
#
# Poissons Ratio (x) = 0.18809 0.12699
# Poissons Ratio (y) = 0.12054 0.07935
# Poissons Ratio (z) = 0.20136 0.19634
#
# Static dielectric constant tensor:
#      x y z
#    x 1.847260 0.000000 0.035830 
#    y 0.000000 1.705550 0.000000 
#    z 0.035830 0.000000 1.838920 
# 
# From -- ./inp_files/206318.got.cif
#   From: 2010.05.17/outbox.cif.g08.bks.cpg/sg12_104_cif.got.tgz:206318.got - 2010.06.03 13:09:07.
