data_PCOD9185718
_publ_section_title
;
Structure prediction by ZEFSAII (Michael W. Deem and Ramdas Pophale) SiO2 
 PCOD9185718
Probable space group: C 2/M
;
_chemical_formula_sum "Si O2"
_cell_formula_units_Z 58
_cell_length_a 24.637667
_cell_length_b 9.425106
_cell_length_c 23.426017
_cell_angle_alpha 90.000000
_cell_angle_beta 150.439113
_cell_angle_gamma 90.000000
_cell_volume 2683.723801
_symmetry_space_group_name_H-M "C 2/M"
_symmetry_group_IT_number 12
_symmetry_cell_setting 'monoclinic'
loop_
_space_group_symop_operation_xyz
x,y,z
-x,y,-z
-x,-y,-z
x,-y,z
1/2+x,1/2+y,z
1/2-x,1/2+y,-z
1/2-x,1/2-y,-z
1/2+x,1/2-y,z
loop_
_atom_site_type_symbol
_atom_site_label
_atom_site_fract_x
_atom_site_fract_y
_atom_site_fract_z
Si Si1 0.239584 0.669043 0.639880
Si Si2 0.324205 0.774796 0.298508
Si Si3 0.627289 0.340935 0.775747
Si Si4 0.563442 0.332666 0.260750
Si Si5 0.091115 0.845850 0.034853
Si Si6 0.372060 0.165500 0.037066
Si Si7 0.000000 0.500000 0.500000
Si Si8 0.084167 0.332544 0.389094
O O1 0.224515 0.500000 0.642612
O O2 0.207040 0.762119 0.664600
O O3 0.361599 0.690033 0.727019
O O4 0.159451 0.692839 0.513242
O O5 0.349685 0.665446 0.271282
O O6 0.211530 0.846006 0.173015
O O7 0.428266 0.877343 0.400555
O O8 0.589587 0.500000 0.756047
O O9 0.536844 0.224438 0.706729
O O10 0.741095 0.311937 0.913363
O O11 0.559222 0.500000 0.266194
O O12 0.443669 0.263274 0.143913
O O13 0.618824 0.255043 0.365051
O O14 0.075123 0.000000 0.990576
O O15 0.087177 0.716379 0.987862
O O16 0.000000 0.834128 0.000000
O O17 0.393059 0.000000 0.067093
O O18 0.085310 0.500000 0.378319
#
# Coordination Sequence:
#
# PCOD9185718 Si02
#       8
#     8   8   8   8   8   8   2   8
#     4  10  21  39  62  94 126 164 206 254 308 371
#     4  11  21  35  62  91 128 163 208 251 305 367
#     4  10  24  43  62  91 130 165 206 259 317 372
#     4  11  23  42  66  90 125 162 207 261 316 373
#     4  10  19  34  57  88 122 162 208 253 308 371
#     4  10  22  39  60  87 122 160 206 260 314 372
#     4  12  20  32  56  92 124 164 198 250 288 358
#     4  11  24  41  66  93 122 164 213 259 312 374
#
# _framework density 21.611761000000001
#
# number of rings (size 3 to 8) (size 9 to 14) (size 15 to 20)
#    0.000    1.517    1.379    3.310    2.897    4.138 
#    0.000   10.000    0.000    0.000    0.000    0.000 
#    0.000    0.000    0.000    0.000    0.000    0.000 
#
# Total GULP energy -161728.080923 kJ/mol
# GULP energy per Si atom -5576.830377 kJ/mol
# Density = 2.156257 g / cm^3
# Si number density = 21.611761 Si / 1000 Ang^3
#
#
#
# Elastic Constant Matrix: (Units=GPa)
#
#
# Indices 1 2 3 4 5 6 
#
# 1 47.7347 6.3528 3.8889 0.0000 -18.1420 0.0000
# 2 6.3528 65.1724 36.4412 0.0000 4.0113 0.0000
# 3 3.8889 36.4412 107.5285 0.0000 -3.7540 0.0000
# 4 0.0000 0.0000 0.0000 18.0625 0.0000 0.5185
# 5 -18.1420 4.0113 -3.7540 0.0000 25.9466 0.0000
# 6 0.0000 0.0000 0.0000 0.5185 0.0000 27.1989
#
#
#
# Elastic Compliance Matrix: (Units=1/GPa)
#
#
# Indices 1 2 3 4 5 6 
#
# 1 0.029793 -0.005021 0.001385 0.000000 0.021808 0.000000
# 2 -0.005021 0.020173 -0.006921 0.000000 -0.007631 0.000000
# 3 0.001385 -0.006921 0.011726 0.000000 0.003735 0.000000
# 4 0.000000 0.000000 0.000000 0.055394 0.000000 -0.001056
# 5 0.021808 -0.007631 0.003735 0.000000 0.055509 0.000000
# 6 0.000000 0.000000 0.000000 -0.001056 0.000000 0.036786
#
#
# Mechanical properties :
#
#
# Convention : Reuss Voigt Hill
#
# Bulk Modulus (GPa) = 24.64408 34.86682 29.75545
# Shear Modulus (GPa) = 20.49004 25.82512 23.15758
#
# Velocity S-wave (km/s) = 3.08246 3.46056 3.27697
# Velocity P-wave (km/s) = 4.90883 5.66883 5.30246
#
# Compressibility (1/GPa) = 0.04057770
#
# Stress axis : x y z
#
# Youngs Moduli (GPa) = 33.56512 49.57077 85.28183
#
# Poissons Ratio (x) = 0.24890 -0.11816
# Poissons Ratio (y) = 0.16853 0.59027
# Poissons Ratio (z) = -0.04650 0.34310
#
# Static dielectric constant tensor:
#      x y z
#    x 1.856280 0.000000 0.005870 
#    y 0.000000 1.705660 0.000000 
#    z 0.005870 0.000000 1.806940 
# 
# From -- ./inp_files/351488.got.cif
#   From: 2010.05.17/outbox.cif.g08.bks.cpg/sg12_176_cif.got.tgz:351488.got - 2010.06.03 13:09:07.
