data_PCOD9185545
_publ_section_title
;
Structure prediction by ZEFSAII (Michael W. Deem and Ramdas Pophale) SiO2 
 PCOD9185545
Probable space group: C 2/M
;
_chemical_formula_sum "Si O2"
_cell_formula_units_Z 48
_cell_length_a 8.153417
_cell_length_b 18.902130
_cell_length_c 18.332691
_cell_angle_alpha 90.000000
_cell_angle_beta 131.629888
_cell_angle_gamma 90.000000
_cell_volume 2111.833753
_symmetry_space_group_name_H-M "C 2/M"
_symmetry_group_IT_number 12
_symmetry_cell_setting 'monoclinic'
loop_
_space_group_symop_operation_xyz
x,y,z
-x,y,-z
-x,-y,-z
x,-y,z
1/2+x,1/2+y,z
1/2-x,1/2+y,-z
1/2-x,1/2-y,-z
1/2+x,1/2-y,z
loop_
_atom_site_type_symbol
_atom_site_label
_atom_site_fract_x
_atom_site_fract_y
_atom_site_fract_z
Si Si1 0.109436 0.797230 0.735918
Si Si2 0.313212 0.082126 0.145669
Si Si3 0.439246 0.919039 0.561545
Si Si4 0.812648 0.657184 0.658302
Si Si5 0.571932 0.810420 0.940798
Si Si6 0.583023 0.580113 0.221631
O O1 0.115876 0.823938 0.654404
O O2 0.358002 0.781135 0.834826
O O3 0.959040 0.728422 0.696648
O O4 0.039109 0.860336 0.768871
O O5 0.542358 0.099756 0.254398
O O6 0.322936 0.128624 0.076993
O O7 0.125036 0.098838 0.149506
O O8 0.297453 0.000000 0.124248
O O9 0.500000 0.889024 0.500000
O O10 0.285271 0.874040 0.569506
O O11 0.673273 0.922292 0.671598
O O12 0.357211 0.000000 0.527797
O O13 0.500000 0.834147 0.000000
O O14 0.750000 0.750000 0.000000
O O15 0.490962 0.500000 0.199993
#
# Coordination Sequence:
#
# PCOD9185545 Si02
#       6
#     8   8   8   8   8   8
#     4  11  22  37  59  83 112 150 194 234 278 340
#     4   9  19  37  59  82 111 147 187 228 276 340
#     4   9  18  35  59  86 118 153 187 229 281 332
#     4  10  19  34  57  82 113 151 192 231 273 334
#     4  11  24  39  59  83 112 147 186 237 291 341
#     4   9  19  38  62  86 114 150 191 230 274 334
#
# _framework density 22.729061000000002
#
# number of rings (size 3 to 8) (size 9 to 14) (size 15 to 20)
#    0.000    2.167    0.000    5.500    0.000    6.333 
#    0.000    4.167    0.000   12.500    0.000    0.000 
#    0.000    0.000    0.000    0.000    0.000    0.000 
#
# Total GULP energy -134203.026993 kJ/mol
# GULP energy per Si atom -5591.792791 kJ/mol
# Density = 2.267733 g / cm^3
# Si number density = 22.729061 Si / 1000 Ang^3
#
#
#
# Elastic Constant Matrix: (Units=GPa)
#
#
# Indices 1 2 3 4 5 6 
#
# 1 125.2976 88.1540 48.0031 0.0000 -58.0404 0.0000
# 2 88.1540 143.9481 34.7257 0.0000 -42.0557 0.0000
# 3 48.0031 34.7257 88.3673 0.0000 -42.7600 0.0000
# 4 0.0000 0.0000 0.0000 22.8630 0.0000 -16.2642
# 5 -58.0404 -42.0557 -42.7600 0.0000 59.1174 0.0000
# 6 0.0000 0.0000 0.0000 -16.2642 0.0000 36.3588
#
#
#
# Elastic Compliance Matrix: (Units=1/GPa)
#
#
# Indices 1 2 3 4 5 6 
#
# 1 0.020518 -0.008375 -0.001523 0.000000 0.013084 0.000000
# 2 -0.008375 0.012213 -0.000038 0.000000 0.000439 0.000000
# 3 -0.001523 -0.000038 0.017572 0.000000 0.011188 0.000000
# 4 0.000000 0.000000 0.000000 0.064154 0.000000 0.028697
# 5 0.013084 0.000439 0.011188 0.000000 0.038166 0.000000
# 6 0.000000 0.000000 0.000000 0.028697 0.000000 0.040341
#
#
# Mechanical properties :
#
#
# Convention : Reuss Voigt Hill
#
# Bulk Modulus (GPa) = 32.86064 77.70871 55.28467
# Shear Modulus (GPa) = 22.42368 36.11652 29.27010
#
# Velocity S-wave (km/s) = 3.14437 3.99055 3.59246
# Velocity P-wave (km/s) = 5.26039 7.44957 6.44856
#
# Compressibility (1/GPa) = 0.03043155
#
# Stress axis : x y z
#
# Youngs Moduli (GPa) = 48.73835 81.87984 56.90744
#
# Poissons Ratio (x) = 0.68574 0.08668
# Poissons Ratio (y) = 0.40818 0.00214
# Poissons Ratio (z) = 0.07424 0.00308
#
# Static dielectric constant tensor:
#      x y z
#    x 1.881580 0.000000 -0.002920 
#    y 0.000000 1.814070 0.000000 
#    z -0.002920 0.000000 1.891430 
# 
# From -- ./inp_files/256712.got.cif
#   From: 2010.05.17/outbox.cif.g08.bks.cpg/sg12_129_cif.got.tgz:256712.got - 2010.06.03 13:09:07.
