data_PCOD9185212
_publ_section_title
;
Structure prediction by ZEFSAII (Michael W. Deem and Ramdas Pophale) SiO2 
 PCOD9185212
Probable space group: C 2/M
;
_chemical_formula_sum "Si O2"
_cell_formula_units_Z 44
_cell_length_a 19.583405
_cell_length_b 20.184276
_cell_length_c 5.286482
_cell_angle_alpha 90.000000
_cell_angle_beta 77.590929
_cell_angle_gamma 90.000000
_cell_volume 2040.806729
_symmetry_space_group_name_H-M "C 2/M"
_symmetry_group_IT_number 12
_symmetry_cell_setting 'monoclinic'
loop_
_space_group_symop_operation_xyz
x,y,z
-x,y,-z
-x,-y,-z
x,-y,z
1/2+x,1/2+y,z
1/2-x,1/2+y,-z
1/2-x,1/2-y,-z
1/2+x,1/2-y,z
loop_
_atom_site_type_symbol
_atom_site_label
_atom_site_fract_x
_atom_site_fract_y
_atom_site_fract_z
Si Si1 0.255851 0.922105 0.286964
Si Si2 0.827873 0.420018 0.730462
Si Si3 0.879571 0.927093 0.278458
Si Si4 0.453373 0.833691 0.787529
Si Si5 0.423132 0.306453 0.929291
Si Si6 0.000000 0.111008 0.500000
O O1 0.303947 0.893922 0.474987
O O2 0.177289 0.919782 0.454219
O O3 0.272942 0.000000 0.258872
O O4 0.274190 0.897271 0.993681
O O5 0.827516 0.500000 0.716997
O O6 0.903120 0.393520 0.751848
O O7 0.958676 0.929344 0.322832
O O8 0.864831 0.000000 0.167100
O O9 0.877857 0.860309 0.114788
O O10 0.500000 0.817718 0.500000
O O11 0.405417 0.769695 0.896714
O O12 0.500000 0.847908 0.000000
O O13 0.440463 0.341399 0.653348
O O14 0.500000 0.302794 0.000000
#
# Coordination Sequence:
#
# PCOD9185212 Si02
#       6
#     8   8   8   8   8   4
#     4   9  20  38  58  83 120 158 188 232 294 345
#     4  10  21  39  61  88 118 150 193 239 286 348
#     4  10  21  35  57  84 114 155 200 241 284 337
#     4  11  22  39  64  87 116 154 189 236 299 349
#     4   9  20  36  53  80 117 154 187 237 292 347
#     4  10  19  34  56  80 115 146 196 248 285 332
#
# _framework density 21.560103000000002
#
# number of rings (size 3 to 8) (size 9 to 14) (size 15 to 20)
#    0.000    2.182    0.909    1.364    2.545    4.727 
#    0.000    1.818    0.000    0.000    0.000    0.000 
#    0.000    0.000    0.000    0.000    0.000    0.000 
#
# Total GULP energy -122574.929737 kJ/mol
# GULP energy per Si atom -5571.587715 kJ/mol
# Density = 2.151103 g / cm^3
# Si number density = 21.560103 Si / 1000 Ang^3
#
#
#
# Elastic Constant Matrix: (Units=GPa)
#
#
# Indices 1 2 3 4 5 6 
#
# 1 59.0961 14.9706 2.6362 0.0000 15.8669 0.0000
# 2 14.9706 45.3222 11.5991 0.0000 4.3172 0.0000
# 3 2.6362 11.5991 66.1880 0.0000 3.8984 0.0000
# 4 0.0000 0.0000 0.0000 13.5498 0.0000 -3.0139
# 5 15.8669 4.3172 3.8984 0.0000 30.1177 0.0000
# 6 0.0000 0.0000 0.0000 -3.0139 0.0000 2.1585
#
#
#
# Elastic Compliance Matrix: (Units=1/GPa)
#
#
# Indices 1 2 3 4 5 6 
#
# 1 0.021264 -0.006252 0.000862 0.000000 -0.010418 0.000000
# 2 -0.006252 0.025177 -0.004176 0.000000 0.000225 0.000000
# 3 0.000862 -0.004176 0.015919 0.000000 -0.001916 0.000000
# 4 0.000000 0.000000 0.000000 0.107049 0.000000 0.149469
# 5 -0.010418 0.000225 -0.001916 0.000000 0.038907 0.000000
# 6 0.000000 0.000000 0.000000 0.149469 0.000000 0.671981
#
#
# Mechanical properties :
#
#
# Convention : Reuss Voigt Hill
#
# Bulk Modulus (GPa) = 23.13350 25.44646 24.28998
# Shear Modulus (GPa) = 5.47143 18.59189 12.03166
#
# Velocity S-wave (km/s) = 1.59476 2.93973 2.36487
# Velocity P-wave (km/s) = 3.76086 4.83227 4.32984
#
# Compressibility (1/GPa) = 0.04322736
#
# Stress axis : x y z
#
# Youngs Moduli (GPa) = 47.02754 39.71907 62.81852
#
# Poissons Ratio (x) = 0.24833 -0.05417
# Poissons Ratio (y) = 0.29403 0.26235
# Poissons Ratio (z) = -0.04055 0.16588
#
# Static dielectric constant tensor:
#      x y z
#    x 1.800440 0.000000 0.032400 
#    y 0.000000 1.791560 0.000000 
#    z 0.032400 0.000000 1.864470 
# 
# From -- ./inp_files/16070.got.cif
#   From: 2010.05.17/outbox.cif.g08.bks.cpg/sg12_9_cif.got.tgz:16070.got - 2010.06.03 13:09:07.
