data_PCOD9185607
_publ_section_title
;
Structure prediction by ZEFSAII (Michael W. Deem and Ramdas Pophale) SiO2 
 PCOD9185607
Probable space group: C 2/M
;
_chemical_formula_sum "Si O2"
_cell_formula_units_Z 48
_cell_length_a 32.666927
_cell_length_b 10.858912
_cell_length_c 24.326845
_cell_angle_alpha 90.000000
_cell_angle_beta 16.975651
_cell_angle_gamma 90.000000
_cell_volume 2519.483907
_symmetry_space_group_name_H-M "C 2/M"
_symmetry_group_IT_number 12
_symmetry_cell_setting 'monoclinic'
loop_
_space_group_symop_operation_xyz
x,y,z
-x,y,-z
-x,-y,-z
x,-y,z
1/2+x,1/2+y,z
1/2-x,1/2+y,-z
1/2-x,1/2-y,-z
1/2+x,1/2-y,z
loop_
_atom_site_type_symbol
_atom_site_label
_atom_site_fract_x
_atom_site_fract_y
_atom_site_fract_z
Si Si1 0.948025 0.748968 0.800771
Si Si2 0.024915 0.148199 0.113449
Si Si3 0.740007 0.648573 0.614270
Si Si4 0.840641 0.865616 0.831798
Si Si5 0.479681 0.861396 0.591508
Si Si6 0.198293 0.142801 0.786951
O O1 0.910935 0.847589 0.801229
O O2 0.937195 0.798112 0.876473
O O3 0.105016 0.700653 0.591247
O O4 0.826902 0.647639 0.947483
O O5 0.866744 0.178348 0.297578
O O6 0.038358 0.000000 0.099652
O O7 0.123698 0.194908 0.936786
O O8 0.749407 0.500000 0.605498
O O9 0.674304 0.693667 0.756753
O O10 0.891613 0.749845 0.729991
O O11 0.877224 0.000000 0.762145
O O12 0.500000 0.849340 0.500000
O O13 0.634794 0.855829 0.418207
O O14 0.421511 0.000000 0.676749
O O15 0.151212 0.000000 0.845663
#
# Coordination Sequence:
#
# PCOD9185607 Si02
#       6
#     8   8   8   8   8   8
#     4  11  22  37  55  80 118 156 197 238 287 350
#     4  10  20  34  56  86 115 144 189 243 292 346
#     4  10  19  34  57  84 113 147 189 242 295 342
#     4  11  24  38  57  83 118 161 199 240 291 350
#     4  10  20  36  60  87 116 151 193 244 296 347
#     4   9  17  32  54  83 113 142 182 237 295 341
#
# _framework density 19.051521000000001
#
# number of rings (size 3 to 8) (size 9 to 14) (size 15 to 20)
#    0.000    1.833    1.667    3.000    0.000    7.000 
#    0.000    0.000    0.000    0.000    0.000    1.167 
#    0.000    0.000    0.000    0.000    0.000    0.000 
#
# Total GULP energy -133916.877106 kJ/mol
# GULP energy per Si atom -5579.869879 kJ/mol
# Density = 1.900816 g / cm^3
# Si number density = 19.051521 Si / 1000 Ang^3
#
#
#
# Elastic Constant Matrix: (Units=GPa)
#
#
# Indices 1 2 3 4 5 6 
#
# 1 121.1936 30.9996 26.3347 0.0000 5.7561 0.0000
# 2 30.9996 86.7027 38.9515 0.0000 5.6963 0.0000
# 3 26.3347 38.9515 91.0477 0.0000 2.4594 0.0000
# 4 0.0000 0.0000 0.0000 14.7225 0.0000 5.6552
# 5 5.7561 5.6963 2.4594 0.0000 30.5398 0.0000
# 6 0.0000 0.0000 0.0000 5.6552 0.0000 3.6073
#
#
#
# Elastic Compliance Matrix: (Units=1/GPa)
#
#
# Indices 1 2 3 4 5 6 
#
# 1 0.009298 -0.002543 -0.001570 0.000000 -0.001152 0.000000
# 2 -0.002543 0.015119 -0.005682 0.000000 -0.001883 0.000000
# 3 -0.001570 -0.005682 0.013862 0.000000 0.000239 0.000000
# 4 0.000000 0.000000 0.000000 0.170740 0.000000 -0.267668
# 5 -0.001152 -0.001883 0.000239 0.000000 0.033293 -0.000001
# 6 0.000000 0.000000 0.000000 -0.267668 -0.000001 0.696834
#
#
# Mechanical properties :
#
#
# Convention : Reuss Voigt Hill
#
# Bulk Modulus (GPa) = 53.50926 54.61284 54.06105
# Shear Modulus (GPa) = 5.18154 23.28449 14.23301
#
# Velocity S-wave (km/s) = 1.65096 3.49977 2.73624
# Velocity P-wave (km/s) = 5.63753 6.71262 6.19843
#
# Compressibility (1/GPa) = 0.01868835
#
# Stress axis : x y z
#
# Youngs Moduli (GPa) = 107.55400 66.14090 72.14145
#
# Poissons Ratio (x) = 0.16821 0.11327
# Poissons Ratio (y) = 0.27353 0.40989
# Poissons Ratio (z) = 0.16887 0.37580
#
# Static dielectric constant tensor:
#      x y z
#    x 1.687190 0.000000 0.006930 
#    y 0.000000 1.651180 0.000000 
#    z 0.006930 0.000000 1.690840 
# 
# From -- ./inp_files/329996.got.cif
#   From: 2010.05.17/outbox.cif.g08.bks.cpg/sg12_165_cif.got.tgz:329996.got - 2010.06.03 13:09:07.
