data_PCOD9185767
_publ_section_title
;
Structure prediction by ZEFSAII (Michael W. Deem and Ramdas Pophale) SiO2 
 PCOD9185767
Probable space group: C 2/M
;
_chemical_formula_sum "Si O2"
_cell_formula_units_Z 56
_cell_length_a 19.769905
_cell_length_b 8.819222
_cell_length_c 28.099417
_cell_angle_alpha 90.000000
_cell_angle_beta 38.968429
_cell_angle_gamma 90.000000
_cell_volume 3081.117695
_symmetry_space_group_name_H-M "C 2/M"
_symmetry_group_IT_number 12
_symmetry_cell_setting 'monoclinic'
loop_
_space_group_symop_operation_xyz
x,y,z
-x,y,-z
-x,-y,-z
x,-y,z
1/2+x,1/2+y,z
1/2-x,1/2+y,-z
1/2-x,1/2-y,-z
1/2+x,1/2-y,z
loop_
_atom_site_type_symbol
_atom_site_label
_atom_site_fract_x
_atom_site_fract_y
_atom_site_fract_z
Si Si1 0.409729 0.817331 0.702716
Si Si2 0.616228 0.324564 0.461269
Si Si3 0.271853 0.681782 0.694123
Si Si4 0.167029 0.817842 0.007227
Si Si5 0.709558 0.683042 0.874393
Si Si6 0.567714 0.181539 0.868343
Si Si7 0.863715 0.321251 0.449492
O O1 0.356788 0.759201 0.682870
O O2 0.326249 0.771341 0.789567
O O3 0.532936 0.763874 0.637053
O O4 0.411098 0.000000 0.701176
O O5 0.500000 0.322213 0.500000
O O6 0.637855 0.500000 0.463772
O O7 0.702838 0.277179 0.373995
O O8 0.613998 0.219339 0.508020
O O9 0.287213 0.500000 0.689041
O O10 0.154736 0.717175 0.779388
O O11 0.197787 0.775779 0.935943
O O12 0.168217 0.000000 0.010028
O O13 0.250000 0.750000 0.000000
O O14 0.046498 0.755918 0.079991
O O15 0.699280 0.500000 0.876125
O O16 0.620094 0.756027 0.888723
O O17 0.556977 0.000000 0.877518
O O18 0.143261 0.500000 0.553732
O O19 0.750000 0.250000 0.500000
#
# Coordination Sequence:
#
# PCOD9185767 Si02
#       7
#     8   8   8   8   8   8   8
#     4   9  18  34  56  80 106 139 181 226 270 320
#     4  10  19  34  58  82 109 144 183 225 270 321
#     4   9  18  33  55  84 111 141 178 222 272 320
#     4  11  23  39  58  80 112 147 182 223 272 326
#     4   9  19  37  60  83 106 140 182 224 271 323
#     4  10  20  35  58  86 114 142 179 223 268 324
#     4  11  23  37  54  78 111 148 186 228 274 325
#
# _framework density 18.175222000000002
#
# number of rings (size 3 to 8) (size 9 to 14) (size 15 to 20)
#    0.000    2.143    1.429    1.714    0.000    4.857 
#    2.571    0.000    0.000    0.000    0.000    0.000 
#    0.000    0.000    0.000    0.000    0.000    0.000 
#
# Total GULP energy -156220.680528 kJ/mol
# GULP energy per Si atom -5579.310019 kJ/mol
# Density = 1.813385 g / cm^3
# Si number density = 18.175222 Si / 1000 Ang^3
#
#
#
# Elastic Constant Matrix: (Units=GPa)
#
#
# Indices 1 2 3 4 5 6 
#
# 1 87.1980 28.7142 68.1203 0.0001 -23.1863 0.0000
# 2 28.7142 27.6577 36.1678 0.0002 -10.3819 -0.0001
# 3 68.1203 36.1678 133.5465 0.0000 -22.1781 0.0000
# 4 0.0001 0.0002 0.0000 25.1957 0.0000 -2.8660
# 5 -23.1863 -10.3819 -22.1781 0.0000 29.9270 0.0001
# 6 0.0000 -0.0001 0.0000 -2.8660 0.0001 33.6895
#
#
#
# Elastic Compliance Matrix: (Units=1/GPa)
#
#
# Indices 1 2 3 4 5 6 
#
# 1 0.023217 -0.011228 -0.007368 0.000000 0.008632 0.000000
# 2 -0.011228 0.063797 -0.010628 0.000000 0.005557 0.000000
# 3 -0.007368 -0.010628 0.014328 0.000000 0.001222 0.000000
# 4 0.000000 0.000000 0.000000 0.040077 0.000000 0.003409
# 5 0.008632 0.005557 0.001222 0.000000 0.042936 0.000000
# 6 0.000000 0.000000 0.000000 0.003409 0.000000 0.029973
#
#
# Mechanical properties :
#
#
# Convention : Reuss Voigt Hill
#
# Bulk Modulus (GPa) = 23.31365 57.15629 40.23497
# Shear Modulus (GPa) = 17.41710 25.45576 21.43643
#
# Velocity S-wave (km/s) = 3.09898 3.74649 3.43801
# Velocity P-wave (km/s) = 5.06556 7.08735 6.15997
#
# Compressibility (1/GPa) = 0.04289333
#
# Stress axis : x y z
#
# Youngs Moduli (GPa) = 43.07156 15.67472 69.79460
#
# Poissons Ratio (x) = 0.17600 0.51427
# Poissons Ratio (y) = 0.48362 0.74175
# Poissons Ratio (z) = 0.31737 0.16659
#
# Static dielectric constant tensor:
#      x y z
#    x 1.591100 0.000000 -0.002580 
#    y 0.000000 1.614820 0.000000 
#    z -0.002580 0.000000 1.665820 
# 
# From -- ./inp_files/363018.got.cif
#   From: 2010.05.17/outbox.cif.g08.bks.cpg/sg12_182_cif.got.tgz:363018.got - 2010.06.03 13:09:07.
