data_PCOD9185523
_publ_section_title
;
Structure prediction by ZEFSAII (Michael W. Deem and Ramdas Pophale) SiO2 
 PCOD9185523
Probable space group: C 2/M
;
_chemical_formula_sum "Si O2"
_cell_formula_units_Z 56
_cell_length_a 19.646681
_cell_length_b 8.247667
_cell_length_c 21.664904
_cell_angle_alpha 90.000000
_cell_angle_beta 122.256230
_cell_angle_gamma 90.000000
_cell_volume 2968.779206
_symmetry_space_group_name_H-M "C 2/M"
_symmetry_group_IT_number 12
_symmetry_cell_setting 'monoclinic'
loop_
_space_group_symop_operation_xyz
x,y,z
-x,y,-z
-x,-y,-z
x,-y,z
1/2+x,1/2+y,z
1/2-x,1/2+y,-z
1/2-x,1/2-y,-z
1/2+x,1/2-y,z
loop_
_atom_site_type_symbol
_atom_site_label
_atom_site_fract_x
_atom_site_fract_y
_atom_site_fract_z
Si Si1 0.037397 0.684301 0.325825
Si Si2 0.029281 0.698279 0.581446
Si Si3 0.370879 0.684590 0.213785
Si Si4 0.292241 0.803887 0.288709
Si Si5 0.884558 0.192838 0.762607
Si Si6 0.835946 0.306365 0.064490
Si Si7 0.996958 0.305850 0.069311
O O1 0.066336 0.500000 0.343699
O O2 0.080686 0.763070 0.288085
O O3 0.030797 0.754114 0.392408
O O4 0.943113 0.693017 0.263147
O O5 0.027864 0.500000 0.582880
O O6 0.122474 0.746725 0.638960
O O7 0.000000 0.749679 0.500000
O O8 0.396646 0.500000 0.238987
O O9 0.297959 0.732897 0.222664
O O10 0.351477 0.707966 0.133914
O O11 0.208115 0.749317 0.277258
O O12 0.292450 0.000000 0.287129
O O13 0.939057 0.251045 0.847038
O O14 0.884187 0.000000 0.766674
O O15 0.836818 0.500000 0.076895
O O16 0.908288 0.270154 0.052687
O O17 0.750000 0.250000 0.000000
O O18 0.006566 0.500000 0.070681
O O19 0.000000 0.242650 0.000000
#
# Coordination Sequence:
#
# PCOD9185523 Si02
#       7
#     8   8   8   8   8   8   8
#     4  10  19  34  57  82 110 145 185 228 275 330
#     4   8  15  32  59  85 110 145 188 229 273 330
#     4  11  21  35  56  80 106 142 187 231 278 331
#     4   9  20  36  55  83 114 145 186 231 277 329
#     4  11  22  36  56  82 113 149 188 231 279 334
#     4  11  23  38  56  79 110 143 182 234 284 331
#     4  10  23  41  58  78 108 147 189 233 283 331
#
# _framework density 18.862973
#
# number of rings (size 3 to 8) (size 9 to 14) (size 15 to 20)
#    0.000    2.000    1.429    3.429    2.000    2.000 
#    0.000    0.714    0.000   10.714    0.000    0.000 
#    0.000    0.000    0.000    0.000    0.000    0.000 
#
# Total GULP energy -156007.948184 kJ/mol
# GULP energy per Si atom -5571.712435 kJ/mol
# Density = 1.882004 g / cm^3
# Si number density = 18.862973 Si / 1000 Ang^3
#
#
#
# Elastic Constant Matrix: (Units=GPa)
#
#
# Indices 1 2 3 4 5 6 
#
# 1 160.3445 29.2647 68.8674 0.0000 -20.4411 0.0000
# 2 29.2647 22.5458 21.1866 0.0000 -1.8901 0.0000
# 3 68.8674 21.1866 109.1989 0.0000 -29.9734 0.0000
# 4 0.0000 0.0000 0.0000 7.5935 0.0000 6.2712
# 5 -20.4411 -1.8901 -29.9734 0.0000 29.5245 0.0000
# 6 0.0000 0.0000 0.0000 6.2712 0.0000 12.7112
#
#
#
# Elastic Compliance Matrix: (Units=1/GPa)
#
#
# Indices 1 2 3 4 5 6 
#
# 1 0.009803 -0.008959 -0.003797 0.000000 0.002359 0.000000
# 2 -0.008959 0.064647 -0.010341 0.000000 -0.012562 0.000000
# 3 -0.003797 -0.010341 0.017544 0.000000 0.014520 0.000000
# 4 0.000000 0.000000 0.000000 0.222246 0.000000 -0.109648
# 5 0.002359 -0.012562 0.014520 0.000000 0.049440 0.000000
# 6 0.000000 0.000000 0.000000 -0.109648 0.000000 0.132767
#
#
# Mechanical properties :
#
#
# Convention : Reuss Voigt Hill
#
# Bulk Modulus (GPa) = 21.83343 58.96962 40.40152
# Shear Modulus (GPa) = 8.96207 21.48387 15.22297
#
# Velocity S-wave (km/s) = 2.18208 3.37849 2.84391
# Velocity P-wave (km/s) = 4.23657 6.82267 5.67879
#
# Compressibility (1/GPa) = 0.04580133
#
# Stress axis : x y z
#
# Youngs Moduli (GPa) = 102.00856 15.46855 57.00023
#
# Poissons Ratio (x) = 0.13858 0.21641
# Poissons Ratio (y) = 0.91390 0.58943
# Poissons Ratio (z) = 0.38729 0.15996
#
# Static dielectric constant tensor:
#      x y z
#    x 1.668190 0.000000 -0.027960 
#    y 0.000000 1.657240 0.000000 
#    z -0.027960 0.000000 1.697400 
# 
# From -- ./inp_files/313708.got.cif
#   From: 2010.05.17/outbox.cif.g08.bks.cpg/sg12_157_cif.got.tgz:313708.got - 2010.06.03 13:09:07.
