data_PCOD9185494
_publ_section_title
;
Structure prediction by ZEFSAII (Michael W. Deem and Ramdas Pophale) SiO2 
 PCOD9185494
Probable space group: C 2/M
;
_chemical_formula_sum "Si O2"
_cell_formula_units_Z 56
_cell_length_a 15.880340
_cell_length_b 14.007960
_cell_length_c 14.722334
_cell_angle_alpha 90.000000
_cell_angle_beta 129.423936
_cell_angle_gamma 90.000000
_cell_volume 2529.834112
_symmetry_space_group_name_H-M "C 2/M"
_symmetry_group_IT_number 12
_symmetry_cell_setting 'monoclinic'
loop_
_space_group_symop_operation_xyz
x,y,z
-x,y,-z
-x,-y,-z
x,-y,z
1/2+x,1/2+y,z
1/2-x,1/2+y,-z
1/2-x,1/2-y,-z
1/2+x,1/2-y,z
loop_
_atom_site_type_symbol
_atom_site_label
_atom_site_fract_x
_atom_site_fract_y
_atom_site_fract_z
Si Si1 0.626862 0.385972 0.568463
Si Si2 0.697538 0.113703 0.985241
Si Si3 0.794962 0.109372 0.863567
Si Si4 0.809902 0.307563 0.821758
Si Si5 0.223247 0.615484 0.486888
Si Si6 0.121150 0.386139 0.599090
Si Si7 0.460648 0.112844 0.778385
O O1 0.500000 0.372941 0.500000
O O2 0.651021 0.500000 0.598758
O O3 0.701279 0.326027 0.688309
O O4 0.668312 0.360568 0.495334
O O5 0.784114 0.124045 0.963697
O O6 0.581964 0.151864 0.868534
O O7 0.686671 0.000000 0.993339
O O8 0.717967 0.160602 0.095712
O O9 0.853573 0.198876 0.857862
O O10 0.674914 0.120878 0.734745
O O11 0.830594 0.000000 0.869275
O O12 0.900783 0.369675 0.833113
O O13 0.221594 0.500000 0.486411
O O14 0.203769 0.647087 0.576436
O O15 0.120575 0.649231 0.355475
O O16 0.111599 0.500000 0.578285
O O17 0.000000 0.346461 0.500000
O O18 0.470122 0.000000 0.767782
#
# Coordination Sequence:
#
# PCOD9185494 Si02
#       7
#     8   8   8   8   8   8   8
#     4   9  18  33  52  77 109 142 179 224 271 320
#     4  10  19  34  57  82 106 133 170 222 281 329
#     4  10  22  36  50  72 106 146 182 216 256 312
#     4  11  20  33  53  79 107 137 175 220 272 325
#     4   8  14  27  49  76 106 137 168 208 260 315
#     4   9  16  29  50  73 100 137 176 214 261 314
#     4   9  17  31  55  86 110 127 161 221 282 326
#
# _framework density 22.135838
#
# number of rings (size 3 to 8) (size 9 to 14) (size 15 to 20)
#    0.000    2.571    0.000    3.857    0.000    5.143 
#    0.000    4.286    0.000    1.714    0.000    4.000 
#    0.000    0.000    0.000    0.000    0.000    0.000 
#
# Total GULP energy -156189.327492 kJ/mol
# GULP energy per Si atom -5578.190268 kJ/mol
# Density = 2.208546 g / cm^3
# Si number density = 22.135838 Si / 1000 Ang^3
#
#
#
# Elastic Constant Matrix: (Units=GPa)
#
#
# Indices 1 2 3 4 5 6 
#
# 1 72.0232 -2.8581 37.5809 0.0000 -16.5744 0.0000
# 2 -2.8581 78.6992 6.5557 0.0000 -9.2504 0.0000
# 3 37.5809 6.5557 62.4113 0.0000 -31.8897 0.0000
# 4 0.0000 0.0000 0.0000 18.0811 0.0000 -11.3944
# 5 -16.5744 -9.2504 -31.8897 0.0000 31.6971 0.0000
# 6 0.0000 0.0000 0.0000 -11.3944 0.0000 4.9442
#
#
#
# Elastic Compliance Matrix: (Units=1/GPa)
#
#
# Indices 1 2 3 4 5 6 
#
# 1 0.020618 0.001578 -0.014069 0.000000 -0.002913 0.000000
# 2 0.001578 0.013322 0.000120 0.000000 0.004834 0.000000
# 3 -0.014069 0.000120 0.042682 0.000000 0.035620 0.000000
# 4 0.000000 0.000000 0.000000 -0.122269 0.000000 -0.281783
# 5 -0.002913 0.004834 0.035620 0.000000 0.067273 0.000000
# 6 0.000000 0.000000 0.000000 -0.281783 0.000000 -0.447143
#
#
# Mechanical properties :
#
#
# Convention : Reuss Voigt Hill
#
# Bulk Modulus (GPa) = 19.27483 32.85453 26.06468
# Shear Modulus (GPa) = -13.03843 22.40150 4.68154
#
# Velocity S-wave (km/s) = -2.42960 3.18465 1.45585
# Velocity P-wave (km/s) = 0.92509 5.32889 3.82445
#
# Compressibility (1/GPa) = 0.05188114
#
# Stress axis : x y z
#
# Youngs Moduli (GPa) = 48.50158 75.06311 23.42888
#
# Poissons Ratio (x) = -0.11848 0.32963
# Poissons Ratio (y) = -0.07655 -0.00282
# Poissons Ratio (z) = 0.68239 -0.00904
#
# Static dielectric constant tensor:
#      x y z
#    x 1.810620 0.000000 0.010210 
#    y 0.000000 1.888090 0.000000 
#    z 0.010210 0.000000 1.802660 
# 
# From -- ./inp_files/225371.got.cif
#   From: 2010.05.17/outbox.cif.g08.bks.cpg/sg12_113_cif.got.tgz:225371.got - 2010.06.03 13:09:07.
