data_PCOD9185676
_publ_section_title
;
Structure prediction by ZEFSAII (Michael W. Deem and Ramdas Pophale) SiO2 
 PCOD9185676
Probable space group: C 2/M
;
_chemical_formula_sum "Si O2"
_cell_formula_units_Z 32
_cell_length_a 24.035693
_cell_length_b 7.789038
_cell_length_c 23.362920
_cell_angle_alpha 90.000000
_cell_angle_beta 154.913216
_cell_angle_gamma 90.000000
_cell_volume 1854.486815
_symmetry_space_group_name_H-M "C 2/M"
_symmetry_group_IT_number 12
_symmetry_cell_setting 'monoclinic'
loop_
_space_group_symop_operation_xyz
x,y,z
-x,y,-z
-x,-y,-z
x,-y,z
1/2+x,1/2+y,z
1/2-x,1/2+y,-z
1/2-x,1/2-y,-z
1/2+x,1/2-y,z
loop_
_atom_site_type_symbol
_atom_site_label
_atom_site_fract_x
_atom_site_fract_y
_atom_site_fract_z
Si Si1 0.903959 0.000000 0.355739
Si Si2 0.625727 0.000000 0.157232
Si Si3 0.102668 0.295614 0.343147
Si Si4 0.477248 0.203221 0.608354
Si Si5 0.828609 0.806239 0.713572
O O1 0.756839 0.000000 0.241395
O O2 0.000000 0.000000 0.500000
O O3 0.937132 0.831359 0.349420
O O4 0.629823 0.834481 0.202190
O O5 0.500000 0.000000 0.000000
O O6 0.094153 0.500000 0.327788
O O7 0.250000 0.250000 0.500000
O O8 0.016399 0.249612 0.318192
O O9 0.088485 0.211491 0.267996
O O10 0.324770 0.224279 0.446394
O O11 0.507940 0.000000 0.630609
O O12 0.839111 0.000000 0.745143
#
# Coordination Sequence:
#
# PCOD9185676 Si02
#       5
#     4   4   8   8   8
#     4  12  22  36  60  80 116 156 186 232 283 338
#     4  12  26  42  56  80 118 158 196 231 275 344
#     4   9  16  27  50  86 121 141 175 235 290 334
#     4   9  19  32  54  91 118 140 180 237 289 332
#     4  10  19  34  57  86 115 149 187 238 282 330
#
# _framework density 17.255447
#
# number of rings (size 3 to 8) (size 9 to 14) (size 15 to 20)
#    0.000    2.000    3.750    2.250    7.000    2.000 
#    0.000    0.000    0.000    1.500    0.000    0.000 
#    0.000    0.000    0.000    0.000    0.000    0.000 
#
# Total GULP energy -89210.996205 kJ/mol
# GULP energy per Si atom -5575.687263 kJ/mol
# Density = 1.721617 g / cm^3
# Si number density = 17.255447 Si / 1000 Ang^3
#
#
#
# Elastic Constant Matrix: (Units=GPa)
#
#
# Indices 1 2 3 4 5 6 
#
# 1 151.0786 83.4350 54.5856 0.0000 -9.0249 0.0000
# 2 83.4350 115.6747 48.9089 0.0000 -15.5458 0.0000
# 3 54.5856 48.9089 63.6060 0.0000 -3.3422 0.0000
# 4 0.0000 0.0000 0.0000 8.5191 0.0000 -4.3986
# 5 -9.0249 -15.5458 -3.3422 0.0000 12.4952 0.0000
# 6 0.0000 0.0000 0.0000 -4.3986 0.0000 36.2230
#
#
#
# Elastic Compliance Matrix: (Units=1/GPa)
#
#
# Indices 1 2 3 4 5 6 
#
# 1 0.012171 -0.006611 -0.005408 0.000000 -0.000880 0.000000
# 2 -0.006611 0.019118 -0.008143 0.000000 0.016833 0.000000
# 3 -0.005408 -0.008143 0.026256 0.000000 -0.007015 0.000000
# 4 0.000000 0.000000 0.000000 0.125235 0.000000 0.015207
# 5 -0.000880 0.016833 -0.007015 0.000000 0.098462 0.000000
# 6 0.000000 0.000000 0.000000 0.015207 0.000000 0.029453
#
#
# Mechanical properties :
#
#
# Convention : Reuss Voigt Hill
#
# Bulk Modulus (GPa) = 58.06666 78.24649 68.15657
# Shear Modulus (GPa) = 14.01500 21.00945 17.51222
#
# Velocity S-wave (km/s) = 2.85302 3.49313 3.18918
# Velocity P-wave (km/s) = 6.67662 7.85581 7.29009
#
# Compressibility (1/GPa) = 0.01722159
#
# Stress axis : x y z
#
# Youngs Moduli (GPa) = 82.15996 52.30559 38.08629
#
# Poissons Ratio (x) = 0.34577 0.20599
# Poissons Ratio (y) = 0.54313 0.31014
# Poissons Ratio (z) = 0.44435 0.42593
#
# Static dielectric constant tensor:
#      x y z
#    x 1.614990 0.000000 -0.009660 
#    y 0.000000 1.589250 0.000000 
#    z -0.009660 0.000000 1.543290 
# 
# From -- ./inp_files/81871.got.cif
#   From: 2010.05.17/outbox.cif.g08.bks.cpg/sg12_41_cif.got.tgz:81871.got - 2010.06.03 13:09:07.
