data_PCOD9185249
_publ_section_title
;
Structure prediction by ZEFSAII (Michael W. Deem and Ramdas Pophale) SiO2 
 PCOD9185249
Probable space group: C 2/M
;
_chemical_formula_sum "Si O2"
_cell_formula_units_Z 40
_cell_length_a 19.934211
_cell_length_b 7.537524
_cell_length_c 17.746876
_cell_angle_alpha 90.000000
_cell_angle_beta 41.988448
_cell_angle_gamma 90.000000
_cell_volume 1783.870407
_symmetry_space_group_name_H-M "C 2/M"
_symmetry_group_IT_number 12
_symmetry_cell_setting 'monoclinic'
loop_
_space_group_symop_operation_xyz
x,y,z
-x,y,-z
-x,-y,-z
x,-y,z
1/2+x,1/2+y,z
1/2-x,1/2+y,-z
1/2-x,1/2-y,-z
1/2+x,1/2-y,z
loop_
_atom_site_type_symbol
_atom_site_label
_atom_site_fract_x
_atom_site_fract_y
_atom_site_fract_z
Si Si1 0.194053 0.287381 0.968314
Si Si2 0.222330 0.285872 0.780592
Si Si3 0.367498 0.212610 0.396516
Si Si4 0.463918 0.217238 0.159878
Si Si5 0.913166 0.289508 0.520263
O O1 0.190393 0.500000 0.966731
O O2 0.078841 0.223523 0.062066
O O3 0.250000 0.250000 0.000000
O O4 0.243309 0.224009 0.848527
O O5 0.222159 0.500000 0.780720
O O6 0.112554 0.228830 0.842455
O O7 0.306925 0.232018 0.650427
O O8 0.250000 0.250000 0.500000
O O9 0.415353 0.277526 0.279266
O O10 0.413601 0.283984 0.435492
O O11 0.380055 0.000000 0.384629
O O12 0.465519 0.000000 0.156823
O O13 0.930830 0.500000 0.498167
O O14 0.000000 0.213249 0.500000
#
# Coordination Sequence:
#
# PCOD9185249 Si02
#       5
#     8   8   8   8   8
#     4  10  22  38  58  83 109 141 181 225 274 326
#     4  10  20  37  59  82 106 141 187 227 268 318
#     4  10  19  34  56  82 108 141 181 220 267 320
#     4   9  18  35  59  80 105 142 183 224 264 316
#     4  10  22  36  54  82 114 147 181 219 270 328
#
# _framework density 22.423154
#
# number of rings (size 3 to 8) (size 9 to 14) (size 15 to 20)
#    0.000    2.200    2.000    0.600    2.800    3.600 
#    0.000    2.000    0.000    2.400    0.000    0.000 
#    0.000    0.000    0.000    0.000    0.000    0.000 
#
# Total GULP energy -111707.489103 kJ/mol
# GULP energy per Si atom -5585.374455 kJ/mol
# Density = 2.237212 g / cm^3
# Si number density = 22.423154 Si / 1000 Ang^3
#
#
#
# Elastic Constant Matrix: (Units=GPa)
#
#
# Indices 1 2 3 4 5 6 
#
# 1 147.4543 0.5493 9.1805 0.0004 24.6331 -0.0004
# 2 0.5493 54.3750 -8.7685 0.0002 5.5057 0.0004
# 3 9.1805 -8.7685 46.6788 0.0003 21.3363 -0.0004
# 4 0.0004 0.0002 0.0003 17.8862 -0.0001 -2.2019
# 5 24.6331 5.5057 21.3363 -0.0001 45.9823 0.0001
# 6 -0.0004 0.0004 -0.0004 -2.2019 0.0001 10.3075
#
#
#
# Elastic Compliance Matrix: (Units=1/GPa)
#
#
# Indices 1 2 3 4 5 6 
#
# 1 0.007467 0.000460 0.000598 0.000000 -0.004333 0.000000
# 2 0.000460 0.019937 0.006166 0.000000 -0.005495 -0.000001
# 3 0.000598 0.006166 0.029125 -0.000001 -0.014573 0.000001
# 4 0.000000 0.000000 -0.000001 0.057419 0.000001 0.012266
# 5 -0.004333 -0.005495 -0.014573 0.000001 0.031488 -0.000001
# 6 0.000000 -0.000001 0.000001 0.012266 -0.000001 0.099637
#
#
# Mechanical properties :
#
#
# Convention : Reuss Voigt Hill
#
# Bulk Modulus (GPa) = 14.08917 27.82564 20.95740
# Shear Modulus (GPa) = 19.66309 31.33831 25.50070
#
# Velocity S-wave (km/s) = 2.96448 3.74249 3.37597
# Velocity P-wave (km/s) = 4.24435 5.57774 4.95609
#
# Compressibility (1/GPa) = 0.07097652
#
# Stress axis : x y z
#
# Youngs Moduli (GPa) = 133.93010 50.15835 34.33504
#
# Poissons Ratio (x) = -0.02306 -0.02054
# Poissons Ratio (y) = -0.06157 -0.21172
# Poissons Ratio (z) = -0.08012 -0.30929
#
# Static dielectric constant tensor:
#      x y z
#    x 1.845040 0.000000 0.032460 
#    y 0.000000 1.861980 0.000000 
#    z 0.032460 0.000000 1.794100 
# 
# From -- ./inp_files/140826.got.cif
#   From: 2010.05.17/outbox.cif.g08.bks.cpg/sg12_71_cif.got.tgz:140826.got - 2010.06.03 13:09:07.
