data_PCOD9185925
_publ_section_title
;
Structure prediction by ZEFSAII (Michael W. Deem and Ramdas Pophale) SiO2 
 PCOD9185925
Probable space group: C 2/M
;
_chemical_formula_sum "Si O2"
_cell_formula_units_Z 40
_cell_length_a 28.114009
_cell_length_b 8.358268
_cell_length_c 9.206947
_cell_angle_alpha 90.000000
_cell_angle_beta 70.970278
_cell_angle_gamma 90.000000
_cell_volume 2045.253487
_symmetry_space_group_name_H-M "C 2/M"
_symmetry_group_IT_number 12
_symmetry_cell_setting 'monoclinic'
loop_
_space_group_symop_operation_xyz
x,y,z
-x,y,-z
-x,-y,-z
x,-y,z
1/2+x,1/2+y,z
1/2-x,1/2+y,-z
1/2-x,1/2-y,-z
1/2+x,1/2-y,z
loop_
_atom_site_type_symbol
_atom_site_label
_atom_site_fract_x
_atom_site_fract_y
_atom_site_fract_z
Si Si1 0.000365 0.804492 0.831968
Si Si2 0.200853 0.808226 0.964075
Si Si3 0.398410 0.693693 0.433128
Si Si4 0.899298 0.195511 0.767450
Si Si5 0.299206 0.190132 0.366420
O O1 0.050888 0.753173 0.699139
O O2 0.950157 0.753017 0.797784
O O3 0.000327 0.000000 0.831757
O O4 0.000000 0.753180 0.000000
O O5 0.201314 0.751072 0.798104
O O6 0.200462 0.000000 0.965387
O O7 0.250000 0.750000 0.000000
O O8 0.150358 0.752157 0.096793
O O9 0.398384 0.500000 0.432988
O O10 0.398143 0.746929 0.601008
O O11 0.349073 0.749978 0.398251
O O12 0.899428 0.000000 0.767397
O O13 0.250000 0.250000 0.500000
O O14 0.298734 0.000000 0.365960
#
# Coordination Sequence:
#
# PCOD9185925 Si02
#       5
#     8   8   8   8   8
#     4   9  16  28  51  84 118 151 189 233 281 337
#     4  11  22  38  60  86 118 154 195 240 289 343
#     4  10  19  34  58  86 116 149 189 237 288 342
#     4   9  18  32  54  85 116 149 190 235 282 339
#     4  12  25  41  60  83 113 149 193 241 294 352
#
# _framework density 19.557479000000001
#
# number of rings (size 3 to 8) (size 9 to 14) (size 15 to 20)
#    0.000    1.800    0.000    5.400    0.000    7.200 
#    0.000    1.000    0.000    9.000    0.000    0.000 
#    0.000    0.000    0.000    0.000    0.000    0.000 
#
# Total GULP energy -111800.671996 kJ/mol
# GULP energy per Si atom -5590.033600 kJ/mol
# Density = 1.951297 g / cm^3
# Si number density = 19.557479 Si / 1000 Ang^3
#
#
#
# Elastic Constant Matrix: (Units=GPa)
#
#
# Indices 1 2 3 4 5 6 
#
# 1 248.6052 29.2940 157.2735 0.0000 -0.7914 0.0000
# 2 29.2940 31.6119 34.1709 0.0000 -2.2327 0.0000
# 3 157.2735 34.1709 251.6377 0.0000 -0.4749 0.0000
# 4 0.0000 0.0000 0.0000 20.0927 0.0000 3.1383
# 5 -0.7914 -2.2327 -0.4749 0.0000 47.3321 0.0000
# 6 0.0000 0.0000 0.0000 3.1383 0.0000 27.9422
#
#
#
# Elastic Compliance Matrix: (Units=1/GPa)
#
#
# Indices 1 2 3 4 5 6 
#
# 1 0.006758 -0.001990 -0.003953 0.000000 -0.000021 0.000000
# 2 -0.001990 0.037799 -0.003886 0.000000 0.001711 0.000000
# 3 -0.003953 -0.003886 0.006972 0.000000 -0.000179 0.000000
# 4 0.000000 0.000000 0.000000 0.050658 0.000000 -0.005690
# 5 -0.000021 0.001711 -0.000179 0.000000 0.021206 0.000000
# 6 0.000000 0.000000 0.000000 -0.005690 0.000000 0.036427
#
#
# Mechanical properties :
#
#
# Convention : Reuss Voigt Hill
#
# Bulk Modulus (GPa) = 31.37726 108.14796 69.76261
# Shear Modulus (GPa) = 26.30156 39.81450 33.05803
#
# Velocity S-wave (km/s) = 3.67118 4.51684 4.11579
# Velocity P-wave (km/s) = 5.83511 9.08956 7.63769
#
# Compressibility (1/GPa) = 0.03187021
#
# Stress axis : x y z
#
# Youngs Moduli (GPa) = 147.97317 26.45563 143.42651
#
# Poissons Ratio (x) = 0.05266 0.56704
# Poissons Ratio (y) = 0.29452 0.55731
# Poissons Ratio (z) = 0.58501 0.10280
#
# Static dielectric constant tensor:
#      x y z
#    x 1.651440 0.000000 -0.009930 
#    y 0.000000 1.690680 0.000000 
#    z -0.009930 0.000000 1.653430 
# 
# From -- ./inp_files/92713.got.cif
#   From: 2010.05.17/outbox.cif.g08.bks.cpg/sg12_47_cif.got.tgz:92713.got - 2010.06.03 13:09:07.
