data_PCOD9185410
_publ_section_title
;
Structure prediction by ZEFSAII (Michael W. Deem and Ramdas Pophale) SiO2 
 PCOD9185410
Probable space group: C 2/M
;
_chemical_formula_sum "Si O2"
_cell_formula_units_Z 64
_cell_length_a 23.921050
_cell_length_b 7.564218
_cell_length_c 20.670509
_cell_angle_alpha 90.000000
_cell_angle_beta 131.203320
_cell_angle_gamma 90.000000
_cell_volume 2814.043504
_symmetry_space_group_name_H-M "C 2/M"
_symmetry_group_IT_number 12
_symmetry_cell_setting 'monoclinic'
loop_
_space_group_symop_operation_xyz
x,y,z
-x,y,-z
-x,-y,-z
x,-y,z
1/2+x,1/2+y,z
1/2-x,1/2+y,-z
1/2-x,1/2-y,-z
1/2+x,1/2-y,z
loop_
_atom_site_type_symbol
_atom_site_label
_atom_site_fract_x
_atom_site_fract_y
_atom_site_fract_z
Si Si1 0.335069 0.788133 0.583410
Si Si2 0.340056 0.216840 0.731521
Si Si3 0.642580 0.704516 0.869213
Si Si4 0.315215 0.701898 0.332957
Si Si5 0.577917 0.791923 0.474203
Si Si6 0.082548 0.784802 0.695320
Si Si7 0.917412 0.712698 0.920330
Si Si8 0.191810 0.211027 0.043769
O O1 0.250000 0.750000 0.500000
O O2 0.354903 0.721410 0.670006
O O3 0.385513 0.720321 0.563757
O O4 0.343974 0.000000 0.591534
O O5 0.257361 0.277739 0.688694
O O6 0.392706 0.273447 0.830201
O O7 0.340959 0.000000 0.729879
O O8 0.621568 0.500000 0.861406
O O9 0.587850 0.780518 0.773086
O O10 0.725112 0.712593 0.900163
O O11 0.648983 0.779278 0.946437
O O12 0.294747 0.500000 0.301474
O O13 0.382422 0.702916 0.435127
O O14 0.346835 0.782699 0.291602
O O15 0.490776 0.768850 0.398681
O O16 0.594306 0.000000 0.493531
O O17 0.084789 0.000000 0.697657
O O18 0.920732 0.500000 0.920493
O O19 0.855486 0.754486 0.927731
O O20 0.000000 0.778694 0.000000
O O21 0.200678 0.000000 0.044227
#
# Coordination Sequence:
#
# PCOD9185410 Si02
#       8
#     8   8   8   8   8   8   8   8
#     4  10  20  36  57  78 104 139 182 228 274 324
#     4   9  18  35  59  82 104 139 188 235 271 318
#     4   9  19  37  59  82 109 145 188 228 269 332
#     4  10  19  34  57  77 100 142 189 225 262 320
#     4  11  23  35  51  80 114 142 172 224 284 328
#     4  10  21  36  55  79 107 145 189 222 260 323
#     4  10  21  37  58  83 112 150 193 232 274 332
#     4  10  20  35  58  85 113 144 180 230 287 331
#
# _framework density 22.743075000000001
#
# number of rings (size 3 to 8) (size 9 to 14) (size 15 to 20)
#    0.000    2.125    1.250    1.875    0.000    6.750 
#    0.000    3.750    0.000    0.000    0.000    0.000 
#    0.000    0.000    0.000    0.000    0.000    0.000 
#
# Total GULP energy -178722.891281 kJ/mol
# GULP energy per Si atom -5585.090353 kJ/mol
# Density = 2.269131 g / cm^3
# Si number density = 22.743075 Si / 1000 Ang^3
#
#
#
# Elastic Constant Matrix: (Units=GPa)
#
#
# Indices 1 2 3 4 5 6 
#
# 1 68.4675 -9.5595 7.2638 0.0000 -24.6175 0.0000
# 2 -9.5595 60.2298 -11.1942 0.0001 -3.1168 -0.0002
# 3 7.2638 -11.1942 116.7742 0.0000 -25.7286 0.0000
# 4 0.0000 0.0001 0.0000 1.1732 0.0000 1.9007
# 5 -24.6175 -3.1168 -25.7286 0.0000 36.4611 0.0000
# 6 0.0000 -0.0002 0.0000 1.9007 0.0000 13.0070
#
#
#
# Elastic Compliance Matrix: (Units=1/GPa)
#
#
# Indices 1 2 3 4 5 6 
#
# 1 0.020882 0.004682 0.002776 -0.000001 0.016458 0.000000
# 2 0.004682 0.018248 0.002958 -0.000004 0.006809 0.000001
# 3 0.002776 0.002958 0.010826 -0.000001 0.009767 0.000000
# 4 -0.000001 -0.000004 -0.000001 1.116692 -0.000002 -0.163177
# 5 0.016458 0.006809 0.009767 -0.000002 0.046013 0.000000
# 6 0.000000 0.000001 0.000000 -0.163177 0.000000 0.100726
#
#
# Mechanical properties :
#
#
# Convention : Reuss Voigt Hill
#
# Bulk Modulus (GPa) = 14.12635 24.27684 19.20160
# Shear Modulus (GPa) = 3.79896 27.39236 15.59566
#
# Velocity S-wave (km/s) = 1.29383 3.47425 2.62149
# Velocity P-wave (km/s) = 2.90805 5.17605 4.19811
#
# Compressibility (1/GPa) = 0.07078967
#
# Stress axis : x y z
#
# Youngs Moduli (GPa) = 47.88752 54.79946 92.36741
#
# Poissons Ratio (x) = -0.25657 -0.25642
# Poissons Ratio (y) = -0.22421 -0.27324
# Poissons Ratio (z) = -0.13294 -0.16211
#
# Static dielectric constant tensor:
#      x y z
#    x 1.726620 0.000000 0.015470 
#    y 0.000000 1.830230 0.000000 
#    z 0.015470 0.000000 1.838630 
# 
# From -- ./inp_files/324227.got.cif
#   From: 2010.05.17/outbox.cif.g08.bks.cpg/sg12_163_cif.got.tgz:324227.got - 2010.06.03 13:09:07.
