data_PCOD9185990
_publ_section_title
;
Structure prediction by ZEFSAII (Michael W. Deem and Ramdas Pophale) SiO2 
 PCOD9185990
Probable space group: C 2/M
;
_chemical_formula_sum "Si O2"
_cell_formula_units_Z 44
_cell_length_a 9.546497
_cell_length_b 15.320790
_cell_length_c 25.857375
_cell_angle_alpha 90.000000
_cell_angle_beta 35.315845
_cell_angle_gamma 90.000000
_cell_volume 2186.251195
_symmetry_space_group_name_H-M "C 2/M"
_symmetry_group_IT_number 12
_symmetry_cell_setting 'monoclinic'
loop_
_space_group_symop_operation_xyz
x,y,z
-x,y,-z
-x,-y,-z
x,-y,z
1/2+x,1/2+y,z
1/2-x,1/2+y,-z
1/2-x,1/2-y,-z
1/2+x,1/2-y,z
loop_
_atom_site_type_symbol
_atom_site_label
_atom_site_fract_x
_atom_site_fract_y
_atom_site_fract_z
Si Si1 0.517029 0.726567 0.376625
Si Si2 0.763313 0.646044 0.943700
Si Si3 0.222531 0.601522 0.262635
Si Si4 0.500000 0.760667 0.500000
Si Si5 0.559749 0.904982 0.759493
Si Si6 0.217360 0.845802 0.069777
O O1 0.589571 0.826200 0.338677
O O2 0.497872 0.714332 0.444575
O O3 0.267865 0.697364 0.423665
O O4 0.738742 0.667212 0.294070
O O5 0.864744 0.745303 0.915734
O O6 0.914524 0.594275 0.856483
O O7 0.500000 0.655811 0.000000
O O8 0.726161 0.608104 0.011580
O O9 0.178356 0.500000 0.290625
O O10 0.513047 0.616762 0.169562
O O11 0.112796 0.614867 0.237694
O O12 0.669077 0.000000 0.716247
O O13 0.500000 0.847079 0.000000
#
# Coordination Sequence:
#
# PCOD9185990 Si02
#       6
#     8   8   8   4   8   8
#     4  11  22  46  67  98 125 161 202 266 314 394
#     4  10  19  34  58  88 124 170 213 253 294 358
#     4  11  23  40  65  94 129 170 209 256 313 374
#     4  10  24  42  74  92 124 166 198 248 346 382
#     4  11  23  39  66  96 126 169 214 256 306 372
#     4  10  21  34  57  89 129 169 211 256 307 347
#
# _framework density 20.125775000000001
#
# number of rings (size 3 to 8) (size 9 to 14) (size 15 to 20)
#    0.000    1.455    5.455    0.000    0.000    2.909 
#    0.000    8.182    0.000    0.000    0.000    0.000 
#    0.000    0.000    0.000    0.000    0.000    0.000 
#
# Total GULP energy -122514.597170 kJ/mol
# GULP energy per Si atom -5568.845326 kJ/mol
# Density = 2.007997 g / cm^3
# Si number density = 20.125775 Si / 1000 Ang^3
#
#
#
# Elastic Constant Matrix: (Units=GPa)
#
#
# Indices 1 2 3 4 5 6 
#
# 1 83.4749 12.3576 20.1639 0.0019 -3.7294 0.0025
# 2 12.3576 98.5804 31.8752 0.0022 -7.4971 -0.0005
# 3 20.1639 31.8752 85.7851 0.0217 -5.2500 0.0199
# 4 0.0019 0.0022 0.0217 -11.9255 0.0017 6.1477
# 5 -3.7294 -7.4971 -5.2500 0.0017 39.3901 -0.0042
# 6 0.0025 -0.0005 0.0199 6.1477 -0.0042 3.9411
#
#
#
# Elastic Compliance Matrix: (Units=1/GPa)
#
#
# Indices 1 2 3 4 5 6 
#
# 1 0.012765 -0.000670 -0.002707 0.000000 0.000720 0.000006
# 2 -0.000670 0.011670 -0.004080 0.000004 0.001614 0.000018
# 3 -0.002707 -0.004080 0.013859 -0.000006 0.000814 -0.000059
# 4 0.000000 0.000004 -0.000006 -0.046479 0.000010 0.072502
# 5 0.000720 0.001614 0.000814 0.000010 0.025871 0.000008
# 6 0.000006 0.000018 -0.000059 0.072502 0.000008 0.140642
#
#
# Mechanical properties :
#
#
# Convention : Reuss Voigt Hill
#
# Bulk Modulus (GPa) = 42.77249 44.07042 43.42146
# Shear Modulus (GPa) = 27.61878 19.84405 23.73141
#
# Velocity S-wave (km/s) = 3.70849 3.14347 3.43761
# Velocity P-wave (km/s) = 6.29571 5.92624 6.11376
#
# Compressibility (1/GPa) = 0.02337951
#
# Stress axis : x y z
#
# Youngs Moduli (GPa) = 78.33917 85.69017 72.15392
#
# Poissons Ratio (x) = 0.05741 0.19535
# Poissons Ratio (y) = 0.05249 0.29438
# Poissons Ratio (z) = 0.21210 0.34961
#
# Static dielectric constant tensor:
#      x y z
#    x 1.705410 0.000000 -0.009710 
#    y 0.000000 1.768390 0.000000 
#    z -0.009710 0.000000 1.744880 
# 
# From -- ./inp_files/356068.got.cif
#   From: 2010.05.17/outbox.cif.g08.bks.cpg/sg12_179_cif.got.tgz:356068.got - 2010.06.03 13:09:07.
