data_PCOD9185501
_publ_section_title
;
Structure prediction by ZEFSAII (Michael W. Deem and Ramdas Pophale) SiO2 
 PCOD9185501
Probable space group: C 2/M
;
_chemical_formula_sum "Si O2"
_cell_formula_units_Z 64
_cell_length_a 19.782132
_cell_length_b 7.419284
_cell_length_c 19.368536
_cell_angle_alpha 90.000000
_cell_angle_beta 116.664542
_cell_angle_gamma 90.000000
_cell_volume 2540.381826
_symmetry_space_group_name_H-M "C 2/M"
_symmetry_group_IT_number 12
_symmetry_cell_setting 'monoclinic'
loop_
_space_group_symop_operation_xyz
x,y,z
-x,y,-z
-x,-y,-z
x,-y,z
1/2+x,1/2+y,z
1/2-x,1/2+y,-z
1/2-x,1/2-y,-z
1/2+x,1/2-y,z
loop_
_atom_site_type_symbol
_atom_site_label
_atom_site_fract_x
_atom_site_fract_y
_atom_site_fract_z
Si Si1 0.573669 0.293737 0.741000
Si Si2 0.541749 0.279021 0.879788
Si Si3 0.117880 0.784960 0.232943
Si Si4 0.314768 0.284900 0.972694
Si Si5 0.552361 0.278370 0.586879
Si Si6 0.746555 0.780695 0.795755
Si Si7 0.815655 0.207019 0.438860
Si Si8 0.849591 0.713082 0.601008
O O1 0.546970 0.500000 0.734472
O O2 0.566511 0.217860 0.814242
O O3 0.533616 0.213132 0.655013
O O4 0.661917 0.292073 0.760745
O O5 0.543531 0.500000 0.882487
O O6 0.454251 0.223440 0.844775
O O7 0.604530 0.216339 0.962643
O O8 0.198283 0.719718 0.240855
O O9 0.104838 0.744637 0.307819
O O10 0.120149 0.000000 0.227800
O O11 0.322035 0.500000 0.969932
O O12 0.250000 0.250000 0.000000
O O13 0.287426 0.222280 0.885597
O O14 0.500000 0.221833 0.500000
O O15 0.552303 0.500000 0.588348
O O16 0.635275 0.215054 0.600173
O O17 0.741012 0.000000 0.792202
O O18 0.864756 0.208470 0.532300
O O19 0.734384 0.288657 0.418244
O O20 0.801025 0.000000 0.414655
O O21 0.845625 0.500000 0.587918
#
# Coordination Sequence:
#
# PCOD9185501 Si02
#       8
#     8   8   8   8   8   8   8   8
#     4  10  19  34  57  82 107 141 185 227 267 320
#     4   9  19  34  56  83 108 141 185 226 265 317
#     4  10  21  36  54  80 110 144 181 221 271 323
#     4  10  19  35  57  83 111 142 180 222 268 321
#     4   9  18  30  50  78 103 131 176 227 266 304
#     4  10  21  35  56  84 113 143 176 221 275 326
#     4   9  18  33  52  74 101 138 178 223 270 321
#     4  10  20  34  53  77 104 138 180 223 271 323
#
# _framework density 25.193064
#
# number of rings (size 3 to 8) (size 9 to 14) (size 15 to 20)
#    0.000    2.375    1.250    1.125    1.750    2.500 
#    0.000    4.375    0.000    0.750    0.000    2.625 
#    0.000    0.000    0.000    0.000    0.000    0.000 
#
# Total GULP energy -178879.551123 kJ/mol
# GULP energy per Si atom -5589.985973 kJ/mol
# Density = 2.513572 g / cm^3
# Si number density = 25.193064 Si / 1000 Ang^3
#
#
#
# Elastic Constant Matrix: (Units=GPa)
#
#
# Indices 1 2 3 4 5 6 
#
# 1 66.6831 -4.9064 -10.2899 0.0000 -3.5662 0.0000
# 2 -4.9064 95.1235 -4.8435 0.0000 -0.7116 0.0000
# 3 -10.2899 -4.8435 115.9827 0.0000 5.1197 0.0000
# 4 0.0000 0.0000 0.0000 7.6561 0.0000 2.0840
# 5 -3.5662 -0.7116 5.1197 0.0000 44.8837 0.0000
# 6 0.0000 0.0000 0.0000 2.0840 0.0000 11.3655
#
#
#
# Elastic Compliance Matrix: (Units=1/GPa)
#
#
# Indices 1 2 3 4 5 6 
#
# 1 0.015326 0.000867 0.001348 0.000000 0.001078 0.000000
# 2 0.000867 0.010585 0.000511 0.000000 0.000178 0.000000
# 3 0.001348 0.000511 0.008802 0.000000 -0.000889 0.000000
# 4 0.000000 0.000000 0.000000 0.137476 0.000000 -0.025208
# 5 0.001078 0.000178 -0.000889 0.000000 0.022470 0.000000
# 6 0.000000 0.000000 0.000000 -0.025208 0.000000 0.092608
#
#
# Mechanical properties :
#
#
# Convention : Reuss Voigt Hill
#
# Bulk Modulus (GPa) = 24.89667 26.41218 25.65443
# Shear Modulus (GPa) = 16.93758 32.63633 24.78695
#
# Velocity S-wave (km/s) = 2.59571 3.60314 3.14009
# Velocity P-wave (km/s) = 4.34597 5.27417 4.83240
#
# Compressibility (1/GPa) = 0.04016601
#
# Stress axis : x y z
#
# Youngs Moduli (GPa) = 65.24938 94.47563 113.60828
#
# Poissons Ratio (x) = -0.08193 -0.15318
# Poissons Ratio (y) = -0.05658 -0.05806
# Poissons Ratio (z) = -0.08798 -0.04829
#
# Static dielectric constant tensor:
#      x y z
#    x 2.027120 0.000000 -0.013780 
#    y 0.000000 1.957690 0.000000 
#    z -0.013780 0.000000 2.137020 
# 
# From -- ./inp_files/320026.got.cif
#   From: 2010.05.17/outbox.cif.g08.bks.cpg/sg12_161_cif.got.tgz:320026.got - 2010.06.03 13:09:07.
