data_PCOD9185713
_publ_section_title
;
Structure prediction by ZEFSAII (Michael W. Deem and Ramdas Pophale) SiO2 
 PCOD9185713
Probable space group: C 2/M
;
_chemical_formula_sum "Si O2"
_cell_formula_units_Z 50
_cell_length_a 14.537410
_cell_length_b 8.377724
_cell_length_c 24.114533
_cell_angle_alpha 90.000000
_cell_angle_beta 45.659305
_cell_angle_gamma 90.000000
_cell_volume 2100.474054
_symmetry_space_group_name_H-M "C 2/M"
_symmetry_group_IT_number 12
_symmetry_cell_setting 'monoclinic'
loop_
_space_group_symop_operation_xyz
x,y,z
-x,y,-z
-x,-y,-z
x,-y,z
1/2+x,1/2+y,z
1/2-x,1/2+y,-z
1/2-x,1/2-y,-z
1/2+x,1/2-y,z
loop_
_atom_site_type_symbol
_atom_site_label
_atom_site_fract_x
_atom_site_fract_y
_atom_site_fract_z
Si Si1 0.851715 0.816455 0.128871
Si Si2 0.146736 0.814788 0.652232
Si Si3 0.000000 0.000000 0.500000
Si Si4 0.106442 0.682523 0.059941
Si Si5 0.441287 0.682070 0.420115
Si Si6 0.391481 0.319331 0.826978
Si Si7 0.770839 0.809214 0.709066
O O1 0.751862 0.715688 0.134153
O O2 0.805728 0.782995 0.211355
O O3 0.001782 0.771803 0.066603
O O4 0.834663 0.000000 0.121099
O O5 0.216978 0.715896 0.670270
O O6 0.153908 0.748083 0.586160
O O7 0.996107 0.808196 0.734184
O O8 0.192264 0.000000 0.638358
O O9 0.933006 0.860218 0.488377
O O10 0.106021 0.500000 0.043418
O O11 0.069334 0.701698 0.140294
O O12 0.250000 0.750000 0.000000
O O13 0.451156 0.500000 0.392747
O O14 0.583096 0.753089 0.353331
O O15 0.398592 0.500000 0.846379
O O16 0.768718 0.000000 0.721902
#
# Coordination Sequence:
#
# PCOD9185713 Si02
#       7
#     8   8   2   8   8   8   8
#     4  12  24  39  61  92 124 162 208 262 313 371
#     4  10  19  34  57  88 120 154 198 253 306 361
#     4   8  16  36  64  80 122 170 210 232 306 372
#     4  12  26  45  65  89 123 165 208 259 319 382
#     4   8  17  34  57  81 116 160 201 238 293 367
#     4  11  22  39  63  91 123 160 204 261 313 373
#     4  11  20  34  57  89 120 154 204 256 307 361
#
# _framework density 23.80415
#
# number of rings (size 3 to 8) (size 9 to 14) (size 15 to 20)
#    0.480    0.960    3.200    3.840    0.000    1.280 
#    0.000    4.000    0.000    0.000    0.000    2.800 
#    0.000    0.000    0.000    0.000    0.000    0.000 
#
# Total GULP energy -139271.705522 kJ/mol
# GULP energy per Si atom -5570.868221 kJ/mol
# Density = 2.374997 g / cm^3
# Si number density = 23.804150 Si / 1000 Ang^3
#
#
#
# Elastic Constant Matrix: (Units=GPa)
#
#
# Indices 1 2 3 4 5 6 
#
# 1 102.3716 -11.9754 -2.4531 0.0000 12.6481 0.0001
# 2 -11.9754 60.2575 -5.5299 0.0000 -3.0178 0.0003
# 3 -2.4531 -5.5299 41.4968 0.0000 8.2544 0.0000
# 4 0.0000 0.0000 0.0000 8.2377 0.0000 12.4297
# 5 12.6481 -3.0178 8.2544 0.0000 33.1818 0.0000
# 6 0.0001 0.0003 0.0000 12.4297 0.0000 31.8885
#
#
#
# Elastic Compliance Matrix: (Units=1/GPa)
#
#
# Indices 1 2 3 4 5 6 
#
# 1 0.010579 0.002049 0.001750 0.000000 -0.004281 0.000000
# 2 0.002049 0.017231 0.002379 0.000001 0.000195 0.000000
# 3 0.001750 0.002379 0.025889 0.000000 -0.006891 0.000000
# 4 0.000000 0.000001 0.000000 0.294748 0.000000 -0.114889
# 5 -0.004281 0.000195 -0.006891 0.000000 0.033501 0.000000
# 6 0.000000 0.000000 0.000000 -0.114889 0.000000 0.076142
#
#
# Mechanical properties :
#
#
# Convention : Reuss Voigt Hill
#
# Bulk Modulus (GPa) = 15.13930 18.24546 16.69238
# Shear Modulus (GPa) = 10.68941 29.60055 20.14498
#
# Velocity S-wave (km/s) = 2.12139 3.53016 2.91225
# Velocity P-wave (km/s) = 3.51769 4.92925 4.28204
#
# Compressibility (1/GPa) = 0.06605327
#
# Stress axis : x y z
#
# Youngs Moduli (GPa) = 94.52794 58.03629 38.62585
#
# Poissons Ratio (x) = -0.11889 -0.06760
# Poissons Ratio (y) = -0.19365 -0.09188
# Poissons Ratio (z) = -0.16542 -0.13804
#
# Static dielectric constant tensor:
#      x y z
#    x 1.968080 0.000000 0.017440 
#    y 0.000000 1.840580 0.000000 
#    z 0.017440 0.000000 2.038940 
# 
# From -- ./inp_files/359619.got.cif
#   From: 2010.05.17/outbox.cif.g08.bks.cpg/sg12_180_cif.got.tgz:359619.got - 2010.06.03 13:09:07.
