data_PCOD9185496
_publ_section_title
;
Structure prediction by ZEFSAII (Michael W. Deem and Ramdas Pophale) SiO2 
 PCOD9185496
Probable space group: C 2/M
;
_chemical_formula_sum "Si O2"
_cell_formula_units_Z 56
_cell_length_a 21.050753
_cell_length_b 8.009133
_cell_length_c 18.297567
_cell_angle_alpha 90.000000
_cell_angle_beta 63.111443
_cell_angle_gamma 90.000000
_cell_volume 2751.419083
_symmetry_space_group_name_H-M "C 2/M"
_symmetry_group_IT_number 12
_symmetry_cell_setting 'monoclinic'
loop_
_space_group_symop_operation_xyz
x,y,z
-x,y,-z
-x,-y,-z
x,-y,z
1/2+x,1/2+y,z
1/2-x,1/2+y,-z
1/2-x,1/2-y,-z
1/2+x,1/2-y,z
loop_
_atom_site_type_symbol
_atom_site_label
_atom_site_fract_x
_atom_site_fract_y
_atom_site_fract_z
Si Si1 0.157534 0.801662 0.752140
Si Si2 0.680953 0.700000 0.309363
Si Si3 0.168772 0.301621 0.029456
Si Si4 0.408706 0.298432 0.782687
Si Si5 0.579716 0.202297 0.938179
Si Si6 0.077518 0.203958 0.490395
Si Si7 0.569175 0.704531 0.660789
O O1 0.235926 0.736120 0.728947
O O2 0.104880 0.759403 0.845869
O O3 0.124661 0.737429 0.693152
O O4 0.162790 0.000000 0.743505
O O5 0.672291 0.500000 0.312889
O O6 0.643582 0.762894 0.254652
O O7 0.637871 0.762198 0.402726
O O8 0.168014 0.500000 0.024345
O O9 0.120788 0.252000 0.123404
O O10 0.250000 0.250000 0.000000
O O11 0.134345 0.236172 0.972162
O O12 0.409041 0.500000 0.780247
O O13 0.489267 0.242964 0.724577
O O14 0.580284 0.000000 0.937819
O O15 0.500000 0.256849 0.000000
O O16 0.086030 0.259047 0.569568
O O17 0.000000 0.252278 0.500000
O O18 0.078618 0.000000 0.490521
O O19 0.569316 0.500000 0.660713
#
# Coordination Sequence:
#
# PCOD9185496 Si02
#       7
#     8   8   8   8   8   8   8
#     4  11  23  36  53  81 117 149 176 218 278 333
#     4  10  20  34  57  84 110 144 186 228 267 316
#     4  11  23  37  55  80 108 140 179 224 273 324
#     4  10  19  34  57  82 106 136 180 231 273 313
#     4  10  22  41  61  79 105 143 188 231 268 319
#     4   9  15  30  57  85 108 138 185 231 267 310
#     4   9  18  33  54  82 111 139 180 228 268 315
#
# _framework density 20.353134000000001
#
# number of rings (size 3 to 8) (size 9 to 14) (size 15 to 20)
#    0.000    2.000    1.429    2.571    0.000    6.000 
#    0.000    0.714    0.000    2.143    0.000    0.000 
#    0.000    0.000    0.000    0.000    0.000    0.000 
#
# Total GULP energy -156435.338117 kJ/mol
# GULP energy per Si atom -5586.976361 kJ/mol
# Density = 2.030681 g / cm^3
# Si number density = 20.353134 Si / 1000 Ang^3
#
#
#
# Elastic Constant Matrix: (Units=GPa)
#
#
# Indices 1 2 3 4 5 6 
#
# 1 58.0449 -3.0899 -22.2460 0.0000 21.2083 0.0001
# 2 -3.0899 13.1674 -6.2014 -0.0001 3.3174 0.0001
# 3 -22.2460 -6.2014 65.5963 0.0000 20.8393 0.0001
# 4 0.0000 -0.0001 0.0000 4.2957 0.0000 2.6947
# 5 21.2083 3.3174 20.8393 0.0000 41.5540 0.0000
# 6 0.0001 0.0001 0.0001 2.6947 0.0000 5.2905
#
#
#
# Elastic Compliance Matrix: (Units=1/GPa)
#
#
# Indices 1 2 3 4 5 6 
#
# 1 0.050007 0.040210 0.035553 0.000002 -0.046563 -0.000004
# 2 0.040210 0.117216 0.040694 0.000005 -0.050288 -0.000006
# 3 0.035553 0.040694 0.045137 0.000002 -0.044031 -0.000003
# 4 0.000002 0.000005 0.000002 0.342095 -0.000002 -0.174247
# 5 -0.046563 -0.050288 -0.044031 -0.000002 0.073926 0.000004
# 6 -0.000004 -0.000006 -0.000003 -0.174247 0.000004 0.277771
#
#
# Mechanical properties :
#
#
# Convention : Reuss Voigt Hill
#
# Bulk Modulus (GPa) = 2.24581 8.19269 5.21925
# Shear Modulus (GPa) = 6.08522 21.45112 13.76817
#
# Velocity S-wave (km/s) = 1.73099 3.24998 2.60371
# Velocity P-wave (km/s) = 2.25852 4.25642 3.40720
#
# Compressibility (1/GPa) = 0.44527451
#
# Stress axis : x y z
#
# Youngs Moduli (GPa) = 19.99707 8.53128 22.15464
#
# Poissons Ratio (x) = -0.34304 -0.78767
# Poissons Ratio (y) = -0.80408 -0.90156
# Poissons Ratio (z) = -0.71096 -0.34717
#
# Static dielectric constant tensor:
#      x y z
#    x 1.708680 0.000000 0.022340 
#    y 0.000000 1.737220 0.000000 
#    z 0.022340 0.000000 1.689080 
# 
# From -- ./inp_files/275290.got.cif
#   From: 2010.05.17/outbox.cif.g08.bks.cpg/sg12_138_cif.got.tgz:275290.got - 2010.06.03 13:09:07.
