data_PCOD9185890
_publ_section_title
;
Structure prediction by ZEFSAII (Michael W. Deem and Ramdas Pophale) SiO2 
 PCOD9185890
Probable space group: C 2/M
;
_chemical_formula_sum "Si O2"
_cell_formula_units_Z 64
_cell_length_a 11.750974
_cell_length_b 15.728386
_cell_length_c 22.204712
_cell_angle_alpha 90.000000
_cell_angle_beta 50.156441
_cell_angle_gamma 90.000000
_cell_volume 3151.007140
_symmetry_space_group_name_H-M "C 2/M"
_symmetry_group_IT_number 12
_symmetry_cell_setting 'monoclinic'
loop_
_space_group_symop_operation_xyz
x,y,z
-x,y,-z
-x,-y,-z
x,-y,z
1/2+x,1/2+y,z
1/2-x,1/2+y,-z
1/2-x,1/2-y,-z
1/2+x,1/2-y,z
loop_
_atom_site_type_symbol
_atom_site_label
_atom_site_fract_x
_atom_site_fract_y
_atom_site_fract_z
Si Si1 0.283275 0.404129 0.549487
Si Si2 0.011072 0.366016 0.425488
Si Si3 0.831050 0.604013 0.064241
Si Si4 0.323602 0.597684 0.263926
Si Si5 0.392806 0.603488 0.755867
Si Si6 0.183576 0.899271 0.993407
Si Si7 0.570100 0.331673 0.389860
Si Si8 0.670008 0.399847 0.869948
O O1 0.293881 0.500000 0.568161
O O2 0.132642 0.394548 0.563151
O O3 0.424430 0.384669 0.459199
O O4 0.304952 0.346797 0.601449
O O5 0.000000 0.385085 0.500000
O O6 0.165990 0.402331 0.349430
O O7 0.022266 0.265392 0.411476
O O8 0.826917 0.500000 0.065462
O O9 0.742659 0.628169 0.154289
O O10 0.752009 0.636514 0.030763
O O11 0.000000 0.631018 0.000000
O O12 0.371674 0.500000 0.235530
O O13 0.455000 0.631569 0.261761
O O14 0.300399 0.638349 0.205743
O O15 0.395239 0.500000 0.749073
O O16 0.383671 0.642509 0.692636
O O17 0.229989 0.862626 0.912602
O O18 0.222659 0.000000 0.978176
O O19 0.007083 0.896897 0.061664
O O20 0.715956 0.500000 0.853000
#
# Coordination Sequence:
#
# PCOD9185890 Si02
#       8
#     8   8   8   8   8   8   8   8
#     4  11  23  42  65  90 123 157 202 253 303 362
#     4  12  25  40  62  90 121 153 201 253 306 360
#     4   9  16  27  45  77 114 148 190 240 290 345
#     4  10  20  34  55  86 120 151 193 249 304 353
#     4  10  19  34  58  85 116 153 200 245 293 359
#     4   8  12  22  42  68 103 141 177 224 283 344
#     4  11  23  40  64  85 116 165 204 238 299 373
#     4   8  13  24  44  71 104 141 178 223 286 351
#
# _framework density 20.310967000000002
#
# number of rings (size 3 to 8) (size 9 to 14) (size 15 to 20)
#    0.000    2.125    2.500    3.750    1.750    2.000 
#    2.250    0.000    0.000    0.000    3.250    1.750 
#    0.000    0.000    0.000    0.000    0.000    0.000 
#
# Total GULP energy -178448.294124 kJ/mol
# GULP energy per Si atom -5576.509191 kJ/mol
# Density = 2.026474 g / cm^3
# Si number density = 20.310967 Si / 1000 Ang^3
#
#
#
# Elastic Constant Matrix: (Units=GPa)
#
#
# Indices 1 2 3 4 5 6 
#
# 1 100.7641 -3.5255 82.8204 0.0000 16.9179 0.0000
# 2 -3.5255 22.3223 -7.2427 0.0000 1.1399 0.0000
# 3 82.8204 -7.2427 163.0250 0.0000 38.0494 0.0000
# 4 0.0000 0.0000 0.0000 9.2142 0.0000 0.3177
# 5 16.9179 1.1399 38.0494 0.0000 39.2795 0.0000
# 6 0.0000 0.0000 0.0000 0.3177 0.0000 12.7908
#
#
#
# Elastic Compliance Matrix: (Units=1/GPa)
#
#
# Indices 1 2 3 4 5 6 
#
# 1 0.017096 -0.000298 -0.009022 0.000000 0.001384 0.000000
# 2 -0.000298 0.046010 0.003201 0.000000 -0.004307 0.000000
# 3 -0.009022 0.003201 0.012888 0.000000 -0.008692 0.000000
# 4 0.000000 0.000000 0.000000 0.108622 0.000000 -0.002698
# 5 0.001384 -0.004307 -0.008692 0.000000 0.033407 0.000000
# 6 0.000000 0.000000 0.000000 -0.002698 0.000000 0.078248
#
#
# Mechanical properties :
#
#
# Convention : Reuss Voigt Hill
#
# Bulk Modulus (GPa) = 15.68461 47.80174 31.74318
# Shear Modulus (GPa) = 15.16251 26.52751 20.84501
#
# Velocity S-wave (km/s) = 2.73521 3.61788 3.20706
# Velocity P-wave (km/s) = 4.20882 6.40610 5.41998
#
# Compressibility (1/GPa) = 0.06375676
#
# Stress axis : x y z
#
# Youngs Moduli (GPa) = 58.49151 21.73453 77.59129
#
# Poissons Ratio (x) = 0.00647 0.70001
# Poissons Ratio (y) = 0.01741 -0.24834
# Poissons Ratio (z) = 0.52769 -0.06956
#
# Static dielectric constant tensor:
#      x y z
#    x 1.710480 0.000000 0.037760 
#    y 0.000000 1.762510 0.000000 
#    z 0.037760 0.000000 1.716120 
# 
# From -- ./inp_files/306204.got.cif
#   From: 2010.05.17/outbox.cif.g08.bks.cpg/sg12_154_cif.got.tgz:306204.got - 2010.06.03 13:09:07.
