data_PCOD9185380
_publ_section_title
;
Structure prediction by ZEFSAII (Michael W. Deem and Ramdas Pophale) SiO2 
 PCOD9185380
Probable space group: C 2/M
;
_chemical_formula_sum "Si O2"
_cell_formula_units_Z 44
_cell_length_a 28.909954
_cell_length_b 11.139355
_cell_length_c 9.665190
_cell_angle_alpha 90.000000
_cell_angle_beta 52.908448
_cell_angle_gamma 90.000000
_cell_volume 2482.805263
_symmetry_space_group_name_H-M "C 2/M"
_symmetry_group_IT_number 12
_symmetry_cell_setting 'monoclinic'
loop_
_space_group_symop_operation_xyz
x,y,z
-x,y,-z
-x,-y,-z
x,-y,z
1/2+x,1/2+y,z
1/2-x,1/2+y,-z
1/2-x,1/2-y,-z
1/2+x,1/2-y,z
loop_
_atom_site_type_symbol
_atom_site_label
_atom_site_fract_x
_atom_site_fract_y
_atom_site_fract_z
Si Si1 0.069392 0.500000 0.859174
Si Si2 0.883359 0.672046 0.996593
Si Si3 0.698327 0.237247 0.414901
Si Si4 0.741661 0.132551 0.919318
Si Si5 0.326891 0.641889 0.260525
Si Si6 0.059677 0.500000 0.310633
Si Si7 0.630364 0.000000 0.459033
O O1 0.085464 0.500000 0.668920
O O2 0.099048 0.608485 0.891076
O O3 0.000000 0.500000 0.000000
O O4 0.929591 0.617192 0.805208
O O5 0.821374 0.634396 0.041570
O O6 0.871411 0.808106 0.064722
O O7 0.710913 0.343847 0.284969
O O8 0.666000 0.292786 0.604837
O O9 0.761908 0.184559 0.337551
O O10 0.665522 0.123034 0.413354
O O11 0.748893 0.000000 0.971529
O O12 0.750000 0.250000 0.000000
O O13 0.329158 0.500000 0.268730
O O14 0.105727 0.500000 0.350331
O O15 0.000000 0.500000 0.500000
#
# Coordination Sequence:
#
# PCOD9185380 Si02
#       7
#     4   8   8   8   8   4   4
#     4  11  21  37  63  87 107 151 209 266 313 335
#     4  10  21  39  57  85 122 150 196 261 302 353
#     4  10  21  30  54  86 125 160 194 235 286 365
#     4  11  22  35  55  84 131 168 198 232 300 379
#     4  10  19  34  56  86 121 163 196 230 300 374
#     4  11  23  39  61  85 111 149 201 267 318 346
#     4  12  20  36  56  90 120 152 200 245 299 360
#
# _framework density 17.721889000000001
#
# number of rings (size 3 to 8) (size 9 to 14) (size 15 to 20)
#    0.000    1.455    4.545    2.727    1.273    0.727 
#    0.000    0.000    0.000    1.091    0.000    0.000 
#    0.000    0.000    0.000    0.000    0.000    0.000 
#
# Total GULP energy -122500.107407 kJ/mol
# GULP energy per Si atom -5568.186700 kJ/mol
# Density = 1.768155 g / cm^3
# Si number density = 17.721889 Si / 1000 Ang^3
#
#
#
# Elastic Constant Matrix: (Units=GPa)
#
#
# Indices 1 2 3 4 5 6 
#
# 1 35.5139 28.0933 11.6861 0.0000 9.1732 0.0000
# 2 28.0933 144.7968 42.4380 0.0000 3.4019 0.0000
# 3 11.6861 42.4380 120.5704 0.0000 1.7994 0.0000
# 4 0.0000 0.0000 0.0000 24.6241 0.0000 8.3048
# 5 9.1732 3.4019 1.7994 0.0000 26.2880 0.0000
# 6 0.0000 0.0000 0.0000 8.3048 0.0000 17.4196
#
#
#
# Elastic Compliance Matrix: (Units=1/GPa)
#
#
# Indices 1 2 3 4 5 6 
#
# 1 0.036760 -0.006534 -0.001085 0.000000 -0.011907 0.000000
# 2 -0.006534 0.008879 -0.002511 0.000000 0.001303 0.000000
# 3 -0.001085 -0.002511 0.009282 0.000000 0.000068 0.000000
# 4 0.000000 0.000000 0.000000 0.048391 0.000000 -0.023071
# 5 -0.011907 0.001303 0.000068 0.000000 0.042022 0.000000
# 6 0.000000 0.000000 0.000000 -0.023071 0.000000 0.068406
#
#
# Mechanical properties :
#
#
# Convention : Reuss Voigt Hill
#
# Bulk Modulus (GPa) = 28.85233 51.70176 40.27705
# Shear Modulus (GPa) = 20.36200 28.24392 24.30296
#
# Velocity S-wave (km/s) = 3.39333 3.99649 3.70720
# Velocity P-wave (km/s) = 5.62751 7.10867 6.41101
#
# Compressibility (1/GPa) = 0.03465924
#
# Stress axis : x y z
#
# Youngs Moduli (GPa) = 27.20371 112.61948 107.73465
#
# Poissons Ratio (x) = 0.73588 0.11692
# Poissons Ratio (y) = 0.17776 0.27057
# Poissons Ratio (z) = 0.02952 0.28284
#
# Static dielectric constant tensor:
#      x y z
#    x 1.625430 0.000000 0.035490 
#    y 0.000000 1.598010 0.000000 
#    z 0.035490 0.000000 1.667930 
# 
# From -- ./inp_files/109785.got.cif
#   From: 2010.05.17/outbox.cif.g08.bks.cpg/sg12_55_cif.got.tgz:109785.got - 2010.06.03 13:09:07.
