data_PCOD9185369
_publ_section_title
;
Structure prediction by ZEFSAII (Michael W. Deem and Ramdas Pophale) SiO2 
 PCOD9185369
Probable space group: C 2/M
;
_chemical_formula_sum "Si O2"
_cell_formula_units_Z 48
_cell_length_a 16.289413
_cell_length_b 22.093026
_cell_length_c 5.485343
_cell_angle_alpha 90.000000
_cell_angle_beta 91.631317
_cell_angle_gamma 90.000000
_cell_volume 1973.278455
_symmetry_space_group_name_H-M "C 2/M"
_symmetry_group_IT_number 12
_symmetry_cell_setting 'monoclinic'
loop_
_space_group_symop_operation_xyz
x,y,z
-x,y,-z
-x,-y,-z
x,-y,z
1/2+x,1/2+y,z
1/2-x,1/2+y,-z
1/2-x,1/2-y,-z
1/2+x,1/2-y,z
loop_
_atom_site_type_symbol
_atom_site_label
_atom_site_fract_x
_atom_site_fract_y
_atom_site_fract_z
Si Si1 0.155454 0.230674 0.452117
Si Si2 0.281040 0.430432 0.812603
Si Si3 0.584292 0.834279 0.147074
Si Si4 0.709872 0.072746 0.307610
Si Si5 0.971892 0.931186 0.746566
Si Si6 0.901965 0.217884 0.045605
O O1 0.250000 0.250000 0.500000
O O2 0.096265 0.289055 0.382467
O O3 0.121692 0.197640 0.688743
O O4 0.142172 0.192548 0.200082
O O5 0.248669 0.500000 0.825152
O O6 0.235668 0.402638 0.574873
O O7 0.375375 0.436161 0.749046
O O8 0.269216 0.408433 0.088189
O O9 0.625582 0.896524 0.221031
O O10 0.500000 0.846327 0.000000
O O11 0.630141 0.788520 0.962692
O O12 0.708236 0.000000 0.322597
O O13 0.000000 0.901797 0.500000
O O14 0.009262 0.000000 0.750083
O O15 0.000000 0.901695 0.000000
O O16 0.000000 0.221386 0.000000
#
# Coordination Sequence:
#
# PCOD9185369 Si02
#       6
#     8   8   8   8   8   8
#     4  10  19  34  56  86 115 140 180 229 278 337
#     4   9  18  31  46  69 102 136 182 234 279 323
#     4   9  22  35  57  80 115 143 188 233 277 322
#     4  10  20  34  50  72 107 153 193 233 278 320
#     4   9  15  24  42  67  91 116 157 218 280 326
#     4   9  19  33  55  82 117 146 174 222 277 328
#
# _framework density 24.325001
#
# number of rings (size 3 to 8) (size 9 to 14) (size 15 to 20)
#    1.000    1.667    0.000    2.000    2.333    4.333 
#    0.000    0.000    0.000    3.000    0.000   12.833 
#    0.000    0.000    0.000    0.000    0.000    0.000 
#
# Total GULP energy -133763.732302 kJ/mol
# GULP energy per Si atom -5573.488846 kJ/mol
# Density = 2.426964 g / cm^3
# Si number density = 24.325001 Si / 1000 Ang^3
#
#
#
# Elastic Constant Matrix: (Units=GPa)
#
#
# Indices 1 2 3 4 5 6 
#
# 1 96.6416 19.0157 61.0116 0.0000 28.8215 0.0000
# 2 19.0157 65.5487 32.6189 0.0000 4.9234 0.0000
# 3 61.0116 32.6189 203.5126 0.0000 13.5901 0.0000
# 4 0.0000 0.0000 0.0000 8.1802 0.0000 24.9610
# 5 28.8215 4.9234 13.5901 0.0000 41.5641 0.0000
# 6 0.0000 0.0000 0.0000 24.9610 0.0000 16.8470
#
#
#
# Elastic Compliance Matrix: (Units=1/GPa)
#
#
# Indices 1 2 3 4 5 6 
#
# 1 0.016042 -0.002018 -0.003843 0.000000 -0.009628 0.000000
# 2 -0.002018 0.016883 -0.002107 0.000000 0.000089 0.000000
# 3 -0.003843 -0.002107 0.006347 0.000000 0.000839 0.000000
# 4 0.000000 0.000000 0.000000 -0.034719 0.000000 0.051440
# 5 -0.009628 0.000089 0.000839 0.000000 0.030451 0.000000
# 6 0.000000 0.000000 0.000000 0.051440 0.000000 -0.016858
#
#
# Mechanical properties :
#
#
# Convention : Reuss Voigt Hill
#
# Bulk Modulus (GPa) = 42.85099 65.66614 54.25857
# Shear Modulus (GPa) = 119.43941 30.18870 74.81405
#
# Velocity S-wave (km/s) = 7.01485 3.52668 5.55183
# Velocity P-wave (km/s) = 9.12497 6.60585 7.96562
#
# Compressibility (1/GPa) = 0.02333668
#
# Stress axis : x y z
#
# Youngs Moduli (GPa) = 62.33544 59.23070 157.54400
#
# Poissons Ratio (x) = 0.11955 0.60542
# Poissons Ratio (y) = 0.12581 0.33192
# Poissons Ratio (z) = 0.23955 0.12479
#
# Static dielectric constant tensor:
#      x y z
#    x 1.908310 0.000000 -0.004200 
#    y 0.000000 2.040670 0.000000 
#    z -0.004200 0.000000 2.038500 
# 
# From -- ./inp_files/12895.got.cif
#   From: 2010.05.17/outbox.cif.g08.bks.cpg/sg12_7_cif.got.tgz:12895.got - 2010.06.03 13:09:07.
