data_PCOD9185503
_publ_section_title
;
Structure prediction by ZEFSAII (Michael W. Deem and Ramdas Pophale) SiO2 
 PCOD9185503
Probable space group: C 2/M
;
_chemical_formula_sum "Si O2"
_cell_formula_units_Z 56
_cell_length_a 28.163169
_cell_length_b 7.600064
_cell_length_c 14.139119
_cell_angle_alpha 90.000000
_cell_angle_beta 120.279181
_cell_angle_gamma 90.000000
_cell_volume 2613.503597
_symmetry_space_group_name_H-M "C 2/M"
_symmetry_group_IT_number 12
_symmetry_cell_setting 'monoclinic'
loop_
_space_group_symop_operation_xyz
x,y,z
-x,y,-z
-x,-y,-z
x,-y,z
1/2+x,1/2+y,z
1/2-x,1/2+y,-z
1/2-x,1/2-y,-z
1/2+x,1/2-y,z
loop_
_atom_site_type_symbol
_atom_site_label
_atom_site_fract_x
_atom_site_fract_y
_atom_site_fract_z
Si Si1 0.452846 0.711663 0.381946
Si Si2 0.476287 0.284393 0.192921
Si Si3 0.238273 0.211298 0.097392
Si Si4 0.407350 0.707168 0.768712
Si Si5 0.688627 0.209458 0.472983
Si Si6 0.331370 0.211043 0.334648
Si Si7 0.380858 0.284308 0.952274
O O1 0.500000 0.778252 0.500000
O O2 0.457659 0.500000 0.383847
O O3 0.462257 0.775673 0.284659
O O4 0.392538 0.752690 0.360013
O O5 0.476673 0.500000 0.195079
O O6 0.536230 0.222465 0.219263
O O7 0.429379 0.231523 0.071829
O O8 0.286289 0.278751 0.214720
O O9 0.178446 0.275438 0.070006
O O10 0.237423 0.000000 0.105712
O O11 0.250000 0.250000 0.000000
O O12 0.417382 0.500000 0.793150
O O13 0.356812 0.724768 0.646220
O O14 0.392525 0.777829 0.857437
O O15 0.750000 0.250000 0.500000
O O16 0.678367 0.278990 0.568810
O O17 0.682563 0.000000 0.469852
O O18 0.324746 0.000000 0.332099
O O19 0.379862 0.500000 0.950662
#
# Coordination Sequence:
#
# PCOD9185503 Si02
#       7
#     8   8   8   8   8   8   8
#     4  10  20  34  54  81 110 140 179 226 268 309
#     4   9  17  30  52  82 111 141 180 221 262 312
#     4  10  20  35  54  77 106 139 177 219 263 313
#     4  10  19  34  57  82 108 139 178 224 268 311
#     4  11  23  39  58  80 107 140 178 219 267 321
#     4  10  22  38  55  78 109 144 179 216 264 323
#     4   9  17  31  53  79 107 141 179 218 261 313
#
# _framework density 21.427175999999999
#
# number of rings (size 3 to 8) (size 9 to 14) (size 15 to 20)
#    0.000    2.143    0.000    3.429    0.000    8.286 
#    0.000    2.857    0.000    3.429    0.000    0.000 
#    0.000    0.000    0.000    0.000    0.000    0.000 
#
# Total GULP energy -156516.363774 kJ/mol
# GULP energy per Si atom -5589.870135 kJ/mol
# Density = 2.137841 g / cm^3
# Si number density = 21.427176 Si / 1000 Ang^3
#
#
#
# Elastic Constant Matrix: (Units=GPa)
#
#
# Indices 1 2 3 4 5 6 
#
# 1 252.3819 -5.6583 151.2802 0.0000 -7.2515 0.0000
# 2 -5.6583 41.9838 -6.5112 0.0000 -5.0679 0.0000
# 3 151.2802 -6.5112 237.8157 0.0000 -9.2659 0.0000
# 4 0.0000 0.0000 0.0000 11.0994 0.0000 -4.5345
# 5 -7.2515 -5.0679 -9.2659 0.0000 49.0626 0.0000
# 6 0.0000 0.0000 0.0000 -4.5345 0.0000 16.3150
#
#
#
# Elastic Compliance Matrix: (Units=1/GPa)
#
#
# Indices 1 2 3 4 5 6 
#
# 1 0.006408 0.000259 -0.004061 0.000000 0.000207 0.000000
# 2 0.000259 0.024268 0.000603 0.000000 0.002659 0.000000
# 3 -0.004061 0.000603 0.006834 0.000000 0.000753 0.000000
# 4 0.000000 0.000000 0.000000 0.101635 0.000000 0.028248
# 5 0.000207 0.002659 0.000753 0.000000 0.020830 0.000000
# 6 0.000000 0.000000 0.000000 0.028248 0.000000 0.069144
#
#
# Mechanical properties :
#
#
# Convention : Reuss Voigt Hill
#
# Bulk Modulus (GPa) = 32.14143 90.04475 61.09309
# Shear Modulus (GPa) = 20.33435 41.50011 30.91723
#
# Velocity S-wave (km/s) = 3.08392 4.40568 3.80267
# Velocity P-wave (km/s) = 5.26438 8.24590 6.91768
#
# Compressibility (1/GPa) = 0.03111250
#
# Stress axis : x y z
#
# Youngs Moduli (GPa) = 156.04396 41.20633 146.31962
#
# Poissons Ratio (x) = -0.01066 0.59427
# Poissons Ratio (y) = -0.04038 -0.08829
# Poissons Ratio (z) = 0.63376 -0.02486
#
# Static dielectric constant tensor:
#      x y z
#    x 1.725870 0.000000 -0.014070 
#    y 0.000000 1.833180 0.000000 
#    z -0.014070 0.000000 1.731050 
# 
# From -- ./inp_files/180708.got.cif
#   From: 2010.05.17/outbox.cif.g08.bks.cpg/sg12_91_cif.got.tgz:180708.got - 2010.06.03 13:09:07.
