data_PCOD9185618
_publ_section_title
;
Structure prediction by ZEFSAII (Michael W. Deem and Ramdas Pophale) SiO2 
 PCOD9185618
Probable space group: C 2/M
;
_chemical_formula_sum "Si O2"
_cell_formula_units_Z 48
_cell_length_a 28.652912
_cell_length_b 9.109070
_cell_length_c 10.474901
_cell_angle_alpha 90.000000
_cell_angle_beta 90.082273
_cell_angle_gamma 90.000000
_cell_volume 2733.960809
_symmetry_space_group_name_H-M "C 2/M"
_symmetry_group_IT_number 12
_symmetry_cell_setting 'monoclinic'
loop_
_space_group_symop_operation_xyz
x,y,z
-x,y,-z
-x,-y,-z
x,-y,z
1/2+x,1/2+y,z
1/2-x,1/2+y,-z
1/2-x,1/2-y,-z
1/2+x,1/2-y,z
loop_
_atom_site_type_symbol
_atom_site_label
_atom_site_fract_x
_atom_site_fract_y
_atom_site_fract_z
Si Si1 0.054295 0.176814 0.500621
Si Si2 0.796513 0.324800 0.848607
Si Si3 0.198692 0.674434 0.849618
Si Si4 0.605062 0.176432 0.262995
Si Si5 0.393541 0.324499 0.236885
Si Si6 0.944347 0.327599 0.002927
O O1 0.082039 0.246939 0.383530
O O2 0.079164 0.216121 0.633833
O O3 0.000000 0.223161 0.500000
O O4 0.055262 0.000000 0.488504
O O5 0.788619 0.500000 0.837477
O O6 0.749366 0.239022 0.816765
O O7 0.841024 0.284018 0.763586
O O8 0.808291 0.296454 0.998209
O O9 0.197458 0.500000 0.831110
O O10 0.157305 0.751717 0.773155
O O11 0.602640 0.000000 0.277984
O O12 0.576909 0.214337 0.133900
O O13 0.389347 0.500000 0.231653
O O14 0.422418 0.266094 0.115973
O O15 0.932483 0.500000 0.024513
O O16 0.000000 0.313275 0.000000
#
# Coordination Sequence:
#
# PCOD9185618 Si02
#       6
#     8   8   8   8   8   8
#     4  10  23  41  57  78 113 153 192 234 277 329
#     4   9  18  34  55  83 117 144 179 230 281 334
#     4  10  19  34  57  84 115 146 183 229 281 336
#     4  10  20  36  57  84 113 145 185 231 280 333
#     4  11  22  36  56  82 113 149 189 231 280 333
#     4  10  20  35  56  83 113 142 182 236 285 333
#
# _framework density 17.556946
#
# number of rings (size 3 to 8) (size 9 to 14) (size 15 to 20)
#    0.000    2.000    1.667    2.000    0.000    4.000 
#    0.000    0.833    0.000    0.000    0.000    0.000 
#    0.000    0.000    0.000    0.000    0.000    0.000 
#
# Total GULP energy -134024.230503 kJ/mol
# GULP energy per Si atom -5584.342938 kJ/mol
# Density = 1.751699 g / cm^3
# Si number density = 17.556946 Si / 1000 Ang^3
#
#
#
# Elastic Constant Matrix: (Units=GPa)
#
#
# Indices 1 2 3 4 5 6 
#
# 1 150.8157 63.2182 87.0758 0.0000 9.5859 0.0000
# 2 63.2182 46.5760 56.8821 0.0000 7.6860 0.0000
# 3 87.0758 56.8821 128.8665 0.0000 4.1410 0.0000
# 4 0.0000 0.0000 0.0000 26.9713 0.0000 -14.8063
# 5 9.5859 7.6860 4.1410 0.0000 31.8607 0.0000
# 6 0.0000 0.0000 0.0000 -14.8063 0.0000 5.8488
#
#
#
# Elastic Compliance Matrix: (Units=1/GPa)
#
#
# Indices 1 2 3 4 5 6 
#
# 1 0.015781 -0.018213 -0.002623 0.000000 -0.000013 0.000000
# 2 -0.018213 0.070073 -0.018333 0.000000 -0.009042 0.000000
# 3 -0.002623 -0.018333 0.017531 0.000000 0.002933 0.000000
# 4 0.000000 0.000000 0.000000 -0.095139 0.000000 -0.240845
# 5 -0.000013 -0.009042 0.002933 0.000000 0.033190 0.000000
# 6 0.000000 0.000000 0.000000 -0.240845 0.000000 -0.438727
#
#
# Mechanical properties :
#
#
# Convention : Reuss Voigt Hill
#
# Bulk Modulus (GPa) = 39.92810 82.29006 61.10908
# Shear Modulus (GPa) = -16.09771 20.87497 2.38863
#
# Velocity S-wave (km/s) = -3.03130 3.45191 1.16767
# Velocity P-wave (km/s) = 3.24650 7.92841 6.05803
#
# Compressibility (1/GPa) = 0.02504502
#
# Stress axis : x y z
#
# Youngs Moduli (GPa) = 63.36924 14.27075 57.04326
#
# Poissons Ratio (x) = 0.25992 0.14963
# Poissons Ratio (y) = 1.15416 1.04579
# Poissons Ratio (z) = 0.16623 0.26163
#
# Static dielectric constant tensor:
#      x y z
#    x 1.591210 0.000000 0.007710 
#    y 0.000000 1.584740 0.000000 
#    z 0.007710 0.000000 1.566700 
# 
# From -- ./inp_files/108680.got.cif
#   From: 2010.05.17/outbox.cif.g08.bks.cpg/sg12_55_cif.got.tgz:108680.got - 2010.06.03 13:09:07.
