data_PCOD9185493
_publ_section_title
;
Structure prediction by ZEFSAII (Michael W. Deem and Ramdas Pophale) SiO2 
 PCOD9185493
Probable space group: C 2/M
;
_chemical_formula_sum "Si O2"
_cell_formula_units_Z 64
_cell_length_a 20.153100
_cell_length_b 7.402805
_cell_length_c 24.291901
_cell_angle_alpha 90.000000
_cell_angle_beta 126.857431
_cell_angle_gamma 90.000000
_cell_volume 2899.749716
_symmetry_space_group_name_H-M "C 2/M"
_symmetry_group_IT_number 12
_symmetry_cell_setting 'monoclinic'
loop_
_space_group_symop_operation_xyz
x,y,z
-x,y,-z
-x,-y,-z
x,-y,z
1/2+x,1/2+y,z
1/2-x,1/2+y,-z
1/2-x,1/2-y,-z
1/2+x,1/2-y,z
loop_
_atom_site_type_symbol
_atom_site_label
_atom_site_fract_x
_atom_site_fract_y
_atom_site_fract_z
Si Si1 0.825319 0.281885 0.300523
Si Si2 0.862931 0.781643 0.793116
Si Si3 0.593040 0.279305 0.061186
Si Si4 0.751995 0.215846 0.935993
Si Si5 0.392409 0.220751 0.215022
Si Si6 0.409177 0.706105 0.452647
Si Si7 0.753564 0.716249 0.566894
Si Si8 0.576708 0.208048 0.294052
O O1 0.829056 0.500000 0.305602
O O2 0.731373 0.225619 0.264689
O O3 0.850492 0.230749 0.251767
O O4 0.883166 0.205355 0.376251
O O5 0.887630 0.723955 0.866594
O O6 0.915248 0.713483 0.767899
O O7 0.866648 0.000000 0.794143
O O8 0.593929 0.500000 0.060727
O O9 0.665291 0.218887 0.054985
O O10 0.500000 0.222173 0.000000
O O11 0.668427 0.282056 0.864123
O O12 0.752807 0.000000 0.929208
O O13 0.750000 0.250000 0.000000
O O14 0.486748 0.287820 0.262127
O O15 0.395666 0.000000 0.213482
O O16 0.500000 0.792177 0.500000
O O17 0.418274 0.500000 0.478279
O O18 0.330679 0.786969 0.446337
O O19 0.753484 0.500000 0.576557
O O20 0.750000 0.750000 0.500000
O O21 0.839348 0.786274 0.636895
O O22 0.574035 0.000000 0.311719
#
# Coordination Sequence:
#
# PCOD9185493 Si02
#       8
#     8   8   8   8   8   8   8   8
#     4  10  19  35  59  81 102 136 183 225 258 306
#     4  10  19  34  57  82 105 135 180 227 262 303
#     4   9  18  33  54  78 106 142 179 217 264 312
#     4  10  20  36  55  77 109 143 176 218 265 315
#     4   9  19  36  56  78 107 142 177 216 266 314
#     4  10  22  39  56  78 110 143 172 214 273 321
#     4  10  22  38  55  77 107 141 176 214 262 318
#     4  10  21  37  56  78 107 143 175 213 268 320
#
# _framework density 22.070869999999999
#
# number of rings (size 3 to 8) (size 9 to 14) (size 15 to 20)
#    0.000    2.250    2.500    0.000    3.500    1.250 
#    0.000    1.875    0.000    0.750    0.000    0.000 
#    0.000    0.000    0.000    0.000    0.000    0.000 
#
# Total GULP energy -178716.754887 kJ/mol
# GULP energy per Si atom -5584.898590 kJ/mol
# Density = 2.202064 g / cm^3
# Si number density = 22.070870 Si / 1000 Ang^3
#
#
#
# Elastic Constant Matrix: (Units=GPa)
#
#
# Indices 1 2 3 4 5 6 
#
# 1 83.7655 1.3418 23.5299 0.0000 12.5004 0.0000
# 2 1.3418 73.7426 -3.3786 -0.0001 9.8061 0.0000
# 3 23.5299 -3.3786 122.1672 0.0000 8.3253 0.0000
# 4 0.0000 -0.0001 0.0000 22.2050 0.0000 -17.9970
# 5 12.5004 9.8061 8.3253 0.0000 44.6767 0.0000
# 6 0.0000 0.0000 0.0000 -17.9970 0.0000 2.4627
#
#
#
# Elastic Compliance Matrix: (Units=1/GPa)
#
#
# Indices 1 2 3 4 5 6 
#
# 1 0.013065 0.000089 -0.002293 0.000000 -0.003248 0.000000
# 2 0.000089 0.014013 0.000589 0.000000 -0.003210 0.000000
# 3 -0.002293 0.000589 0.008719 0.000000 -0.001113 0.000000
# 4 0.000000 0.000000 0.000000 -0.009148 0.000000 -0.066852
# 5 -0.003248 -0.003210 -0.001113 0.000000 0.024204 0.000000
# 6 0.000000 0.000000 0.000000 -0.066852 0.000000 -0.082483
#
#
# Mechanical properties :
#
#
# Convention : Reuss Voigt Hill
#
# Bulk Modulus (GPa) = 30.70419 35.85128 33.27774
# Shear Modulus (GPa) = -284.99206 31.08103 -126.95552
#
# Velocity S-wave (km/s) = -11.37568 3.75672 -7.59254
# Velocity P-wave (km/s) = 12.59364 5.92421 7.85823
#
# Compressibility (1/GPa) = 0.03256884
#
# Stress axis : x y z
#
# Youngs Moduli (GPa) = 76.53821 71.36242 114.68958
#
# Poissons Ratio (x) = -0.00636 0.26294
# Poissons Ratio (y) = -0.00682 -0.06757
# Poissons Ratio (z) = 0.17547 -0.04204
#
# Static dielectric constant tensor:
#      x y z
#    x 1.778400 0.000000 0.028320 
#    y 0.000000 1.809030 0.000000 
#    z 0.028320 0.000000 1.767950 
# 
# From -- ./inp_files/346249.got.cif
#   From: 2010.05.17/outbox.cif.g08.bks.cpg/sg12_174_cif.got.tgz:346249.got - 2010.06.03 13:09:07.
