data_PCOD9185871
_publ_section_title
;
Structure prediction by ZEFSAII (Michael W. Deem and Ramdas Pophale) SiO2 
 PCOD9185871
Probable space group: C 2/M
;
_chemical_formula_sum "Si O2"
_cell_formula_units_Z 48
_cell_length_a 14.050999
_cell_length_b 30.297745
_cell_length_c 9.160872
_cell_angle_alpha 90.000000
_cell_angle_beta 137.658126
_cell_angle_gamma 90.000000
_cell_volume 2626.794055
_symmetry_space_group_name_H-M "C 2/M"
_symmetry_group_IT_number 12
_symmetry_cell_setting 'monoclinic'
loop_
_space_group_symop_operation_xyz
x,y,z
-x,y,-z
-x,-y,-z
x,-y,z
1/2+x,1/2+y,z
1/2-x,1/2+y,-z
1/2-x,1/2-y,-z
1/2+x,1/2-y,z
loop_
_atom_site_type_symbol
_atom_site_label
_atom_site_fract_x
_atom_site_fract_y
_atom_site_fract_z
Si Si1 0.631930 0.450744 0.233672
Si Si2 0.337637 0.709715 0.663061
Si Si3 0.306844 0.618981 0.129284
Si Si4 0.632975 0.949887 0.745428
Si Si5 0.173299 0.788465 0.004527
Si Si6 0.853391 0.118014 0.519258
O O1 0.586699 0.500000 0.230065
O O2 0.746974 0.454174 0.239950
O O3 0.691983 0.423362 0.435512
O O4 0.500000 0.428328 0.000000
O O5 0.250000 0.750000 0.500000
O O6 0.298873 0.708016 0.790586
O O7 0.312977 0.662507 0.559027
O O8 0.503328 0.718023 0.814809
O O9 0.293434 0.620472 0.288722
O O10 0.475519 0.611412 0.294677
O O11 0.201523 0.582682 0.942036
O O12 0.284037 0.665996 0.025859
O O13 0.500000 0.933068 0.500000
O O14 0.600508 0.000000 0.763581
O O15 0.250000 0.750000 0.000000
#
# Coordination Sequence:
#
# PCOD9185871 Si02
#       6
#     8   8   8   8   8   8
#     4  10  19  34  58  85 112 145 190 235 280 340
#     4  10  21  37  59  84 113 150 188 235 288 340
#     4  10  20  36  57  86 115 149 190 236 289 340
#     4  10  21  38  58  82 116 154 191 234 288 346
#     4  10  21  38  59  82 115 150 190 235 283 341
#     4  10  20  34  60  86 115 147 188 242 287 335
#
# _framework density 18.273226000000001
#
# number of rings (size 3 to 8) (size 9 to 14) (size 15 to 20)
#    0.000    2.000    1.667    2.000    2.333    2.667 
#    6.000    2.500    0.000    3.000    0.000    0.000 
#    0.000    0.000    0.000    0.000    0.000    0.000 
#
# Total GULP energy -133699.848088 kJ/mol
# GULP energy per Si atom -5570.827004 kJ/mol
# Density = 1.823164 g / cm^3
# Si number density = 18.273226 Si / 1000 Ang^3
#
#
#
# Elastic Constant Matrix: (Units=GPa)
#
#
# Indices 1 2 3 4 5 6 
#
# 1 71.0174 40.6166 48.9552 0.0000 -33.5046 0.0000
# 2 40.6166 120.1478 84.9821 0.0000 -34.3923 0.0000
# 3 48.9552 84.9821 138.6246 0.0000 -32.3883 0.0000
# 4 0.0000 0.0000 0.0000 43.7337 0.0000 -14.9022
# 5 -33.5046 -34.3923 -32.3883 0.0000 36.0441 0.0000
# 6 0.0000 0.0000 0.0000 -14.9022 0.0000 46.2756
#
#
#
# Elastic Compliance Matrix: (Units=1/GPa)
#
#
# Indices 1 2 3 4 5 6 
#
# 1 0.027306 0.000297 -0.004846 0.000000 0.021311 0.000000
# 2 0.000297 0.016497 -0.008197 0.000000 0.008651 0.000000
# 3 -0.004846 -0.008197 0.014012 0.000000 0.000265 0.000000
# 4 0.000000 0.000000 0.000000 0.025684 0.000000 0.008271
# 5 0.021311 0.008651 0.000265 0.000000 0.056046 0.000000
# 6 0.000000 0.000000 0.000000 0.008271 0.000000 0.024273
#
#
# Mechanical properties :
#
#
# Convention : Reuss Voigt Hill
#
# Bulk Modulus (GPa) = 30.93771 75.43309 53.18540
# Shear Modulus (GPa) = 24.98952 35.55974 30.27463
#
# Velocity S-wave (km/s) = 3.70205 4.41614 4.07477
# Velocity P-wave (km/s) = 5.93641 8.20812 7.16290
#
# Compressibility (1/GPa) = 0.03232301
#
# Stress axis : x y z
#
# Youngs Moduli (GPa) = 36.62229 60.61778 71.36769
#
# Poissons Ratio (x) = -0.01800 0.34585
# Poissons Ratio (y) = -0.01088 0.58498
# Poissons Ratio (z) = 0.17747 0.49687
#
# Static dielectric constant tensor:
#      x y z
#    x 1.583650 0.000000 -0.097340 
#    y 0.000000 1.642710 0.000000 
#    z -0.097340 0.000000 1.363170 
# 
# From -- ./inp_files/68380.got.cif
#   From: 2010.05.17/outbox.cif.g08.bks.cpg/sg12_35_cif.got.tgz:68380.got - 2010.06.03 13:09:07.
