data_PCOD9185300
_publ_section_title
;
Structure prediction by ZEFSAII (Michael W. Deem and Ramdas Pophale) SiO2 
 PCOD9185300
Probable space group: C 2/M
;
_chemical_formula_sum "Si O2"
_cell_formula_units_Z 56
_cell_length_a 18.150750
_cell_length_b 13.399279
_cell_length_c 18.562682
_cell_angle_alpha 90.000000
_cell_angle_beta 143.739561
_cell_angle_gamma 90.000000
_cell_volume 2670.174163
_symmetry_space_group_name_H-M "C 2/M"
_symmetry_group_IT_number 12
_symmetry_cell_setting 'monoclinic'
loop_
_space_group_symop_operation_xyz
x,y,z
-x,y,-z
-x,-y,-z
x,-y,z
1/2+x,1/2+y,z
1/2-x,1/2+y,-z
1/2-x,1/2-y,-z
1/2+x,1/2-y,z
loop_
_atom_site_type_symbol
_atom_site_label
_atom_site_fract_x
_atom_site_fract_y
_atom_site_fract_z
Si Si1 0.372692 0.609712 0.159982
Si Si2 0.722017 0.766908 0.358576
Si Si3 0.522125 0.609459 0.918644
Si Si4 0.721405 0.113162 0.703462
Si Si5 0.264007 0.256677 0.859800
Si Si6 0.137252 0.886833 0.415217
Si Si7 0.114771 0.615237 0.147447
O O1 0.309446 0.500000 0.116153
O O2 0.436283 0.612710 0.131696
O O3 0.290747 0.705770 0.112726
O O4 0.488599 0.613624 0.306000
O O5 0.812784 0.696120 0.382576
O O6 0.794109 0.852186 0.458788
O O7 0.668297 0.692755 0.377117
O O8 0.620328 0.819228 0.225343
O O9 0.564114 0.500000 0.978754
O O10 0.373870 0.613406 0.813332
O O11 0.601879 0.694715 0.018932
O O12 0.692815 0.156342 0.760248
O O13 0.678689 0.000000 0.659029
O O14 0.276814 0.165593 0.814201
O O15 0.172952 0.000000 0.421622
O O16 0.133999 0.500000 0.180943
O O17 0.000000 0.618421 0.000000
#
# Coordination Sequence:
#
# PCOD9185300 Si02
#       7
#     8   8   8   8   8   8   8
#     4  10  21  36  54  79 113 148 186 234 286 338
#     4  10  19  34  60  85 106 143 193 238 285 331
#     4  10  19  34  56  83 111 147 194 239 281 330
#     4  10  19  34  57  84 111 141 189 239 280 331
#     4  11  20  32  53  81 112 150 186 227 283 341
#     4  10  20  36  59  84 112 143 189 244 284 331
#     4  10  21  35  51  77 116 152 187 229 279 339
#
# _framework density 20.972414000000001
#
# number of rings (size 3 to 8) (size 9 to 14) (size 15 to 20)
#    0.000    1.857    1.429    4.286    0.000    1.143 
#    0.000    2.857    0.000   18.429    0.000    0.000 
#    0.000    0.000    0.000    0.000    0.000    0.000 
#
# Total GULP energy -156013.654274 kJ/mol
# GULP energy per Si atom -5571.916224 kJ/mol
# Density = 2.092468 g / cm^3
# Si number density = 20.972414 Si / 1000 Ang^3
#
#
#
# Elastic Constant Matrix: (Units=GPa)
#
#
# Indices 1 2 3 4 5 6 
#
# 1 59.0872 26.0259 11.4367 0.0000 -16.8063 0.0000
# 2 26.0259 150.3089 32.8986 0.0000 -14.0044 0.0000
# 3 11.4367 32.8986 67.8806 0.0000 -25.7703 0.0000
# 4 0.0000 0.0000 0.0000 31.7248 0.0000 -9.6839
# 5 -16.8063 -14.0044 -25.7703 0.0000 20.3378 0.0000
# 6 0.0000 0.0000 0.0000 -9.6839 0.0000 27.7841
#
#
#
# Elastic Compliance Matrix: (Units=1/GPa)
#
#
# Indices 1 2 3 4 5 6 
#
# 1 0.025104 -0.003498 0.008531 0.000000 0.029145 0.000000
# 2 -0.003498 0.007942 -0.004395 0.000000 -0.002992 0.000000
# 3 0.008531 -0.004395 0.032666 0.000000 0.045414 0.000000
# 4 0.000000 0.000000 0.000000 0.035274 0.000000 0.012294
# 5 0.029145 -0.002992 0.045414 0.000000 0.128738 0.000000
# 6 0.000000 0.000000 0.000000 0.012294 0.000000 0.040277
#
#
# Mechanical properties :
#
#
# Convention : Reuss Voigt Hill
#
# Bulk Modulus (GPa) = 14.92869 46.44434 30.68652
# Shear Modulus (GPa) = 17.17884 29.76368 23.47126
#
# Velocity S-wave (km/s) = 2.86513 3.77129 3.34900
# Velocity P-wave (km/s) = 4.25194 6.41537 5.44224
#
# Compressibility (1/GPa) = 0.06698509
#
# Stress axis : x y z
#
# Youngs Moduli (GPa) = 39.83476 125.91249 30.61302
#
# Poissons Ratio (x) = 0.44049 -0.26115
# Poissons Ratio (y) = 0.13936 0.13456
# Poissons Ratio (z) = -0.33981 0.55345
#
# Static dielectric constant tensor:
#      x y z
#    x 1.782940 0.000000 -0.023140 
#    y 0.000000 1.796110 0.000000 
#    z -0.023140 0.000000 1.816760 
# 
# From -- ./inp_files/277874.got.cif
#   From: 2010.05.17/outbox.cif.g08.bks.cpg/sg12_139_cif.got.tgz:277874.got - 2010.06.03 13:09:07.
