data_PCOD9185996
_publ_section_title
;
Structure prediction by ZEFSAII (Michael W. Deem and Ramdas Pophale) SiO2 
 PCOD9185996
Probable space group: C 2/M
;
_chemical_formula_sum "Si O2"
_cell_formula_units_Z 50
_cell_length_a 30.095895
_cell_length_b 7.540912
_cell_length_c 12.158813
_cell_angle_alpha 90.000000
_cell_angle_beta 53.468962
_cell_angle_gamma 90.000000
_cell_volume 2217.312232
_symmetry_space_group_name_H-M "C 2/M"
_symmetry_group_IT_number 12
_symmetry_cell_setting 'monoclinic'
loop_
_space_group_symop_operation_xyz
x,y,z
-x,y,-z
-x,-y,-z
x,-y,z
1/2+x,1/2+y,z
1/2-x,1/2+y,-z
1/2-x,1/2-y,-z
1/2+x,1/2-y,z
loop_
_atom_site_type_symbol
_atom_site_label
_atom_site_fract_x
_atom_site_fract_y
_atom_site_fract_z
Si Si1 0.111738 0.711878 0.632147
Si Si2 0.648115 0.202612 0.341530
Si Si3 0.622416 0.215392 0.145621
Si Si4 0.295885 0.300636 0.342292
Si Si5 0.771972 0.299729 0.139404
Si Si6 0.500000 0.500000 0.500000
Si Si7 0.498988 0.787407 0.696961
O O1 0.121746 0.500000 0.623125
O O2 0.136983 0.779619 0.478368
O O3 0.145448 0.788989 0.683713
O O4 0.046475 0.742037 0.717430
O O5 0.620188 0.284370 0.274537
O O6 0.713314 0.204307 0.221403
O O7 0.627839 0.000000 0.378238
O O8 0.564046 0.253338 0.175170
O O9 0.627255 0.000000 0.142844
O O10 0.677477 0.279262 0.004309
O O11 0.283838 0.500000 0.325007
O O12 0.250000 0.250000 0.500000
O O13 0.290862 0.192667 0.238249
O O14 0.761383 0.500000 0.115370
O O15 0.510504 0.657470 0.578627
O O16 0.501170 0.000000 0.664897
#
# Coordination Sequence:
#
# PCOD9185996 Si02
#       7
#     8   8   8   8   8   2   8
#     4  10  21  38  65  90 121 158 202 254 315 364
#     4  10  19  34  58  89 122 158 198 246 303 365
#     4   9  20  40  62  85 123 169 204 241 305 378
#     4  12  24  40  62  87 120 156 204 264 312 363
#     4  11  22  38  60  88 120 161 208 247 304 379
#     4  12  22  36  64  98 126 164 222 248 308 372
#     4  10  22  42  62  90 131 168 205 264 312 365
#
# _framework density 22.549823
#
# number of rings (size 3 to 8) (size 9 to 14) (size 15 to 20)
#    0.000    1.600    1.600    3.600    1.120    2.560 
#    7.200    0.800    0.000    4.800    0.000    0.000 
#    0.000    0.000    0.000    0.000    0.000    0.000 
#
# Total GULP energy -139434.762061 kJ/mol
# GULP energy per Si atom -5577.390482 kJ/mol
# Density = 2.249850 g / cm^3
# Si number density = 22.549823 Si / 1000 Ang^3
#
#
#
# Elastic Constant Matrix: (Units=GPa)
#
#
# Indices 1 2 3 4 5 6 
#
# 1 118.0323 -6.2277 12.1268 0.0000 -13.4127 0.0000
# 2 -6.2277 81.9430 -16.2871 0.0000 -0.2821 0.0000
# 3 12.1268 -16.2871 53.7927 0.0000 -11.8906 0.0000
# 4 0.0000 0.0000 0.0000 9.3857 0.0000 -0.7310
# 5 -13.4127 -0.2821 -11.8906 0.0000 33.9398 0.0000
# 6 0.0000 0.0000 0.0000 -0.7310 0.0000 18.6994
#
#
#
# Elastic Compliance Matrix: (Units=1/GPa)
#
#
# Indices 1 2 3 4 5 6 
#
# 1 0.008975 0.000456 -0.001193 0.000000 0.003133 0.000000
# 2 0.000456 0.013090 0.004254 0.000000 0.001779 0.000000
# 3 -0.001193 0.004254 0.021733 0.000000 0.007178 0.000000
# 4 0.000000 0.000000 0.000000 0.106870 0.000000 0.004178
# 5 0.003133 0.001779 0.007178 0.000000 0.033232 0.000000
# 6 0.000000 0.000000 0.000000 0.004178 0.000000 0.053641
#
#
# Mechanical properties :
#
#
# Convention : Reuss Voigt Hill
#
# Bulk Modulus (GPa) = 19.67272 25.88798 22.78035
# Shear Modulus (GPa) = 20.20602 30.01538 25.11070
#
# Velocity S-wave (km/s) = 2.99668 3.65234 3.34063
# Velocity P-wave (km/s) = 4.55153 5.41215 5.00039
#
# Compressibility (1/GPa) = 0.05083181
#
# Stress axis : x y z
#
# Youngs Moduli (GPa) = 111.42256 76.39493 46.01213
#
# Poissons Ratio (x) = -0.03482 0.05488
# Poissons Ratio (y) = -0.05079 -0.19573
# Poissons Ratio (z) = 0.13290 -0.32497
#
# Static dielectric constant tensor:
#      x y z
#    x 1.873210 0.000000 0.008230 
#    y 0.000000 1.819070 0.000000 
#    z 0.008230 0.000000 1.871540 
# 
# From -- ./inp_files/180535.got.cif
#   From: 2010.05.17/outbox.cif.g08.bks.cpg/sg12_91_cif.got.tgz:180535.got - 2010.06.03 13:09:07.
