data_PCOD9185802
_publ_section_title
;
Structure prediction by ZEFSAII (Michael W. Deem and Ramdas Pophale) SiO2 
 PCOD9185802
Probable space group: C 2/M
;
_chemical_formula_sum "Si O2"
_cell_formula_units_Z 64
_cell_length_a 24.274501
_cell_length_b 24.544438
_cell_length_c 20.111612
_cell_angle_alpha 90.000000
_cell_angle_beta 162.682131
_cell_angle_gamma 90.000000
_cell_volume 3566.885601
_symmetry_space_group_name_H-M "C 2/M"
_symmetry_group_IT_number 12
_symmetry_cell_setting 'monoclinic'
loop_
_space_group_symop_operation_xyz
x,y,z
-x,y,-z
-x,-y,-z
x,-y,z
1/2+x,1/2+y,z
1/2-x,1/2+y,-z
1/2-x,1/2-y,-z
1/2+x,1/2-y,z
loop_
_atom_site_type_symbol
_atom_site_label
_atom_site_fract_x
_atom_site_fract_y
_atom_site_fract_z
Si Si1 0.086579 0.868077 0.173157
Si Si2 0.392987 0.664953 0.479314
Si Si3 0.087766 0.256963 0.175533
Si Si4 0.350005 0.563984 0.004633
Si Si5 0.973556 0.438270 0.152446
Si Si6 0.540747 0.063984 0.386120
Si Si7 0.115781 0.061730 0.436892
Si Si8 0.279666 0.835047 0.865994
O O1 0.112360 0.805362 0.224718
O O2 0.281782 0.899117 0.397103
O O3 0.948869 0.899117 0.064191
O O4 0.000000 0.868713 0.000000
O O5 0.276957 0.709159 0.387045
O O6 0.398201 0.608112 0.524270
O O7 0.287817 0.657374 0.287817
O O8 0.600608 0.683008 0.701218
O O9 0.000000 0.255635 0.000000
O O10 0.943214 0.290840 0.053302
O O11 0.363212 0.500000 0.001011
O O12 0.462548 0.569762 0.203295
O O13 0.135935 0.577256 0.771868
O O14 0.906149 0.500000 0.061792
O O15 0.981050 0.430239 0.240303
O O16 0.182972 0.434669 0.365946
O O17 0.853933 0.391888 0.980003
O O18 0.587612 0.000000 0.449815
O O19 0.094868 0.000000 0.439225
#
# Coordination Sequence:
#
# PCOD9185802 Si02
#       8
#     8   8   8   8   8   8   8   8
#     4  11  23  39  61  84 108 139 181 230 276 330
#     4  10  20  35  56  81 112 149 188 229 269 312
#     4   9  20  38  55  76 108 145 184 227 276 323
#     4  10  21  38  59  84 115 146 176 216 273 336
#     4  10  19  34  58  83 112 150 185 221 270 326
#     4  10  21  38  59  84 115 146 176 216 273 336
#     4  10  19  34  58  83 112 150 185 221 270 326
#     4  10  20  35  56  81 112 149 188 229 269 312
#
# _framework density 17.942824000000002
#
# number of rings (size 3 to 8) (size 9 to 14) (size 15 to 20)
#    0.000    2.000    2.500    1.125    0.000    4.500 
#    0.000    8.750    0.000    3.000    0.000    0.000 
#    0.000    0.000    0.000    0.000    0.000    0.000 
#
# Total GULP energy -178637.317031 kJ/mol
# GULP energy per Si atom -5582.416157 kJ/mol
# Density = 1.790199 g / cm^3
# Si number density = 17.942824 Si / 1000 Ang^3
#
#
#
# Elastic Constant Matrix: (Units=GPa)
#
#
# Indices 1 2 3 4 5 6 
#
# 1 80.7969 76.7296 51.7937 0.0002 30.5138 -0.0002
# 2 76.7296 152.9851 88.8321 0.0000 27.2707 0.0005
# 3 51.7937 88.8321 108.5846 0.0008 32.1139 0.0003
# 4 0.0002 0.0000 0.0008 39.6771 0.0004 -36.1077
# 5 30.5138 27.2707 32.1139 0.0004 24.8750 0.0000
# 6 -0.0002 0.0005 0.0003 -36.1077 0.0000 55.6934
#
#
#
# Elastic Compliance Matrix: (Units=1/GPa)
#
#
# Indices 1 2 3 4 5 6 
#
# 1 0.036767 -0.015290 0.005423 0.000000 -0.035340 0.000000
# 2 -0.015290 0.018820 -0.012210 0.000000 0.013887 0.000000
# 3 0.005423 -0.012210 0.023650 -0.000001 -0.023798 0.000000
# 4 0.000000 0.000000 -0.000001 0.061473 -0.000001 0.039854
# 5 -0.035340 0.013887 -0.023798 -0.000001 0.099052 -0.000001
# 6 0.000000 0.000000 0.000000 0.039854 -0.000001 0.043794
#
#
# Mechanical properties :
#
#
# Convention : Reuss Voigt Hill
#
# Bulk Modulus (GPa) = 28.50420 86.34193 57.42307
# Shear Modulus (GPa) = 14.73171 32.38319 23.55745
#
# Velocity S-wave (km/s) = 2.86848 4.25290 3.62735
# Velocity P-wave (km/s) = 5.18570 8.50537 7.04389
#
# Compressibility (1/GPa) = 0.03508255
#
# Stress axis : x y z
#
# Youngs Moduli (GPa) = 27.19826 53.13623 42.28275
#
# Poissons Ratio (x) = 0.81243 -0.22928
# Poissons Ratio (y) = 0.41585 0.51628
# Poissons Ratio (z) = -0.14748 0.64880
#
# Static dielectric constant tensor:
#      x y z
#    x 1.601310 0.000000 0.015720 
#    y 0.000000 1.591540 0.000000 
#    z 0.015720 0.000000 1.608280 
# 
# From -- ./inp_files/286421.got.cif
#   From: 2010.05.17/outbox.cif.g08.bks.cpg/sg12_144_cif.got.tgz:286421.got - 2010.06.03 13:09:07.
