data_PCOD9185517
_publ_section_title
;
Structure prediction by ZEFSAII (Michael W. Deem and Ramdas Pophale) SiO2 
 PCOD9185517
Probable space group: C 2/M
;
_chemical_formula_sum "Si O2"
_cell_formula_units_Z 64
_cell_length_a 19.574297
_cell_length_b 8.787337
_cell_length_c 21.024155
_cell_angle_alpha 90.000000
_cell_angle_beta 94.865452
_cell_angle_gamma 90.000000
_cell_volume 3603.248802
_symmetry_space_group_name_H-M "C 2/M"
_symmetry_group_IT_number 12
_symmetry_cell_setting 'monoclinic'
loop_
_space_group_symop_operation_xyz
x,y,z
-x,y,-z
-x,-y,-z
x,-y,z
1/2+x,1/2+y,z
1/2-x,1/2+y,-z
1/2-x,1/2-y,-z
1/2+x,1/2-y,z
loop_
_atom_site_type_symbol
_atom_site_label
_atom_site_fract_x
_atom_site_fract_y
_atom_site_fract_z
Si Si1 0.772004 0.182409 0.852424
Si Si2 0.714440 0.682594 0.293862
Si Si3 0.424319 0.819195 0.676349
Si Si4 0.118214 0.682786 0.888325
Si Si5 0.870524 0.682188 0.332256
Si Si6 0.017859 0.817675 0.574019
Si Si7 0.179067 0.681935 0.021583
Si Si8 0.963881 0.181204 0.228463
O O1 0.785935 0.224376 0.780920
O O2 0.693301 0.223124 0.864789
O O3 0.823651 0.255688 0.907324
O O4 0.776297 0.000000 0.858662
O O5 0.703845 0.500000 0.297394
O O6 0.653892 0.768414 0.324379
O O7 0.790151 0.716724 0.325921
O O8 0.478166 0.500000 0.418744
O O9 0.460844 0.746223 0.617840
O O10 0.465830 0.754052 0.740449
O O11 0.110701 0.500000 0.881526
O O12 0.060557 0.763998 0.842464
O O13 0.122823 0.722009 0.963606
O O14 0.878821 0.500000 0.327053
O O15 0.911427 0.743525 0.396279
O O16 0.906865 0.758643 0.274152
O O17 0.931699 0.500000 0.674781
O O18 0.000000 0.781097 0.500000
O O19 0.184129 0.500000 0.023014
O O20 0.250000 0.750000 0.000000
O O21 0.968405 0.000000 0.231968
#
# Coordination Sequence:
#
# PCOD9185517 Si02
#       8
#     8   8   8   8   8   8   8   8
#     4   9  17  30  48  70 102 139 173 215 270 322
#     4  10  20  36  55  78 111 145 176 218 270 316
#     4  11  23  37  56  81 110 142 178 218 261 315
#     4   9  16  29  46  69 101 136 176 221 272 318
#     4  10  19  34  57  82 110 142 177 217 262 311
#     4  10  21  39  62  86 113 143 176 215 257 305
#     4   9  17  27  41  65  99 135 174 221 269 318
#     4  11  20  31  51  77 105 138 179 225 269 317
#
# _framework density 17.761748000000001
#
# number of rings (size 3 to 8) (size 9 to 14) (size 15 to 20)
#    0.000    2.125    1.250    5.625    0.000    5.000 
#    0.000    0.625    0.000    0.750    0.000    5.250 
#    0.000    0.000    0.000    0.000    0.000    0.000 
#
# Total GULP energy -178544.428647 kJ/mol
# GULP energy per Si atom -5579.513395 kJ/mol
# Density = 1.772132 g / cm^3
# Si number density = 17.761748 Si / 1000 Ang^3
#
#
#
# Elastic Constant Matrix: (Units=GPa)
#
#
# Indices 1 2 3 4 5 6 
#
# 1 75.5056 32.0356 38.8589 0.0000 11.9141 0.0000
# 2 32.0356 60.0778 41.7913 0.0000 9.7027 0.0000
# 3 38.8589 41.7913 122.5363 0.0000 24.0652 0.0000
# 4 0.0000 0.0000 0.0000 30.4589 0.0000 5.8354
# 5 11.9141 9.7027 24.0652 0.0000 18.2676 0.0000
# 6 0.0000 0.0000 0.0000 5.8354 0.0000 22.7510
#
#
#
# Elastic Compliance Matrix: (Units=1/GPa)
#
#
# Indices 1 2 3 4 5 6 
#
# 1 0.018353 -0.007360 -0.002330 0.000000 -0.004992 0.000000
# 2 -0.007360 0.024852 -0.006060 0.000000 -0.000416 0.000000
# 3 -0.002330 -0.006060 0.013539 0.000000 -0.013097 0.000000
# 4 0.000000 0.000000 0.000000 0.034528 0.000000 -0.008856
# 5 -0.004992 -0.000416 -0.013097 0.000000 0.075472 0.000000
# 6 0.000000 0.000000 0.000000 -0.008856 0.000000 0.046226
#
#
# Mechanical properties :
#
#
# Convention : Reuss Voigt Hill
#
# Bulk Modulus (GPa) = 39.61211 53.72124 46.66668
# Shear Modulus (GPa) = 19.77182 23.99109 21.88145
#
# Velocity S-wave (km/s) = 3.34004 3.67920 3.51371
# Velocity P-wave (km/s) = 6.10121 6.95412 6.54158
#
# Compressibility (1/GPa) = 0.02524480
#
# Stress axis : x y z
#
# Youngs Moduli (GPa) = 54.48593 40.23745 73.86206
#
# Poissons Ratio (x) = 0.29614 0.17209
# Poissons Ratio (y) = 0.40101 0.44762
# Poissons Ratio (z) = 0.12694 0.24385
#
# Static dielectric constant tensor:
#      x y z
#    x 1.592310 0.000000 0.014340 
#    y 0.000000 1.593160 0.000000 
#    z 0.014340 0.000000 1.623800 
# 
# From -- ./inp_files/319199.got.cif
#   From: 2010.05.17/outbox.cif.g08.bks.cpg/sg12_160_cif.got.tgz:319199.got - 2010.06.03 13:09:07.
