data_PCOD9185521
_publ_section_title
;
Structure prediction by ZEFSAII (Michael W. Deem and Ramdas Pophale) SiO2 
 PCOD9185521
Probable space group: C 2/M
;
_chemical_formula_sum "Si O2"
_cell_formula_units_Z 64
_cell_length_a 15.229330
_cell_length_b 9.483003
_cell_length_c 30.495915
_cell_angle_alpha 90.000000
_cell_angle_beta 47.437771
_cell_angle_gamma 90.000000
_cell_volume 3243.893179
_symmetry_space_group_name_H-M "C 2/M"
_symmetry_group_IT_number 12
_symmetry_cell_setting 'monoclinic'
loop_
_space_group_symop_operation_xyz
x,y,z
-x,y,-z
-x,-y,-z
x,-y,z
1/2+x,1/2+y,z
1/2-x,1/2+y,-z
1/2-x,1/2-y,-z
1/2+x,1/2-y,z
loop_
_atom_site_type_symbol
_atom_site_label
_atom_site_fract_x
_atom_site_fract_y
_atom_site_fract_z
Si Si1 0.679023 0.162502 0.781768
Si Si2 0.615265 0.831941 0.433415
Si Si3 0.873245 0.839824 0.019221
Si Si4 0.879414 0.166094 0.363625
Si Si5 0.006942 0.663366 0.754074
Si Si6 0.598136 0.331741 0.348689
Si Si7 0.505873 0.339582 0.107956
Si Si8 0.322575 0.339487 0.865676
O O1 0.594173 0.166919 0.767123
O O2 0.807359 0.212390 0.720910
O O3 0.611886 0.251191 0.841604
O O4 0.688906 0.000000 0.792283
O O5 0.500000 0.787413 0.500000
O O6 0.739264 0.807883 0.417088
O O7 0.620946 0.750779 0.385581
O O8 0.605606 0.000000 0.428408
O O9 0.788617 0.741925 0.076278
O O10 0.823277 0.000000 0.032481
O O11 0.906762 0.783648 0.959535
O O12 0.000000 0.847746 0.000000
O O13 0.925880 0.261213 0.308250
O O14 0.964973 0.192168 0.375930
O O15 0.894032 0.000000 0.346945
O O16 0.980885 0.500000 0.753528
O O17 0.888415 0.750406 0.806023
O O18 0.616282 0.500000 0.349230
O O19 0.473794 0.500000 0.105960
O O20 0.582366 0.345295 0.126464
O O21 0.295755 0.500000 0.861545
#
# Coordination Sequence:
#
# PCOD9185521 Si02
#       8
#     8   8   8   8   8   8   8   8
#     4   9  18  33  54  79 107 139 180 231 282 337
#     4  10  22  40  61  87 121 159 197 240 289 342
#     4  10  21  36  51  71 104 141 180 231 285 336
#     4  10  21  37  59  86 120 156 193 242 293 343
#     4  10  19  34  57  82 110 144 186 234 286 344
#     4  10  21  38  59  87 119 154 196 241 291 344
#     4   9  19  34  53  76 102 137 181 225 275 336
#     4  10  20  34  54  78 104 139 184 229 280 341
#
# _framework density 19.729379999999999
#
# number of rings (size 3 to 8) (size 9 to 14) (size 15 to 20)
#    0.000    2.250    1.250    1.125    0.000    4.500 
#    0.000    2.500    0.000    0.000    0.000    0.000 
#    0.000    0.000    0.000    0.000    0.000    0.000 
#
# Total GULP energy -178660.251344 kJ/mol
# GULP energy per Si atom -5583.132854 kJ/mol
# Density = 1.968447 g / cm^3
# Si number density = 19.729380 Si / 1000 Ang^3
#
#
#
# Elastic Constant Matrix: (Units=GPa)
#
#
# Indices 1 2 3 4 5 6 
#
# 1 54.9894 27.2138 26.2108 0.0000 -19.6984 0.0000
# 2 27.2138 58.9978 38.7830 0.0000 -22.6646 0.0000
# 3 26.2108 38.7830 96.2217 0.0000 -36.1866 0.0000
# 4 0.0000 0.0000 0.0000 31.1373 0.0000 -3.4645
# 5 -19.6984 -22.6646 -36.1866 0.0000 29.4244 0.0000
# 6 0.0000 0.0000 0.0000 -3.4645 0.0000 7.2153
#
#
#
# Elastic Compliance Matrix: (Units=1/GPa)
#
#
# Indices 1 2 3 4 5 6 
#
# 1 0.026121 -0.007737 0.000629 0.000000 0.012301 0.000000
# 2 -0.007737 0.027777 -0.005562 0.000000 0.009375 0.000000
# 3 0.000629 -0.005562 0.020485 0.000000 0.021329 0.000000
# 4 0.000000 0.000000 0.000000 0.033929 0.000000 0.016291
# 5 0.012301 0.009375 0.021329 0.000000 0.075673 0.000000
# 6 0.000000 0.000000 0.000000 0.016291 0.000000 0.146418
#
#
# Mechanical properties :
#
#
# Convention : Reuss Voigt Hill
#
# Bulk Modulus (GPa) = 20.39041 43.84712 32.11877
# Shear Modulus (GPa) = 13.43768 21.42212 17.42990
#
# Velocity S-wave (km/s) = 2.61262 3.29872 2.97551
# Velocity P-wave (km/s) = 4.41118 6.06476 5.30282
#
# Compressibility (1/GPa) = 0.04904266
#
# Stress axis : x y z
#
# Youngs Moduli (GPa) = 38.28360 36.00154 48.81737
#
# Poissons Ratio (x) = 0.27853 -0.03072
# Poissons Ratio (y) = 0.29619 0.27154
# Poissons Ratio (z) = -0.02409 0.20025
#
# Static dielectric constant tensor:
#      x y z
#    x 1.721170 0.000000 -0.003060 
#    y 0.000000 1.682620 0.000000 
#    z -0.003060 0.000000 1.674700 
# 
# From -- ./inp_files/375379.got.cif
#   From: 2010.05.17/outbox.cif.g08.bks.cpg/sg12_188_cif.got.tgz:375379.got - 2010.06.03 13:09:07.
