data_PCOD9185622
_publ_section_title
;
Structure prediction by ZEFSAII (Michael W. Deem and Ramdas Pophale) SiO2 
 PCOD9185622
Probable space group: C 2/M
;
_chemical_formula_sum "Si O2"
_cell_formula_units_Z 42
_cell_length_a 15.895738
_cell_length_b 29.357307
_cell_length_c 5.119209
_cell_angle_alpha 90.000000
_cell_angle_beta 127.504970
_cell_angle_gamma 90.000000
_cell_volume 1895.123497
_symmetry_space_group_name_H-M "C 2/M"
_symmetry_group_IT_number 12
_symmetry_cell_setting 'monoclinic'
loop_
_space_group_symop_operation_xyz
x,y,z
-x,y,-z
-x,-y,-z
x,-y,z
1/2+x,1/2+y,z
1/2-x,1/2+y,-z
1/2-x,1/2-y,-z
1/2+x,1/2-y,z
loop_
_atom_site_type_symbol
_atom_site_label
_atom_site_fract_x
_atom_site_fract_y
_atom_site_fract_z
Si Si1 0.075554 0.138635 0.392546
Si Si2 0.711555 0.549549 0.733931
Si Si3 0.577391 0.736527 0.396433
Si Si4 0.159242 0.433865 0.514758
Si Si5 0.076732 0.334841 0.394685
Si Si6 0.500000 0.000000 0.500000
O O1 0.145482 0.093796 0.537495
O O2 0.135534 0.187692 0.504798
O O3 0.000000 0.138306 0.500000
O O4 0.000000 0.136829 0.000000
O O5 0.659302 0.500000 0.595869
O O6 0.810704 0.551710 0.721422
O O7 0.750183 0.552568 0.105012
O O8 0.500000 0.736689 0.500000
O O9 0.634707 0.785500 0.508938
O O10 0.500000 0.736546 0.000000
O O11 0.147667 0.379528 0.512737
O O12 0.057370 0.460274 0.427308
O O13 0.000000 0.338030 0.500000
O O14 0.000000 0.335754 0.000000
#
# Coordination Sequence:
#
# PCOD9185622 Si02
#       6
#     8   8   8   8   8   2
#     4  10  21  40  66  87 113 156 196 232 301 364
#     4  12  25  42  57  88 125 149 192 259 289 329
#     4   8  16  32  56  85 111 145 192 239 281 345
#     4  12  25  39  60  88 119 158 200 240 289 339
#     4  10  19  34  57  84 115 152 200 238 280 344
#     4  12  24  42  64  82 120 166 208 218 286 362
#
# _framework density 22.162143
#
# number of rings (size 3 to 8) (size 9 to 14) (size 15 to 20)
#    0.000    1.524    2.857    2.286    0.000    1.524 
#    0.000    1.905    0.000    0.000    0.000    0.000 
#    0.000    0.000    0.000    0.000    0.000    0.000 
#
# Total GULP energy -117024.910916 kJ/mol
# GULP energy per Si atom -5572.614806 kJ/mol
# Density = 2.211170 g / cm^3
# Si number density = 22.162143 Si / 1000 Ang^3
#
#
#
# Elastic Constant Matrix: (Units=GPa)
#
#
# Indices 1 2 3 4 5 6 
#
# 1 39.2155 15.5496 11.8894 0.0000 -18.2433 0.0000
# 2 15.5496 275.2589 12.2717 0.0000 18.9001 0.0000
# 3 11.8894 12.2717 67.3444 0.0000 -30.8017 0.0000
# 4 0.0000 0.0000 0.0000 30.9496 0.0000 42.6740
# 5 -18.2433 18.9001 -30.8017 0.0000 29.9230 0.0000
# 6 0.0000 0.0000 0.0000 42.6740 0.0000 -232.6838
#
#
#
# Elastic Compliance Matrix: (Units=1/GPa)
#
#
# Indices 1 2 3 4 5 6 
#
# 1 0.045309 -0.006400 0.014457 0.000000 0.046547 0.000000
# 2 -0.006400 0.005158 -0.005829 0.000000 -0.013160 0.000000
# 3 0.014457 -0.005829 0.036044 0.000000 0.049598 0.000000
# 4 0.000000 0.000000 0.000000 0.025789 0.000000 0.004730
# 5 0.046547 -0.013160 0.049598 0.000000 0.121164 0.000000
# 6 0.000000 0.000000 0.000000 0.004730 0.000000 -0.003430
#
#
# Mechanical properties :
#
#
# Convention : Reuss Voigt Hill
#
# Bulk Modulus (GPa) = 10.99314 51.24891 31.12103
# Shear Modulus (GPa) = 19.53881 -11.55502 3.99189
#
# Velocity S-wave (km/s) = 2.97245 -2.28586 1.34355
# Velocity P-wave (km/s) = 4.09288 4.02589 4.05953
#
# Compressibility (1/GPa) = 0.09096578
#
# Stress axis : x y z
#
# Youngs Moduli (GPa) = 22.07073 193.87417 27.74395
#
# Poissons Ratio (x) = 1.24082 -0.40109
# Poissons Ratio (y) = 0.14126 0.16172
# Poissons Ratio (z) = -0.31907 1.13012
#
# Static dielectric constant tensor:
#      x y z
#    x 1.783950 0.000000 0.021100 
#    y 0.000000 1.895240 0.000000 
#    z 0.021100 0.000000 1.786760 
# 
# From -- ./inp_files/12308.got.cif
#   From: 2010.05.17/outbox.cif.g08.bks.cpg/sg12_7_cif.got.tgz:12308.got - 2010.06.03 13:09:07.
