data_PCOD9185360
_publ_section_title
;
Structure prediction by ZEFSAII (Michael W. Deem and Ramdas Pophale) SiO2 
 PCOD9185360
Probable space group: C 2/M
;
_chemical_formula_sum "Si O2"
_cell_formula_units_Z 64
_cell_length_a 17.404784
_cell_length_b 21.632307
_cell_length_c 23.942837
_cell_angle_alpha 90.000000
_cell_angle_beta 158.778813
_cell_angle_gamma 90.000000
_cell_volume 3263.013163
_symmetry_space_group_name_H-M "C 2/M"
_symmetry_group_IT_number 12
_symmetry_cell_setting 'monoclinic'
loop_
_space_group_symop_operation_xyz
x,y,z
-x,y,-z
-x,-y,-z
x,-y,z
1/2+x,1/2+y,z
1/2-x,1/2+y,-z
1/2-x,1/2-y,-z
1/2+x,1/2-y,z
loop_
_atom_site_type_symbol
_atom_site_label
_atom_site_fract_x
_atom_site_fract_y
_atom_site_fract_z
Si Si1 0.748883 0.120748 0.332528
Si Si2 0.979023 0.931923 0.715729
Si Si3 0.779153 0.734946 0.924539
Si Si4 0.561406 0.743054 0.208627
Si Si5 0.553108 0.199519 0.372983
Si Si6 0.283811 0.928701 0.567863
Si Si7 0.452967 0.099372 0.030445
Si Si8 0.631708 0.851523 0.542790
O O1 0.617262 0.184523 0.251349
O O2 0.732924 0.078787 0.377013
O O3 0.000000 0.134973 0.500000
O O4 0.641181 0.092309 0.203414
O O5 0.927994 0.922408 0.614810
O O6 0.828726 0.887380 0.648803
O O7 0.226807 0.927364 0.896473
O O8 0.903852 0.000000 0.678505
O O9 0.599406 0.725022 0.850609
O O10 0.654712 0.767441 0.791131
O O11 0.891394 0.671819 0.983610
O O12 0.953511 0.772657 0.076812
O O13 0.771417 0.704927 0.357507
O O14 0.750000 0.250000 0.500000
O O15 0.594754 0.134351 0.368979
O O16 0.519849 0.178549 0.413734
O O17 0.361469 0.000000 0.609321
O O18 0.500000 0.075921 0.000000
O O19 0.500000 0.888503 0.500000
#
# Coordination Sequence:
#
# PCOD9185360 Si02
#       8
#     8   8   8   8   8   8   8   8
#     4  11  22  36  58  87 120 158 202 250 305 371
#     4  10  22  41  61  82 115 157 201 249 305 367
#     4  10  19  34  57  84 118 154 191 242 302 365
#     4  10  19  34  56  85 118 151 193 244 304 364
#     4  11  19  35  60  87 119 159 205 253 307 368
#     4  10  21  37  57  83 116 158 203 252 308 367
#     4  11  23  38  60  90 123 158 200 252 311 374
#     4  11  22  36  59  89 118 152 199 251 303 364
#
# _framework density 19.613772999999998
#
# number of rings (size 3 to 8) (size 9 to 14) (size 15 to 20)
#    0.000    1.500    3.750    1.875    0.000    4.250 
#    0.000    0.000    0.000    0.000    0.000    0.000 
#    0.000   10.500    0.000    0.000    0.000    0.000 
#
# Total GULP energy -178216.557765 kJ/mol
# GULP energy per Si atom -5569.267430 kJ/mol
# Density = 1.956913 g / cm^3
# Si number density = 19.613773 Si / 1000 Ang^3
#
#
#
# Elastic Constant Matrix: (Units=GPa)
#
#
# Indices 1 2 3 4 5 6 
#
# 1 108.1341 26.3587 47.4180 -0.2173 -14.2652 -0.2280
# 2 26.3587 70.9121 22.9380 0.1895 -13.9334 0.1422
# 3 47.4180 22.9380 124.4632 1.7467 -27.6532 1.6327
# 4 -0.2173 0.1895 1.7467 354.5804 0.3609 320.5617
# 5 -14.2652 -13.9334 -27.6532 0.3609 18.2925 0.3419
# 6 -0.2280 0.1422 1.6327 320.5617 0.3419 309.8509
#
#
#
# Elastic Compliance Matrix: (Units=1/GPa)
#
#
# Indices 1 2 3 4 5 6 
#
# 1 0.011732 -0.002903 -0.003604 0.000004 0.001489 0.000023
# 2 -0.002903 0.017314 0.000516 -0.000035 0.011705 0.000010
# 3 -0.003604 0.000516 0.013216 -0.000037 0.017562 -0.000054
# 4 0.000004 -0.000035 -0.000037 0.043597 -0.000096 -0.045103
# 5 0.001489 0.011705 0.017562 -0.000096 0.091297 -0.000099
# 6 0.000023 0.000010 -0.000054 -0.045103 -0.000099 0.049890
#
#
# Mechanical properties :
#
#
# Convention : Reuss Voigt Hill
#
# Bulk Modulus (GPa) = 33.02509 55.21542 44.12026
# Shear Modulus (GPa) = 20.07049 150.33108 85.20078
#
# Velocity S-wave (km/s) = 3.20235 8.76425 6.59800
# Velocity P-wave (km/s) = 5.52700 11.42928 8.97709
#
# Compressibility (1/GPa) = 0.03028001
#
# Stress axis : x y z
#
# Youngs Moduli (GPa) = 85.23429 57.75692 75.66661
#
# Poissons Ratio (x) = 0.16764 0.27273
# Poissons Ratio (y) = 0.24740 -0.03903
# Poissons Ratio (z) = 0.30721 -0.02979
#
# Static dielectric constant tensor:
#      x y z
#    x 1.757690 0.000010 0.000110 
#    y 0.000010 1.714700 -0.000020 
#    z 0.000110 -0.000020 1.702850 
# 
# From -- ./inp_files/345029.got.cif
#   From: 2010.05.17/outbox.cif.g08.bks.cpg/sg12_173_cif.got.tgz:345029.got - 2010.06.03 13:09:07.
