data_PCOD9185548
_publ_section_title
;
Structure prediction by ZEFSAII (Michael W. Deem and Ramdas Pophale) SiO2 
 PCOD9185548
Probable space group: C 2/M
;
_chemical_formula_sum "Si O2"
_cell_formula_units_Z 64
_cell_length_a 22.495796
_cell_length_b 16.900256
_cell_length_c 11.687112
_cell_angle_alpha 90.000000
_cell_angle_beta 125.595099
_cell_angle_gamma 90.000000
_cell_volume 3613.040381
_symmetry_space_group_name_H-M "C 2/M"
_symmetry_group_IT_number 12
_symmetry_cell_setting 'monoclinic'
loop_
_space_group_symop_operation_xyz
x,y,z
-x,y,-z
-x,-y,-z
x,-y,z
1/2+x,1/2+y,z
1/2-x,1/2+y,-z
1/2-x,1/2-y,-z
1/2+x,1/2-y,z
loop_
_atom_site_type_symbol
_atom_site_label
_atom_site_fract_x
_atom_site_fract_y
_atom_site_fract_z
Si Si1 0.206767 0.686455 0.304851
Si Si2 0.440290 0.090222 0.853601
Si Si3 0.566705 0.242947 0.506984
Si Si4 0.348872 0.671786 0.595747
Si Si5 0.010499 0.590056 0.681995
Si Si6 0.187098 0.205743 0.067470
Si Si7 0.154059 0.688295 0.817244
Si Si8 0.913559 0.906617 0.889264
O O1 0.138217 0.628753 0.230770
O O2 0.279946 0.647218 0.438873
O O3 0.183269 0.758094 0.361753
O O4 0.211379 0.725953 0.184929
O O5 0.476306 0.090034 0.769800
O O6 0.431109 0.000000 0.883613
O O7 0.500000 0.132644 0.000000
O O8 0.500000 0.282920 0.500000
O O9 0.593022 0.290879 0.426913
O O10 0.537036 0.156621 0.435568
O O11 0.628904 0.228210 0.670153
O O12 0.384856 0.612950 0.728253
O O13 0.005351 0.500000 0.633551
O O14 0.094189 0.620400 0.774051
O O15 0.261576 0.164393 0.106059
O O16 0.133618 0.146632 0.075377
O O17 0.151255 0.249566 0.918730
O O18 0.903644 0.000000 0.900580
O O19 0.000000 0.888028 0.000000
#
# Coordination Sequence:
#
# PCOD9185548 Si02
#       8
#     8   8   8   8   8   8   8   8
#     4  10  19  34  57  82 114 146 195 236 280 342
#     4  10  20  33  52  81 118 154 188 229 283 346
#     4  10  20  34  56  83 115 150 192 230 277 346
#     4  10  20  36  58  83 111 145 189 246 291 338
#     4  10  21  35  53  83 120 153 186 226 277 344
#     4  10  21  37  59  84 113 152 193 239 286 338
#     4  10  21  35  55  85 118 151 195 230 274 347
#     4  10  24  41  61  86 111 144 197 255 304 348
#
# _framework density 17.713612999999999
#
# number of rings (size 3 to 8) (size 9 to 14) (size 15 to 20)
#    0.000    2.000    2.500    0.750    3.500    5.250 
#    0.000    1.250    0.000    1.875    0.000    0.000 
#    0.000    0.000    0.000    0.000    0.000    0.000 
#
# Total GULP energy -178284.979539 kJ/mol
# GULP energy per Si atom -5571.405611 kJ/mol
# Density = 1.767330 g / cm^3
# Si number density = 17.713613 Si / 1000 Ang^3
#
#
#
# Elastic Constant Matrix: (Units=GPa)
#
#
# Indices 1 2 3 4 5 6 
#
# 1 83.7022 43.8086 38.4692 0.0000 0.1422 0.0000
# 2 43.8086 55.7864 44.6419 0.0000 4.4215 0.0000
# 3 38.4692 44.6419 113.6141 0.0000 5.3335 0.0000
# 4 0.0000 0.0000 0.0000 16.3449 0.0000 -9.0713
# 5 0.1422 4.4215 5.3335 0.0000 29.6246 0.0000
# 6 0.0000 0.0000 0.0000 -9.0713 0.0000 -29.4405
#
#
#
# Elastic Compliance Matrix: (Units=1/GPa)
#
#
# Indices 1 2 3 4 5 6 
#
# 1 0.020512 -0.015534 -0.000954 0.000000 0.002392 0.000000
# 2 -0.015534 0.038038 -0.009504 0.000000 -0.003892 0.000000
# 3 -0.000954 -0.009504 0.012901 0.000000 -0.000900 0.000000
# 4 0.000000 0.000000 0.000000 0.052247 0.000000 -0.016098
# 5 0.002392 -0.003892 -0.000900 0.000000 0.034487 0.000000
# 6 0.000000 0.000000 0.000000 -0.016098 0.000000 -0.029007
#
#
# Mechanical properties :
#
#
# Convention : Reuss Voigt Hill
#
# Bulk Modulus (GPa) = 51.36668 56.32688 53.84678
# Shear Modulus (GPa) = 26.64542 11.71800 19.18171
#
# Velocity S-wave (km/s) = 3.88265 2.57480 3.29428
# Velocity P-wave (km/s) = 7.01152 6.38022 6.70330
#
# Compressibility (1/GPa) = 0.01946787
#
# Stress axis : x y z
#
# Youngs Moduli (GPa) = 48.75273 26.28973 77.51295
#
# Poissons Ratio (x) = 0.40838 0.07393
# Poissons Ratio (y) = 0.75732 0.73665
# Poissons Ratio (z) = 0.04650 0.24985
#
# Static dielectric constant tensor:
#      x y z
#    x 1.601880 0.000000 0.012300 
#    y 0.000000 1.583560 0.000000 
#    z 0.012300 0.000000 1.649260 
# 
# From -- ./inp_files/168473.got.cif
#   From: 2010.05.17/outbox.cif.g08.bks.cpg/sg12_85_cif.got.tgz:168473.got - 2010.06.03 13:09:07.
