data_PCOD9185631
_publ_section_title
;
Structure prediction by ZEFSAII (Michael W. Deem and Ramdas Pophale) SiO2 
 PCOD9185631
Probable space group: C 2/M
;
_chemical_formula_sum "Si O2"
_cell_formula_units_Z 40
_cell_length_a 26.993404
_cell_length_b 12.651128
_cell_length_c 5.358473
_cell_angle_alpha 90.000000
_cell_angle_beta 89.852862
_cell_angle_gamma 90.000000
_cell_volume 1829.896469
_symmetry_space_group_name_H-M "C 2/M"
_symmetry_group_IT_number 12
_symmetry_cell_setting 'monoclinic'
loop_
_space_group_symop_operation_xyz
x,y,z
-x,y,-z
-x,-y,-z
x,-y,z
1/2+x,1/2+y,z
1/2-x,1/2+y,-z
1/2-x,1/2-y,-z
1/2+x,1/2-y,z
loop_
_atom_site_type_symbol
_atom_site_label
_atom_site_fract_x
_atom_site_fract_y
_atom_site_fract_z
Si Si1 0.326175 0.207446 0.929824
Si Si2 0.361856 0.382412 0.590686
Si Si3 0.572604 0.120669 0.062634
Si Si4 0.447455 0.753628 0.424989
Si Si5 0.729494 0.379417 0.749719
O O1 0.358208 0.302261 0.814952
O O2 0.287541 0.149028 0.745156
O O3 0.368507 0.126851 0.007953
O O4 0.293972 0.273995 0.125651
O O5 0.377155 0.500000 0.657028
O O6 0.402297 0.329723 0.409070
O O7 0.305485 0.386613 0.490162
O O8 0.548108 0.186093 0.837286
O O9 0.556615 0.000000 0.060610
O O10 0.564407 0.167249 0.342042
O O11 0.500000 0.703085 0.500000
O O12 0.725021 0.500000 0.864606
#
# Coordination Sequence:
#
# PCOD9185631 Si02
#       5
#     8   8   8   8   8
#     4  10  20  35  57  86 122 154 200 247 296 360
#     4  10  21  38  59  84 119 160 201 248 303 358
#     4  11  23  41  64  91 124 159 200 250 306 363
#     4  11  24  42  63  91 121 157 206 256 303 359
#     4  10  19  34  57  84 117 158 200 243 298 359
#
# _framework density 21.859159999999999
#
# number of rings (size 3 to 8) (size 9 to 14) (size 15 to 20)
#    0.000    1.600    2.000    3.000    0.000    2.800 
#    0.000    0.000    0.000    3.600    0.000    0.000 
#    0.000    0.000    0.000    0.000    0.000    0.000 
#
# Total GULP energy -111335.913165 kJ/mol
# GULP energy per Si atom -5566.795658 kJ/mol
# Density = 2.180941 g / cm^3
# Si number density = 21.859160 Si / 1000 Ang^3
#
#
#
# Elastic Constant Matrix: (Units=GPa)
#
#
# Indices 1 2 3 4 5 6 
#
# 1 81.4432 16.3519 11.0881 0.0000 18.7867 0.0000
# 2 16.3519 86.7280 13.6767 0.0000 14.6097 0.0000
# 3 11.0881 13.6767 64.2281 0.0000 6.6474 0.0000
# 4 0.0000 0.0000 0.0000 15.8357 0.0000 6.0400
# 5 18.7867 14.6097 6.6474 0.0000 22.8734 0.0000
# 6 0.0000 0.0000 0.0000 6.0400 0.0000 -5.3609
#
#
#
# Elastic Compliance Matrix: (Units=1/GPa)
#
#
# Indices 1 2 3 4 5 6 
#
# 1 0.015304 -0.000705 -0.001276 0.000000 -0.011748 0.000000
# 2 -0.000705 0.013196 -0.001934 0.000000 -0.007287 0.000000
# 3 -0.001276 -0.001934 0.016460 0.000000 -0.002500 0.000000
# 4 0.000000 0.000000 0.000000 0.044168 0.000000 0.049763
# 5 -0.011748 -0.007287 -0.002500 0.000000 0.058749 0.000000
# 6 0.000000 0.000000 0.000000 0.049763 0.000000 -0.130468
#
#
# Mechanical properties :
#
#
# Convention : Reuss Voigt Hill
#
# Bulk Modulus (GPa) = 26.93243 34.95918 30.94580
# Shear Modulus (GPa) = 132.92140 19.42180 76.17160
#
# Velocity S-wave (km/s) = 7.80641 2.98400 5.90950
# Velocity P-wave (km/s) = 9.67477 5.28204 7.79426
#
# Compressibility (1/GPa) = 0.03712996
#
# Stress axis : x y z
#
# Youngs Moduli (GPa) = 65.34322 75.78171 60.75190
#
# Poissons Ratio (x) = 0.05344 0.07751
# Poissons Ratio (y) = 0.04608 0.11749
# Poissons Ratio (z) = 0.08337 0.14656
#
# Static dielectric constant tensor:
#      x y z
#    x 1.895320 0.000000 -0.002380 
#    y 0.000000 1.833100 0.000000 
#    z -0.002380 0.000000 1.835380 
# 
# From -- ./inp_files/27503.got.cif
#   From: 2010.05.17/outbox.cif.g08.bks.cpg/sg12_14_cif.got.tgz:27503.got - 2010.06.03 13:09:07.
