data_PCOD9185116
_publ_section_title
;
Structure prediction by ZEFSAII (Michael W. Deem and Ramdas Pophale) SiO2 
 PCOD9185116
Probable space group: C 2/M
;
_chemical_formula_sum "Si O2"
_cell_formula_units_Z 64
_cell_length_a 30.951185
_cell_length_b 13.793115
_cell_length_c 9.263232
_cell_angle_alpha 90.000000
_cell_angle_beta 89.808251
_cell_angle_gamma 90.000000
_cell_volume 3954.574371
_symmetry_space_group_name_H-M "C 2/M"
_symmetry_group_IT_number 12
_symmetry_cell_setting 'monoclinic'
loop_
_space_group_symop_operation_xyz
x,y,z
-x,y,-z
-x,-y,-z
x,-y,z
1/2+x,1/2+y,z
1/2-x,1/2+y,-z
1/2-x,1/2-y,-z
1/2+x,1/2-y,z
loop_
_atom_site_type_symbol
_atom_site_label
_atom_site_fract_x
_atom_site_fract_y
_atom_site_fract_z
Si Si1 0.839788 0.614523 0.522213
Si Si2 0.542564 0.276378 0.090198
Si Si3 0.746094 0.886065 0.287404
Si Si4 0.605331 0.888550 0.197264
Si Si5 0.406495 0.384547 0.160451
Si Si6 0.191897 0.611683 0.003618
Si Si7 0.173647 0.753229 0.742061
Si Si8 0.507793 0.615355 0.661990
O O1 0.842419 0.500000 0.484611
O O2 0.793555 0.629915 0.601961
O O3 0.875814 0.634285 0.644089
O O4 0.843083 0.683171 0.384621
O O5 0.569548 0.185169 0.144156
O O6 0.524769 0.335785 0.226094
O O7 0.500000 0.247504 0.000000
O O8 0.572259 0.343069 0.986612
O O9 0.786758 0.818417 0.314294
O O10 0.757578 0.000000 0.295642
O O11 0.727623 0.867962 0.126042
O O12 0.590276 0.000000 0.197981
O O13 0.646279 0.883056 0.088776
O O14 0.398293 0.500000 0.149400
O O15 0.364099 0.323771 0.200527
O O16 0.443530 0.368706 0.281390
O O17 0.197673 0.500000 0.954537
O O18 0.190534 0.685661 0.872254
O O19 0.500000 0.650614 0.500000
O O20 0.500469 0.500000 0.665414
#
# Coordination Sequence:
#
# PCOD9185116 Si02
#       8
#     8   8   8   8   8   8   8   8
#     4   9  20  35  52  73 103 140 177 209 251 307
#     4  10  19  34  56  77 101 139 173 209 258 312
#     4   9  19  35  51  72 103 141 170 208 259 304
#     4   9  18  35  53  74 103 135 171 212 256 303
#     4  10  21  34  49  79 109 133 165 213 263 304
#     4   9  18  33  52  73 101 133 175 211 247 305
#     4  12  19  30  54  81 102 133 172 219 256 300
#     4   9  19  35  55  75 101 138 174 207 249 310
#
# _framework density 16.183789999999998
#
# number of rings (size 3 to 8) (size 9 to 14) (size 15 to 20)
#    0.000    2.375    1.250    3.375    1.750    1.750 
#    0.000    0.000    0.000    0.375    0.000    0.000 
#    0.000    0.000    0.000    0.000    0.000    0.000 
#
# Total GULP energy -178439.781241 kJ/mol
# GULP energy per Si atom -5576.243164 kJ/mol
# Density = 1.614695 g / cm^3
# Si number density = 16.183790 Si / 1000 Ang^3
#
#
#
# Elastic Constant Matrix: (Units=GPa)
#
#
# Indices 1 2 3 4 5 6 
#
# 1 67.4255 48.3915 25.4121 0.0000 -0.0636 0.0000
# 2 48.3915 82.9468 43.5193 0.0000 7.0562 0.0000
# 3 25.4121 43.5193 75.6135 0.0000 5.6526 0.0000
# 4 0.0000 0.0000 0.0000 29.3592 0.0000 1.2321
# 5 -0.0636 7.0562 5.6526 0.0000 10.6809 0.0000
# 6 0.0000 0.0000 0.0000 1.2321 0.0000 25.3725
#
#
#
# Elastic Compliance Matrix: (Units=1/GPa)
#
#
# Indices 1 2 3 4 5 6 
#
# 1 0.026704 -0.016306 -0.000424 0.000000 0.011156 0.000000
# 2 -0.016306 0.027659 -0.009439 0.000000 -0.013374 0.000000
# 3 -0.000424 -0.009439 0.019090 0.000000 -0.003869 0.000000
# 4 0.000000 0.000000 0.000000 0.034130 0.000000 -0.001657
# 5 0.011156 -0.013374 -0.003869 0.000000 0.104575 0.000000
# 6 0.000000 0.000000 0.000000 -0.001657 0.000000 0.039493
#
#
# Mechanical properties :
#
#
# Convention : Reuss Voigt Hill
#
# Bulk Modulus (GPa) = 47.36005 51.18130 49.27068
# Shear Modulus (GPa) = 16.07570 20.32669 18.20120
#
# Velocity S-wave (km/s) = 3.15512 3.54784 3.35723
# Velocity P-wave (km/s) = 6.52690 6.96251 6.74822
#
# Compressibility (1/GPa) = 0.02111484
#
# Stress axis : x y z
#
# Youngs Moduli (GPa) = 37.44706 36.15443 52.38454
#
# Poissons Ratio (x) = 0.58954 0.02220
# Poissons Ratio (y) = 0.61061 0.49447
# Poissons Ratio (z) = 0.01587 0.34127
#
# Static dielectric constant tensor:
#      x y z
#    x 1.521420 0.000000 0.006720 
#    y 0.000000 1.520340 0.000000 
#    z 0.006720 0.000000 1.531960 
# 
# From -- ./inp_files/110461.got.cif
#   From: 2010.05.17/outbox.cif.g08.bks.cpg/sg12_56_cif.got.tgz:110461.got - 2010.06.03 13:09:07.
