data_PCOD9185309
_publ_section_title
;
Structure prediction by ZEFSAII (Michael W. Deem and Ramdas Pophale) SiO2 
 PCOD9185309
Probable space group: C 2/M
;
_chemical_formula_sum "Si O2"
_cell_formula_units_Z 64
_cell_length_a 20.479185
_cell_length_b 8.990226
_cell_length_c 20.435311
_cell_angle_alpha 90.000000
_cell_angle_beta 102.416721
_cell_angle_gamma 90.000000
_cell_volume 3674.392157
_symmetry_space_group_name_H-M "C 2/M"
_symmetry_group_IT_number 12
_symmetry_cell_setting 'monoclinic'
loop_
_space_group_symop_operation_xyz
x,y,z
-x,y,-z
-x,-y,-z
x,-y,z
1/2+x,1/2+y,z
1/2-x,1/2+y,-z
1/2-x,1/2-y,-z
1/2+x,1/2-y,z
loop_
_atom_site_type_symbol
_atom_site_label
_atom_site_fract_x
_atom_site_fract_y
_atom_site_fract_z
Si Si1 0.908603 0.323247 0.658973
Si Si2 0.130861 0.678197 0.674719
Si Si3 0.152676 0.176567 0.151318
Si Si4 0.027651 0.322783 0.185614
Si Si5 0.750942 0.177449 0.071596
Si Si6 0.716819 0.322768 0.307447
Si Si7 0.994881 0.177901 0.422849
Si Si8 0.124774 0.322090 0.828452
O O1 0.908503 0.500000 0.649900
O O2 0.950639 0.290670 0.734585
O O3 0.834550 0.263293 0.657518
O O4 0.944817 0.245395 0.606539
O O5 0.122101 0.500000 0.665481
O O6 0.205746 0.717857 0.668347
O O7 0.073415 0.760707 0.623003
O O8 0.125607 0.709805 0.751063
O O9 0.078178 0.233970 0.150342
O O10 0.188842 0.262314 0.100845
O O11 0.194234 0.205565 0.227435
O O12 0.153791 0.000000 0.139755
O O13 0.037140 0.500000 0.177966
O O14 0.949513 0.288695 0.161276
O O15 0.817694 0.232614 0.122891
O O16 0.749074 0.000000 0.066957
O O17 0.750000 0.250000 0.000000
O O18 0.709789 0.500000 0.316421
O O19 0.000000 0.220379 0.500000
O O20 0.996413 0.000000 0.418330
O O21 0.137100 0.500000 0.838448
#
# Coordination Sequence:
#
# PCOD9185309 Si02
#       8
#     8   8   8   8   8   8   8   8
#     4  10  19  34  56  83 113 148 190 231 280 339
#     4  10  19  36  60  86 114 147 189 234 283 337
#     4  10  19  35  57  83 117 151 186 231 282 335
#     4   9  18  33  56  86 117 146 182 232 283 334
#     4  12  25  40  59  84 116 154 194 233 282 339
#     4   9  18  33  56  85 116 146 180 231 287 333
#     4  11  24  39  55  80 116 153 191 237 287 338
#     4  10  19  37  60  86 118 147 185 236 285 334
#
# _framework density 17.417846999999998
#
# number of rings (size 3 to 8) (size 9 to 14) (size 15 to 20)
#    0.000    1.875    2.500    2.250    0.000    3.500 
#    0.000    1.250    0.000    3.750    0.000    0.000 
#    0.000    0.000    0.000    0.000    0.000    0.000 
#
# Total GULP energy -178705.063481 kJ/mol
# GULP energy per Si atom -5584.533234 kJ/mol
# Density = 1.737820 g / cm^3
# Si number density = 17.417847 Si / 1000 Ang^3
#
#
#
# Elastic Constant Matrix: (Units=GPa)
#
#
# Indices 1 2 3 4 5 6 
#
# 1 126.7380 65.1086 65.3532 0.0000 -23.6241 0.0000
# 2 65.1086 76.6835 65.8730 0.0000 -14.9601 0.0000
# 3 65.3532 65.8730 100.0054 0.0000 -18.4784 0.0000
# 4 0.0000 0.0000 0.0000 25.3994 0.0000 -1.8588
# 5 -23.6241 -14.9601 -18.4784 0.0000 21.6331 0.0000
# 6 0.0000 0.0000 0.0000 -1.8588 0.0000 35.8948
#
#
#
# Elastic Compliance Matrix: (Units=1/GPa)
#
#
# Indices 1 2 3 4 5 6 
#
# 1 0.015581 -0.009621 -0.002292 0.000000 0.008404 0.000000
# 2 -0.009621 0.036366 -0.017766 0.000000 -0.000532 0.000000
# 3 -0.002292 -0.017766 0.024303 0.000000 0.005970 0.000000
# 4 0.000000 0.000000 0.000000 0.039521 0.000000 0.002047
# 5 0.008404 -0.000532 0.005970 0.000000 0.060134 0.000000
# 6 0.000000 0.000000 0.000000 0.002047 0.000000 0.027965
#
#
# Mechanical properties :
#
#
# Convention : Reuss Voigt Hill
#
# Bulk Modulus (GPa) = 59.19589 77.34406 68.26997
# Shear Modulus (GPa) = 18.59715 23.72493 21.16104
#
# Velocity S-wave (km/s) = 3.27112 3.69467 3.48933
# Velocity P-wave (km/s) = 6.95173 7.91848 7.45080
#
# Compressibility (1/GPa) = 0.01689306
#
# Stress axis : x y z
#
# Youngs Moduli (GPa) = 64.17968 27.49802 41.14770
#
# Poissons Ratio (x) = 0.26455 0.09433
# Poissons Ratio (y) = 0.61744 0.73101
# Poissons Ratio (z) = 0.14713 0.48852
#
# Static dielectric constant tensor:
#      x y z
#    x 1.585550 0.000000 -0.003770 
#    y 0.000000 1.578610 0.000000 
#    z -0.003770 0.000000 1.566890 
# 
# From -- ./inp_files/281296.got.cif
#   From: 2010.05.17/outbox.cif.g08.bks.cpg/sg12_141_cif.got.tgz:281296.got - 2010.06.03 13:09:07.
