data_PCOD9185059
_publ_section_title
;
Structure prediction by ZEFSAII (Michael W. Deem and Ramdas Pophale) SiO2 
 PCOD9185059
Probable space group: C 2/M
;
_chemical_formula_sum "Si O2"
_cell_formula_units_Z 64
_cell_length_a 31.406502
_cell_length_b 21.874946
_cell_length_c 8.698531
_cell_angle_alpha 90.000000
_cell_angle_beta 33.318828
_cell_angle_gamma 90.000000
_cell_volume 3282.615766
_symmetry_space_group_name_H-M "C 2/M"
_symmetry_group_IT_number 12
_symmetry_cell_setting 'monoclinic'
loop_
_space_group_symop_operation_xyz
x,y,z
-x,y,-z
-x,-y,-z
x,-y,z
1/2+x,1/2+y,z
1/2-x,1/2+y,-z
1/2-x,1/2-y,-z
1/2+x,1/2-y,z
loop_
_atom_site_type_symbol
_atom_site_label
_atom_site_fract_x
_atom_site_fract_y
_atom_site_fract_z
Si Si1 0.175272 0.380179 0.191480
Si Si2 0.705711 0.327874 0.924200
Si Si3 0.175892 0.663797 0.690660
Si Si4 0.236301 0.929743 0.356814
Si Si5 0.577771 0.574124 0.688705
Si Si6 0.413953 0.573121 0.695191
Si Si7 0.908100 0.432410 0.264881
Si Si8 0.092784 0.719052 0.229629
O O1 0.241497 0.343085 0.086506
O O2 0.129067 0.417836 0.458275
O O3 0.118974 0.335670 0.264587
O O4 0.216483 0.423971 0.944806
O O5 0.765249 0.306886 0.610664
O O6 0.657913 0.388941 0.019548
O O7 0.639141 0.278075 0.150031
O O8 0.225890 0.616892 0.640763
O O9 0.118343 0.621152 0.767371
O O10 0.128091 0.705065 0.953662
O O11 0.150407 0.908399 0.572210
O O12 0.235345 0.000000 0.412476
O O13 0.575348 0.500000 0.698071
O O14 0.585938 0.589934 0.485800
O O15 0.500000 0.598096 0.000000
O O16 0.500000 0.587321 0.500000
O O17 0.402389 0.500000 0.747994
O O18 0.882324 0.500000 0.289845
O O19 0.000000 0.432505 0.000000
O O20 0.000000 0.725745 0.500000
#
# Coordination Sequence:
#
# PCOD9185059 Si02
#       8
#     8   8   8   8   8   8   8   8
#     4  10  21  37  60  84 113 150 190 238 286 340
#     4  11  22  39  61  85 115 151 196 240 287 344
#     4  10  23  37  58  87 115 149 192 241 288 337
#     4  10  19  34  55  83 117 153 189 224 279 344
#     4   9  18  32  50  74 113 157 187 222 273 334
#     4  10  21  35  55  86 121 155 190 233 288 345
#     4  10  20  36  59  89 121 151 187 234 290 346
#     4  11  23  42  62  81 110 150 196 242 292 343
#
# _framework density 19.496645999999998
#
# number of rings (size 3 to 8) (size 9 to 14) (size 15 to 20)
#    0.000    1.875    1.250    2.625    1.750    2.500 
#    0.000    0.000    0.000    6.750    0.000    0.000 
#    0.000    0.000    0.000    0.000    0.000    0.000 
#
# Total GULP energy -178617.709120 kJ/mol
# GULP energy per Si atom -5581.803410 kJ/mol
# Density = 1.945227 g / cm^3
# Si number density = 19.496646 Si / 1000 Ang^3
#
#
#
# Elastic Constant Matrix: (Units=GPa)
#
#
# Indices 1 2 3 4 5 6 
#
# 1 50.3433 -5.6120 18.4034 0.0000 -15.6775 0.0000
# 2 -5.6120 33.0741 10.7083 0.0000 -15.1702 0.0000
# 3 18.4034 10.7083 89.5601 0.0000 -22.5166 0.0000
# 4 0.0000 0.0000 0.0000 10.8436 0.0000 13.7276
# 5 -15.6775 -15.1702 -22.5166 0.0000 32.3803 0.0000
# 6 0.0000 0.0000 0.0000 13.7276 0.0000 -19.5544
#
#
#
# Elastic Compliance Matrix: (Units=1/GPa)
#
#
# Indices 1 2 3 4 5 6 
#
# 1 0.028161 0.014070 -0.002889 0.000000 0.018218 0.000000
# 2 0.014070 0.045540 -0.001526 0.000000 0.027086 0.000000
# 3 -0.002889 -0.001526 0.013828 0.000000 0.007502 0.000000
# 4 0.000000 0.000000 0.000000 0.048826 0.000000 0.034277
# 5 0.018218 0.027086 0.007502 0.000000 0.057610 0.000000
# 6 0.000000 0.000000 0.000000 0.034277 0.000000 -0.027076
#
#
# Mechanical properties :
#
#
# Convention : Reuss Voigt Hill
#
# Bulk Modulus (GPa) = 9.35993 24.44190 16.90091
# Shear Modulus (GPa) = 27.29350 14.69909 20.99630
#
# Velocity S-wave (km/s) = 3.74559 2.74876 3.28520
# Velocity P-wave (km/s) = 4.84945 4.75793 4.80391
#
# Compressibility (1/GPa) = 0.10683839
#
# Stress axis : x y z
#
# Youngs Moduli (GPa) = 35.50981 21.95853 72.31775
#
# Poissons Ratio (x) = -0.30895 0.20892
# Poissons Ratio (y) = -0.49961 0.11038
# Poissons Ratio (z) = 0.10258 0.03352
#
# Static dielectric constant tensor:
#      x y z
#    x 1.672090 0.000000 0.014070 
#    y 0.000000 1.675180 0.000000 
#    z 0.014070 0.000000 1.686510 
# 
# From -- ./inp_files/113598.got.cif
#   From: 2010.05.17/outbox.cif.g08.bks.cpg/sg12_57_cif.got.tgz:113598.got - 2010.06.03 13:09:07.
