data_PCOD9185638
_publ_section_title
;
Structure prediction by ZEFSAII (Michael W. Deem and Ramdas Pophale) SiO2 
 PCOD9185638
Probable space group: C 2/M
;
_chemical_formula_sum "Si O2"
_cell_formula_units_Z 36
_cell_length_a 24.711684
_cell_length_b 13.477995
_cell_length_c 6.001107
_cell_angle_alpha 90.000000
_cell_angle_beta 67.939332
_cell_angle_gamma 90.000000
_cell_volume 1852.417122
_symmetry_space_group_name_H-M "C 2/M"
_symmetry_group_IT_number 12
_symmetry_cell_setting 'monoclinic'
loop_
_space_group_symop_operation_xyz
x,y,z
-x,y,-z
-x,-y,-z
x,-y,z
1/2+x,1/2+y,z
1/2-x,1/2+y,-z
1/2-x,1/2-y,-z
1/2+x,1/2-y,z
loop_
_atom_site_type_symbol
_atom_site_label
_atom_site_fract_x
_atom_site_fract_y
_atom_site_fract_z
Si Si1 0.198679 0.884377 0.150497
Si Si2 0.390512 0.257406 0.436476
Si Si3 0.796586 0.723023 0.239743
Si Si4 0.438688 0.110124 0.722455
Si Si5 0.500000 0.765113 0.000000
O O1 0.149525 0.845133 0.400756
O O2 0.263429 0.860850 0.148514
O O3 0.191713 0.000000 0.115978
O O4 0.192966 0.815670 0.940860
O O5 0.353876 0.204641 0.296260
O O6 0.400253 0.180109 0.623375
O O7 0.453483 0.288897 0.235770
O O8 0.750000 0.750000 0.500000
O O9 0.500000 0.099351 0.500000
O O10 0.413996 0.000000 0.798115
O O11 0.459315 0.165868 0.910941
#
# Coordination Sequence:
#
# PCOD9185638 Si02
#       5
#     8   8   8   8   4
#     4  10  21  39  61  84 113 150 191 235 285 339
#     4  10  20  36  57  85 119 153 190 232 280 335
#     4   9  20  38  58  83 111 144 188 237 285 333
#     4   9  18  32  52  79 111 149 190 230 275 327
#     4  10  19  34  57  84 122 158 187 228 277 334
#
# _framework density 19.434066999999999
#
# number of rings (size 3 to 8) (size 9 to 14) (size 15 to 20)
#    0.000    2.444    0.000    1.667    0.000    5.333 
#    0.000   16.111    0.000   12.667    0.000    0.000 
#    0.000    0.000    0.000    0.000    0.000    0.000 
#
# Total GULP energy -100236.452787 kJ/mol
# GULP energy per Si atom -5568.691821 kJ/mol
# Density = 1.938983 g / cm^3
# Si number density = 19.434067 Si / 1000 Ang^3
#
#
#
# Elastic Constant Matrix: (Units=GPa)
#
#
# Indices 1 2 3 4 5 6 
#
# 1 117.8659 39.9467 44.3240 0.0000 15.4544 0.0000
# 2 39.9467 91.4651 35.3192 0.0000 -4.0634 0.0000
# 3 44.3240 35.3192 108.0352 0.0000 -7.6264 0.0000
# 4 0.0000 0.0000 0.0000 3.4802 0.0000 -11.9715
# 5 15.4544 -4.0634 -7.6264 0.0000 55.0947 0.0000
# 6 0.0000 0.0000 0.0000 -11.9715 0.0000 12.5455
#
#
#
# Elastic Compliance Matrix: (Units=1/GPa)
#
#
# Indices 1 2 3 4 5 6 
#
# 1 0.011779 -0.003833 -0.003871 0.000000 -0.004123 0.000000
# 2 -0.003833 0.013767 -0.002808 0.000000 0.001702 0.000000
# 3 -0.003871 -0.002808 0.011941 0.000000 0.002532 0.000000
# 4 0.000000 0.000000 0.000000 -0.125886 0.000000 -0.120127
# 5 -0.004123 0.001702 0.002532 0.000000 0.019783 0.000000
# 6 0.000000 0.000000 0.000000 -0.120127 0.000000 -0.034921
#
#
# Mechanical properties :
#
#
# Convention : Reuss Voigt Hill
#
# Bulk Modulus (GPa) = 60.73874 61.83842 61.28858
# Shear Modulus (GPa) = -64.91402 27.40915 -18.75244
#
# Velocity S-wave (km/s) = -5.78573 3.75956 -3.10970
# Velocity P-wave (km/s) = 3.64847 7.12281 4.32568
#
# Compressibility (1/GPa) = 0.01646396
#
# Stress axis : x y z
#
# Youngs Moduli (GPa) = 84.89350 72.63677 83.74497
#
# Poissons Ratio (x) = 0.27842 0.32415
# Poissons Ratio (y) = 0.32540 0.23516
# Poissons Ratio (z) = 0.32860 0.20397
#
# Static dielectric constant tensor:
#      x y z
#    x 1.723460 0.000000 -0.027200 
#    y 0.000000 1.645910 0.000000 
#    z -0.027200 0.000000 1.733190 
# 
# From -- ./inp_files/24012.got.cif
#   From: 2010.05.17/outbox.cif.g08.bks.cpg/sg12_13_cif.got.tgz:24012.got - 2010.06.03 13:09:07.
