data_PCOD9185943
_publ_section_title
;
Structure prediction by ZEFSAII (Michael W. Deem and Ramdas Pophale) SiO2 
 PCOD9185943
Probable space group: C 2/M
;
_chemical_formula_sum "Si O2"
_cell_formula_units_Z 56
_cell_length_a 29.988117
_cell_length_b 7.453980
_cell_length_c 13.432324
_cell_angle_alpha 90.000000
_cell_angle_beta 54.672860
_cell_angle_gamma 90.000000
_cell_volume 2449.662368
_symmetry_space_group_name_H-M "C 2/M"
_symmetry_group_IT_number 12
_symmetry_cell_setting 'monoclinic'
loop_
_space_group_symop_operation_xyz
x,y,z
-x,y,-z
-x,-y,-z
x,-y,z
1/2+x,1/2+y,z
1/2-x,1/2+y,-z
1/2-x,1/2-y,-z
1/2+x,1/2-y,z
loop_
_atom_site_type_symbol
_atom_site_label
_atom_site_fract_x
_atom_site_fract_y
_atom_site_fract_z
Si Si1 0.407637 0.718682 0.685636
Si Si2 0.688650 0.287078 0.044616
Si Si3 0.171791 0.291982 0.838288
Si Si4 0.007625 0.783151 0.260583
Si Si5 0.107286 0.219454 0.522836
Si Si6 0.052434 0.289902 0.988317
Si Si7 0.271709 0.714569 0.582062
O O1 0.407787 0.500000 0.682872
O O2 0.354972 0.776896 0.817477
O O3 0.460760 0.772951 0.680026
O O4 0.403685 0.775884 0.576853
O O5 0.680992 0.500000 0.045977
O O6 0.750000 0.250000 0.000000
O O7 0.678246 0.211698 0.948687
O O8 0.169994 0.500000 0.809052
O O9 0.225658 0.213587 0.717215
O O10 0.112420 0.211958 0.889064
O O11 0.944713 0.723626 0.344632
O O12 0.039963 0.721653 0.121719
O O13 0.008530 0.000000 0.257340
O O14 0.166800 0.282570 0.480607
O O15 0.107360 0.000000 0.524435
O O16 0.054944 0.500000 0.957672
O O17 0.000000 0.210122 0.000000
O O18 0.275529 0.500000 0.592750
O O19 0.250000 0.750000 0.500000
#
# Coordination Sequence:
#
# PCOD9185943 Si02
#       7
#     8   8   8   8   8   8   8
#     4   9  17  32  54  82 112 141 179 224 276 333
#     4  11  21  34  56  85 116 150 187 230 279 334
#     4  10  21  39  59  80 112 151 190 234 282 334
#     4  10  19  34  58  87 111 139 181 233 281 327
#     4   9  18  33  55  82 112 144 179 225 281 335
#     4  10  22  38  57  81 112 153 190 226 281 340
#     4  10  22  39  58  81 110 147 190 233 282 334
#
# _framework density 22.860292999999999
#
# number of rings (size 3 to 8) (size 9 to 14) (size 15 to 20)
#    0.000    2.143    1.429    1.714    2.000    4.857 
#    0.000    0.000    0.000    4.286    0.000    0.000 
#    0.000    0.000    0.000    0.000    0.000    0.000 
#
# Total GULP energy -156496.012422 kJ/mol
# GULP energy per Si atom -5589.143301 kJ/mol
# Density = 2.280826 g / cm^3
# Si number density = 22.860293 Si / 1000 Ang^3
#
#
#
# Elastic Constant Matrix: (Units=GPa)
#
#
# Indices 1 2 3 4 5 6 
#
# 1 151.9331 -1.9077 10.8441 0.0000 -34.4339 0.0000
# 2 -1.9077 70.2463 -7.8517 0.0000 -9.8241 -0.0001
# 3 10.8441 -7.8517 53.3976 0.0000 -31.4943 0.0000
# 4 0.0000 0.0000 0.0000 15.0589 0.0000 8.0407
# 5 -34.4339 -9.8241 -31.4943 0.0000 48.1924 0.0000
# 6 0.0000 -0.0001 0.0000 8.0407 0.0000 4.5493
#
#
#
# Elastic Compliance Matrix: (Units=1/GPa)
#
#
# Indices 1 2 3 4 5 6 
#
# 1 0.008331 0.001880 0.003778 0.000000 0.008805 0.000001
# 2 0.001880 0.016544 0.007863 -0.000004 0.009854 0.000008
# 3 0.003778 0.007863 0.035235 -0.000002 0.027328 0.000003
# 4 0.000000 -0.000004 -0.000002 1.180515 -0.000002 -2.086540
# 5 0.008805 0.009854 0.027328 -0.000002 0.046909 0.000004
# 6 0.000001 0.000008 0.000003 -2.086540 0.000004 3.907740
#
#
# Mechanical properties :
#
#
# Convention : Reuss Voigt Hill
#
# Bulk Modulus (GPa) = 11.47440 30.86072 21.16756
# Shear Modulus (GPa) = 0.96204 31.85959 16.41082
#
# Velocity S-wave (km/s) = 0.64942 3.73723 2.68222
# Velocity P-wave (km/s) = 2.36486 5.67023 4.34420
#
# Compressibility (1/GPa) = 0.08715054
#
# Stress axis : x y z
#
# Youngs Moduli (GPa) = 120.02919 60.44603 28.38089
#
# Poissons Ratio (x) = -0.11363 -0.10721
# Poissons Ratio (y) = -0.22564 -0.22316
# Poissons Ratio (z) = -0.45341 -0.47528
#
# Static dielectric constant tensor:
#      x y z
#    x 1.874990 0.000000 -0.049700 
#    y 0.000000 1.870370 0.000000 
#    z -0.049700 0.000000 1.811520 
# 
# From -- ./inp_files/180692.got.cif
#   From: 2010.05.17/outbox.cif.g08.bks.cpg/sg12_91_cif.got.tgz:180692.got - 2010.06.03 13:09:07.
