data_PCOD9185905
_publ_section_title
;
Structure prediction by ZEFSAII (Michael W. Deem and Ramdas Pophale) SiO2 
 PCOD9185905
Probable space group: C 2/M
;
_chemical_formula_sum "Si O2"
_cell_formula_units_Z 64
_cell_length_a 13.836525
_cell_length_b 14.073048
_cell_length_c 29.212916
_cell_angle_alpha 90.000000
_cell_angle_beta 140.368827
_cell_angle_gamma 90.000000
_cell_volume 3628.306605
_symmetry_space_group_name_H-M "C 2/M"
_symmetry_group_IT_number 12
_symmetry_cell_setting 'monoclinic'
loop_
_space_group_symop_operation_xyz
x,y,z
-x,y,-z
-x,-y,-z
x,-y,z
1/2+x,1/2+y,z
1/2-x,1/2+y,-z
1/2-x,1/2-y,-z
1/2+x,1/2-y,z
loop_
_atom_site_type_symbol
_atom_site_label
_atom_site_fract_x
_atom_site_fract_y
_atom_site_fract_z
Si Si1 0.835361 0.612212 0.662082
Si Si2 0.159522 0.753257 0.419066
Si Si3 0.331351 0.106664 0.418161
Si Si4 0.181594 0.256651 0.672502
Si Si5 0.217529 0.891324 0.959646
Si Si6 0.128382 0.891403 0.194249
Si Si7 0.172839 0.390556 0.823024
Si Si8 0.163266 0.203497 0.037199
O O1 0.805419 0.500000 0.647904
O O2 0.808317 0.664727 0.603629
O O3 0.740697 0.663016 0.667899
O O4 0.011018 0.626534 0.740315
O O5 0.250000 0.750000 0.500000
O O6 0.219662 0.843433 0.413007
O O7 0.980592 0.758134 0.363158
O O8 0.500000 0.106347 0.500000
O O9 0.338677 0.167295 0.375189
O O10 0.282668 0.000000 0.390869
O O11 0.300230 0.307394 0.749667
O O12 0.322217 0.812032 0.974430
O O13 0.051959 0.884950 0.875835
O O14 0.271072 0.000000 0.975931
O O15 0.193268 0.861106 0.003615
O O16 0.200943 0.882118 0.170317
O O17 0.167624 0.000000 0.224441
O O18 0.174352 0.500000 0.840234
O O19 0.212836 0.321745 0.879141
O O20 0.000000 0.184482 0.000000
#
# Coordination Sequence:
#
# PCOD9185905 Si02
#       8
#     8   8   8   8   8   8   8   8
#     4  10  23  39  58  83 112 149 187 228 278 336
#     4  11  22  37  56  82 111 140 179 225 277 330
#     4  10  21  36  55  79 105 137 177 220 270 325
#     4  11  21  37  60  79 112 143 182 230 274 333
#     4  10  22  37  55  83 116 150 190 232 278 332
#     4  10  19  34  59  86 108 144 192 234 279 326
#     4  10  19  34  58  86 111 142 190 235 277 325
#     4  11  21  35  58  84 115 152 188 231 281 329
#
# _framework density 17.639081999999998
#
# number of rings (size 3 to 8) (size 9 to 14) (size 15 to 20)
#    0.000    1.625    3.750    1.500    0.000    2.250 
#    0.000    0.625    0.000    0.750    0.000    0.000 
#    0.000    0.000    0.000    0.000    0.000    0.000 
#
# Total GULP energy -178557.299814 kJ/mol
# GULP energy per Si atom -5579.915619 kJ/mol
# Density = 1.759893 g / cm^3
# Si number density = 17.639082 Si / 1000 Ang^3
#
#
#
# Elastic Constant Matrix: (Units=GPa)
#
#
# Indices 1 2 3 4 5 6 
#
# 1 68.5237 22.9410 5.1932 0.0000 -7.4101 0.0000
# 2 22.9410 93.0395 21.9204 0.0000 -11.7197 0.0000
# 3 5.1932 21.9204 53.8314 0.0000 -16.3408 0.0000
# 4 0.0000 0.0000 0.0000 28.1366 0.0000 2.2177
# 5 -7.4101 -11.7197 -16.3408 0.0000 20.2011 0.0000
# 6 0.0000 0.0000 0.0000 2.2177 0.0000 11.9655
#
#
#
# Elastic Compliance Matrix: (Units=1/GPa)
#
#
# Indices 1 2 3 4 5 6 
#
# 1 0.016270 -0.003728 0.001463 0.000000 0.004989 0.000000
# 2 -0.003728 0.012986 -0.004051 0.000000 0.002889 0.000000
# 3 0.001463 -0.004051 0.025892 0.000000 0.019131 0.000000
# 4 0.000000 0.000000 0.000000 0.036068 0.000000 -0.006685
# 5 0.004989 0.002889 0.019131 0.000000 0.068483 0.000000
# 6 0.000000 0.000000 0.000000 -0.006685 0.000000 0.084812
#
#
# Mechanical properties :
#
#
# Convention : Reuss Voigt Hill
#
# Bulk Modulus (GPa) = 23.52094 35.05599 29.28846
# Shear Modulus (GPa) = 18.42869 23.08331 20.75600
#
# Velocity S-wave (km/s) = 3.23579 3.62145 3.43404
# Velocity P-wave (km/s) = 5.22723 6.11585 5.68892
#
# Compressibility (1/GPa) = 0.04251531
#
# Stress axis : x y z
#
# Youngs Moduli (GPa) = 61.46209 77.00746 38.62154
#
# Poissons Ratio (x) = 0.28709 -0.05649
# Poissons Ratio (y) = 0.22913 0.15646
# Poissons Ratio (z) = -0.08991 0.31197
#
# Static dielectric constant tensor:
#      x y z
#    x 1.576210 0.000000 -0.004850 
#    y 0.000000 1.595890 0.000000 
#    z -0.004850 0.000000 1.597890 
# 
# From -- ./inp_files/358404.got.cif
#   From: 2010.05.17/outbox.cif.g08.bks.cpg/sg12_180_cif.got.tgz:358404.got - 2010.06.03 13:09:07.
