data_PCOD9185945
_publ_section_title
;
Structure prediction by ZEFSAII (Michael W. Deem and Ramdas Pophale) SiO2 
 PCOD9185945
Probable space group: C 2/M
;
_chemical_formula_sum "Si O2"
_cell_formula_units_Z 56
_cell_length_a 23.927438
_cell_length_b 13.810877
_cell_length_c 10.214720
_cell_angle_alpha 90.000000
_cell_angle_beta 62.604116
_cell_angle_gamma 90.000000
_cell_volume 2996.972519
_symmetry_space_group_name_H-M "C 2/M"
_symmetry_group_IT_number 12
_symmetry_cell_setting 'monoclinic'
loop_
_space_group_symop_operation_xyz
x,y,z
-x,y,-z
-x,-y,-z
x,-y,z
1/2+x,1/2+y,z
1/2-x,1/2+y,-z
1/2-x,1/2-y,-z
1/2+x,1/2-y,z
loop_
_atom_site_type_symbol
_atom_site_label
_atom_site_fract_x
_atom_site_fract_y
_atom_site_fract_z
Si Si1 0.928174 0.116079 0.562118
Si Si2 0.237924 0.388998 0.442605
Si Si3 0.194180 0.614893 0.774013
Si Si4 0.611890 0.612869 0.686502
Si Si5 0.070805 0.730743 0.945473
Si Si6 0.239696 0.291958 0.171297
Si Si7 0.357911 0.699907 0.887427
O O1 0.902579 0.145470 0.446701
O O2 0.886414 0.145251 0.732148
O O3 0.000000 0.151466 0.500000
O O4 0.929155 0.000000 0.558978
O O5 0.217843 0.500000 0.452442
O O6 0.209884 0.352875 0.608830
O O7 0.313216 0.386086 0.374722
O O8 0.220369 0.335886 0.329482
O O9 0.205496 0.500000 0.776255
O O10 0.122473 0.646515 0.873905
O O11 0.237330 0.682323 0.819422
O O12 0.590679 0.500000 0.724971
O O13 0.583273 0.684541 0.825224
O O14 0.086766 0.773381 0.071960
O O15 0.000000 0.697340 0.000000
O O16 0.181171 0.287848 0.136789
O O17 0.301164 0.343131 0.040033
#
# Coordination Sequence:
#
# PCOD9185945 Si02
#       7
#     8   8   8   8   8   8   8
#     4  10  21  35  52  79 115 153 189 224 268 334
#     4  10  19  34  58  87 112 141 181 231 295 348
#     4  10  21  36  58  86 112 149 196 237 281 332
#     4  10  20  35  57  86 115 148 186 228 283 344
#     4  11  23  39  58  82 114 158 196 232 277 327
#     4  10  20  36  56  82 117 144 179 239 296 335
#     4  10  21  35  54  83 114 144 189 226 286 338
#
# _framework density 18.685524000000001
#
# number of rings (size 3 to 8) (size 9 to 14) (size 15 to 20)
#    0.000    1.857    2.857    2.143    2.000    3.429 
#    0.000    5.714    0.000    0.000    0.000    2.000 
#    0.000    0.000    0.000    0.000    0.000    0.000 
#
# Total GULP energy -156113.206583 kJ/mol
# GULP energy per Si atom -5575.471664 kJ/mol
# Density = 1.864299 g / cm^3
# Si number density = 18.685524 Si / 1000 Ang^3
#
#
#
# Elastic Constant Matrix: (Units=GPa)
#
#
# Indices 1 2 3 4 5 6 
#
# 1 78.8116 -0.5920 28.7598 0.0000 18.8396 0.0000
# 2 -0.5920 37.4801 28.3697 0.0000 9.5467 0.0000
# 3 28.7598 28.3697 100.8943 0.0000 28.8221 0.0000
# 4 0.0000 0.0000 0.0000 -2.1461 0.0000 -1.6162
# 5 18.8396 9.5467 28.8221 0.0000 38.6483 0.0000
# 6 0.0000 0.0000 0.0000 -1.6162 0.0000 11.1500
#
#
#
# Elastic Compliance Matrix: (Units=1/GPa)
#
#
# Indices 1 2 3 4 5 6 
#
# 1 0.015616 0.004872 -0.004197 0.000000 -0.005686 0.000000
# 2 0.004872 0.035493 -0.010402 0.000000 -0.003385 0.000000
# 3 -0.004197 -0.010402 0.016156 0.000000 -0.007433 0.000000
# 4 0.000000 0.000000 0.000000 -0.420102 0.000000 -0.060893
# 5 -0.005686 -0.003385 -0.007433 0.000000 0.035025 0.000000
# 6 0.000000 0.000000 0.000000 -0.060893 0.000000 0.080860
#
#
# Mechanical properties :
#
#
# Convention : Reuss Voigt Hill
#
# Bulk Modulus (GPa) = 20.91578 36.69563 28.80571
# Shear Modulus (GPa) = -24.80638 20.24035 -2.28302
#
# Velocity S-wave (km/s) = -3.64754 3.29479 -1.10655
# Velocity P-wave (km/s) = 2.55373 5.84426 3.71711
#
# Compressibility (1/GPa) = 0.04781079
#
# Stress axis : x y z
#
# Youngs Moduli (GPa) = 64.03806 28.17428 61.89704
#
# Poissons Ratio (x) = -0.13725 0.25977
# Poissons Ratio (y) = -0.31197 0.64384
# Poissons Ratio (z) = 0.26876 0.29306
#
# Static dielectric constant tensor:
#      x y z
#    x 1.652610 0.000000 0.004530 
#    y 0.000000 1.659090 0.000000 
#    z 0.004530 0.000000 1.680590 
# 
# From -- ./inp_files/96764.got.cif
#   From: 2010.05.17/outbox.cif.g08.bks.cpg/sg12_49_cif.got.tgz:96764.got - 2010.06.03 13:09:07.
