data_PCOD9185983
_publ_section_title
;
Structure prediction by ZEFSAII (Michael W. Deem and Ramdas Pophale) SiO2 
 PCOD9185983
Probable space group: C 2/M
;
_chemical_formula_sum "Si O2"
_cell_formula_units_Z 48
_cell_length_a 16.963092
_cell_length_b 19.642469
_cell_length_c 14.404397
_cell_angle_alpha 90.000000
_cell_angle_beta 31.350022
_cell_angle_gamma 90.000000
_cell_volume 2497.012414
_symmetry_space_group_name_H-M "C 2/M"
_symmetry_group_IT_number 12
_symmetry_cell_setting 'monoclinic'
loop_
_space_group_symop_operation_xyz
x,y,z
-x,y,-z
-x,-y,-z
x,-y,z
1/2+x,1/2+y,z
1/2-x,1/2+y,-z
1/2-x,1/2-y,-z
1/2+x,1/2-y,z
loop_
_atom_site_type_symbol
_atom_site_label
_atom_site_fract_x
_atom_site_fract_y
_atom_site_fract_z
Si Si1 0.065023 0.367279 0.328532
Si Si2 0.598649 0.602625 0.493660
Si Si3 0.663461 0.755440 0.489824
Si Si4 0.676996 0.357228 0.807235
Si Si5 0.623017 0.000000 0.793079
Si Si6 0.938636 0.000000 0.790046
Si Si7 0.421424 0.000000 0.809478
Si Si8 0.376969 0.500000 0.205309
O O1 0.240924 0.356862 0.175942
O O2 0.046896 0.433960 0.285290
O O3 0.000000 0.372577 0.500000
O O4 0.985122 0.303596 0.359612
O O5 0.500000 0.596048 0.500000
O O6 0.624087 0.680771 0.493522
O O7 0.760001 0.563805 0.321217
O O8 0.501046 0.564720 0.670636
O O9 0.750000 0.750000 0.500000
O O10 0.767536 0.795375 0.311382
O O11 0.711491 0.429389 0.720604
O O12 0.500000 0.353116 0.000000
O O13 0.528844 0.000000 0.791701
O O14 0.500000 0.000000 0.000000
O O15 0.027910 0.000000 0.796878
O O16 0.757427 0.000000 0.983625
O O17 0.500000 0.500000 0.000000
#
# Coordination Sequence:
#
# PCOD9185983 Si02
#       8
#     8   8   8   8   4   4   4   4
#     4  10  22  38  59  90 124 156 190 238 298 355
#     4  11  23  43  62  82 117 161 198 240 295 352
#     4  11  23  40  59  85 119 158 196 239 295 354
#     4  10  20  37  59  87 118 154 195 238 288 351
#     4  11  24  41  63  91 115 148 203 256 291 333
#     4  11  23  39  62  88 116 158 202 240 289 357
#     4  12  21  38  63  93 120 150 194 248 293 340
#     4  10  19  34  58  88 121 154 187 234 292 350
#
# _framework density 19.222971999999999
#
# number of rings (size 3 to 8) (size 9 to 14) (size 15 to 20)
#    0.000    1.333    0.000    8.250    0.000    6.667 
#    0.000    6.667    0.000    0.000    0.000    0.000 
#    0.000    0.000    0.000    0.000    0.000    0.000 
#
# Total GULP energy -134064.040520 kJ/mol
# GULP energy per Si atom -5586.001688 kJ/mol
# Density = 1.917922 g / cm^3
# Si number density = 19.222972 Si / 1000 Ang^3
#
#
#
# Elastic Constant Matrix: (Units=GPa)
#
#
# Indices 1 2 3 4 5 6 
#
# 1 224.4561 85.1190 48.7171 0.0028 -2.9029 -0.0007
# 2 85.1190 200.8068 61.0357 0.0044 -2.7915 -0.0015
# 3 48.7171 61.0357 80.2349 0.0010 -11.0536 -0.0013
# 4 0.0028 0.0044 0.0010 5.5685 -0.0028 0.0530
# 5 -2.9029 -2.7915 -11.0536 -0.0028 41.7549 0.0011
# 6 -0.0007 -0.0015 -0.0013 0.0530 0.0011 39.9380
#
#
#
# Elastic Compliance Matrix: (Units=1/GPa)
#
#
# Indices 1 2 3 4 5 6 
#
# 1 0.005561 -0.001721 -0.002107 -0.000001 -0.000286 0.000000
# 2 -0.001721 0.007043 -0.004426 -0.000004 -0.000820 0.000000
# 3 -0.002107 -0.004426 0.017694 0.000004 0.004242 0.000000
# 4 -0.000001 -0.000004 0.000004 0.179584 0.000013 -0.000238
# 5 -0.000286 -0.000820 0.004242 0.000013 0.024997 -0.000001
# 6 0.000000 0.000000 0.000000 -0.000238 -0.000001 0.025039
#
#
# Mechanical properties :
#
#
# Convention : Reuss Voigt Hill
#
# Bulk Modulus (GPa) = 72.51267 99.47126 85.99197
# Shear Modulus (GPa) = 17.79208 38.16069 27.97639
#
# Velocity S-wave (km/s) = 3.04561 4.46035 3.81906
# Velocity P-wave (km/s) = 7.08318 8.85351 8.01736
#
# Compressibility (1/GPa) = 0.01379069
#
# Stress axis : x y z
#
# Youngs Moduli (GPa) = 179.80852 141.97921 56.51610
#
# Poissons Ratio (x) = 0.24434 0.11909
# Poissons Ratio (y) = 0.30944 0.25014
# Poissons Ratio (z) = 0.37888 0.62840
#
# Static dielectric constant tensor:
#      x y z
#    x 1.659260 0.000000 -0.033180 
#    y 0.000000 1.656870 0.000000 
#    z -0.033180 0.000000 1.700120 
# 
# From -- ./inp_files/147985.got.cif
#   From: 2010.05.17/outbox.cif.g08.bks.cpg/sg12_74_cif.got.tgz:147985.got - 2010.06.03 13:09:07.
