data_PCOD9185387
_publ_section_title
;
Structure prediction by ZEFSAII (Michael W. Deem and Ramdas Pophale) SiO2 
 PCOD9185387
Probable space group: C 2/M
;
_chemical_formula_sum "Si O2"
_cell_formula_units_Z 64
_cell_length_a 30.821980
_cell_length_b 14.642060
_cell_length_c 12.230117
_cell_angle_alpha 90.000000
_cell_angle_beta 142.877218
_cell_angle_gamma 90.000000
_cell_volume 3331.107496
_symmetry_space_group_name_H-M "C 2/M"
_symmetry_group_IT_number 12
_symmetry_cell_setting 'monoclinic'
loop_
_space_group_symop_operation_xyz
x,y,z
-x,y,-z
-x,-y,-z
x,-y,z
1/2+x,1/2+y,z
1/2-x,1/2+y,-z
1/2-x,1/2-y,-z
1/2+x,1/2-y,z
loop_
_atom_site_type_symbol
_atom_site_label
_atom_site_fract_x
_atom_site_fract_y
_atom_site_fract_z
Si Si1 0.682943 0.184797 0.882874
Si Si2 0.680112 0.237473 0.284785
Si Si3 0.040235 0.220811 0.685726
Si Si4 0.179937 0.598913 0.101381
Si Si5 0.871139 0.108660 0.967897
Si Si6 0.790395 0.607390 0.290541
Si Si7 0.110404 0.607773 0.310995
Si Si8 0.992656 0.602734 0.254280
O O1 0.613767 0.238176 0.785478
O O2 0.671949 0.141607 0.742637
O O3 0.750000 0.250000 0.000000
O O4 0.699519 0.114764 0.014351
O O5 0.750000 0.250000 0.500000
O O6 0.704684 0.181456 0.226586
O O7 0.642614 0.330552 0.168104
O O8 0.623682 0.172846 0.235382
O O9 0.000000 0.179423 0.500000
O O10 0.997274 0.308536 0.648623
O O11 0.064884 0.152279 0.831339
O O12 0.205889 0.500000 0.191643
O O13 0.093131 0.600329 0.934243
O O14 0.795131 0.122876 0.879094
O O15 0.879862 0.000000 0.966932
O O16 0.800391 0.500000 0.313063
O O17 0.829445 0.638482 0.479266
O O18 0.120043 0.500000 0.301340
O O19 0.036076 0.614935 0.228687
O O20 0.012995 0.500000 0.337477
#
# Coordination Sequence:
#
# PCOD9185387 Si02
#       8
#     8   8   8   8   8   8   8   8
#     4  11  19  34  59  87 124 157 194 244 301 366
#     4  12  22  38  62  87 118 160 201 250 303 359
#     4  11  22  39  62  90 121 164 203 252 305 362
#     4  10  21  37  58  90 126 156 189 243 309 369
#     4  11  23  42  60  83 119 160 210 257 305 351
#     4  10  19  34  56  87 120 156 193 237 295 359
#     4  10  21  35  60  94 123 153 194 242 296 373
#     4   9  19  37  59  90 125 155 187 233 307 379
#
# _framework density 19.212828999999999
#
# number of rings (size 3 to 8) (size 9 to 14) (size 15 to 20)
#    0.000    1.500    5.000    1.500    0.000    2.000 
#    0.000    1.875    0.000    1.500    0.000    0.000 
#    0.000    0.000    0.000    0.000    0.000    0.000 
#
# Total GULP energy -178468.054174 kJ/mol
# GULP energy per Si atom -5577.126693 kJ/mol
# Density = 1.916910 g / cm^3
# Si number density = 19.212829 Si / 1000 Ang^3
#
#
#
# Elastic Constant Matrix: (Units=GPa)
#
#
# Indices 1 2 3 4 5 6 
#
# 1 89.5998 50.3607 13.4512 0.0000 -7.3580 0.0000
# 2 50.3607 122.9210 52.6472 0.0000 -18.4862 0.0000
# 3 13.4512 52.6472 84.8279 0.0000 -16.5532 0.0000
# 4 0.0000 0.0000 0.0000 18.4862 0.0000 -7.0501
# 5 -7.3580 -18.4862 -16.5532 0.0000 27.9639 0.0000
# 6 0.0000 0.0000 0.0000 -7.0501 0.0000 30.9372
#
#
#
# Elastic Compliance Matrix: (Units=1/GPa)
#
#
# Indices 1 2 3 4 5 6 
#
# 1 0.014733 -0.006808 0.001998 0.000000 0.000559 0.000000
# 2 -0.006808 0.014572 -0.007274 0.000000 0.003536 0.000000
# 3 0.001998 -0.007274 0.017129 0.000000 0.005857 0.000000
# 4 0.000000 0.000000 0.000000 0.059243 0.000000 0.013501
# 5 0.000559 0.003536 0.005857 0.000000 0.041712 0.000000
# 6 0.000000 0.000000 0.000000 0.013501 0.000000 0.035400
#
#
# Mechanical properties :
#
#
# Convention : Reuss Voigt Hill
#
# Bulk Modulus (GPa) = 44.91167 58.91854 51.91511
# Shear Modulus (GPa) = 23.32315 27.53676 25.42995
#
# Velocity S-wave (km/s) = 3.48794 3.78993 3.64207
# Velocity P-wave (km/s) = 6.29663 7.06288 6.69074
#
# Compressibility (1/GPa) = 0.02226593
#
# Stress axis : x y z
#
# Youngs Moduli (GPa) = 67.87422 68.62553 58.37953
#
# Poissons Ratio (x) = 0.46719 -0.11664
# Poissons Ratio (y) = 0.46208 0.42467
# Poissons Ratio (z) = -0.13561 0.49920
#
# Static dielectric constant tensor:
#      x y z
#    x 1.727260 0.000000 -0.085200 
#    y 0.000000 1.698760 0.000000 
#    z -0.085200 0.000000 1.792950 
# 
# From -- ./inp_files/189510.got.cif
#   From: 2010.05.17/outbox.cif.g08.bks.cpg/sg12_95_cif.got.tgz:189510.got - 2010.06.03 13:09:07.
