data_PCOD9185401
_publ_section_title
;
Structure prediction by ZEFSAII (Michael W. Deem and Ramdas Pophale) SiO2 
 PCOD9185401
Probable space group: C 2/M
;
_chemical_formula_sum "Si O2"
_cell_formula_units_Z 48
_cell_length_a 20.442626
_cell_length_b 18.800537
_cell_length_c 11.194632
_cell_angle_alpha 90.000000
_cell_angle_beta 37.830020
_cell_angle_gamma 90.000000
_cell_volume 2638.788438
_symmetry_space_group_name_H-M "C 2/M"
_symmetry_group_IT_number 12
_symmetry_cell_setting 'monoclinic'
loop_
_space_group_symop_operation_xyz
x,y,z
-x,y,-z
-x,-y,-z
x,-y,z
1/2+x,1/2+y,z
1/2-x,1/2+y,-z
1/2-x,1/2-y,-z
1/2+x,1/2-y,z
loop_
_atom_site_type_symbol
_atom_site_label
_atom_site_fract_x
_atom_site_fract_y
_atom_site_fract_z
Si Si1 0.171663 0.000000 0.765764
Si Si2 0.003340 0.000000 0.798265
Si Si3 0.266495 0.656774 0.389319
Si Si4 0.811620 0.248034 0.717962
Si Si5 0.073877 0.275616 0.779602
Si Si6 0.479650 0.369563 0.397430
Si Si7 0.100614 0.735900 0.165669
O O1 0.228309 0.925152 0.655781
O O2 0.078480 0.000000 0.803073
O O3 0.116833 0.000000 0.975696
O O4 0.031098 0.068665 0.680815
O O5 0.229907 0.700743 0.325334
O O6 0.176654 0.674005 0.617796
O O7 0.375815 0.695856 0.275887
O O8 0.881722 0.185173 0.559063
O O9 0.881110 0.286046 0.722785
O O10 0.706982 0.220432 0.938213
O O11 0.000179 0.286771 0.768827
O O12 0.000000 0.289318 0.000000
O O13 0.500000 0.399738 0.500000
O O14 0.578752 0.320385 0.213131
#
# Coordination Sequence:
#
# PCOD9185401 Si02
#       7
#     4   4   8   8   8   8   8
#     4  11  26  36  55  83 120 152 190 228 299 348
#     4  11  23  36  56  82 121 155 179 239 295 358
#     4  11  23  38  57  86 117 154 190 237 286 349
#     4  10  20  34  60  85 114 149 195 238 280 335
#     4  11  22  35  62  86 118 147 194 240 288 336
#     4  10  20  36  57  87 116 151 187 234 294 343
#     4  10  19  34  56  89 114 146 194 239 282 334
#
# _framework density 18.190166000000001
#
# number of rings (size 3 to 8) (size 9 to 14) (size 15 to 20)
#    0.000    1.500    3.333    2.250    4.667    0.000 
#    0.000    0.417    0.000    3.000    0.000    0.000 
#    0.000    0.000    0.000    0.000    0.000    0.000 
#
# Total GULP energy -133755.382410 kJ/mol
# GULP energy per Si atom -5573.140934 kJ/mol
# Density = 1.814876 g / cm^3
# Si number density = 18.190166 Si / 1000 Ang^3
#
#
#
# Elastic Constant Matrix: (Units=GPa)
#
#
# Indices 1 2 3 4 5 6 
#
# 1 93.5919 20.7649 14.9506 0.0000 0.4521 0.0000
# 2 20.7649 101.3739 48.8456 0.0000 7.1845 0.0000
# 3 14.9506 48.8456 133.4864 0.0000 2.4462 0.0000
# 4 0.0000 0.0000 0.0000 23.9689 0.0000 10.2896
# 5 0.4521 7.1845 2.4462 0.0000 26.9650 0.0000
# 6 0.0000 0.0000 0.0000 10.2896 0.0000 27.1503
#
#
#
# Elastic Compliance Matrix: (Units=1/GPa)
#
#
# Indices 1 2 3 4 5 6 
#
# 1 0.011226 -0.002087 -0.000501 0.000000 0.000413 0.000000
# 2 -0.002087 0.012579 -0.004315 0.000000 -0.002925 0.000000
# 3 -0.000501 -0.004315 0.009121 0.000000 0.000331 0.000000
# 4 0.000000 0.000000 0.000000 0.049827 0.000000 -0.018884
# 5 0.000413 -0.002925 0.000331 0.000000 0.037827 0.000000
# 6 0.000000 0.000000 0.000000 -0.018884 0.000000 0.043989
#
#
# Mechanical properties :
#
#
# Convention : Reuss Voigt Hill
#
# Bulk Modulus (GPa) = 52.30827 55.28603 53.79715
# Shear Modulus (GPa) = 27.06377 31.87625 29.47001
#
# Velocity S-wave (km/s) = 3.86142 4.19070 4.02942
# Velocity P-wave (km/s) = 6.97850 7.33998 7.16152
#
# Compressibility (1/GPa) = 0.01911744
#
# Stress axis : x y z
#
# Youngs Moduli (GPa) = 89.08024 79.49989 109.64231
#
# Poissons Ratio (x) = 0.16594 0.05494
# Poissons Ratio (y) = 0.18594 0.47315
# Poissons Ratio (z) = 0.04464 0.34308
#
# Static dielectric constant tensor:
#      x y z
#    x 1.708290 0.000000 0.005620 
#    y 0.000000 1.587890 0.000000 
#    z 0.005620 0.000000 1.670880 
# 
# From -- ./inp_files/169146.got.cif
#   From: 2010.05.17/outbox.cif.g08.bks.cpg/sg12_85_cif.got.tgz:169146.got - 2010.06.03 13:09:07.
