data_PCOD9185055
_publ_section_title
;
Structure prediction by ZEFSAII (Michael W. Deem and Ramdas Pophale) SiO2 
 PCOD9185055
Probable space group: C 2/M
;
_chemical_formula_sum "Si O2"
_cell_formula_units_Z 48
_cell_length_a 17.795481
_cell_length_b 19.682430
_cell_length_c 12.143255
_cell_angle_alpha 90.000000
_cell_angle_beta 150.878806
_cell_angle_gamma 90.000000
_cell_volume 2069.893155
_symmetry_space_group_name_H-M "C 2/M"
_symmetry_group_IT_number 12
_symmetry_cell_setting 'monoclinic'
loop_
_space_group_symop_operation_xyz
x,y,z
-x,y,-z
-x,-y,-z
x,-y,z
1/2+x,1/2+y,z
1/2-x,1/2+y,-z
1/2-x,1/2-y,-z
1/2+x,1/2-y,z
loop_
_atom_site_type_symbol
_atom_site_label
_atom_site_fract_x
_atom_site_fract_y
_atom_site_fract_z
Si Si1 0.935000 0.076111 0.690903
Si Si2 0.394161 0.075678 0.608368
Si Si3 0.171241 0.795863 0.563798
Si Si4 0.958971 0.295132 0.790635
Si Si5 0.723498 0.075427 0.790653
Si Si6 0.757731 0.724098 0.133656
O O1 0.777031 0.084336 0.557268
O O2 0.928296 0.138092 0.595948
O O3 0.932532 0.000000 0.638011
O O4 0.088528 0.077789 0.963125
O O5 0.506948 0.131005 0.806989
O O6 0.355408 0.079752 0.429553
O O7 0.448774 0.000000 0.703714
O O8 0.132990 0.733247 0.433898
O O9 0.348322 0.808555 0.752582
O O10 0.154771 0.770848 0.666415
O O11 0.085677 0.236370 0.963290
O O12 0.683919 0.147171 0.794926
O O13 0.683167 0.000000 0.784897
O O14 0.750000 0.750000 0.000000
#
# Coordination Sequence:
#
# PCOD9185055 Si02
#       6
#     8   8   8   8   8   8
#     4   9  17  31  55  87 117 146 185 236 290 337
#     4   9  17  31  55  87 117 146 185 236 290 337
#     4  10  20  36  59  84 112 146 187 236 285 335
#     4  10  20  36  59  84 112 146 187 236 285 335
#     4  10  19  34  55  83 115 146 187 237 287 332
#     4  12  25  39  56  83 117 154 191 231 278 344
#
# _framework density 23.189603000000002
#
# number of rings (size 3 to 8) (size 9 to 14) (size 15 to 20)
#    0.000    2.000    3.333    1.000    0.000    4.000 
#    0.000    2.500    0.000    8.000    0.000    0.000 
#    0.000    0.000    0.000    0.000    0.000    0.000 
#
# Total GULP energy -133820.473100 kJ/mol
# GULP energy per Si atom -5575.853046 kJ/mol
# Density = 2.313682 g / cm^3
# Si number density = 23.189603 Si / 1000 Ang^3
#
#
#
# Elastic Constant Matrix: (Units=GPa)
#
#
# Indices 1 2 3 4 5 6 
#
# 1 69.2709 39.0366 28.8781 0.0000 -13.2739 0.0000
# 2 39.0366 207.3441 36.1789 0.0000 -27.6098 0.0000
# 3 28.8781 36.1789 50.4553 0.0000 -2.1410 0.0000
# 4 0.0000 0.0000 0.0000 40.1044 0.0000 -8.4924
# 5 -13.2739 -27.6098 -2.1410 0.0000 44.6741 0.0000
# 6 0.0000 0.0000 0.0000 -8.4924 0.0000 9.2592
#
#
#
# Elastic Compliance Matrix: (Units=1/GPa)
#
#
# Indices 1 2 3 4 5 6 
#
# 1 0.020525 -0.001394 -0.010547 0.000000 0.004732 0.000000
# 2 -0.001394 0.006113 -0.003450 0.000000 0.003199 0.000000
# 3 -0.010547 -0.003450 0.028164 0.000000 -0.003916 0.000000
# 4 0.000000 0.000000 0.000000 0.030945 0.000000 0.028382
# 5 0.004732 0.003199 -0.003916 0.000000 0.025579 0.000000
# 6 0.000000 0.000000 0.000000 0.028382 0.000000 0.134032
#
#
# Mechanical properties :
#
#
# Convention : Reuss Voigt Hill
#
# Bulk Modulus (GPa) = 41.63199 59.47306 50.55253
# Shear Modulus (GPa) = 17.59648 33.67266 25.63457
#
# Velocity S-wave (km/s) = 2.75764 3.81472 3.32841
# Velocity P-wave (km/s) = 5.30389 6.71602 6.05129
#
# Compressibility (1/GPa) = 0.02401999
#
# Stress axis : x y z
#
# Youngs Moduli (GPa) = 48.72023 163.57968 35.50634
#
# Poissons Ratio (x) = 0.22800 0.37450
# Poissons Ratio (y) = 0.06791 0.12250
# Poissons Ratio (z) = 0.51388 0.56435
#
# Static dielectric constant tensor:
#      x y z
#    x 1.906750 0.000000 0.057170 
#    y 0.000000 1.848560 0.000000 
#    z 0.057170 0.000000 1.963360 
# 
# From -- ./inp_files/133744.got.cif
#   From: 2010.05.17/outbox.cif.g08.bks.cpg/sg12_67_cif.got.tgz:133744.got - 2010.06.03 13:09:07.
