data_PCOD9185888
_publ_section_title
;
Structure prediction by ZEFSAII (Michael W. Deem and Ramdas Pophale) SiO2 
 PCOD9185888
Probable space group: C 2/M
;
_chemical_formula_sum "Si O2"
_cell_formula_units_Z 48
_cell_length_a 14.972862
_cell_length_b 11.378894
_cell_length_c 16.396627
_cell_angle_alpha 90.000000
_cell_angle_beta 117.863351
_cell_angle_gamma 90.000000
_cell_volume 2469.695836
_symmetry_space_group_name_H-M "C 2/M"
_symmetry_group_IT_number 12
_symmetry_cell_setting 'monoclinic'
loop_
_space_group_symop_operation_xyz
x,y,z
-x,y,-z
-x,-y,-z
x,-y,z
1/2+x,1/2+y,z
1/2-x,1/2+y,-z
1/2-x,1/2-y,-z
1/2+x,1/2-y,z
loop_
_atom_site_type_symbol
_atom_site_label
_atom_site_fract_x
_atom_site_fract_y
_atom_site_fract_z
Si Si1 0.262823 0.875058 0.606787
Si Si2 0.299908 0.360557 0.070851
Si Si3 0.894581 0.741810 0.536591
Si Si4 0.728009 0.224042 0.214741
Si Si5 0.895246 0.366745 0.367765
Si Si6 0.525519 0.633867 0.107084
O O1 0.150649 0.858730 0.522593
O O2 0.333032 0.780869 0.592250
O O3 0.262716 0.858414 0.702685
O O4 0.305923 0.000000 0.602293
O O5 0.277950 0.500000 0.037888
O O6 0.262565 0.339112 0.147018
O O7 0.420714 0.346374 0.110369
O O8 0.250000 0.250000 0.000000
O O9 0.867831 0.649680 0.451845
O O10 0.011706 0.723056 0.603305
O O11 0.804717 0.329712 0.270479
O O12 0.615344 0.275689 0.161709
O O13 0.927501 0.500000 0.367106
O O14 0.559662 0.500000 0.139099
O O15 0.500000 0.640300 0.000000
#
# Coordination Sequence:
#
# PCOD9185888 Si02
#       6
#     8   8   8   8   8   8
#     4  10  20  36  56  81 119 154 193 247 303 362
#     4  11  24  44  67  92 127 165 207 257 317 378
#     4   9  19  35  55  80 113 154 200 239 298 354
#     4  11  23  37  61  92 124 154 205 251 311 365
#     4  10  19  34  58  85 115 152 201 253 292 351
#     4  10  21  41  66  90 122 164 206 254 310 379
#
# _framework density 19.435590999999999
#
# number of rings (size 3 to 8) (size 9 to 14) (size 15 to 20)
#    0.000    1.833    1.667    3.000    2.333    0.667 
#    0.000   10.833    0.000    0.000    0.000    0.000 
#    0.000    0.000    0.000    0.000    0.000    0.000 
#
# Total GULP energy -133678.036828 kJ/mol
# GULP energy per Si atom -5569.918201 kJ/mol
# Density = 1.939136 g / cm^3
# Si number density = 19.435591 Si / 1000 Ang^3
#
#
#
# Elastic Constant Matrix: (Units=GPa)
#
#
# Indices 1 2 3 4 5 6 
#
# 1 118.7015 36.1411 36.5514 0.0000 -1.6235 0.0000
# 2 36.1411 76.3406 35.0445 0.0000 4.4377 0.0000
# 3 36.5514 35.0445 70.4112 0.0000 -5.0444 0.0000
# 4 0.0000 0.0000 0.0000 -0.9185 0.0000 -0.0109
# 5 -1.6235 4.4377 -5.0444 0.0000 34.3486 0.0000
# 6 0.0000 0.0000 0.0000 -0.0109 0.0000 22.6886
#
#
#
# Elastic Compliance Matrix: (Units=1/GPa)
#
#
# Indices 1 2 3 4 5 6 
#
# 1 0.010614 -0.003277 -0.003853 0.000000 0.000359 0.000000
# 2 -0.003277 0.018410 -0.007724 0.000000 -0.003668 0.000000
# 3 -0.003853 -0.007724 0.020319 0.000000 0.003800 0.000000
# 4 0.000000 0.000000 0.000000 -1.088755 0.000000 -0.000524
# 5 0.000359 -0.003668 0.003800 0.000000 0.030162 0.000000
# 6 0.000000 0.000000 0.000000 -0.000524 0.000000 0.044075
#
#
# Mechanical properties :
#
#
# Convention : Reuss Voigt Hill
#
# Bulk Modulus (GPa) = 50.93222 53.43634 52.18428
# Shear Modulus (GPa) = -5.38258 21.73817 8.17779
#
# Velocity S-wave (km/s) = -1.66597 3.34798 2.05348
# Velocity P-wave (km/s) = 4.74994 6.51913 5.70355
#
# Compressibility (1/GPa) = 0.01963394
#
# Stress axis : x y z
#
# Youngs Moduli (GPa) = 94.21935 54.31946 49.21454
#
# Poissons Ratio (x) = 0.17799 0.18962
# Poissons Ratio (y) = 0.30874 0.38015
# Poissons Ratio (z) = 0.36303 0.41959
#
# Static dielectric constant tensor:
#      x y z
#    x 1.707320 0.000000 0.008230 
#    y 0.000000 1.723130 0.000000 
#    z 0.008230 0.000000 1.666650 
# 
# From -- ./inp_files/213533.got.cif
#   From: 2010.05.17/outbox.cif.g08.bks.cpg/sg12_107_cif.got.tgz:213533.got - 2010.06.03 13:09:07.
