data_PCOD9185644
_publ_section_title
;
Structure prediction by ZEFSAII (Michael W. Deem and Ramdas Pophale) SiO2 
 PCOD9185644
Probable space group: C 2/M
;
_chemical_formula_sum "Si O2"
_cell_formula_units_Z 40
_cell_length_a 22.923107
_cell_length_b 13.329891
_cell_length_c 12.074900
_cell_angle_alpha 90.000000
_cell_angle_beta 32.354868
_cell_angle_gamma 90.000000
_cell_volume 1974.551773
_symmetry_space_group_name_H-M "C 2/M"
_symmetry_group_IT_number 12
_symmetry_cell_setting 'monoclinic'
loop_
_space_group_symop_operation_xyz
x,y,z
-x,y,-z
-x,-y,-z
x,-y,z
1/2+x,1/2+y,z
1/2-x,1/2+y,-z
1/2-x,1/2-y,-z
1/2+x,1/2-y,z
loop_
_atom_site_type_symbol
_atom_site_label
_atom_site_fract_x
_atom_site_fract_y
_atom_site_fract_z
Si Si1 0.265913 0.284822 0.847863
Si Si2 0.000000 0.766985 0.500000
Si Si3 0.866525 0.610806 0.337612
Si Si4 0.813418 0.882785 0.192199
Si Si5 0.000000 0.773467 0.000000
Si Si6 0.054566 0.610199 0.220488
O O1 0.389630 0.323751 0.643668
O O2 0.246070 0.189204 0.800518
O O3 0.250000 0.250000 0.000000
O O4 0.169770 0.362995 0.979617
O O5 0.972290 0.694029 0.646526
O O6 0.865567 0.500000 0.285112
O O7 0.753731 0.624459 0.584576
O O8 0.959584 0.609600 0.282772
O O9 0.905723 0.699697 0.196413
O O10 0.811066 0.000000 0.163076
O O11 0.936313 0.842988 0.014359
O O12 0.060878 0.500000 0.262474
#
# Coordination Sequence:
#
# PCOD9185644 Si02
#       6
#     8   4   8   8   4   8
#     4  10  21  36  57  88 117 149 189 243 292 341
#     4  10  19  34  61  82 112 152 195 238 291 350
#     4  10  21  37  60  87 115 152 195 243 290 340
#     4  11  23  40  61  87 119 156 199 241 290 353
#     4  12  22  40  62  88 120 156 194 248 300 344
#     4  10  19  34  57  85 112 148 193 238 290 346
#
# _framework density 20.257763000000001
#
# number of rings (size 3 to 8) (size 9 to 14) (size 15 to 20)
#    0.000    1.600    4.000    1.500    0.000    3.200 
#    0.000    0.500    0.000    7.200    0.000    0.000 
#    0.000    0.000    0.000    0.000    0.000    0.000 
#
# Total GULP energy -111552.773443 kJ/mol
# GULP energy per Si atom -5577.638672 kJ/mol
# Density = 2.021166 g / cm^3
# Si number density = 20.257763 Si / 1000 Ang^3
#
#
#
# Elastic Constant Matrix: (Units=GPa)
#
#
# Indices 1 2 3 4 5 6 
#
# 1 35.8342 5.2817 -0.6185 0.0000 -12.6545 0.0000
# 2 5.2817 37.1504 16.6994 0.0000 -3.3197 0.0000
# 3 -0.6185 16.6994 72.7072 0.0000 -21.5980 0.0000
# 4 0.0000 0.0000 0.0000 -0.3816 0.0000 32.5450
# 5 -12.6545 -3.3197 -21.5980 0.0000 34.1114 0.0000
# 6 0.0000 0.0000 0.0000 32.5450 0.0000 -17.5948
#
#
#
# Elastic Compliance Matrix: (Units=1/GPa)
#
#
# Indices 1 2 3 4 5 6 
#
# 1 0.034811 -0.006481 0.006692 0.000000 0.016521 0.000000
# 2 -0.006481 0.031311 -0.008690 0.000000 -0.004859 0.000000
# 3 0.006692 -0.008690 0.020067 0.000000 0.014343 0.000000
# 4 0.000000 0.000000 0.000000 0.016718 0.000000 0.030923
# 5 0.016521 -0.004859 0.014343 0.000000 0.044053 0.000000
# 6 0.000000 0.000000 0.000000 0.030923 0.000000 0.000363
#
#
# Mechanical properties :
#
#
# Convention : Reuss Voigt Hill
#
# Bulk Modulus (GPa) = 14.44432 20.93524 17.68978
# Shear Modulus (GPa) = 26.68691 11.51561 19.10126
#
# Velocity S-wave (km/s) = 3.63349 2.38681 3.07402
# Velocity P-wave (km/s) = 4.97481 4.23706 4.62069
#
# Compressibility (1/GPa) = 0.06923137
#
# Stress axis : x y z
#
# Youngs Moduli (GPa) = 28.72645 31.93753 49.83248
#
# Poissons Ratio (x) = 0.20699 -0.33349
# Poissons Ratio (y) = 0.18618 0.43305
# Poissons Ratio (z) = -0.19224 0.27754
#
# Static dielectric constant tensor:
#      x y z
#    x 1.618140 0.000000 -0.121970 
#    y 0.000000 1.714750 0.000000 
#    z -0.121970 0.000000 1.637560 
# 
# From -- ./inp_files/245274.got.cif
#   From: 2010.05.17/outbox.cif.g08.bks.cpg/sg12_123_cif.got.tgz:245274.got - 2010.06.03 13:09:07.
