data_PCOD9185562
_publ_section_title
;
Structure prediction by ZEFSAII (Michael W. Deem and Ramdas Pophale) SiO2 
 PCOD9185562
Probable space group: C 2/M
;
_chemical_formula_sum "Si O2"
_cell_formula_units_Z 40
_cell_length_a 20.269066
_cell_length_b 17.879674
_cell_length_c 8.353210
_cell_angle_alpha 90.000000
_cell_angle_beta 133.317460
_cell_angle_gamma 90.000000
_cell_volume 2202.509418
_symmetry_space_group_name_H-M "C 2/M"
_symmetry_group_IT_number 12
_symmetry_cell_setting 'monoclinic'
loop_
_space_group_symop_operation_xyz
x,y,z
-x,y,-z
-x,-y,-z
x,-y,z
1/2+x,1/2+y,z
1/2-x,1/2+y,-z
1/2-x,1/2-y,-z
1/2+x,1/2-y,z
loop_
_atom_site_type_symbol
_atom_site_label
_atom_site_fract_x
_atom_site_fract_y
_atom_site_fract_z
Si Si1 0.928268 0.416240 0.023282
Si Si2 0.943906 0.258745 0.178368
Si Si3 0.636972 0.276801 0.614578
Si Si4 0.789990 0.197788 0.708091
Si Si5 0.280113 0.414840 0.428714
O O1 0.943033 0.500000 0.113204
O O2 0.827596 0.413356 0.782274
O O3 0.937059 0.348481 0.160836
O O4 0.000000 0.403956 0.000000
O O5 0.898565 0.227137 0.264191
O O6 0.049526 0.238473 0.357809
O O7 0.885254 0.226617 0.934246
O O8 0.713975 0.213557 0.716147
O O9 0.676593 0.356663 0.625515
O O10 0.750000 0.250000 0.500000
O O11 0.796950 0.117907 0.634665
O O12 0.312025 0.500000 0.464032
#
# Coordination Sequence:
#
# PCOD9185562 Si02
#       5
#     8   8   8   8   8
#     4  10  20  34  57  86 115 146 181 234 290 335
#     4  11  21  36  59  86 115 151 196 227 283 339
#     4  10  22  37  57  86 115 154 190 234 277 344
#     4  10  19  34  57  83 110 146 192 234 273 333
#     4  10  21  38  57  84 115 149 189 238 291 330
#
# _framework density 18.161104000000002
#
# number of rings (size 3 to 8) (size 9 to 14) (size 15 to 20)
#    0.000    1.800    4.000    1.800    2.800    0.000 
#    0.000    8.000    0.000    0.000    0.000    0.000 
#    0.000    0.000    0.000    0.000    0.000    0.000 
#
# Total GULP energy -111515.878371 kJ/mol
# GULP energy per Si atom -5575.793919 kJ/mol
# Density = 1.811977 g / cm^3
# Si number density = 18.161104 Si / 1000 Ang^3
#
#
#
# Elastic Constant Matrix: (Units=GPa)
#
#
# Indices 1 2 3 4 5 6 
#
# 1 61.2442 55.2748 15.4623 0.0000 7.4462 0.0000
# 2 55.2748 147.2554 32.7014 0.0000 0.1208 0.0000
# 3 15.4623 32.7014 97.7833 0.0000 14.0120 0.0000
# 4 0.0000 0.0000 0.0000 21.2384 0.0000 2.9756
# 5 7.4462 0.1208 14.0120 0.0000 22.7392 0.0000
# 6 0.0000 0.0000 0.0000 2.9756 0.0000 21.0588
#
#
#
# Elastic Compliance Matrix: (Units=1/GPa)
#
#
# Indices 1 2 3 4 5 6 
#
# 1 0.026271 -0.009951 0.000438 0.000000 -0.008819 0.000000
# 2 -0.009951 0.011160 -0.002870 0.000000 0.004968 0.000000
# 3 0.000438 -0.002870 0.012214 0.000000 -0.007655 0.000000
# 4 0.000000 0.000000 0.000000 0.048035 0.000000 -0.006787
# 5 -0.008819 0.004968 -0.007655 0.000000 0.051555 0.000000
# 6 0.000000 0.000000 0.000000 -0.006787 0.000000 0.048445
#
#
# Mechanical properties :
#
#
# Convention : Reuss Voigt Hill
#
# Bulk Modulus (GPa) = 40.19790 57.01778 48.60784
# Shear Modulus (GPa) = 21.66924 26.53024 24.09974
#
# Velocity S-wave (km/s) = 3.45797 3.82622 3.64675
# Velocity P-wave (km/s) = 6.17459 7.14029 6.67492
#
# Compressibility (1/GPa) = 0.02487692
#
# Stress axis : x y z
#
# Youngs Moduli (GPa) = 38.06439 89.60825 81.87113
#
# Poissons Ratio (x) = 0.89172 -0.03582
# Poissons Ratio (y) = 0.37879 0.23501
# Poissons Ratio (z) = -0.01666 0.25721
#
# Static dielectric constant tensor:
#      x y z
#    x 1.664540 0.000000 -0.011980 
#    y 0.000000 1.640300 0.000000 
#    z -0.011980 0.000000 1.633430 
# 
# From -- ./inp_files/60361.got.cif
#   From: 2010.05.17/outbox.cif.g08.bks.cpg/sg12_31_cif.got.tgz:60361.got - 2010.06.03 13:09:07.
