data_PCOD9185390
_publ_section_title
;
Structure prediction by ZEFSAII (Michael W. Deem and Ramdas Pophale) SiO2 
 PCOD9185390
Probable space group: C 2/M
;
_chemical_formula_sum "Si O2"
_cell_formula_units_Z 48
_cell_length_a 12.329321
_cell_length_b 14.862878
_cell_length_c 21.483025
_cell_angle_alpha 90.000000
_cell_angle_beta 40.442821
_cell_angle_gamma 90.000000
_cell_volume 2553.723967
_symmetry_space_group_name_H-M "C 2/M"
_symmetry_group_IT_number 12
_symmetry_cell_setting 'monoclinic'
loop_
_space_group_symop_operation_xyz
x,y,z
-x,y,-z
-x,-y,-z
x,-y,z
1/2+x,1/2+y,z
1/2-x,1/2+y,-z
1/2-x,1/2-y,-z
1/2+x,1/2-y,z
loop_
_atom_site_type_symbol
_atom_site_label
_atom_site_fract_x
_atom_site_fract_y
_atom_site_fract_z
Si Si1 0.003564 0.610548 0.863331
Si Si2 0.135454 0.839710 0.252742
Si Si3 0.553783 0.393729 0.909405
Si Si4 0.017564 0.000000 0.387168
Si Si5 0.564124 0.853100 0.248224
Si Si6 0.299405 0.391573 0.917677
Si Si7 0.781756 0.500000 0.385677
O O1 0.020322 0.500000 0.854191
O O2 0.930745 0.643241 0.829379
O O3 0.181436 0.656589 0.796194
O O4 0.877294 0.632986 0.974291
O O5 0.033188 0.913828 0.335582
O O6 0.048075 0.743576 0.287027
O O7 0.170305 0.863099 0.165657
O O8 0.512164 0.500000 0.930368
O O9 0.751181 0.385879 0.812996
O O10 0.443668 0.356724 0.901028
O O11 0.500000 0.354643 0.000000
O O12 0.170784 0.000000 0.370617
O O13 0.849823 0.000000 0.500878
O O14 0.407683 0.915830 0.332644
O O15 0.303393 0.500000 0.915280
#
# Coordination Sequence:
#
# PCOD9185390 Si02
#       7
#     8   8   8   4   8   8   4
#     4  11  20  41  63  90 131 177 219 251 299 371
#     4  12  24  38  64  96 130 162 209 268 318 377
#     4  10  19  34  56  87 127 172 208 243 293 371
#     4  11  24  48  73  92 120 156 222 267 331 383
#     4  12  23  38  66  93 129 163 212 262 312 371
#     4  10  21  35  60  89 131 177 209 250 311 365
#     4  11  24  48  75  91 114 167 212 277 322 383
#
# _framework density 18.79608
#
# number of rings (size 3 to 8) (size 9 to 14) (size 15 to 20)
#    0.000    1.000    6.667    0.500    2.333    4.000 
#    0.000    0.000    0.000    2.000    0.000    0.000 
#    0.000    0.000    0.000    0.000    0.000    0.000 
#
# Total GULP energy -134061.273397 kJ/mol
# GULP energy per Si atom -5585.886392 kJ/mol
# Density = 1.875330 g / cm^3
# Si number density = 18.796080 Si / 1000 Ang^3
#
#
#
# Elastic Constant Matrix: (Units=GPa)
#
#
# Indices 1 2 3 4 5 6 
#
# 1 47.8659 27.6105 20.9531 -0.0001 0.0175 0.0000
# 2 27.6105 101.8776 31.2012 0.0000 0.6523 0.0000
# 3 20.9531 31.2012 110.0382 -0.0001 -2.3606 0.0000
# 4 -0.0001 0.0000 -0.0001 -1.9631 0.0000 3.8968
# 5 0.0175 0.6523 -2.3606 0.0000 28.9481 0.0000
# 6 0.0000 0.0000 0.0000 3.8968 0.0000 21.9464
#
#
#
# Elastic Compliance Matrix: (Units=1/GPa)
#
#
# Indices 1 2 3 4 5 6 
#
# 1 0.025755 -0.005997 -0.003207 0.000000 -0.000142 0.000000
# 2 -0.005997 0.012153 -0.002314 0.000000 -0.000459 0.000000
# 3 -0.003207 -0.002314 0.010374 0.000000 0.000900 0.000000
# 4 0.000000 0.000000 0.000000 -0.376654 0.000000 0.066878
# 5 -0.000142 -0.000459 0.000900 0.000000 0.034628 0.000000
# 6 0.000000 0.000000 0.000000 0.066878 0.000000 0.033691
#
#
# Mechanical properties :
#
#
# Convention : Reuss Voigt Hill
#
# Bulk Modulus (GPa) = 39.61010 46.59014 43.10012
# Shear Modulus (GPa) = -21.87191 21.78741 -0.04225
#
# Velocity S-wave (km/s) = -3.41492 3.40832 -0.15009
# Velocity P-wave (km/s) = 2.36018 6.35058 4.79063
#
# Compressibility (1/GPa) = 0.02524608
#
# Stress axis : x y z
#
# Youngs Moduli (GPa) = 38.82784 82.28743 96.39717
#
# Poissons Ratio (x) = 0.49347 0.30912
# Poissons Ratio (y) = 0.23285 0.22304
# Poissons Ratio (z) = 0.12451 0.19039
#
# Static dielectric constant tensor:
#      x y z
#    x 1.663090 0.000000 0.003870 
#    y 0.000000 1.714100 0.000000 
#    z 0.003870 0.000000 1.618470 
# 
# From -- ./inp_files/305649.got.cif
#   From: 2010.05.17/outbox.cif.g08.bks.cpg/sg12_153_cif.got.tgz:305649.got - 2010.06.03 13:09:07.
