data_PCOD9185226
_publ_section_title
;
Structure prediction by ZEFSAII (Michael W. Deem and Ramdas Pophale) SiO2 
 PCOD9185226
Probable space group: C 2/M
;
_chemical_formula_sum "Si O2"
_cell_formula_units_Z 64
_cell_length_a 20.895756
_cell_length_b 7.735348
_cell_length_c 33.999635
_cell_angle_alpha 90.000000
_cell_angle_beta 145.982974
_cell_angle_gamma 90.000000
_cell_volume 3074.433625
_symmetry_space_group_name_H-M "C 2/M"
_symmetry_group_IT_number 12
_symmetry_cell_setting 'monoclinic'
loop_
_space_group_symop_operation_xyz
x,y,z
-x,y,-z
-x,-y,-z
x,-y,z
1/2+x,1/2+y,z
1/2-x,1/2+y,-z
1/2-x,1/2-y,-z
1/2+x,1/2-y,z
loop_
_atom_site_type_symbol
_atom_site_label
_atom_site_fract_x
_atom_site_fract_y
_atom_site_fract_z
Si Si1 0.991018 0.709100 0.950262
Si Si2 0.362366 0.212050 0.662828
Si Si3 0.235073 0.294134 0.799514
Si Si4 0.125824 0.293255 0.420857
Si Si5 0.224627 0.295126 0.031867
Si Si6 0.602370 0.210269 0.654735
Si Si7 0.123510 0.203205 0.576028
Si Si8 0.894622 0.707133 0.188234
O O1 0.993008 0.500000 0.951444
O O2 0.869535 0.762240 0.871044
O O3 0.000000 0.768024 0.000000
O O4 0.101843 0.775512 0.983551
O O5 0.385021 0.267622 0.629507
O O6 0.238610 0.274630 0.614475
O O7 0.473679 0.267526 0.744304
O O8 0.359021 0.000000 0.661978
O O9 0.215069 0.500000 0.789329
O O10 0.182011 0.231010 0.731505
O O11 0.172184 0.225511 0.806884
O O12 0.113734 0.500000 0.413093
O O13 0.250000 0.250000 0.500000
O O14 0.025239 0.231466 0.398084
O O15 0.216369 0.500000 0.030170
O O16 0.322899 0.243649 0.112650
O O17 0.250000 0.250000 0.000000
O O18 0.634629 0.278272 0.628501
O O19 0.605477 0.000000 0.654120
O O20 0.000000 0.277842 0.500000
O O21 0.120436 0.000000 0.563943
O O22 0.898789 0.500000 0.194209
#
# Coordination Sequence:
#
# PCOD9185226 Si02
#       8
#     8   8   8   8   8   8   8   8
#     4  10  21  38  59  84 115 151 189 234 287 335
#     4   9  18  35  58  80 109 149 190 229 278 336
#     4  10  20  35  59  88 115 148 191 236 283 340
#     4  10  19  34  56  81 109 143 184 231 277 328
#     4  11  24  41  60  85 119 153 188 234 284 337
#     4  10  21  37  56  82 115 147 182 230 286 335
#     4  10  21  37  57  82 112 150 194 234 276 335
#     4  10  19  36  61  85 112 150 192 233 284 340
#
# _framework density 20.816841
#
# number of rings (size 3 to 8) (size 9 to 14) (size 15 to 20)
#    0.000    2.000    2.500    1.125    0.000    4.500 
#    0.000    5.625    0.000    0.000    0.000    0.000 
#    0.000    0.000    0.000    0.000    0.000    0.000 
#
# Total GULP energy -178715.702282 kJ/mol
# GULP energy per Si atom -5584.865696 kJ/mol
# Density = 2.076946 g / cm^3
# Si number density = 20.816841 Si / 1000 Ang^3
#
#
#
# Elastic Constant Matrix: (Units=GPa)
#
#
# Indices 1 2 3 4 5 6 
#
# 1 89.5054 -1.7295 8.4734 0.0010 8.0705 -0.0011
# 2 -1.7295 28.3108 -4.9183 0.0015 4.6207 -0.0020
# 3 8.4734 -4.9183 102.5395 0.0008 8.6601 -0.0008
# 4 0.0010 0.0015 0.0008 20.5689 -0.0002 -7.2838
# 5 8.0705 4.6207 8.6601 -0.0002 36.8326 0.0001
# 6 -0.0011 -0.0020 -0.0008 -7.2838 0.0001 17.0068
#
#
#
# Elastic Compliance Matrix: (Units=1/GPa)
#
#
# Indices 1 2 3 4 5 6 
#
# 1 0.011480 0.000985 -0.000692 0.000000 -0.002476 0.000001
# 2 0.000985 0.036618 0.002123 -0.000002 -0.005309 0.000004
# 3 -0.000692 0.002123 0.010122 0.000000 -0.002495 0.000001
# 4 0.000000 -0.000002 0.000000 0.057309 0.000001 0.024545
# 5 -0.002476 -0.005309 -0.002495 0.000001 0.028945 -0.000001
# 6 0.000001 0.000004 0.000001 0.024545 -0.000001 0.069312
#
#
# Mechanical properties :
#
#
# Convention : Reuss Voigt Hill
#
# Bulk Modulus (GPa) = 15.85975 24.88965 20.37470
# Shear Modulus (GPa) = 21.74186 29.45034 25.59610
#
# Velocity S-wave (km/s) = 3.23528 3.76538 3.51035
# Velocity P-wave (km/s) = 4.64664 5.55757 5.12239
#
# Compressibility (1/GPa) = 0.06305270
#
# Stress axis : x y z
#
# Youngs Moduli (GPa) = 87.10517 27.30917 98.79401
#
# Poissons Ratio (x) = -0.02691 0.06839
# Poissons Ratio (y) = -0.08582 -0.20977
# Poissons Ratio (z) = 0.06030 -0.05799
#
# Static dielectric constant tensor:
#      x y z
#    x 3.387850 0.005060 1.814140 
#    y 0.005060 3.784150 0.005400 
#    z 1.814140 0.005400 3.632410 
# 
# From -- ./inp_files/378338.got.cif
#   From: 2010.05.17/outbox.cif.g08.bks.cpg/sg12_190_cif.got.tgz:378338.got - 2010.06.03 13:09:07.
