data_PCOD9185241
_publ_section_title
;
Structure prediction by ZEFSAII (Michael W. Deem and Ramdas Pophale) SiO2 
 PCOD9185241
Probable space group: C 2/M
;
_chemical_formula_sum "Si O2"
_cell_formula_units_Z 64
_cell_length_a 8.544575
_cell_length_b 31.637669
_cell_length_c 14.165752
_cell_angle_alpha 90.000000
_cell_angle_beta 56.977034
_cell_angle_gamma 90.000000
_cell_volume 3210.797254
_symmetry_space_group_name_H-M "C 2/M"
_symmetry_group_IT_number 12
_symmetry_cell_setting 'monoclinic'
loop_
_space_group_symop_operation_xyz
x,y,z
-x,y,-z
-x,-y,-z
x,-y,z
1/2+x,1/2+y,z
1/2-x,1/2+y,-z
1/2-x,1/2-y,-z
1/2+x,1/2-y,z
loop_
_atom_site_type_symbol
_atom_site_label
_atom_site_fract_x
_atom_site_fract_y
_atom_site_fract_z
Si Si1 0.567908 0.776593 0.270210
Si Si2 0.280332 0.103532 0.352650
Si Si3 0.314382 0.690613 0.526943
Si Si4 0.586903 0.450254 0.251512
Si Si5 0.961765 0.352617 0.858776
Si Si6 0.799755 0.126720 0.891616
Si Si7 0.208761 0.452788 0.468985
Si Si8 0.089155 0.809672 0.718539
O O1 0.375380 0.784790 0.390260
O O2 0.557482 0.806841 0.182074
O O3 0.743610 0.790893 0.273969
O O4 0.563186 0.727569 0.245138
O O5 0.192876 0.149482 0.402408
O O6 0.172175 0.073932 0.314624
O O7 0.483103 0.114789 0.242925
O O8 0.277852 0.080425 0.452432
O O9 0.500000 0.714729 0.500000
O O10 0.334007 0.679116 0.410740
O O11 0.633537 0.500000 0.233624
O O12 0.665108 0.422722 0.139630
O O13 0.364235 0.445888 0.337997
O O14 0.139426 0.357203 0.870845
O O15 0.781103 0.364212 0.978778
O O16 0.986608 0.151708 0.802976
O O17 0.247361 0.500000 0.494832
O O18 0.000000 0.451668 0.500000
#
# Coordination Sequence:
#
# PCOD9185241 Si02
#       8
#     8   8   8   8   8   8   8   8
#     4  11  24  39  58  87 117 152 194 240 289 344
#     4  10  19  34  56  81 111 148 187 230 284 336
#     4  11  21  36  57  84 119 153 188 233 286 342
#     4  10  20  36  59  87 116 149 191 236 288 347
#     4   9  21  40  58  81 112 148 191 239 285 339
#     4  10  21  40  61  82 113 152 193 241 293 340
#     4  10  20  32  49  77 111 144 180 226 279 337
#     4  12  23  38  60  85 116 153 195 238 289 347
#
# _framework density 19.932744
#
# number of rings (size 3 to 8) (size 9 to 14) (size 15 to 20)
#    0.000    1.625    0.000    6.750    0.000    6.000 
#    0.000    5.625    0.000    0.000    0.000    4.375 
#    0.000    0.000    0.000    0.000    0.000    0.000 
#
# Total GULP energy -178749.094864 kJ/mol
# GULP energy per Si atom -5585.909214 kJ/mol
# Density = 1.988738 g / cm^3
# Si number density = 19.932744 Si / 1000 Ang^3
#
#
#
# Elastic Constant Matrix: (Units=GPa)
#
#
# Indices 1 2 3 4 5 6 
#
# 1 44.3454 16.6319 3.8625 0.0000 -7.7619 0.0000
# 2 16.6319 107.4558 41.9935 0.0000 -2.2141 0.0000
# 3 3.8625 41.9935 112.6829 0.0000 1.7646 0.0000
# 4 0.0000 0.0000 0.0000 20.3604 0.0000 4.5881
# 5 -7.7619 -2.2141 1.7646 0.0000 15.0522 0.0000
# 6 0.0000 0.0000 0.0000 4.5881 0.0000 23.2205
#
#
#
# Elastic Compliance Matrix: (Units=1/GPa)
#
#
# Indices 1 2 3 4 5 6 
#
# 1 0.026257 -0.003941 0.000366 0.000000 0.012917 0.000000
# 2 -0.003941 0.011550 -0.004172 0.000000 0.000156 0.000000
# 3 0.000366 -0.004172 0.010442 0.000000 -0.001649 0.000000
# 4 0.000000 0.000000 0.000000 0.051404 0.000000 -0.010157
# 5 0.012917 0.000156 -0.001649 0.000000 0.073313 0.000000
# 6 0.000000 0.000000 0.000000 -0.010157 0.000000 0.045072
#
#
# Mechanical properties :
#
#
# Convention : Reuss Voigt Hill
#
# Bulk Modulus (GPa) = 30.52800 43.27334 36.90067
# Shear Modulus (GPa) = 20.45414 25.19304 22.82359
#
# Velocity S-wave (km/s) = 3.20685 3.55900 3.38750
# Velocity P-wave (km/s) = 5.39078 6.21654 5.81833
#
# Compressibility (1/GPa) = 0.03275681
#
# Stress axis : x y z
#
# Youngs Moduli (GPa) = 38.08451 86.58316 95.76410
#
# Poissons Ratio (x) = 0.34123 -0.03509
# Poissons Ratio (y) = 0.15010 0.39948
# Poissons Ratio (z) = -0.01395 0.36118
#
# Static dielectric constant tensor:
#      x y z
#    x 1.713220 0.000000 -0.009440 
#    y 0.000000 1.724430 0.000000 
#    z -0.009440 0.000000 1.715000 
# 
# From -- ./inp_files/201284.got.cif
#   From: 2010.05.17/outbox.cif.g08.bks.cpg/sg12_101_cif.got.tgz:201284.got - 2010.06.03 13:09:07.
