data_PCOD9185986
_publ_section_title
;
Structure prediction by ZEFSAII (Michael W. Deem and Ramdas Pophale) SiO2 
 PCOD9185986
Probable space group: C 2/M
;
_chemical_formula_sum "Si O2"
_cell_formula_units_Z 64
_cell_length_a 30.542971
_cell_length_b 8.613481
_cell_length_c 14.959865
_cell_angle_alpha 90.000000
_cell_angle_beta 52.496118
_cell_angle_gamma 90.000000
_cell_volume 3122.207256
_symmetry_space_group_name_H-M "C 2/M"
_symmetry_group_IT_number 12
_symmetry_cell_setting 'monoclinic'
loop_
_space_group_symop_operation_xyz
x,y,z
-x,y,-z
-x,-y,-z
x,-y,z
1/2+x,1/2+y,z
1/2-x,1/2+y,-z
1/2-x,1/2-y,-z
1/2+x,1/2-y,z
loop_
_atom_site_type_symbol
_atom_site_label
_atom_site_fract_x
_atom_site_fract_y
_atom_site_fract_z
Si Si1 0.513972 0.189224 0.724533
Si Si2 0.614246 0.815135 0.126051
Si Si3 0.545612 0.182745 0.880235
Si Si4 0.334775 0.683251 0.759476
Si Si5 0.285224 0.683505 0.115209
Si Si6 0.307629 0.324001 0.456231
Si Si7 0.848904 0.173321 0.204453
Si Si8 0.882911 0.314453 0.515898
O O1 0.449764 0.237117 0.803013
O O2 0.540799 0.242618 0.785150
O O3 0.555854 0.236827 0.593266
O O4 0.514082 0.000000 0.721274
O O5 0.634408 0.775365 0.200512
O O6 0.615835 0.000000 0.108140
O O7 0.659315 0.736086 0.004947
O O8 0.602201 0.205843 0.862283
O O9 0.535063 0.000000 0.884492
O O10 0.500000 0.256772 0.000000
O O11 0.341089 0.500000 0.765640
O O12 0.269890 0.726995 0.843510
O O13 0.360497 0.732881 0.632528
O O14 0.276181 0.500000 0.111676
O O15 0.297495 0.710286 0.205286
O O16 0.300875 0.500000 0.498867
O O17 0.250000 0.250000 0.500000
O O18 0.336977 0.330803 0.323917
O O19 0.341611 0.225824 0.485715
O O20 0.867290 0.000000 0.153940
O O21 0.883071 0.500000 0.529911
#
# Coordination Sequence:
#
# PCOD9185986 Si02
#       8
#     8   8   8   8   8   8   8   8
#     4   9  20  38  62  92 126 167 212 258 312 377
#     4  11  23  43  68  94 124 164 212 264 322 381
#     4  10  19  34  58  88 121 159 205 249 291 355
#     4  12  26  44  65  93 124 162 212 266 328 387
#     4  11  23  42  65  94 129 166 210 262 319 380
#     4  11  22  37  58  88 123 165 210 255 306 367
#     4  10  22  37  56  86 123 159 198 241 298 361
#     4  11  22  41  65  91 126 168 213 264 317 377
#
# _framework density 20.498317
#
# number of rings (size 3 to 8) (size 9 to 14) (size 15 to 20)
#    0.000    1.375    1.250    4.500    0.000    4.250 
#    0.000    6.250    0.000    0.000    0.000    0.000 
#    0.000    0.000    0.000    0.000    0.000    0.000 
#
# Total GULP energy -178646.968080 kJ/mol
# GULP energy per Si atom -5582.717752 kJ/mol
# Density = 2.045166 g / cm^3
# Si number density = 20.498317 Si / 1000 Ang^3
#
#
#
# Elastic Constant Matrix: (Units=GPa)
#
#
# Indices 1 2 3 4 5 6 
#
# 1 79.9970 -3.8835 7.0717 0.0000 -10.5037 0.0000
# 2 -3.8835 26.0747 6.2424 0.0000 -7.4404 0.0000
# 3 7.0717 6.2424 65.0236 0.0000 -13.2998 0.0000
# 4 0.0000 0.0000 0.0000 23.6604 0.0000 0.9184
# 5 -10.5037 -7.4404 -13.2998 0.0000 36.8386 0.0000
# 6 0.0000 0.0000 0.0000 0.9184 0.0000 28.5290
#
#
#
# Elastic Compliance Matrix: (Units=1/GPa)
#
#
# Indices 1 2 3 4 5 6 
#
# 1 0.013290 0.003381 -0.000923 0.000000 0.004139 0.000000
# 2 0.003381 0.041908 -0.002659 0.000000 0.008469 0.000000
# 3 -0.000923 -0.002659 0.016813 0.000000 0.005270 0.000000
# 4 0.000000 0.000000 0.000000 0.042318 0.000000 -0.001362
# 5 0.004139 0.008469 0.005270 0.000000 0.031938 0.000000
# 6 0.000000 0.000000 0.000000 -0.001362 0.000000 0.035096
#
#
# Mechanical properties :
#
#
# Convention : Reuss Voigt Hill
#
# Bulk Modulus (GPa) = 13.96481 21.10627 17.53554
# Shear Modulus (GPa) = 24.31512 28.58325 26.44918
#
# Velocity S-wave (km/s) = 3.44786 3.73824 3.59599
# Velocity P-wave (km/s) = 4.76212 5.38067 5.08081
#
# Compressibility (1/GPa) = 0.07160858
#
# Stress axis : x y z
#
# Youngs Moduli (GPa) = 75.24637 23.86175 59.47943
#
# Poissons Ratio (x) = -0.08069 0.05492
# Poissons Ratio (y) = -0.25444 0.15815
# Poissons Ratio (z) = 0.06948 0.06345
#
# Static dielectric constant tensor:
#      x y z
#    x 1.767190 0.000000 -0.051060 
#    y 0.000000 1.723900 0.000000 
#    z -0.051060 0.000000 1.830390 
# 
# From -- ./inp_files/249731.got.cif
#   From: 2010.05.17/outbox.cif.g08.bks.cpg/sg12_125_cif.got.tgz:249731.got - 2010.06.03 13:09:07.
