data_PCOD9185042
_publ_section_title
;
Structure prediction by ZEFSAII (Michael W. Deem and Ramdas Pophale) SiO2 
 PCOD9185042
Probable space group: C 2/M
;
_chemical_formula_sum "Si O2"
_cell_formula_units_Z 64
_cell_length_a 30.425611
_cell_length_b 7.749802
_cell_length_c 14.761887
_cell_angle_alpha 90.000000
_cell_angle_beta 129.408713
_cell_angle_gamma 90.000000
_cell_volume 2689.349939
_symmetry_space_group_name_H-M "C 2/M"
_symmetry_group_IT_number 12
_symmetry_cell_setting 'monoclinic'
loop_
_space_group_symop_operation_xyz
x,y,z
-x,y,-z
-x,-y,-z
x,-y,z
1/2+x,1/2+y,z
1/2-x,1/2+y,-z
1/2-x,1/2-y,-z
1/2+x,1/2-y,z
loop_
_atom_site_type_symbol
_atom_site_label
_atom_site_fract_x
_atom_site_fract_y
_atom_site_fract_z
Si Si1 0.891822 0.197461 0.688239
Si Si2 0.542704 0.198380 0.629633
Si Si3 0.592765 0.206209 0.871802
Si Si4 0.665346 0.700995 0.731386
Si Si5 0.681101 0.199248 0.246759
Si Si6 0.991409 0.791429 0.090949
Si Si7 0.788968 0.710781 0.919312
Si Si8 0.302172 0.801062 0.426125
O O1 0.864621 0.202547 0.753122
O O2 0.849401 0.290608 0.565047
O O3 0.954968 0.270857 0.779703
O O4 0.894937 0.000000 0.661364
O O5 0.500000 0.278037 0.500000
O O6 0.550970 0.278810 0.739951
O O7 0.607381 0.202124 0.678063
O O8 0.523073 0.000000 0.616265
O O9 0.566082 0.238547 0.934877
O O10 0.595638 0.000000 0.862363
O O11 0.657658 0.270983 0.951455
O O12 0.657823 0.500000 0.745463
O O13 0.724524 0.769910 0.852206
O O14 0.676003 0.714067 0.637517
O O15 0.693742 0.259294 0.161178
O O16 0.742734 0.213768 0.375319
O O17 0.663496 0.000000 0.219814
O O18 0.993698 0.000000 0.092085
O O19 0.000000 0.729025 0.000000
O O20 0.786672 0.500000 0.918101
O O21 0.289789 0.000000 0.389843
#
# Coordination Sequence:
#
# PCOD9185042 Si02
#       8
#     8   8   8   8   8   8   8   8
#     4  11  22  35  53  79 114 155 199 246 297 354
#     4  10  23  41  60  88 125 161 199 249 299 354
#     4  10  21  39  63  88 118 160 205 248 298 356
#     4  10  21  39  62  88 117 152 196 247 301 356
#     4  10  19  34  55  82 116 152 195 246 299 354
#     4  10  23  41  59  85 121 156 196 249 301 353
#     4   8  17  35  59  86 116 149 194 248 297 353
#     4  11  22  36  56  82 115 153 195 243 299 358
#
# _framework density 23.797574000000001
#
# number of rings (size 3 to 8) (size 9 to 14) (size 15 to 20)
#    0.000    2.000    0.000    4.125    1.750    2.500 
#    0.000    3.125    0.000    0.000    0.000    0.000 
#    0.000    0.000    0.000    0.000    0.000    0.000 
#
# Total GULP energy -178878.206058 kJ/mol
# GULP energy per Si atom -5589.943939 kJ/mol
# Density = 2.374341 g / cm^3
# Si number density = 23.797574 Si / 1000 Ang^3
#
#
#
# Elastic Constant Matrix: (Units=GPa)
#
#
# Indices 1 2 3 4 5 6 
#
# 1 99.7658 -14.5732 33.3207 0.0000 8.9131 0.0000
# 2 -14.5732 57.7169 3.3872 0.0000 -0.8624 0.0000
# 3 33.3207 3.3872 144.7415 0.0000 18.2288 0.0000
# 4 0.0000 0.0000 0.0000 4.0483 0.0000 -1.7473
# 5 8.9131 -0.8624 18.2288 0.0000 33.1239 0.0000
# 6 0.0000 0.0000 0.0000 -1.7473 0.0000 17.9173
#
#
#
# Elastic Compliance Matrix: (Units=1/GPa)
#
#
# Indices 1 2 3 4 5 6 
#
# 1 0.011444 0.003012 -0.002500 0.000000 -0.001625 0.000000
# 2 0.003012 0.018159 -0.001156 0.000000 0.000298 0.000000
# 3 -0.002500 -0.001156 0.007984 0.000000 -0.003751 0.000000
# 4 0.000000 0.000000 0.000000 0.257871 0.000000 0.025148
# 5 -0.001625 0.000298 -0.003751 0.000000 0.032699 0.000000
# 6 0.000000 0.000000 0.000000 0.025148 0.000000 0.058264
#
#
# Mechanical properties :
#
#
# Convention : Reuss Voigt Hill
#
# Bulk Modulus (GPa) = 27.54987 38.49928 33.02458
# Shear Modulus (GPa) = 12.50598 29.69054 21.09826
#
# Velocity S-wave (km/s) = 2.29490 3.53601 2.98077
# Velocity P-wave (km/s) = 4.31555 5.73447 5.07484
#
# Compressibility (1/GPa) = 0.03629781
#
# Stress axis : x y z
#
# Youngs Moduli (GPa) = 87.38451 55.06994 125.25193
#
# Poissons Ratio (x) = -0.16587 0.31316
# Poissons Ratio (y) = -0.26319 0.14478
# Poissons Ratio (z) = 0.21848 0.06366
#
# Static dielectric constant tensor:
#      x y z
#    x 1.885440 0.000000 -0.018930 
#    y 0.000000 1.851350 0.000000 
#    z -0.018930 0.000000 1.958830 
# 
# From -- ./inp_files/250036.got.cif
#   From: 2010.05.17/outbox.cif.g08.bks.cpg/sg12_126_cif.got.tgz:250036.got - 2010.06.03 13:09:07.
