data_PCOD9185270
_publ_section_title
;
Structure prediction by ZEFSAII (Michael W. Deem and Ramdas Pophale) SiO2 
 PCOD9185270
Probable space group: C 2/M
;
_chemical_formula_sum "Si O2"
_cell_formula_units_Z 60
_cell_length_a 15.145522
_cell_length_b 23.266253
_cell_length_c 7.996586
_cell_angle_alpha 90.000000
_cell_angle_beta 70.917329
_cell_angle_gamma 90.000000
_cell_volume 2662.987307
_symmetry_space_group_name_H-M "C 2/M"
_symmetry_group_IT_number 12
_symmetry_cell_setting 'monoclinic'
loop_
_space_group_symop_operation_xyz
x,y,z
-x,y,-z
-x,-y,-z
x,-y,z
1/2+x,1/2+y,z
1/2-x,1/2+y,-z
1/2-x,1/2-y,-z
1/2+x,1/2-y,z
loop_
_atom_site_type_symbol
_atom_site_label
_atom_site_fract_x
_atom_site_fract_y
_atom_site_fract_z
Si Si1 0.293296 0.437134 0.947999
Si Si2 0.732607 0.099160 0.634496
Si Si3 0.090508 0.307211 0.704899
Si Si4 0.662364 0.500000 0.641063
Si Si5 0.287695 0.675799 0.132442
Si Si6 0.385565 0.771242 0.932043
Si Si7 0.128767 0.812377 0.561422
Si Si8 0.998619 0.914245 0.307636
O O1 0.282790 0.500000 0.033080
O O2 0.231936 0.429622 0.818376
O O3 0.400926 0.427974 0.828637
O O4 0.268029 0.388425 0.091960
O O5 0.638106 0.131849 0.636658
O O6 0.770855 0.051246 0.484242
O O7 0.811247 0.150388 0.605346
O O8 0.115898 0.255875 0.559853
O O9 0.980335 0.297601 0.801650
O O10 0.128647 0.294962 0.870176
O O11 0.582539 0.449662 0.733290
O O12 0.198025 0.711637 0.135325
O O13 0.310463 0.680680 0.309799
O O14 0.375154 0.703247 0.975332
O O15 0.034096 0.847871 0.656424
O O16 0.000000 0.935588 0.500000
#
# Coordination Sequence:
#
# PCOD9185270 Si02
#       8
#     8   8   8   4   8   8   8   8
#     4  12  21  35  59  86 115 149 198 233 274 345
#     4  11  20  35  58  81 115 148 187 235 280 329
#     4  10  19  36  58  89 108 146 196 240 270 340
#     4  10  19  34  56  82 112 156 183 228 286 338
#     4  10  21  39  57  84 114 156 182 230 294 340
#     4   9  19  37  63  77 116 152 186 229 297 336
#     4  10  22  36  55  85 121 145 186 234 287 345
#     4  11  18  34  56  82 114 152 184 228 282 338
#
# _framework density 22.531088
#
# number of rings (size 3 to 8) (size 9 to 14) (size 15 to 20)
#    0.000    1.600    5.333    1.400    0.000    1.600 
#    4.800    1.333    1.467    1.600    0.000    3.733 
#    0.000    0.000    0.000    0.000    0.000    0.000 
#
# Total GULP energy -167075.344508 kJ/mol
# GULP energy per Si atom -5569.178150 kJ/mol
# Density = 2.247981 g / cm^3
# Si number density = 22.531088 Si / 1000 Ang^3
#
#
#
# Elastic Constant Matrix: (Units=GPa)
#
#
# Indices 1 2 3 4 5 6 
#
# 1 60.4711 17.8180 3.1816 0.0000 -5.7995 0.0000
# 2 17.8180 119.2420 5.3508 0.0000 -15.3178 0.0000
# 3 3.1816 5.3508 21.6347 0.0000 -11.8610 0.0000
# 4 0.0000 0.0000 0.0000 28.2854 0.0000 1.4836
# 5 -5.7995 -15.3178 -11.8610 0.0000 24.7517 0.0000
# 6 0.0000 0.0000 0.0000 1.4836 0.0000 16.5805
#
#
#
# Elastic Compliance Matrix: (Units=1/GPa)
#
#
# Indices 1 2 3 4 5 6 
#
# 1 0.017470 -0.002278 -0.000725 0.000000 0.002336 0.000000
# 2 -0.002278 0.009428 0.001233 0.000000 0.005892 0.000000
# 3 -0.000725 0.001233 0.062865 0.000000 0.030718 0.000000
# 4 0.000000 0.000000 0.000000 0.035521 0.000000 -0.003178
# 5 0.002336 0.005892 0.030718 0.000000 0.059315 0.000000
# 6 0.000000 0.000000 0.000000 -0.003178 0.000000 0.060596
#
#
# Mechanical properties :
#
#
# Convention : Reuss Voigt Hill
#
# Bulk Modulus (GPa) = 11.59767 28.22762 19.91264
# Shear Modulus (GPa) = 18.01963 25.59003 21.80483
#
# Velocity S-wave (km/s) = 2.83108 3.37377 3.11427
# Velocity P-wave (km/s) = 3.98062 5.26611 4.66783
#
# Compressibility (1/GPa) = 0.08622424
#
# Stress axis : x y z
#
# Youngs Moduli (GPa) = 57.24032 106.06447 15.90722
#
# Poissons Ratio (x) = 0.24160 0.01153
# Poissons Ratio (y) = 0.13039 -0.01962
# Poissons Ratio (z) = 0.04150 -0.13083
#
# Static dielectric constant tensor:
#      x y z
#    x 1.883060 0.000000 0.019560 
#    y 0.000000 1.885050 0.000000 
#    z 0.019560 0.000000 1.918500 
# 
# From -- ./inp_files/65837.got.cif
#   From: 2010.05.17/outbox.cif.g08.bks.cpg/sg12_33_cif.got.tgz:65837.got - 2010.06.03 13:09:07.
