data_PCOD9185031
_publ_section_title
;
Structure prediction by ZEFSAII (Michael W. Deem and Ramdas Pophale) SiO2 
 PCOD9185031
Probable space group: C 2/M
;
_chemical_formula_sum "Si O2"
_cell_formula_units_Z 48
_cell_length_a 12.413331
_cell_length_b 30.176910
_cell_length_c 5.418394
_cell_angle_alpha 90.000000
_cell_angle_beta 92.018602
_cell_angle_gamma 90.000000
_cell_volume 2028.449021
_symmetry_space_group_name_H-M "C 2/M"
_symmetry_group_IT_number 12
_symmetry_cell_setting 'monoclinic'
loop_
_space_group_symop_operation_xyz
x,y,z
-x,y,-z
-x,-y,-z
x,-y,z
1/2+x,1/2+y,z
1/2-x,1/2+y,-z
1/2-x,1/2-y,-z
1/2+x,1/2-y,z
loop_
_atom_site_type_symbol
_atom_site_label
_atom_site_fract_x
_atom_site_fract_y
_atom_site_fract_z
Si Si1 0.706291 0.893488 0.070876
Si Si2 0.681553 0.549503 0.541769
Si Si3 0.585493 0.377760 0.208469
Si Si4 0.912613 0.449449 0.289537
Si Si5 0.348232 0.287918 0.803394
Si Si6 0.714155 0.801934 0.295273
O O1 0.774369 0.933545 0.195378
O O2 0.681278 0.853119 0.252203
O O3 0.793702 0.874298 0.889284
O O4 0.605897 0.915294 0.930830
O O5 0.635894 0.500000 0.543075
O O6 0.604465 0.587413 0.427233
O O7 0.792801 0.548442 0.396696
O O8 0.562793 0.325683 0.248443
O O9 0.500000 0.394111 0.000000
O O10 0.939536 0.500000 0.220034
O O11 0.000000 0.435750 0.500000
O O12 0.374790 0.236032 0.762849
O O13 0.261125 0.296304 0.574460
O O14 0.302258 0.291944 0.081726
#
# Coordination Sequence:
#
# PCOD9185031 Si02
#       6
#     8   8   8   8   8   8
#     4  10  19  34  55  82 111 151 188 242 290 350
#     4  10  20  35  55  80 108 146 193 237 289 346
#     4  10  21  36  54  77 114 153 198 237 283 335
#     4   9  19  35  56  81 111 147 188 238 297 359
#     4   9  17  33  54  83 104 146 190 239 281 347
#     4   9  17  31  58  80 109 140 190 233 295 339
#
# _framework density 23.663398999999998
#
# number of rings (size 3 to 8) (size 9 to 14) (size 15 to 20)
#    0.000    2.500    1.667    0.500    0.000    2.333 
#    0.000    3.333    3.667    0.000    0.000    0.000 
#    0.000    0.000    0.000    0.000    0.000    0.000 
#
# Total GULP energy -133768.568056 kJ/mol
# GULP energy per Si atom -5573.690336 kJ/mol
# Density = 2.360954 g / cm^3
# Si number density = 23.663399 Si / 1000 Ang^3
#
#
#
# Elastic Constant Matrix: (Units=GPa)
#
#
# Indices 1 2 3 4 5 6 
#
# 1 79.8548 23.9760 36.8546 0.0000 19.1776 0.0000
# 2 23.9760 112.4334 16.4156 0.0000 23.0310 0.0000
# 3 36.8546 16.4156 101.1523 0.0000 18.1337 0.0000
# 4 0.0000 0.0000 0.0000 46.0478 0.0000 19.9519
# 5 19.1776 23.0310 18.1337 0.0000 41.9838 0.0000
# 6 0.0000 0.0000 0.0000 19.9519 0.0000 -0.7273
#
#
#
# Elastic Compliance Matrix: (Units=1/GPa)
#
#
# Indices 1 2 3 4 5 6 
#
# 1 0.016388 -0.001893 -0.004886 0.000000 -0.004337 0.000000
# 2 -0.001893 0.010284 -0.000133 0.000000 -0.004719 0.000000
# 3 -0.004886 -0.000133 0.012221 0.000000 -0.002973 0.000000
# 4 0.000000 0.000000 0.000000 0.001685 0.000000 0.046231
# 5 -0.004337 -0.004719 -0.002973 0.000000 0.029673 0.000000
# 6 0.000000 0.000000 0.000000 0.046231 0.000000 -0.106698
#
#
# Mechanical properties :
#
#
# Convention : Reuss Voigt Hill
#
# Bulk Modulus (GPa) = 39.89135 49.77034 44.83085
# Shear Modulus (GPa) = -350.46550 31.87380 -159.29585
#
# Velocity S-wave (km/s) = -12.18302 3.67409 -8.21362
# Velocity P-wave (km/s) = 13.45388 6.25115 8.42407
#
# Compressibility (1/GPa) = 0.02506809
#
# Stress axis : x y z
#
# Youngs Moduli (GPa) = 61.02161 97.23890 81.82615
#
# Poissons Ratio (x) = 0.18406 0.39981
# Poissons Ratio (y) = 0.11550 0.01090
# Poissons Ratio (z) = 0.29816 0.01296
#
# Static dielectric constant tensor:
#      x y z
#    x 1.885260 0.000000 -0.068750 
#    y 0.000000 2.004710 0.000000 
#    z -0.068750 0.000000 1.966160 
# 
# From -- ./inp_files/12773.got.cif
#   From: 2010.05.17/outbox.cif.g08.bks.cpg/sg12_7_cif.got.tgz:12773.got - 2010.06.03 13:09:07.
