data_PCOD9185420
_publ_section_title
;
Structure prediction by ZEFSAII (Michael W. Deem and Ramdas Pophale) SiO2 
 PCOD9185420
Probable space group: C 2/M
;
_chemical_formula_sum "Si O2"
_cell_formula_units_Z 48
_cell_length_a 16.290125
_cell_length_b 7.691396
_cell_length_c 15.483193
_cell_angle_alpha 90.000000
_cell_angle_beta 69.374489
_cell_angle_gamma 90.000000
_cell_volume 1815.602851
_symmetry_space_group_name_H-M "C 2/M"
_symmetry_group_IT_number 12
_symmetry_cell_setting 'monoclinic'
loop_
_space_group_symop_operation_xyz
x,y,z
-x,y,-z
-x,-y,-z
x,-y,z
1/2+x,1/2+y,z
1/2-x,1/2+y,-z
1/2-x,1/2-y,-z
1/2+x,1/2-y,z
loop_
_atom_site_type_symbol
_atom_site_label
_atom_site_fract_x
_atom_site_fract_y
_atom_site_fract_z
Si Si1 0.475607 0.290298 0.698532
Si Si2 0.231969 0.701406 0.643724
Si Si3 0.620131 0.794581 0.524869
Si Si4 0.721245 0.713770 0.192044
Si Si5 0.862241 0.697818 0.017510
Si Si6 0.027761 0.200383 0.861017
O O1 0.475017 0.500000 0.699671
O O2 0.521159 0.232549 0.593187
O O3 0.377613 0.229125 0.754294
O O4 0.531094 0.231857 0.762231
O O5 0.207312 0.500000 0.657629
O O6 0.333612 0.710056 0.574514
O O7 0.175713 0.779691 0.586602
O O8 0.227184 0.774854 0.741298
O O9 0.634811 0.000000 0.510112
O O10 0.722404 0.500000 0.190380
O O11 0.769768 0.770081 0.086772
O O12 0.853524 0.500000 0.991715
O O13 0.919003 0.698373 0.086106
O O14 0.924802 0.795907 0.927870
O O15 0.055146 0.000000 0.854890
#
# Coordination Sequence:
#
# PCOD9185420 Si02
#       6
#     8   8   8   8   8   8
#     4  10  21  36  53  74 104 140 172 206 253 307
#     4   9  18  35  57  76  99 134 173 212 253 300
#     4  10  20  34  54  80 105 130 169 216 257 300
#     4   9  19  35  54  76 101 135 177 211 246 302
#     4  10  19  34  57  79 101 133 174 215 251 295
#     4  10  20  34  53  78 106 134 168 211 258 305
#
# _framework density 26.437498999999999
#
# number of rings (size 3 to 8) (size 9 to 14) (size 15 to 20)
#    0.000    2.333    0.000    3.500    0.000    4.667 
#    0.000    7.500    0.000    0.000    0.000    0.000 
#    0.000    0.000    0.000    0.000    0.000    0.000 
#
# Total GULP energy -134290.344936 kJ/mol
# GULP energy per Si atom -5595.431039 kJ/mol
# Density = 2.637733 g / cm^3
# Si number density = 26.437499 Si / 1000 Ang^3
#
#
#
# Elastic Constant Matrix: (Units=GPa)
#
#
# Indices 1 2 3 4 5 6 
#
# 1 63.0869 7.6761 10.9091 0.0000 -16.7017 0.0000
# 2 7.6761 89.2739 3.1035 -0.0001 -1.5989 -0.0001
# 3 10.9091 3.1035 169.1772 0.0000 -18.7524 0.0000
# 4 0.0000 -0.0001 0.0000 26.0540 0.0000 -9.1598
# 5 -16.7017 -1.5989 -18.7524 0.0000 55.7568 0.0000
# 6 0.0000 -0.0001 0.0000 -9.1598 0.0000 18.4904
#
#
#
# Elastic Compliance Matrix: (Units=1/GPa)
#
#
# Indices 1 2 3 4 5 6 
#
# 1 0.017438 -0.001391 -0.000545 0.000000 0.005001 0.000000
# 2 -0.001391 0.011323 -0.000133 0.000000 -0.000137 0.000000
# 3 -0.000545 -0.000133 0.006160 0.000000 0.001905 0.000000
# 4 0.000000 0.000000 0.000000 0.046476 0.000000 0.023024
# 5 0.005001 -0.000137 0.001905 0.000000 0.020070 0.000000
# 6 0.000000 0.000000 0.000000 0.023024 0.000000 0.065488
#
#
# Mechanical properties :
#
#
# Convention : Reuss Voigt Hill
#
# Bulk Modulus (GPa) = 32.48468 40.54615 36.51541
# Shear Modulus (GPa) = 27.57042 40.05020 33.81031
#
# Velocity S-wave (km/s) = 3.23283 3.89640 3.58002
# Velocity P-wave (km/s) = 5.12337 5.96761 5.56154
#
# Compressibility (1/GPa) = 0.03078374
#
# Stress axis : x y z
#
# Youngs Moduli (GPa) = 57.34459 88.31383 162.34690
#
# Poissons Ratio (x) = 0.12284 0.08843
# Poissons Ratio (y) = 0.07976 0.02162
# Poissons Ratio (z) = 0.03124 0.01176
#
# Static dielectric constant tensor:
#      x y z
#    x 2.239440 0.000000 -0.050830 
#    y 0.000000 1.925980 0.000000 
#    z -0.050830 0.000000 2.052910 
# 
# From -- ./inp_files/274028.got.cif
#   From: 2010.05.17/outbox.cif.g08.bks.cpg/sg12_138_cif.got.tgz:274028.got - 2010.06.03 13:09:07.
