data_PCOD9185385
_publ_section_title
;
Structure prediction by ZEFSAII (Michael W. Deem and Ramdas Pophale) SiO2 
 PCOD9185385
Probable space group: C 2/M
;
_chemical_formula_sum "Si O2"
_cell_formula_units_Z 58
_cell_length_a 24.676313
_cell_length_b 7.359664
_cell_length_c 22.157817
_cell_angle_alpha 90.000000
_cell_angle_beta 38.199172
_cell_angle_gamma 90.000000
_cell_volume 2488.471264
_symmetry_space_group_name_H-M "C 2/M"
_symmetry_group_IT_number 12
_symmetry_cell_setting 'monoclinic'
loop_
_space_group_symop_operation_xyz
x,y,z
-x,y,-z
-x,-y,-z
x,-y,z
1/2+x,1/2+y,z
1/2-x,1/2+y,-z
1/2-x,1/2-y,-z
1/2+x,1/2-y,z
loop_
_atom_site_type_symbol
_atom_site_label
_atom_site_fract_x
_atom_site_fract_y
_atom_site_fract_z
Si Si1 0.751436 0.284270 0.428105
Si Si2 0.870017 0.277971 0.220866
Si Si3 0.078314 0.781409 0.508179
Si Si4 0.435152 0.792260 0.961800
Si Si5 0.854039 0.784401 0.905372
Si Si6 0.275898 0.222027 0.183195
Si Si7 0.000000 0.500000 0.500000
Si Si8 0.898622 0.779217 0.732337
O O1 0.753416 0.500000 0.419468
O O2 0.750000 0.250000 0.500000
O O3 0.833701 0.215398 0.317328
O O4 0.661719 0.227664 0.474656
O O5 0.874927 0.500000 0.217249
O O6 0.800711 0.228458 0.229610
O O7 0.967669 0.212125 0.120467
O O8 0.071103 0.661300 0.455324
O O9 0.990290 0.727813 0.621973
O O10 0.079208 0.000000 0.496194
O O11 0.402355 0.793113 0.921449
O O12 0.443778 0.000000 0.975747
O O13 0.356948 0.714583 0.070534
O O14 0.888524 0.718412 0.810401
O O15 0.867720 0.000000 0.895745
O O16 0.750000 0.750000 0.000000
O O17 0.185048 0.282647 0.233087
O O18 0.272799 0.000000 0.184044
O O19 0.897229 0.000000 0.734373
#
# Coordination Sequence:
#
# PCOD9185385 Si02
#       8
#     8   8   8   8   8   8   2   8
#     4  10  23  42  64  88 124 169 218 269 328 386
#     4   9  19  34  58  88 113 154 203 250 305 369
#     4  10  24  45  68  97 135 175 213 276 339 393
#     4  10  19  34  56  87 119 152 195 252 301 359
#     4  11  21  36  57  84 119 160 204 247 307 373
#     4   9  16  31  57  87 119 152 198 245 301 376
#     4  12  26  44  72 106 132 162 230 272 340 410
#     4   9  19  36  59  86 120 163 205 247 313 386
#
# _framework density 23.307482
#
# number of rings (size 3 to 8) (size 9 to 14) (size 15 to 20)
#    0.000    2.207    1.379    1.034    4.828    1.655 
#    2.483    0.000    0.000    2.483    0.000    0.000 
#    0.000    0.000    0.000    0.000    0.000    0.000 
#
# Total GULP energy -161883.562820 kJ/mol
# GULP energy per Si atom -5582.191821 kJ/mol
# Density = 2.325443 g / cm^3
# Si number density = 23.307482 Si / 1000 Ang^3
#
#
#
# Elastic Constant Matrix: (Units=GPa)
#
#
# Indices 1 2 3 4 5 6 
#
# 1 84.2881 3.1383 7.0978 -0.0053 -0.2576 0.0017
# 2 3.1383 96.8735 0.3904 0.0068 -4.6580 -0.0126
# 3 7.0978 0.3904 112.2765 -0.0124 1.2859 0.0082
# 4 -0.0053 0.0068 -0.0124 -2.4682 0.0012 9.8851
# 5 -0.2576 -4.6580 1.2859 0.0012 41.0591 0.0029
# 6 0.0017 -0.0126 0.0082 9.8851 0.0029 11.0013
#
#
#
# Elastic Compliance Matrix: (Units=1/GPa)
#
#
# Indices 1 2 3 4 5 6 
#
# 1 0.011942 -0.000381 -0.000754 -0.000007 0.000055 0.000004
# 2 -0.000381 0.010392 -0.000026 0.000017 0.001177 -0.000003
# 3 -0.000754 -0.000026 0.008958 -0.000015 -0.000288 0.000007
# 4 -0.000007 0.000017 -0.000015 -0.088103 -0.000001 0.079164
# 5 0.000055 0.001177 -0.000288 -0.000001 0.024498 -0.000004
# 6 0.000004 -0.000003 0.000007 0.079164 -0.000004 0.019767
#
#
# Mechanical properties :
#
#
# Convention : Reuss Voigt Hill
#
# Bulk Modulus (GPa) = 34.51904 34.96569 34.74236
# Shear Modulus (GPa) = -8793.30954 28.77254 -4382.26850
#
# Velocity S-wave (km/s) = -61.48928 3.51732 -43.40829
# Velocity P-wave (km/s) = 70.89710 5.61515 49.97434
#
# Compressibility (1/GPa) = 0.02896952
#
# Stress axis : x y z
#
# Youngs Moduli (GPa) = 83.73843 96.22976 111.63640
#
# Poissons Ratio (x) = 0.03668 0.08420
# Poissons Ratio (y) = 0.03192 0.00285
# Poissons Ratio (z) = 0.06316 0.00246
#
# Static dielectric constant tensor:
#      x y z
#    x 1.777810 -0.000050 0.004010 
#    y -0.000050 1.917280 -0.000010 
#    z 0.004010 -0.000010 1.892430 
# 
# From -- ./inp_files/324523.got.cif
#   From: 2010.05.17/outbox.cif.g08.bks.cpg/sg12_163_cif.got.tgz:324523.got - 2010.06.03 13:09:07.
