data_PCOD9185098
_publ_section_title
;
Structure prediction by ZEFSAII (Michael W. Deem and Ramdas Pophale) SiO2 
 PCOD9185098
Probable space group: C 2/M
;
_chemical_formula_sum "Si O2"
_cell_formula_units_Z 44
_cell_length_a 14.386086
_cell_length_b 27.264520
_cell_length_c 17.549001
_cell_angle_alpha 90.000000
_cell_angle_beta 161.244343
_cell_angle_gamma 90.000000
_cell_volume 2213.188485
_symmetry_space_group_name_H-M "C 2/M"
_symmetry_group_IT_number 12
_symmetry_cell_setting 'monoclinic'
loop_
_space_group_symop_operation_xyz
x,y,z
-x,y,-z
-x,-y,-z
x,-y,z
1/2+x,1/2+y,z
1/2-x,1/2+y,-z
1/2-x,1/2-y,-z
1/2+x,1/2-y,z
loop_
_atom_site_type_symbol
_atom_site_label
_atom_site_fract_x
_atom_site_fract_y
_atom_site_fract_z
Si Si1 0.204970 0.186150 0.316480
Si Si2 0.833698 0.386314 0.942001
Si Si3 0.302725 0.849676 0.556154
Si Si4 0.798701 0.092241 0.992117
Si Si5 0.647884 0.500000 0.201990
Si Si6 0.837573 0.294924 0.739141
O O1 0.500000 0.178834 0.500000
O O2 0.281944 0.183435 0.465318
O O3 0.073463 0.238206 0.189482
O O4 0.992800 0.141037 0.140588
O O5 0.503421 0.375249 0.666112
O O6 0.828510 0.412714 0.020542
O O7 0.000000 0.410227 0.000000
O O8 0.984431 0.333407 0.072984
O O9 0.535892 0.893524 0.732160
O O10 0.372539 0.815303 0.681329
O O11 0.999644 0.047610 0.124592
O O12 0.000000 0.500000 0.500000
O O13 0.500000 0.500000 0.000000
O O14 0.500000 0.296763 0.500000
#
# Coordination Sequence:
#
# PCOD9185098 Si02
#       6
#     8   8   8   8   4   8
#     4  10  22  36  56  87 132 169 224 269 324 388
#     4  10  20  38  64  90 131 170 217 264 327 396
#     4  10  21  36  59  86 130 170 218 265 324 388
#     4  10  25  42  65  96 122 167 222 275 343 402
#     4  12  30  52  83 101 137 173 222 280 348 413
#     4  10  19  34  55  91 126 179 220 257 319 390
#
# _framework density 19.880818000000001
#
# number of rings (size 3 to 8) (size 9 to 14) (size 15 to 20)
#    0.000    1.818    1.818    1.091    7.636    8.000 
#    0.000    0.455    0.000    1.091    0.000    0.000 
#    0.000    0.000    0.000    0.000    0.000    0.000 
#
# Total GULP energy -122707.220108 kJ/mol
# GULP energy per Si atom -5577.600914 kJ/mol
# Density = 1.983557 g / cm^3
# Si number density = 19.880818 Si / 1000 Ang^3
#
#
#
# Elastic Constant Matrix: (Units=GPa)
#
#
# Indices 1 2 3 4 5 6 
#
# 1 93.7858 25.3922 24.4389 -0.0115 11.6378 -0.0122
# 2 25.3922 90.0390 43.4033 -0.0012 6.5455 -0.0015
# 3 24.4389 43.4033 94.3996 -0.0236 9.2205 -0.0405
# 4 -0.0115 -0.0012 -0.0236 51.8988 0.0124 35.9191
# 5 11.6378 6.5455 9.2205 0.0124 24.1795 0.0041
# 6 -0.0122 -0.0015 -0.0405 35.9191 0.0041 45.5363
#
#
#
# Elastic Compliance Matrix: (Units=1/GPa)
#
#
# Indices 1 2 3 4 5 6 
#
# 1 0.012304 -0.002332 -0.001658 0.000003 -0.004658 0.000000
# 2 -0.002332 0.014757 -0.006129 0.000002 -0.000535 -0.000007
# 3 -0.001658 -0.006129 0.014127 -0.000004 -0.002930 0.000015
# 4 0.000003 0.000002 -0.000004 0.042434 -0.000017 -0.033472
# 5 -0.004658 -0.000535 -0.002930 -0.000017 0.044862 0.000005
# 6 0.000000 -0.000007 0.000015 -0.033472 0.000005 0.048363
#
#
# Mechanical properties :
#
#
# Convention : Reuss Voigt Hill
#
# Bulk Modulus (GPa) = 47.73343 51.63259 49.68301
# Shear Modulus (GPa) = 24.50141 36.65560 30.57850
#
# Velocity S-wave (km/s) = 3.51438 4.29857 3.92610
# Velocity P-wave (km/s) = 6.36630 7.11789 6.75256
#
# Compressibility (1/GPa) = 0.02094968
#
# Stress axis : x y z
#
# Youngs Moduli (GPa) = 81.27351 67.76243 70.78723
#
# Poissons Ratio (x) = 0.15802 0.11738
# Poissons Ratio (y) = 0.18953 0.43387
# Poissons Ratio (z) = 0.13477 0.41533
#
# Static dielectric constant tensor:
#      x y z
#    x 1.736000 -0.000010 -0.014300 
#    y -0.000010 1.676490 -0.000010 
#    z -0.014300 -0.000010 1.755430 
# 
# From -- ./inp_files/272908.got.cif
#   From: 2010.05.17/outbox.cif.g08.bks.cpg/sg12_137_cif.got.tgz:272908.got - 2010.06.03 13:09:07.
