data_PCOD9185487
_publ_section_title
;
Structure prediction by ZEFSAII (Michael W. Deem and Ramdas Pophale) SiO2 
 PCOD9185487
Probable space group: C 2/M
;
_chemical_formula_sum "Si O2"
_cell_formula_units_Z 56
_cell_length_a 20.738015
_cell_length_b 9.365104
_cell_length_c 15.815872
_cell_angle_alpha 90.000000
_cell_angle_beta 100.266375
_cell_angle_gamma 90.000000
_cell_volume 3022.480640
_symmetry_space_group_name_H-M "C 2/M"
_symmetry_group_IT_number 12
_symmetry_cell_setting 'monoclinic'
loop_
_space_group_symop_operation_xyz
x,y,z
-x,y,-z
-x,-y,-z
x,-y,z
1/2+x,1/2+y,z
1/2-x,1/2+y,-z
1/2-x,1/2-y,-z
1/2+x,1/2-y,z
loop_
_atom_site_type_symbol
_atom_site_label
_atom_site_fract_x
_atom_site_fract_y
_atom_site_fract_z
Si Si1 0.206018 0.340316 0.872654
Si Si2 0.916225 0.327584 0.728050
Si Si3 0.435907 0.827789 0.541270
Si Si4 0.265932 0.164762 0.733895
Si Si5 0.156108 0.159747 0.002366
Si Si6 0.945667 0.671806 0.917755
Si Si7 0.694934 0.665488 0.539011
O O1 0.180408 0.500000 0.850491
O O2 0.232753 0.263686 0.795797
O O3 0.269576 0.353921 0.947754
O O4 0.156077 0.242593 0.913546
O O5 0.917747 0.500000 0.726576
O O6 0.941309 0.282564 0.641537
O O7 0.839570 0.288446 0.724522
O O8 0.955048 0.283830 0.822118
O O9 0.500000 0.798597 0.500000
O O10 0.373419 0.746085 0.489356
O O11 0.424628 0.000000 0.536779
O O12 0.220477 0.165863 0.640879
O O13 0.271161 0.000000 0.766274
O O14 0.119378 0.254009 0.063028
O O15 0.128481 0.000000 0.989554
O O16 0.938896 0.500000 0.917891
O O17 0.000000 0.710815 0.000000
O O18 0.690383 0.500000 0.510230
O O19 0.750000 0.750000 0.500000
#
# Coordination Sequence:
#
# PCOD9185487 Si02
#       7
#     8   8   8   8   8   8   8
#     4  10  20  33  53  81 109 141 186 230 277 339
#     4   9  17  34  58  81 109 148 191 238 294 349
#     4  10  21  40  63  86 118 160 200 242 303 365
#     4  10  19  34  57  81 113 150 186 236 298 350
#     4  10  20  34  53  77 109 144 181 227 288 340
#     4  10  20  35  56  79 108 147 195 243 282 333
#     4  11  22  37  60  89 121 152 195 248 301 358
#
# _framework density 18.527826999999998
#
# number of rings (size 3 to 8) (size 9 to 14) (size 15 to 20)
#    0.000    2.000    2.857    1.286    0.000    2.857 
#    2.571    0.714    0.000    0.000    0.000    0.000 
#    0.000    0.000    0.000    0.000    0.000    0.000 
#
# Total GULP energy -156087.268815 kJ/mol
# GULP energy per Si atom -5574.545315 kJ/mol
# Density = 1.848566 g / cm^3
# Si number density = 18.527827 Si / 1000 Ang^3
#
#
#
# Elastic Constant Matrix: (Units=GPa)
#
#
# Indices 1 2 3 4 5 6 
#
# 1 66.6141 28.4686 44.4921 0.0000 0.2323 0.0000
# 2 28.4686 61.5983 43.0578 0.0000 -4.9111 0.0000
# 3 44.4921 43.0578 133.6126 0.0000 -13.3822 0.0000
# 4 0.0000 0.0000 0.0000 13.1358 0.0000 7.7249
# 5 0.2323 -4.9111 -13.3822 0.0000 30.4377 0.0000
# 6 0.0000 0.0000 0.0000 7.7249 0.0000 18.0147
#
#
#
# Elastic Compliance Matrix: (Units=1/GPa)
#
#
# Indices 1 2 3 4 5 6 
#
# 1 0.021367 -0.006372 -0.005420 0.000000 -0.003574 0.000000
# 2 -0.006372 0.022860 -0.005095 0.000000 0.001497 0.000000
# 3 -0.005420 -0.005095 0.011353 0.000000 0.004211 0.000000
# 4 0.000000 0.000000 0.000000 0.101799 0.000000 -0.043653
# 5 -0.003574 0.001497 0.004211 0.000000 0.034974 0.000000
# 6 0.000000 0.000000 0.000000 -0.043653 0.000000 0.074229
#
#
# Mechanical properties :
#
#
# Convention : Reuss Voigt Hill
#
# Bulk Modulus (GPa) = 45.85748 54.87353 50.36551
# Shear Modulus (GPa) = 16.25359 22.03808 19.14584
#
# Velocity S-wave (km/s) = 2.96506 3.45259 3.21807
# Velocity P-wave (km/s) = 6.04371 6.75093 6.40708
#
# Compressibility (1/GPa) = 0.02180669
#
# Stress axis : x y z
#
# Youngs Moduli (GPa) = 46.80063 43.74481 88.08441
#
# Poissons Ratio (x) = 0.27873 0.47740
# Poissons Ratio (y) = 0.29820 0.44880
# Poissons Ratio (z) = 0.25365 0.22289
#
# Static dielectric constant tensor:
#      x y z
#    x 1.636570 0.000000 0.015290 
#    y 0.000000 1.652170 0.000000 
#    z 0.015290 0.000000 1.659980 
# 
# From -- ./inp_files/230969.got.cif
#   From: 2010.05.17/outbox.cif.g08.bks.cpg/sg12_116_cif.got.tgz:230969.got - 2010.06.03 13:09:07.
