data_PCOD9185124
_publ_section_title
;
Structure prediction by ZEFSAII (Michael W. Deem and Ramdas Pophale) SiO2 
 PCOD9185124
Probable space group: C 2/M
;
_chemical_formula_sum "Si O2"
_cell_formula_units_Z 56
_cell_length_a 15.498784
_cell_length_b 7.495325
_cell_length_c 25.498470
_cell_angle_alpha 90.000000
_cell_angle_beta 119.171167
_cell_angle_gamma 90.000000
_cell_volume 2586.424262
_symmetry_space_group_name_H-M "C 2/M"
_symmetry_group_IT_number 12
_symmetry_cell_setting 'monoclinic'
loop_
_space_group_symop_operation_xyz
x,y,z
-x,y,-z
-x,-y,-z
x,-y,z
1/2+x,1/2+y,z
1/2-x,1/2+y,-z
1/2-x,1/2-y,-z
1/2+x,1/2-y,z
loop_
_atom_site_type_symbol
_atom_site_label
_atom_site_fract_x
_atom_site_fract_y
_atom_site_fract_z
Si Si1 0.174547 0.216806 0.410614
Si Si2 0.658933 0.788004 0.934966
Si Si3 0.535482 0.701707 0.064903
Si Si4 0.898489 0.290403 0.497254
Si Si5 0.312558 0.280839 0.804563
Si Si6 0.099129 0.793143 0.276914
Si Si7 0.373389 0.215002 0.191651
O O1 0.109896 0.272719 0.442043
O O2 0.289318 0.279737 0.448008
O O3 0.128445 0.280506 0.342202
O O4 0.175571 0.000000 0.412707
O O5 0.561748 0.696188 0.928506
O O6 0.670945 0.733108 0.878133
O O7 0.641444 0.000000 0.930504
O O8 0.750000 0.750000 0.000000
O O9 0.570021 0.500000 0.061128
O O10 0.618832 0.781600 0.126868
O O11 0.500000 0.787978 0.000000
O O12 0.897107 0.500000 0.483457
O O13 0.000000 0.219211 0.500000
O O14 0.320576 0.500000 0.807156
O O15 0.349641 0.215001 0.759594
O O16 0.201476 0.230668 0.785203
O O17 0.982697 0.784650 0.232295
O O18 0.130079 0.000000 0.287919
O O19 0.379163 0.000000 0.193646
#
# Coordination Sequence:
#
# PCOD9185124 Si02
#       7
#     8   8   8   8   8   8   8
#     4   9  19  34  53  81 114 146 181 225 273 322
#     4  11  22  35  53  78 108 139 179 231 284 336
#     4  10  19  34  56  78 103 137 179 225 279 342
#     4   9  18  34  57  84 112 145 186 226 264 315
#     4   9  18  34  55  76 103 141 179 219 274 330
#     4  10  20  36  56  78 109 147 185 223 272 331
#     4  10  21  37  56  79 106 140 184 230 272 326
#
# _framework density 21.651513999999999
#
# number of rings (size 3 to 8) (size 9 to 14) (size 15 to 20)
#    0.000    2.286    1.429    1.286    0.000    5.143 
#    0.000    4.286    0.000    0.000    0.000    0.000 
#    0.000    0.000    0.000    0.000    0.000    0.000 
#
# Total GULP energy -156252.165818 kJ/mol
# GULP energy per Si atom -5580.434494 kJ/mol
# Density = 2.160223 g / cm^3
# Si number density = 21.651514 Si / 1000 Ang^3
#
#
#
# Elastic Constant Matrix: (Units=GPa)
#
#
# Indices 1 2 3 4 5 6 
#
# 1 163.3629 -2.2280 59.4915 0.0000 -21.5364 0.0000
# 2 -2.2280 59.0287 -2.0908 0.0000 -0.8783 0.0000
# 3 59.4915 -2.0908 146.5444 0.0000 -25.4962 0.0000
# 4 0.0000 0.0000 0.0000 39.6646 0.0000 7.4781
# 5 -21.5364 -0.8783 -25.4962 0.0000 22.2600 0.0000
# 6 0.0000 0.0000 0.0000 7.4781 0.0000 6.8966
#
#
#
# Elastic Compliance Matrix: (Units=1/GPa)
#
#
# Indices 1 2 3 4 5 6 
#
# 1 0.007569 0.000277 -0.002239 0.000000 0.004770 0.000000
# 2 0.000277 0.016985 0.000366 0.000000 0.001358 0.000000
# 3 -0.002239 0.000366 0.009196 0.000000 0.008381 0.000000
# 4 0.000000 0.000000 0.000000 0.031690 0.000000 -0.034362
# 5 0.004770 0.001358 0.008381 0.000000 0.059192 0.000000
# 6 0.000000 0.000000 0.000000 -0.034362 0.000000 0.182258
#
#
# Mechanical properties :
#
#
# Convention : Reuss Voigt Hill
#
# Bulk Modulus (GPa) = 32.72404 53.25351 42.98877
# Shear Modulus (GPa) = 15.61197 34.68180 25.14688
#
# Velocity S-wave (km/s) = 2.68816 4.00661 3.41168
# Velocity P-wave (km/s) = 4.97813 6.78624 5.95125
#
# Compressibility (1/GPa) = 0.03055858
#
# Stress axis : x y z
#
# Youngs Moduli (GPa) = 132.11258 58.87703 108.73961
#
# Poissons Ratio (x) = -0.01633 0.24348
# Poissons Ratio (y) = -0.03664 -0.03979
# Poissons Ratio (z) = 0.29581 -0.02154
#
# Static dielectric constant tensor:
#      x y z
#    x 1.760450 0.000000 -0.014330 
#    y 0.000000 1.821550 0.000000 
#    z -0.014330 0.000000 1.786430 
# 
# From -- ./inp_files/308921.got.cif
#   From: 2010.05.17/outbox.cif.g08.bks.cpg/sg12_155_cif.got.tgz:308921.got - 2010.06.03 13:09:07.
