data_PCOD9185742
_publ_section_title
;
Structure prediction by ZEFSAII (Michael W. Deem and Ramdas Pophale) SiO2 
 PCOD9185742
Probable space group: C 2/M
;
_chemical_formula_sum "Si O2"
_cell_formula_units_Z 64
_cell_length_a 19.182948
_cell_length_b 17.403188
_cell_length_c 11.778644
_cell_angle_alpha 90.000000
_cell_angle_beta 82.860246
_cell_angle_gamma 90.000000
_cell_volume 3901.744146
_symmetry_space_group_name_H-M "C 2/M"
_symmetry_group_IT_number 12
_symmetry_cell_setting 'monoclinic'
loop_
_space_group_symop_operation_xyz
x,y,z
-x,y,-z
-x,-y,-z
x,-y,z
1/2+x,1/2+y,z
1/2-x,1/2+y,-z
1/2-x,1/2-y,-z
1/2+x,1/2-y,z
loop_
_atom_site_type_symbol
_atom_site_label
_atom_site_fract_x
_atom_site_fract_y
_atom_site_fract_z
Si Si1 0.696605 0.083396 0.309449
Si Si2 0.929402 0.778136 0.715737
Si Si3 0.326363 0.813520 0.888548
Si Si4 0.921283 0.353361 0.523914
Si Si5 0.815029 0.907412 0.690714
Si Si6 0.796178 0.305005 0.149576
Si Si7 0.092994 0.253337 0.684583
Si Si8 0.209074 0.171499 0.540782
O O1 0.674808 0.112061 0.190503
O O2 0.630234 0.087759 0.406699
O O3 0.749774 0.139718 0.360073
O O4 0.728249 0.000000 0.297873
O O5 0.890647 0.737931 0.829779
O O6 0.918303 0.722129 0.607874
O O7 0.886844 0.857881 0.702374
O O8 0.013129 0.774465 0.719857
O O9 0.256794 0.764992 0.869109
O O10 0.326048 0.830289 0.021506
O O11 0.903702 0.326428 0.400898
O O12 0.000000 0.382255 0.500000
O O13 0.753096 0.869451 0.780629
O O14 0.793801 0.884496 0.566105
O O15 0.821630 0.000000 0.703071
O O16 0.858820 0.275345 0.217899
O O17 0.132073 0.189263 0.602088
O O18 0.250000 0.250000 0.500000
#
# Coordination Sequence:
#
# PCOD9185742 Si02
#       8
#     8   8   8   8   8   8   8   8
#     4  11  20  31  49  77 108 137 169 219 282 326
#     4   9  19  34  53  80 106 144 181 219 269 319
#     4   9  19  36  53  76 101 133 190 232 262 312
#     4   9  17  31  52  74 100 137 175 212 259 322
#     4  11  21  34  53  83 119 148 176 218 280 338
#     4  10  19  34  58  78  97 141 191 231 262 307
#     4  11  18  31  58  77 104 136 183 229 264 309
#     4  12  18  33  54  77 108 140 185 229 262 314
#
# _framework density 16.402920999999999
#
# number of rings (size 3 to 8) (size 9 to 14) (size 15 to 20)
#    0.000    1.750    5.000    1.125    0.000    1.250 
#    0.000    1.875    0.000    3.000    0.000   11.375 
#    0.000    0.000    0.000    0.000    0.000    0.000 
#
# Total GULP energy -178180.087159 kJ/mol
# GULP energy per Si atom -5568.127724 kJ/mol
# Density = 1.636559 g / cm^3
# Si number density = 16.402921 Si / 1000 Ang^3
#
#
#
# Elastic Constant Matrix: (Units=GPa)
#
#
# Indices 1 2 3 4 5 6 
#
# 1 99.6347 18.2518 43.5849 0.0000 -5.2265 0.0000
# 2 18.2518 67.4583 12.2029 0.0000 4.6250 0.0000
# 3 43.5849 12.2029 112.0883 0.0000 2.2074 0.0000
# 4 0.0000 0.0000 0.0000 3.5751 0.0000 1.0296
# 5 -5.2265 4.6250 2.2074 0.0000 20.6882 0.0000
# 6 0.0000 0.0000 0.0000 1.0296 0.0000 13.6535
#
#
#
# Elastic Compliance Matrix: (Units=1/GPa)
#
#
# Indices 1 2 3 4 5 6 
#
# 1 0.012898 -0.002928 -0.004784 0.000000 0.004423 0.000000
# 2 -0.002928 0.016002 -0.000520 0.000000 -0.004262 0.000000
# 3 -0.004784 -0.000520 0.010883 0.000000 -0.002253 0.000000
# 4 0.000000 0.000000 0.000000 0.285922 0.000000 -0.021560
# 5 0.004423 -0.004262 -0.002253 0.000000 0.050647 0.000000
# 6 0.000000 0.000000 0.000000 -0.021560 0.000000 0.074867
#
#
# Mechanical properties :
#
#
# Convention : Reuss Voigt Hill
#
# Bulk Modulus (GPa) = 42.88073 47.47338 45.17705
# Shear Modulus (GPa) = 10.51626 21.25947 15.88786
#
# Velocity S-wave (km/s) = 2.53478 3.60401 3.11561
# Velocity P-wave (km/s) = 5.89625 6.80613 6.36746
#
# Compressibility (1/GPa) = 0.02332050
#
# Stress axis : x y z
#
# Youngs Moduli (GPa) = 77.53434 62.49108 91.89022
#
# Poissons Ratio (x) = 0.18295 0.43956
# Poissons Ratio (y) = 0.22699 0.04777
# Poissons Ratio (z) = 0.37089 0.03249
#
# Static dielectric constant tensor:
#      x y z
#    x 1.602420 0.000000 -0.013140 
#    y 0.000000 1.601310 0.000000 
#    z -0.013140 0.000000 1.554120 
# 
# From -- ./inp_files/168074.got.cif
#   From: 2010.05.17/outbox.cif.g08.bks.cpg/sg12_85_cif.got.tgz:168074.got - 2010.06.03 13:09:07.
