data_PCOD9185775
_publ_section_title
;
Structure prediction by ZEFSAII (Michael W. Deem and Ramdas Pophale) SiO2 
 PCOD9185775
Probable space group: C 2/M
;
_chemical_formula_sum "Si O2"
_cell_formula_units_Z 58
_cell_length_a 23.098985
_cell_length_b 7.501956
_cell_length_c 18.072168
_cell_angle_alpha 90.000000
_cell_angle_beta 124.657626
_cell_angle_gamma 90.000000
_cell_volume 2576.011541
_symmetry_space_group_name_H-M "C 2/M"
_symmetry_group_IT_number 12
_symmetry_cell_setting 'monoclinic'
loop_
_space_group_symop_operation_xyz
x,y,z
-x,y,-z
-x,-y,-z
x,-y,z
1/2+x,1/2+y,z
1/2-x,1/2+y,-z
1/2-x,1/2-y,-z
1/2+x,1/2-y,z
loop_
_atom_site_type_symbol
_atom_site_label
_atom_site_fract_x
_atom_site_fract_y
_atom_site_fract_z
Si Si1 0.150451 0.798383 0.951091
Si Si2 0.145363 0.284651 0.225140
Si Si3 0.491864 0.793069 0.081907
Si Si4 0.176176 0.287656 0.408173
Si Si5 0.500000 0.500000 0.500000
Si Si6 0.260244 0.287005 0.848551
Si Si7 0.541372 0.219108 0.408924
Si Si8 0.888610 0.297622 0.240693
O O1 0.130735 0.705218 0.860175
O O2 0.077961 0.802704 0.943893
O O3 0.171294 0.000000 0.947706
O O4 0.206580 0.718859 0.049935
O O5 0.141855 0.500000 0.221739
O O6 0.064854 0.221013 0.165828
O O7 0.178117 0.219550 0.325419
O O8 0.187868 0.238545 0.182310
O O9 0.483627 0.000000 0.099291
O O10 0.500000 0.789594 0.000000
O O11 0.168525 0.500000 0.396993
O O12 0.250000 0.250000 0.500000
O O13 0.107694 0.231448 0.405239
O O14 0.540829 0.340462 0.481535
O O15 0.254050 0.500000 0.854791
O O16 0.181995 0.213866 0.775661
O O17 0.466413 0.271291 0.315110
O O18 0.543380 0.000000 0.421851
O O19 0.891889 0.500000 0.270104
#
# Coordination Sequence:
#
# PCOD9185775 Si02
#       8
#     8   8   8   8   2   8   8   8
#     4  11  22  34  56  90 128 165 213 271 324 379
#     4  10  21  39  61  89 122 166 216 269 319 392
#     4  10  19  34  58  82 115 163 211 252 314 387
#     4  10  23  43  68  98 135 172 219 277 347 409
#     4  12  26  44  80 106 140 170 230 280 348 410
#     4  10  22  38  56  89 129 170 216 268 329 385
#     4  10  24  48  73 103 139 178 225 281 342 414
#     4  10  22  42  64  85 126 176 221 262 321 395
#
# _framework density 22.515426999999999
#
# number of rings (size 3 to 8) (size 9 to 14) (size 15 to 20)
#    0.000    1.793    1.379    1.862    1.931    5.793 
#    2.483    2.759    0.000    0.000    0.000    0.000 
#    0.000    0.000    0.000    0.000    0.000    0.000 
#
# Total GULP energy -161633.591497 kJ/mol
# GULP energy per Si atom -5573.572121 kJ/mol
# Density = 2.246418 g / cm^3
# Si number density = 22.515427 Si / 1000 Ang^3
#
#
#
# Elastic Constant Matrix: (Units=GPa)
#
#
# Indices 1 2 3 4 5 6 
#
# 1 112.3440 17.5207 12.5161 0.0000 21.2872 0.0000
# 2 17.5207 82.4987 5.0306 -0.0001 -3.4187 -0.0002
# 3 12.5161 5.0306 54.4637 0.0000 23.6032 0.0000
# 4 0.0000 -0.0001 0.0000 20.0328 0.0000 -5.8491
# 5 21.2872 -3.4187 23.6032 0.0000 42.2570 0.0000
# 6 0.0000 -0.0002 0.0000 -5.8491 0.0000 10.4657
#
#
#
# Elastic Compliance Matrix: (Units=1/GPa)
#
#
# Indices 1 2 3 4 5 6 
#
# 1 0.010299 -0.002432 0.000253 0.000000 -0.005526 0.000000
# 2 -0.002432 0.012911 -0.002134 0.000000 0.003462 0.000000
# 3 0.000253 -0.002134 0.024580 0.000000 -0.014029 0.000000
# 4 0.000000 0.000000 0.000000 0.059652 0.000000 0.033338
# 5 -0.005526 0.003462 -0.014029 0.000000 0.034565 0.000000
# 6 0.000000 0.000000 0.000000 0.033338 0.000000 0.114182
#
#
# Mechanical properties :
#
#
# Convention : Reuss Voigt Hill
#
# Bulk Modulus (GPa) = 25.53307 35.49345 30.51326
# Shear Modulus (GPa) = 17.99395 28.83370 23.41382
#
# Velocity S-wave (km/s) = 2.83005 3.58246 3.22825
# Velocity P-wave (km/s) = 4.69508 5.73675 5.24185
#
# Compressibility (1/GPa) = 0.03916490
#
# Stress axis : x y z
#
# Youngs Moduli (GPa) = 97.09232 77.45081 40.68368
#
# Poissons Ratio (x) = 0.18834 -0.01028
# Poissons Ratio (y) = 0.23611 0.08681
# Poissons Ratio (z) = -0.02454 0.16527
#
# Static dielectric constant tensor:
#      x y z
#    x 1.792920 0.000000 -0.081250 
#    y 0.000000 1.896840 0.000000 
#    z -0.081250 0.000000 1.503060 
# 
# From -- ./inp_files/282223.got.cif
#   From: 2010.05.17/outbox.cif.g08.bks.cpg/sg12_142_cif.got.tgz:282223.got - 2010.06.03 13:09:07.
