data_PCOD9185122
_publ_section_title
;
Structure prediction by ZEFSAII (Michael W. Deem and Ramdas Pophale) SiO2 
 PCOD9185122
Probable space group: C 2/M
;
_chemical_formula_sum "Si O2"
_cell_formula_units_Z 64
_cell_length_a 19.510683
_cell_length_b 8.663056
_cell_length_c 26.077633
_cell_angle_alpha 90.000000
_cell_angle_beta 55.903337
_cell_angle_gamma 90.000000
_cell_volume 3649.983235
_symmetry_space_group_name_H-M "C 2/M"
_symmetry_group_IT_number 12
_symmetry_cell_setting 'monoclinic'
loop_
_space_group_symop_operation_xyz
x,y,z
-x,y,-z
-x,-y,-z
x,-y,z
1/2+x,1/2+y,z
1/2-x,1/2+y,-z
1/2-x,1/2-y,-z
1/2+x,1/2-y,z
loop_
_atom_site_type_symbol
_atom_site_label
_atom_site_fract_x
_atom_site_fract_y
_atom_site_fract_z
Si Si1 0.724491 0.315392 0.930257
Si Si2 0.210164 0.317418 0.822946
Si Si3 0.252519 0.812520 0.556058
Si Si4 0.147454 0.178689 0.690967
Si Si5 0.880770 0.315288 0.935888
Si Si6 0.555016 0.313841 0.825702
Si Si7 0.089079 0.311615 0.442930
Si Si8 0.812524 0.321295 0.693100
O O1 0.718852 0.500000 0.929326
O O2 0.722561 0.243989 0.874876
O O3 0.809471 0.275133 0.924396
O O4 0.650768 0.252411 0.996955
O O5 0.199330 0.500000 0.827569
O O6 0.128830 0.240301 0.831971
O O7 0.286795 0.271954 0.753939
O O8 0.250000 0.750000 0.500000
O O9 0.176821 0.755434 0.624175
O O10 0.337852 0.766937 0.548656
O O11 0.411025 0.000000 0.558584
O O12 0.078728 0.244947 0.758238
O O13 0.231337 0.178899 0.690208
O O14 0.124801 0.000000 0.691239
O O15 0.885517 0.500000 0.937601
O O16 0.967989 0.247974 0.881722
O O17 0.554968 0.500000 0.824630
O O18 0.172053 0.500000 0.299256
O O19 0.114850 0.262377 0.374630
O O20 0.000000 0.259583 0.500000
O O21 0.249909 0.000000 0.556762
#
# Coordination Sequence:
#
# PCOD9185122 Si02
#       8
#     8   8   8   8   8   8   8   8
#     4  10  21  38  57  75 101 138 172 200 242 302
#     4  11  21  33  52  78 105 130 166 215 256 291
#     4   9  16  28  46  68  94 124 159 198 241 287
#     4   7  13  27  46  66  91 127 164 194 231 289
#     4  10  21  37  56  79 105 131 164 207 250 293
#     4  10  19  34  56  78 101 132 169 206 251 304
#     4   8  14  27  49  72  93 123 165 207 244 290
#     4   8  14  28  49  70  94 127 165 202 247 301
#
# _framework density 17.534327000000001
#
# number of rings (size 3 to 8) (size 9 to 14) (size 15 to 20)
#    0.000    2.875    0.000    4.500    0.000    2.000 
#    0.000   10.000    0.000    6.000    0.000    0.000 
#    0.000    0.000    0.000    0.000    0.000    0.000 
#
# Total GULP energy -178269.153137 kJ/mol
# GULP energy per Si atom -5570.911036 kJ/mol
# Density = 1.749442 g / cm^3
# Si number density = 17.534327 Si / 1000 Ang^3
#
#
#
# Elastic Constant Matrix: (Units=GPa)
#
#
# Indices 1 2 3 4 5 6 
#
# 1 41.8550 16.0187 67.4722 0.0001 -1.6282 0.0005
# 2 16.0187 33.4275 36.0910 0.0003 0.0535 0.0009
# 3 67.4722 36.0910 198.1810 0.0000 -0.5503 0.0000
# 4 0.0001 0.0003 0.0000 26.4413 0.0000 4.3469
# 5 -1.6282 0.0535 -0.5503 0.0000 32.3755 0.0001
# 6 0.0005 0.0009 0.0000 4.3469 0.0001 19.0350
#
#
#
# Elastic Compliance Matrix: (Units=1/GPa)
#
#
# Indices 1 2 3 4 5 6 
#
# 1 0.054647 -0.007607 -0.017213 0.000000 0.002468 -0.000001
# 2 -0.007607 0.038297 -0.004386 0.000000 -0.000520 -0.000002
# 3 -0.017213 -0.004386 0.011703 0.000000 -0.000659 0.000001
# 4 0.000000 0.000000 0.000000 0.039295 0.000000 -0.008974
# 5 0.002468 -0.000520 -0.000659 0.000000 0.031001 0.000000
# 6 -0.000001 -0.000002 0.000001 -0.008974 0.000000 0.054584
#
#
# Mechanical properties :
#
#
# Convention : Reuss Voigt Hill
#
# Bulk Modulus (GPa) = 21.62820 56.95860 39.29340
# Shear Modulus (GPa) = 16.48253 25.82912 21.15583
#
# Velocity S-wave (km/s) = 3.06929 3.84221 3.47729
# Velocity P-wave (km/s) = 4.99222 7.22759 6.21129
#
# Compressibility (1/GPa) = 0.04623593
#
# Stress axis : x y z
#
# Youngs Moduli (GPa) = 18.29913 26.11168 85.44757
#
# Poissons Ratio (x) = 0.19863 1.47081
# Poissons Ratio (y) = 0.13920 0.37477
# Poissons Ratio (z) = 0.31498 0.11452
#
# Static dielectric constant tensor:
#      x y z
#    x 1.571520 0.000000 -0.008990 
#    y 0.000000 1.592020 0.000000 
#    z -0.008990 0.000000 1.625650 
# 
# From -- ./inp_files/346041.got.cif
#   From: 2010.05.17/outbox.cif.g08.bks.cpg/sg12_174_cif.got.tgz:346041.got - 2010.06.03 13:09:07.
