data_PCOD9185484
_publ_section_title
;
Structure prediction by ZEFSAII (Michael W. Deem and Ramdas Pophale) SiO2 
 PCOD9185484
Probable space group: C 2/M
;
_chemical_formula_sum "Si O2"
_cell_formula_units_Z 64
_cell_length_a 28.650653
_cell_length_b 7.955696
_cell_length_c 17.558261
_cell_angle_alpha 90.000000
_cell_angle_beta 134.989192
_cell_angle_gamma 90.000000
_cell_volume 2830.486676
_symmetry_space_group_name_H-M "C 2/M"
_symmetry_group_IT_number 12
_symmetry_cell_setting 'monoclinic'
loop_
_space_group_symop_operation_xyz
x,y,z
-x,y,-z
-x,-y,-z
x,-y,z
1/2+x,1/2+y,z
1/2-x,1/2+y,-z
1/2-x,1/2-y,-z
1/2+x,1/2-y,z
loop_
_atom_site_type_symbol
_atom_site_label
_atom_site_fract_x
_atom_site_fract_y
_atom_site_fract_z
Si Si1 0.100667 0.202293 0.276416
Si Si2 0.951554 0.696989 0.068325
Si Si3 0.414115 0.307136 0.576490
Si Si4 0.550745 0.812808 0.703826
Si Si5 0.746731 0.204518 0.828483
Si Si6 0.358068 0.296891 0.834730
Si Si7 0.344696 0.306571 0.065829
Si Si8 0.103843 0.803604 0.612168
O O1 0.112288 0.269517 0.375248
O O2 0.144828 0.260103 0.256177
O O3 0.025640 0.243953 0.166623
O O4 0.106190 0.000000 0.287606
O O5 0.946658 0.500000 0.081260
O O6 0.901376 0.794729 0.065959
O O7 0.923239 0.727590 0.951434
O O8 0.390788 0.500000 0.545976
O O9 0.494037 0.304787 0.672349
O O10 0.398445 0.230430 0.475861
O O11 0.621579 0.787216 0.825210
O O12 0.558801 0.782012 0.623819
O O13 0.527797 0.000000 0.693337
O O14 0.797088 0.250422 0.818332
O O15 0.677450 0.284408 0.728919
O O16 0.741233 0.000000 0.824216
O O17 0.779988 0.258168 0.947000
O O18 0.362167 0.500000 0.840259
O O19 0.334657 0.500000 0.075511
O O20 0.084965 0.000000 0.587188
#
# Coordination Sequence:
#
# PCOD9185484 Si02
#       8
#     8   8   8   8   8   8   8   8
#     4  10  19  34  57  81 111 153 195 233 280 344
#     4  11  20  30  49  83 121 152 185 232 288 338
#     4  10  22  40  61  85 116 153 194 238 283 341
#     4  12  24  38  61  91 118 146 185 238 297 345
#     4   9  20  39  60  83 114 151 195 241 282 333
#     4   9  19  35  56  81 111 154 197 230 280 345
#     4  10  20  37  60  85 117 155 189 230 285 349
#     4  11  24  41  61  83 111 154 199 238 287 344
#
# _framework density 22.610952000000001
#
# number of rings (size 3 to 8) (size 9 to 14) (size 15 to 20)
#    0.000    1.750    1.250    4.500    0.000    7.500 
#    0.000    0.625    0.000    0.000    0.000    0.000 
#    0.000    0.000    0.000    0.000    0.000    0.000 
#
# Total GULP energy -178830.200340 kJ/mol
# GULP energy per Si atom -5588.443761 kJ/mol
# Density = 2.255949 g / cm^3
# Si number density = 22.610952 Si / 1000 Ang^3
#
#
#
# Elastic Constant Matrix: (Units=GPa)
#
#
# Indices 1 2 3 4 5 6 
#
# 1 78.0620 1.5766 28.8197 0.0000 -37.0421 0.0000
# 2 1.5766 41.8211 2.3961 0.0000 -7.4012 0.0000
# 3 28.8197 2.3961 95.5594 0.0000 -30.2328 0.0000
# 4 0.0000 0.0000 0.0000 4.6312 0.0000 15.9752
# 5 -37.0421 -7.4012 -30.2328 0.0000 47.7722 0.0000
# 6 0.0000 0.0000 0.0000 15.9752 0.0000 0.4137
#
#
#
# Elastic Compliance Matrix: (Units=1/GPa)
#
#
# Indices 1 2 3 4 5 6 
#
# 1 0.020590 0.002029 -0.001388 0.000000 0.015401 0.000000
# 2 0.002029 0.024827 0.000600 0.000000 0.005800 0.000000
# 3 -0.001388 0.000600 0.013200 0.000000 0.007370 0.000000
# 4 0.000000 0.000000 0.000000 -0.001633 0.000000 0.063070
# 5 0.015401 0.005800 0.007370 0.000000 0.038438 0.000000
# 6 0.000000 0.000000 0.000000 0.063070 0.000000 -0.018284
#
#
# Mechanical properties :
#
#
# Convention : Reuss Voigt Hill
#
# Bulk Modulus (GPa) = 16.36672 31.22527 23.79599
# Shear Modulus (GPa) = 52.61981 22.74009 37.67995
#
# Velocity S-wave (km/s) = 4.82932 3.17474 4.08664
# Velocity P-wave (km/s) = 6.19278 5.22287 5.72839
#
# Compressibility (1/GPa) = 0.06109960
#
# Stress axis : x y z
#
# Youngs Moduli (GPa) = 48.56723 40.27895 75.75702
#
# Poissons Ratio (x) = -0.08172 0.10515
# Poissons Ratio (y) = -0.09854 -0.04548
# Poissons Ratio (z) = 0.06741 -0.02418
#
# Static dielectric constant tensor:
#      x y z
#    x 1.859080 0.000000 -0.047610 
#    y 0.000000 1.796550 0.000000 
#    z -0.047610 0.000000 1.859780 
# 
# From -- ./inp_files/295707.got.cif
#   From: 2010.05.17/outbox.cif.g08.bks.cpg/sg12_148_cif.got.tgz:295707.got - 2010.06.03 13:09:07.
