data_PCOD9185365
_publ_section_title
;
Structure prediction by ZEFSAII (Michael W. Deem and Ramdas Pophale) SiO2 
 PCOD9185365
Probable space group: C 2/M
;
_chemical_formula_sum "Si O2"
_cell_formula_units_Z 32
_cell_length_a 8.018506
_cell_length_b 22.797104
_cell_length_c 12.242474
_cell_angle_alpha 90.000000
_cell_angle_beta 35.605348
_cell_angle_gamma 90.000000
_cell_volume 1302.907794
_symmetry_space_group_name_H-M "C 2/M"
_symmetry_group_IT_number 12
_symmetry_cell_setting 'monoclinic'
loop_
_space_group_symop_operation_xyz
x,y,z
-x,y,-z
-x,-y,-z
x,-y,z
1/2+x,1/2+y,z
1/2-x,1/2+y,-z
1/2-x,1/2-y,-z
1/2+x,1/2-y,z
loop_
_atom_site_type_symbol
_atom_site_label
_atom_site_fract_x
_atom_site_fract_y
_atom_site_fract_z
Si Si1 0.451502 0.660397 0.828354
Si Si2 0.830845 0.932883 0.425590
Si Si3 0.909762 0.612757 0.238185
Si Si4 0.722621 0.735647 0.293687
O O1 0.679069 0.613328 0.666030
O O2 0.363109 0.700804 0.770284
O O3 0.571309 0.710677 0.842596
O O4 0.194094 0.621940 0.015981
O O5 0.144822 0.916691 0.312667
O O6 0.598227 0.921456 0.644019
O O7 0.827554 0.000000 0.393262
O O8 0.840054 0.680722 0.302193
O O9 0.500000 0.761494 0.500000
#
# Coordination Sequence:
#
# PCOD9185365 Si02
#       4
#     8   8   8   8
#     4  11  23  37  58  93 120 157 192 245 296 363
#     4  10  20  36  58  87 120 155 198 251 295 338
#     4  10  19  34  56  85 121 149 192 241 304 341
#     4  11  20  37  59  85 127 154 192 239 304 357
#
# _framework density 24.560447
#
# number of rings (size 3 to 8) (size 9 to 14) (size 15 to 20)
#    0.000    1.500    5.000    6.000    0.000    3.000 
#    0.000    0.000    0.000    0.750    0.000    1.750 
#    0.000    0.000    0.000    0.000    0.000    0.000 
#
# Total GULP energy -89330.285061 kJ/mol
# GULP energy per Si atom -5583.142816 kJ/mol
# Density = 2.450455 g / cm^3
# Si number density = 24.560447 Si / 1000 Ang^3
#
#
#
# Elastic Constant Matrix: (Units=GPa)
#
#
# Indices 1 2 3 4 5 6 
#
# 1 61.5698 34.4464 40.1907 0.0000 5.7600 0.0000
# 2 34.4464 192.8308 38.7592 0.0000 10.7851 0.0000
# 3 40.1907 38.7592 168.3489 0.0000 7.6885 0.0000
# 4 0.0000 0.0000 0.0000 24.8890 0.0000 -11.2788
# 5 5.7600 10.7851 7.6885 0.0000 21.1233 0.0000
# 6 0.0000 0.0000 0.0000 -11.2788 0.0000 11.3956
#
#
#
# Elastic Compliance Matrix: (Units=1/GPa)
#
#
# Indices 1 2 3 4 5 6 
#
# 1 0.020761 -0.002709 -0.004207 0.000000 -0.002747 0.000000
# 2 -0.002709 0.005909 -0.000620 0.000000 -0.002053 0.000000
# 3 -0.004207 -0.000620 0.007139 0.000000 -0.001135 0.000000
# 4 0.000000 0.000000 0.000000 0.072856 0.000000 0.072109
# 5 -0.002747 -0.002053 -0.001135 0.000000 0.049551 0.000000
# 6 0.000000 0.000000 0.000000 0.072109 0.000000 0.159124
#
#
# Mechanical properties :
#
#
# Convention : Reuss Voigt Hill
#
# Bulk Modulus (GPa) = 53.37254 72.17134 62.77194
# Shear Modulus (GPa) = 14.85189 32.10511 23.47850
#
# Velocity S-wave (km/s) = 2.46175 3.61943 3.09519
# Velocity P-wave (km/s) = 5.46430 6.84952 6.19575
#
# Compressibility (1/GPa) = 0.01873623
#
# Stress axis : x y z
#
# Youngs Moduli (GPa) = 48.16784 169.22480 140.07607
#
# Poissons Ratio (x) = 0.45849 0.58931
# Poissons Ratio (y) = 0.13050 0.08684
# Poissons Ratio (z) = 0.20265 0.10491
#
# Static dielectric constant tensor:
#      x y z
#    x 2.170450 0.000000 -0.072860 
#    y 0.000000 1.833930 0.000000 
#    z -0.072860 0.000000 2.113760 
# 
# From -- ./inp_files/121572.got.cif
#   From: 2010.05.17/outbox.cif.g08.bks.cpg/sg12_61_cif.got.tgz:121572.got - 2010.06.03 13:09:07.
