data_PCOD9185302
_publ_section_title
;
Structure prediction by ZEFSAII (Michael W. Deem and Ramdas Pophale) SiO2 
 PCOD9185302
Probable space group: C 2/M
;
_chemical_formula_sum "Si O2"
_cell_formula_units_Z 60
_cell_length_a 14.836951
_cell_length_b 13.272558
_cell_length_c 14.758168
_cell_angle_alpha 90.000000
_cell_angle_beta 98.105070
_cell_angle_gamma 90.000000
_cell_volume 2877.211885
_symmetry_space_group_name_H-M "C 2/M"
_symmetry_group_IT_number 12
_symmetry_cell_setting 'monoclinic'
loop_
_space_group_symop_operation_xyz
x,y,z
-x,y,-z
-x,-y,-z
x,-y,z
1/2+x,1/2+y,z
1/2-x,1/2+y,-z
1/2-x,1/2-y,-z
1/2+x,1/2-y,z
loop_
_atom_site_type_symbol
_atom_site_label
_atom_site_fract_x
_atom_site_fract_y
_atom_site_fract_z
Si Si1 0.637386 0.378047 0.890392
Si Si2 0.849177 0.821190 0.455895
Si Si3 0.657263 0.115814 0.099245
Si Si4 0.000000 0.758284 0.000000
Si Si5 0.153397 0.889534 0.339428
Si Si6 0.599334 0.885878 0.469816
Si Si7 0.683888 0.830992 0.308445
Si Si8 0.445291 0.384159 0.306825
O O1 0.627667 0.500000 0.891393
O O2 0.743169 0.355140 0.926878
O O3 0.562359 0.326583 0.943092
O O4 0.615841 0.344452 0.783920
O O5 0.853747 0.876401 0.552476
O O6 0.840354 0.702401 0.477180
O O7 0.769621 0.864514 0.381089
O O8 0.934924 0.829843 0.401241
O O9 0.671764 0.121515 0.209660
O O10 0.638293 0.000000 0.070558
O O11 0.574162 0.187702 0.060773
O O12 0.196953 0.789680 0.303966
O O13 0.049409 0.884413 0.290682
O O14 0.191897 0.000000 0.323569
O O15 0.500000 0.881500 0.500000
O O16 0.599986 0.857618 0.363359
O O17 0.633302 0.000000 0.486645
O O18 0.420298 0.500000 0.320315
#
# Coordination Sequence:
#
# PCOD9185302 Si02
#       8
#     8   8   8   4   8   8   8   8
#     4  10  22  42  69  97 128 163 201 251 316 389
#     4  11  20  32  54  80 112 156 201 244 288 341
#     4  11  24  44  68  94 126 164 209 257 313 386
#     4  12  24  42  70 100 126 154 200 262 328 386
#     4  10  20  32  51  83 119 152 196 249 297 338
#     4  10  21  35  52  77 115 161 206 246 288 343
#     4  11  22  37  58  80 113 161 202 245 299 366
#     4  10  19  34  56  83 112 149 193 240 290 352
#
# _framework density 20.853521000000001
#
# number of rings (size 3 to 8) (size 9 to 14) (size 15 to 20)
#    0.000    1.467    1.333    6.000    0.000    4.267 
#    0.000    0.667    0.000    2.400    0.000    0.000 
#    0.000    0.000    0.000    0.000    0.000    0.000 
#
# Total GULP energy -167481.375709 kJ/mol
# GULP energy per Si atom -5582.712524 kJ/mol
# Density = 2.080606 g / cm^3
# Si number density = 20.853521 Si / 1000 Ang^3
#
#
#
# Elastic Constant Matrix: (Units=GPa)
#
#
# Indices 1 2 3 4 5 6 
#
# 1 102.1113 26.2696 29.1309 0.0000 0.5639 0.0000
# 2 26.2696 97.2775 17.2916 0.0000 -0.9042 0.0000
# 3 29.1309 17.2916 62.8807 0.0000 1.6169 0.0000
# 4 0.0000 0.0000 0.0000 19.1743 0.0000 -5.6540
# 5 0.5639 -0.9042 1.6169 0.0000 36.8681 0.0000
# 6 0.0000 0.0000 0.0000 -5.6540 0.0000 33.0038
#
#
#
# Elastic Compliance Matrix: (Units=1/GPa)
#
#
# Indices 1 2 3 4 5 6 
#
# 1 0.011763 -0.002322 -0.004810 0.000000 -0.000026 0.000000
# 2 -0.002322 0.011272 -0.002034 0.000000 0.000401 0.000000
# 3 -0.004810 -0.002034 0.018712 0.000000 -0.000797 0.000000
# 4 0.000000 0.000000 0.000000 0.054928 0.000000 0.009410
# 5 -0.000026 0.000401 -0.000797 0.000000 0.027169 0.000000
# 6 0.000000 0.000000 0.000000 0.009410 0.000000 0.031912
#
#
# Mechanical properties :
#
#
# Convention : Reuss Voigt Hill
#
# Bulk Modulus (GPa) = 42.71008 45.29485 44.00246
# Shear Modulus (GPa) = 27.48872 30.44773 28.96822
#
# Velocity S-wave (km/s) = 3.63462 3.82524 3.73115
# Velocity P-wave (km/s) = 6.17571 6.42476 6.30147
#
# Compressibility (1/GPa) = 0.02341368
#
# Stress axis : x y z
#
# Youngs Moduli (GPa) = 85.01230 88.71370 53.44281
#
# Poissons Ratio (x) = 0.20597 0.25708
# Poissons Ratio (y) = 0.19738 0.10873
# Poissons Ratio (z) = 0.40894 0.18049
#
# Static dielectric constant tensor:
#      x y z
#    x 1.850670 0.000000 -0.007640 
#    y 0.000000 1.763580 0.000000 
#    z -0.007640 0.000000 1.730230 
# 
# From -- ./inp_files/214873.got.cif
#   From: 2010.05.17/outbox.cif.g08.bks.cpg/sg12_108_cif.got.tgz:214873.got - 2010.06.03 13:09:07.
