data_PCOD9185668
_publ_section_title
;
Structure prediction by ZEFSAII (Michael W. Deem and Ramdas Pophale) SiO2 
 PCOD9185668
Probable space group: C 2/M
;
_chemical_formula_sum "Si O2"
_cell_formula_units_Z 48
_cell_length_a 10.903166
_cell_length_b 21.761592
_cell_length_c 14.597713
_cell_angle_alpha 90.000000
_cell_angle_beta 44.613736
_cell_angle_gamma 90.000000
_cell_volume 2432.570597
_symmetry_space_group_name_H-M "C 2/M"
_symmetry_group_IT_number 12
_symmetry_cell_setting 'monoclinic'
loop_
_space_group_symop_operation_xyz
x,y,z
-x,y,-z
-x,-y,-z
x,-y,z
1/2+x,1/2+y,z
1/2-x,1/2+y,-z
1/2-x,1/2-y,-z
1/2+x,1/2-y,z
loop_
_atom_site_type_symbol
_atom_site_label
_atom_site_fract_x
_atom_site_fract_y
_atom_site_fract_z
Si Si1 0.321083 0.904468 0.141411
Si Si2 0.245416 0.762168 0.147750
Si Si3 0.488910 0.296657 0.141225
Si Si4 0.198544 0.926913 0.407653
Si Si5 0.644323 0.070877 0.490238
Si Si6 0.500223 0.565938 0.814171
O O1 0.306401 0.831301 0.135624
O O2 0.302145 0.918828 0.258279
O O3 0.158417 0.932210 0.173323
O O4 0.500000 0.925426 0.000000
O O5 0.297067 0.723822 0.210474
O O6 0.054038 0.770367 0.204793
O O7 0.370106 0.731869 0.004293
O O8 0.508137 0.370172 0.127385
O O9 0.303941 0.901156 0.438940
O O10 0.000000 0.902478 0.500000
O O11 0.178635 0.000000 0.436637
O O12 0.500000 0.099796 0.500000
O O13 0.822604 0.068444 0.338281
O O14 0.584212 0.000000 0.540089
O O15 0.494929 0.500000 0.866984
#
# Coordination Sequence:
#
# PCOD9185668 Si02
#       6
#     8   8   8   8   8   8
#     4  11  20  34  60  92 125 156 201 258 298 356
#     4   9  18  35  55  81 107 155 207 235 293 351
#     4   9  17  34  57  78 111 153 203 246 291 359
#     4  10  19  34  57  85 118 159 202 246 302 365
#     4   9  18  36  57  80 117 162 203 239 298 374
#     4  10  20  34  57  88 120 156 197 250 312 362
#
# _framework density 19.732212000000001
#
# number of rings (size 3 to 8) (size 9 to 14) (size 15 to 20)
#    0.000    2.333    3.333    0.500    0.000    1.333 
#    3.000    1.667    0.000    4.000    0.000    0.000 
#    0.000    0.000    0.000    0.000    0.000    0.000 
#
# Total GULP energy -133621.875799 kJ/mol
# GULP energy per Si atom -5567.578158 kJ/mol
# Density = 1.968730 g / cm^3
# Si number density = 19.732212 Si / 1000 Ang^3
#
#
#
# Elastic Constant Matrix: (Units=GPa)
#
#
# Indices 1 2 3 4 5 6 
#
# 1 186.1389 32.4040 45.2893 0.0001 -3.8470 0.0000
# 2 32.4040 99.7184 -14.8500 0.0000 3.7125 0.0000
# 3 45.2893 -14.8500 44.5501 0.0006 -11.4829 0.0001
# 4 0.0001 0.0000 0.0006 -40.5083 0.0000 -1.4949
# 5 -3.8470 3.7125 -11.4829 0.0000 18.1126 0.0000
# 6 0.0000 0.0000 0.0001 -1.4949 0.0000 10.8628
#
#
#
# Elastic Compliance Matrix: (Units=1/GPa)
#
#
# Indices 1 2 3 4 5 6 
#
# 1 0.008914 -0.004473 -0.011748 0.000000 -0.004638 0.000000
# 2 -0.004473 0.012797 0.009434 0.000000 0.002408 0.000000
# 3 -0.011748 0.009434 0.043501 0.000001 0.023150 0.000000
# 4 0.000000 0.000000 0.000001 -0.024562 0.000000 -0.003380
# 5 -0.004638 0.002408 0.023150 0.000000 0.068408 0.000000
# 6 0.000000 0.000000 0.000000 -0.003380 0.000000 0.091592
#
#
# Mechanical properties :
#
#
# Convention : Reuss Voigt Hill
#
# Bulk Modulus (GPa) = 19.36598 50.67709 35.02154
# Shear Modulus (GPa) = 21.60403 15.53102 18.56753
#
# Velocity S-wave (km/s) = 3.31246 2.80856 3.07086
# Velocity P-wave (km/s) = 4.94627 6.02125 5.51004
#
# Compressibility (1/GPa) = 0.05163693
#
# Stress axis : x y z
#
# Youngs Moduli (GPa) = 112.18743 78.14241 22.98783
#
# Poissons Ratio (x) = 0.34956 0.27006
# Poissons Ratio (y) = 0.50186 -0.21687
# Poissons Ratio (z) = 1.31799 -0.73719
#
# Static dielectric constant tensor:
#      x y z
#    x 1.800450 0.000000 -0.001200 
#    y 0.000000 1.717220 0.000000 
#    z -0.001200 0.000000 1.698220 
# 
# From -- ./inp_files/207915.got.cif
#   From: 2010.05.17/outbox.cif.g08.bks.cpg/sg12_104_cif.got.tgz:207915.got - 2010.06.03 13:09:07.
