data_PCOD9185461
_publ_section_title
;
Structure prediction by ZEFSAII (Michael W. Deem and Ramdas Pophale) SiO2 
 PCOD9185461
Probable space group: C 2/M
;
_chemical_formula_sum "Si O2"
_cell_formula_units_Z 64
_cell_length_a 33.660237
_cell_length_b 9.593888
_cell_length_c 19.198111
_cell_angle_alpha 90.000000
_cell_angle_beta 36.606950
_cell_angle_gamma 90.000000
_cell_volume 3697.015982
_symmetry_space_group_name_H-M "C 2/M"
_symmetry_group_IT_number 12
_symmetry_cell_setting 'monoclinic'
loop_
_space_group_symop_operation_xyz
x,y,z
-x,y,-z
-x,-y,-z
x,-y,z
1/2+x,1/2+y,z
1/2-x,1/2+y,-z
1/2-x,1/2-y,-z
1/2+x,1/2-y,z
loop_
_atom_site_type_symbol
_atom_site_label
_atom_site_fract_x
_atom_site_fract_y
_atom_site_fract_z
Si Si1 0.322637 0.165804 0.974404
Si Si2 0.962887 0.662134 0.125283
Si Si3 0.431046 0.162218 0.555052
Si Si4 0.209484 0.841660 0.459987
Si Si5 0.568890 0.333207 0.585706
Si Si6 0.032408 0.666339 0.173240
Si Si7 0.670051 0.340476 0.678871
Si Si8 0.190395 0.334527 0.170285
O O1 0.390864 0.201196 0.918053
O O2 0.330705 0.195002 0.880171
O O3 0.311241 0.000000 0.998042
O O4 0.257615 0.249305 0.090198
O O5 0.941872 0.500000 0.160708
O O6 0.898572 0.758744 0.217863
O O7 0.010595 0.690450 0.124161
O O8 0.000000 0.680086 0.000000
O O9 0.500000 0.170340 0.500000
O O10 0.434517 0.264870 0.485220
O O11 0.369607 0.196895 0.692615
O O12 0.423198 0.000000 0.543241
O O13 0.143042 0.807431 0.511212
O O14 0.270438 0.737027 0.364832
O O15 0.189398 0.838783 0.569781
O O16 0.230216 0.000000 0.413930
O O17 0.557913 0.500000 0.600618
O O18 0.515898 0.256149 0.709810
O O19 0.024070 0.500000 0.199695
O O20 0.663544 0.500000 0.710198
O O21 0.203915 0.500000 0.155397
#
# Coordination Sequence:
#
# PCOD9185461 Si02
#       8
#     8   8   8   8   8   8   8   8
#     4   9  18  34  57  81 105 141 186 225 265 316
#     4  10  21  37  56  79 110 146 183 226 278 334
#     4  10  21  38  58  81 115 154 187 222 269 330
#     4   9  19  35  54  79 109 141 178 224 276 328
#     4  11  22  36  56  84 114 142 180 235 284 325
#     4  10  20  36  58  80 105 143 187 225 271 335
#     4  10  19  34  57  81 107 140 181 225 274 328
#     4   9  18  34  55  79 109 142 180 224 268 314
#
# _framework density 17.311257999999999
#
# number of rings (size 3 to 8) (size 9 to 14) (size 15 to 20)
#    0.000    2.250    1.250    1.500    0.000    5.000 
#    2.250    2.500    0.000    0.000    0.000    0.000 
#    0.000    0.000    0.000    0.000    0.000    0.000 
#
# Total GULP energy -178545.656219 kJ/mol
# GULP energy per Si atom -5579.551757 kJ/mol
# Density = 1.727186 g / cm^3
# Si number density = 17.311258 Si / 1000 Ang^3
#
#
#
# Elastic Constant Matrix: (Units=GPa)
#
#
# Indices 1 2 3 4 5 6 
#
# 1 107.8118 77.7777 77.0830 -0.0014 -23.4066 0.0005
# 2 77.7777 86.6229 75.9492 -0.0086 -19.9951 0.0022
# 3 77.0830 75.9492 104.2516 -0.0037 -15.8484 0.0009
# 4 -0.0014 -0.0086 -0.0037 28.1142 0.0015 -10.7494
# 5 -23.4066 -19.9951 -15.8484 0.0015 27.7207 0.0001
# 6 0.0005 0.0022 0.0009 -10.7494 0.0001 19.3828
#
#
#
# Elastic Compliance Matrix: (Units=1/GPa)
#
#
# Indices 1 2 3 4 5 6 
#
# 1 0.029077 -0.018096 -0.007193 -0.000006 0.007387 -0.000002
# 2 -0.018096 0.046384 -0.019328 0.000011 0.007127 0.000002
# 3 -0.007193 -0.019328 0.028419 -0.000002 -0.003768 0.000000
# 4 -0.000006 0.000011 -0.000002 0.045141 -0.000001 0.025035
# 5 0.007387 0.007127 -0.003768 -0.000001 0.045298 -0.000002
# 6 -0.000002 0.000002 0.000000 0.025035 -0.000002 0.065476
#
#
# Mechanical properties :
#
#
# Convention : Reuss Voigt Hill
#
# Bulk Modulus (GPa) = 68.28075 84.47844 76.37960
# Shear Modulus (GPa) = 14.12786 19.56864 16.84825
#
# Velocity S-wave (km/s) = 2.85986 3.36579 3.12309
# Velocity P-wave (km/s) = 7.10167 8.00065 7.56452
#
# Compressibility (1/GPa) = 0.01464542
#
# Stress axis : x y z
#
# Youngs Moduli (GPa) = 34.39189 21.55911 35.18790
#
# Poissons Ratio (x) = 0.39013 0.25311
# Poissons Ratio (y) = 0.62235 0.68012
# Poissons Ratio (z) = 0.24738 0.41670
#
# Static dielectric constant tensor:
#      x y z
#    x 1.576230 0.000000 0.004930 
#    y 0.000000 1.581290 0.000000 
#    z 0.004930 0.000000 1.556320 
# 
# From -- ./inp_files/295540.got.cif
#   From: 2010.05.17/outbox.cif.g08.bks.cpg/sg12_148_cif.got.tgz:295540.got - 2010.06.03 13:09:07.
