data_PCOD9185220
_publ_section_title
;
Structure prediction by ZEFSAII (Michael W. Deem and Ramdas Pophale) SiO2 
 PCOD9185220
Probable space group: C 2/M
;
_chemical_formula_sum "Si O2"
_cell_formula_units_Z 56
_cell_length_a 11.121266
_cell_length_b 14.487996
_cell_length_c 18.529649
_cell_angle_alpha 90.000000
_cell_angle_beta 125.411684
_cell_angle_gamma 90.000000
_cell_volume 2433.282256
_symmetry_space_group_name_H-M "C 2/M"
_symmetry_group_IT_number 12
_symmetry_cell_setting 'monoclinic'
loop_
_space_group_symop_operation_xyz
x,y,z
-x,y,-z
-x,-y,-z
x,-y,z
1/2+x,1/2+y,z
1/2-x,1/2+y,-z
1/2-x,1/2-y,-z
1/2+x,1/2-y,z
loop_
_atom_site_type_symbol
_atom_site_label
_atom_site_fract_x
_atom_site_fract_y
_atom_site_fract_z
Si Si1 0.180036 0.608991 0.553978
Si Si2 0.706129 0.604609 0.566906
Si Si3 0.316154 0.745934 0.332477
Si Si4 0.202254 0.648233 0.004214
Si Si5 0.870395 0.304450 0.870070
Si Si6 0.817467 0.099123 0.900700
Si Si7 0.465130 0.101534 0.294517
O O1 0.209077 0.500000 0.575118
O O2 0.245417 0.632349 0.497419
O O3 0.254040 0.677176 0.638023
O O4 0.000000 0.620583 0.500000
O O5 0.653703 0.500000 0.545011
O O6 0.617642 0.670283 0.590309
O O7 0.864271 0.603434 0.663402
O O8 0.212961 0.703459 0.234445
O O9 0.431744 0.809255 0.330195
O O10 0.297491 0.593734 0.979596
O O11 0.028029 0.645156 0.925187
O O12 0.250000 0.750000 0.000000
O O13 0.218382 0.644127 0.096192
O O14 0.889537 0.195843 0.900817
O O15 0.652101 0.105348 0.810284
O O16 0.878081 0.000000 0.895517
O O17 0.441742 0.000000 0.323156
#
# Coordination Sequence:
#
# PCOD9185220 Si02
#       7
#     8   8   8   8   8   8   8
#     4  10  19  34  56  81 109 136 173 225 267 308
#     4  10  20  33  51  77 108 141 177 218 262 312
#     4  11  19  31  54  81 106 137 179 217 269 318
#     4   9  17  34  51  68 104 142 172 204 262 312
#     4   9  19  32  50  76 105 137 172 219 261 312
#     4   9  17  30  52  79 104 134 176 221 262 304
#     4   9  17  31  52  80 109 136 177 229 264 301
#
# _framework density 23.014182000000002
#
# number of rings (size 3 to 8) (size 9 to 14) (size 15 to 20)
#    0.000    2.429    1.429    1.714    0.000    0.571 
#    0.000    7.857    0.000    2.143    0.000    5.000 
#    0.000    0.000    0.000    0.000    0.000    0.000 
#
# Total GULP energy -155983.678257 kJ/mol
# GULP energy per Si atom -5570.845652 kJ/mol
# Density = 2.296180 g / cm^3
# Si number density = 23.014182 Si / 1000 Ang^3
#
#
#
# Elastic Constant Matrix: (Units=GPa)
#
#
# Indices 1 2 3 4 5 6 
#
# 1 54.9869 3.2332 36.0096 0.0000 -17.9179 0.0000
# 2 3.2332 69.1866 18.1799 0.0000 -31.8809 0.0000
# 3 36.0096 18.1799 145.5258 0.0000 -16.6367 0.0000
# 4 0.0000 0.0000 0.0000 18.6747 0.0000 -6.5477
# 5 -17.9179 -31.8809 -16.6367 0.0000 39.5061 0.0000
# 6 0.0000 0.0000 0.0000 -6.5477 0.0000 8.7218
#
#
#
# Elastic Compliance Matrix: (Units=1/GPa)
#
#
# Indices 1 2 3 4 5 6 
#
# 1 0.026616 0.007502 -0.005727 0.000000 0.015714 0.000000
# 2 0.007502 0.025211 -0.002407 0.000000 0.022734 0.000000
# 3 -0.005727 -0.002407 0.008479 0.000000 -0.000969 0.000000
# 4 0.000000 0.000000 0.000000 0.072678 0.000000 0.054561
# 5 0.015714 0.022734 -0.000969 0.000000 0.050377 0.000000
# 6 0.000000 0.000000 0.000000 0.054561 0.000000 0.155615
#
#
# Mechanical properties :
#
#
# Convention : Reuss Voigt Hill
#
# Bulk Modulus (GPa) = 16.93709 42.72720 29.83214
# Shear Modulus (GPa) = 13.89197 27.53232 20.71214
#
# Velocity S-wave (km/s) = 2.45955 3.46254 3.00321
# Velocity P-wave (km/s) = 3.92953 5.88145 5.00163
#
# Compressibility (1/GPa) = 0.05904202
#
# Stress axis : x y z
#
# Youngs Moduli (GPa) = 37.57178 39.66487 117.94469
#
# Poissons Ratio (x) = -0.29756 0.67543
# Poissons Ratio (y) = -0.28185 0.28387
# Poissons Ratio (z) = 0.21516 0.09547
#
# Static dielectric constant tensor:
#      x y z
#    x 1.936130 0.000000 0.013300 
#    y 0.000000 1.886040 0.000000 
#    z 0.013300 0.000000 1.914130 
# 
# From -- ./inp_files/263433.got.cif
#   From: 2010.05.17/outbox.cif.g08.bks.cpg/sg12_132_cif.got.tgz:263433.got - 2010.06.03 13:09:07.
