data_PCOD9185395
_publ_section_title
;
Structure prediction by ZEFSAII (Michael W. Deem and Ramdas Pophale) SiO2 
 PCOD9185395
Probable space group: C 2/M
;
_chemical_formula_sum "Si O2"
_cell_formula_units_Z 56
_cell_length_a 28.843276
_cell_length_b 18.008231
_cell_length_c 18.551566
_cell_angle_alpha 90.000000
_cell_angle_beta 162.301068
_cell_angle_gamma 90.000000
_cell_volume 2929.487570
_symmetry_space_group_name_H-M "C 2/M"
_symmetry_group_IT_number 12
_symmetry_cell_setting 'monoclinic'
loop_
_space_group_symop_operation_xyz
x,y,z
-x,y,-z
-x,-y,-z
x,-y,z
1/2+x,1/2+y,z
1/2-x,1/2+y,-z
1/2-x,1/2-y,-z
1/2+x,1/2-y,z
loop_
_atom_site_type_symbol
_atom_site_label
_atom_site_fract_x
_atom_site_fract_y
_atom_site_fract_z
Si Si1 0.567251 0.822663 0.454682
Si Si2 0.134870 0.181124 0.457690
Si Si3 0.157707 0.231954 0.791783
Si Si4 0.294235 0.914243 0.976193
Si Si5 0.061283 0.296411 0.167921
Si Si6 0.832689 0.414946 0.860471
Si Si7 0.858635 0.190618 0.968191
O O1 0.595936 0.760438 0.436222
O O2 0.492337 0.778070 0.411292
O O3 0.445215 0.881434 0.241295
O O4 0.733172 0.847919 0.730642
O O5 0.259130 0.195807 0.578869
O O6 0.212718 0.133093 0.636267
O O7 0.980754 0.145680 0.197079
O O8 0.261634 0.260731 0.880860
O O9 0.250000 0.250000 0.000000
O O10 0.155043 0.142722 0.785264
O O11 0.268920 0.000000 0.959265
O O12 0.314189 0.910944 0.919307
O O13 0.000000 0.269334 0.000000
O O14 0.995156 0.378389 0.083366
O O15 0.970457 0.244947 0.089172
O O16 0.823040 0.500000 0.824042
#
# Coordination Sequence:
#
# PCOD9185395 Si02
#       7
#     8   8   8   8   8   8   8
#     4  11  21  36  61  88 119 153 195 240 295 350
#     4  11  21  34  57  88 118 156 196 237 295 348
#     4  10  19  36  61  86 114 150 195 240 287 344
#     4  10  20  38  62  88 117 153 198 244 291 349
#     4  10  19  34  56  88 118 152 196 246 292 341
#     4  10  20  37  59  86 121 156 196 244 294 349
#     4  12  20  36  58  89 120 150 197 244 291 345
#
# _framework density 19.115970999999998
#
# number of rings (size 3 to 8) (size 9 to 14) (size 15 to 20)
#    0.000    1.429    7.143    0.857    0.000    2.571 
#    0.000    1.429    0.000    9.429    0.000    4.000 
#    0.000    0.000    0.000    0.000    0.000    0.000 
#
# Total GULP energy -155885.963602 kJ/mol
# GULP energy per Si atom -5567.355843 kJ/mol
# Density = 1.907246 g / cm^3
# Si number density = 19.115971 Si / 1000 Ang^3
#
#
#
# Elastic Constant Matrix: (Units=GPa)
#
#
# Indices 1 2 3 4 5 6 
#
# 1 87.0414 30.8435 23.6747 0.0000 -1.3828 0.0000
# 2 30.8435 77.6321 12.7910 0.0000 4.6933 0.0000
# 3 23.6747 12.7910 131.7624 0.0000 -11.9931 0.0000
# 4 0.0000 0.0000 0.0000 9.7070 0.0000 3.6246
# 5 -1.3828 4.6933 -11.9931 0.0000 26.0791 0.0000
# 6 0.0000 0.0000 0.0000 3.6246 0.0000 18.8426
#
#
#
# Elastic Compliance Matrix: (Units=1/GPa)
#
#
# Indices 1 2 3 4 5 6 
#
# 1 0.013881 -0.005249 -0.001912 0.000000 0.000801 0.000000
# 2 -0.005249 0.015315 -0.000856 0.000000 -0.003428 0.000000
# 3 -0.001912 -0.000856 0.008371 0.000000 0.003902 0.000000
# 4 0.000000 0.000000 0.000000 0.110991 0.000000 -0.021350
# 5 0.000801 -0.003428 0.003902 0.000000 0.040799 0.000000
# 6 0.000000 0.000000 0.000000 -0.021350 0.000000 0.057178
#
#
# Mechanical properties :
#
#
# Convention : Reuss Voigt Hill
#
# Bulk Modulus (GPa) = 46.43519 47.89493 47.16506
# Shear Modulus (GPa) = 18.53598 26.20085 22.36842
#
# Velocity S-wave (km/s) = 3.11731 3.70621 3.42445
# Velocity P-wave (km/s) = 6.10745 6.58969 6.35315
#
# Compressibility (1/GPa) = 0.02153539
#
# Stress axis : x y z
#
# Youngs Moduli (GPa) = 72.03908 65.29638 119.45780
#
# Poissons Ratio (x) = 0.34271 0.22837
# Poissons Ratio (y) = 0.37810 0.10221
# Poissons Ratio (z) = 0.13772 0.05587
#
# Static dielectric constant tensor:
#      x y z
#    x 1.720060 0.000000 -0.014190 
#    y 0.000000 1.650850 0.000000 
#    z -0.014190 0.000000 1.792760 
# 
# From -- ./inp_files/293910.got.cif
#   From: 2010.05.17/outbox.cif.g08.bks.cpg/sg12_147_cif.got.tgz:293910.got - 2010.06.03 13:09:07.
