data_PCOD9185720
_publ_section_title
;
Structure prediction by ZEFSAII (Michael W. Deem and Ramdas Pophale) SiO2 
 PCOD9185720
Probable space group: C 2/M
;
_chemical_formula_sum "Si O2"
_cell_formula_units_Z 44
_cell_length_a 28.177804
_cell_length_b 7.583060
_cell_length_c 9.486630
_cell_angle_alpha 90.000000
_cell_angle_beta 62.590956
_cell_angle_gamma 90.000000
_cell_volume 1799.495332
_symmetry_space_group_name_H-M "C 2/M"
_symmetry_group_IT_number 12
_symmetry_cell_setting 'monoclinic'
loop_
_space_group_symop_operation_xyz
x,y,z
-x,y,-z
-x,-y,-z
x,-y,z
1/2+x,1/2+y,z
1/2-x,1/2+y,-z
1/2-x,1/2-y,-z
1/2+x,1/2-y,z
loop_
_atom_site_type_symbol
_atom_site_label
_atom_site_fract_x
_atom_site_fract_y
_atom_site_fract_z
Si Si1 0.170271 0.712917 0.205986
Si Si2 0.117452 0.000000 0.735530
Si Si3 0.551339 0.214053 0.341457
Si Si4 0.216451 0.795314 0.838781
Si Si5 0.688218 0.191586 0.593432
Si Si6 0.943729 0.704161 0.996101
O O1 0.170465 0.500000 0.198351
O O2 0.109833 0.771614 0.317350
O O3 0.221353 0.757386 0.232761
O O4 0.188654 0.780060 0.027398
O O5 0.148447 0.156456 0.602971
O O6 0.089696 0.153440 0.872501
O O7 0.500000 0.278461 0.500000
O O8 0.548912 0.256762 0.178301
O O9 0.550473 0.000000 0.351567
O O10 0.186131 0.683327 0.766232
O O11 0.211499 0.000000 0.797517
O O12 0.750000 0.250000 0.500000
O O13 0.678157 0.000000 0.543123
O O14 0.924153 0.500000 0.024089
O O15 0.000000 0.701302 0.000000
#
# Coordination Sequence:
#
# PCOD9185720 Si02
#       6
#     8   4   8   8   8   8
#     4   9  18  33  58  87 121 167 213 258 317 391
#     4  12  23  42  69  94 131 178 221 274 331 412
#     4   9  18  36  61  92 130 172 214 272 337 396
#     4  10  19  34  57  88 123 164 215 264 315 390
#     4  12  24  42  62  92 132 173 215 268 336 400
#     4  10  22  42  70 102 130 173 231 282 335 398
#
# _framework density 24.451301000000001
#
# number of rings (size 3 to 8) (size 9 to 14) (size 15 to 20)
#    0.000    1.818    1.818    2.455    0.000    2.182 
#    3.273    0.455    0.000    0.000    0.000    0.000 
#    0.000    0.000    0.000    0.000    0.000    0.000 
#
# Total GULP energy -122488.414030 kJ/mol
# GULP energy per Si atom -5567.655183 kJ/mol
# Density = 2.439565 g / cm^3
# Si number density = 24.451301 Si / 1000 Ang^3
#
#
#
# Elastic Constant Matrix: (Units=GPa)
#
#
# Indices 1 2 3 4 5 6 
#
# 1 98.8309 25.4993 50.0680 0.0000 -20.5465 0.0000
# 2 25.4993 133.7622 39.6194 0.0000 -14.0150 0.0000
# 3 50.0680 39.6194 113.6540 0.0000 -44.6525 0.0000
# 4 0.0000 0.0000 0.0000 37.3521 0.0000 -3.2622
# 5 -20.5465 -14.0150 -44.6525 0.0000 45.2148 0.0000
# 6 0.0000 0.0000 0.0000 -3.2622 0.0000 15.2990
#
#
#
# Elastic Compliance Matrix: (Units=1/GPa)
#
#
# Indices 1 2 3 4 5 6 
#
# 1 0.013123 -0.000886 -0.005290 0.000000 0.000465 0.000000
# 2 -0.000886 0.008403 -0.002735 0.000000 -0.000499 0.000000
# 3 -0.005290 -0.002735 0.017655 0.000000 0.014184 0.000000
# 4 0.000000 0.000000 0.000000 0.027280 0.000000 0.005817
# 5 0.000465 -0.000499 0.014184 0.000000 0.036181 0.000000
# 6 0.000000 0.000000 0.000000 0.005817 0.000000 0.066604
#
#
# Mechanical properties :
#
#
# Convention : Reuss Voigt Hill
#
# Bulk Modulus (GPa) = 46.81751 64.06894 55.44323
# Shear Modulus (GPa) = 25.74841 34.97721 30.36281
#
# Velocity S-wave (km/s) = 3.24859 3.78628 3.52769
# Velocity P-wave (km/s) = 5.76714 6.73603 6.27033
#
# Compressibility (1/GPa) = 0.02135953
#
# Stress axis : x y z
#
# Youngs Moduli (GPa) = 76.20006 119.01034 56.64209
#
# Poissons Ratio (x) = 0.10548 0.29961
# Poissons Ratio (y) = 0.06753 0.15490
# Poissons Ratio (z) = 0.40307 0.32546
#
# Static dielectric constant tensor:
#      x y z
#    x 2.103620 0.000000 0.199530 
#    y 0.000000 2.001720 0.000000 
#    z 0.199530 0.000000 2.432330 
# 
# From -- ./inp_files/186233.got.cif
#   From: 2010.05.17/outbox.cif.g08.bks.cpg/sg12_94_cif.got.tgz:186233.got - 2010.06.03 13:09:07.
