data_PCOD9185875
_publ_section_title
;
Structure prediction by ZEFSAII (Michael W. Deem and Ramdas Pophale) SiO2 
 PCOD9185875
Probable space group: C 2/M
;
_chemical_formula_sum "Si O2"
_cell_formula_units_Z 48
_cell_length_a 18.807430
_cell_length_b 14.015473
_cell_length_c 12.308414
_cell_angle_alpha 90.000000
_cell_angle_beta 131.870977
_cell_angle_gamma 90.000000
_cell_volume 2415.968961
_symmetry_space_group_name_H-M "C 2/M"
_symmetry_group_IT_number 12
_symmetry_cell_setting 'monoclinic'
loop_
_space_group_symop_operation_xyz
x,y,z
-x,y,-z
-x,-y,-z
x,-y,z
1/2+x,1/2+y,z
1/2-x,1/2+y,-z
1/2-x,1/2-y,-z
1/2+x,1/2-y,z
loop_
_atom_site_type_symbol
_atom_site_label
_atom_site_fract_x
_atom_site_fract_y
_atom_site_fract_z
Si Si1 0.675318 0.390494 0.404634
Si Si2 0.128062 0.687248 0.295716
Si Si3 0.825069 0.764266 0.172925
Si Si4 0.321569 0.108221 0.871446
Si Si5 0.555926 0.109164 0.780780
Si Si6 0.506326 0.610083 0.628078
O O1 0.676529 0.500000 0.363646
O O2 0.777453 0.361607 0.557693
O O3 0.645586 0.300610 0.299539
O O4 0.594869 0.386929 0.416311
O O5 0.114819 0.638371 0.165645
O O6 0.040793 0.664165 0.286785
O O7 0.765618 0.816942 0.206184
O O8 0.880506 0.664691 0.243458
O O9 0.909856 0.835339 0.224641
O O10 0.750000 0.750000 0.000000
O O11 0.285605 0.000000 0.818902
O O12 0.381838 0.109617 0.044155
O O13 0.536179 0.000000 0.731501
O O14 0.500000 0.651044 0.500000
O O15 0.535511 0.500000 0.648724
#
# Coordination Sequence:
#
# PCOD9185875 Si02
#       6
#     8   8   8   8   8   8
#     4  10  21  34  53  82 112 147 183 223 281 339
#     4  11  20  35  57  82 114 144 182 233 279 334
#     4  10  20  35  54  83 116 149 185 233 287 339
#     4  10  20  34  57  85 109 140 187 238 280 324
#     4  10  20  35  56  82 111 146 185 229 284 338
#     4  10  19  34  58  85 113 144 187 239 286 334
#
# _framework density 19.867805000000001
#
# number of rings (size 3 to 8) (size 9 to 14) (size 15 to 20)
#    0.000    1.833    1.667    3.500    0.000    3.333 
#    0.000    0.833    0.000    4.500    0.000    0.000 
#    0.000    0.000    0.000    0.000    0.000    0.000 
#
# Total GULP energy -133824.638528 kJ/mol
# GULP energy per Si atom -5576.026605 kJ/mol
# Density = 1.982258 g / cm^3
# Si number density = 19.867805 Si / 1000 Ang^3
#
#
#
# Elastic Constant Matrix: (Units=GPa)
#
#
# Indices 1 2 3 4 5 6 
#
# 1 57.2129 27.1371 19.2639 0.0000 22.4800 0.0000
# 2 27.1371 148.0510 30.3151 0.0000 11.6946 0.0000
# 3 19.2639 30.3151 47.8186 0.0000 21.6282 0.0000
# 4 0.0000 0.0000 0.0000 20.1039 0.0000 4.8333
# 5 22.4800 11.6946 21.6282 0.0000 30.1405 0.0000
# 6 0.0000 0.0000 0.0000 4.8333 0.0000 33.5915
#
#
#
# Elastic Compliance Matrix: (Units=1/GPa)
#
#
# Indices 1 2 3 4 5 6 
#
# 1 0.026261 -0.003325 -0.000290 0.000000 -0.018088 0.000000
# 2 -0.003325 0.008195 -0.005240 0.000000 0.003061 0.000000
# 3 -0.000290 -0.005240 0.034546 0.000000 -0.022540 0.000000
# 4 0.000000 0.000000 0.000000 0.051524 0.000000 -0.007413
# 5 -0.018088 0.003061 -0.022540 0.000000 0.061655 0.000000
# 6 0.000000 0.000000 0.000000 -0.007413 0.000000 0.030836
#
#
# Mechanical properties :
#
#
# Convention : Reuss Voigt Hill
#
# Bulk Modulus (GPa) = 19.49661 45.16831 32.33246
# Shear Modulus (GPa) = 20.17554 28.52493 24.35023
#
# Velocity S-wave (km/s) = 3.19013 3.79322 3.50467
# Velocity P-wave (km/s) = 4.83774 6.47831 5.71718
#
# Compressibility (1/GPa) = 0.05129096
#
# Stress axis : x y z
#
# Youngs Moduli (GPa) = 38.07994 122.02333 28.94692
#
# Poissons Ratio (x) = 0.40576 0.00839
# Poissons Ratio (y) = 0.12663 0.15168
# Poissons Ratio (z) = 0.01104 0.63941
#
# Static dielectric constant tensor:
#      x y z
#    x 1.690510 0.000000 0.010720 
#    y 0.000000 1.739740 0.000000 
#    z 0.010720 0.000000 1.815510 
# 
# From -- ./inp_files/232811.got.cif
#   From: 2010.05.17/outbox.cif.g08.bks.cpg/sg12_117_cif.got.tgz:232811.got - 2010.06.03 13:09:07.
