data_PCOD9185826
_publ_section_title
;
Structure prediction by ZEFSAII (Michael W. Deem and Ramdas Pophale) SiO2 
 PCOD9185826
Probable space group: C 2/M
;
_chemical_formula_sum "Si O2"
_cell_formula_units_Z 40
_cell_length_a 18.226949
_cell_length_b 12.677810
_cell_length_c 10.926410
_cell_angle_alpha 90.000000
_cell_angle_beta 57.772928
_cell_angle_gamma 90.000000
_cell_volume 2135.875496
_symmetry_space_group_name_H-M "C 2/M"
_symmetry_group_IT_number 12
_symmetry_cell_setting 'monoclinic'
loop_
_space_group_symop_operation_xyz
x,y,z
-x,y,-z
-x,-y,-z
x,-y,z
1/2+x,1/2+y,z
1/2-x,1/2+y,-z
1/2-x,1/2-y,-z
1/2+x,1/2-y,z
loop_
_atom_site_type_symbol
_atom_site_label
_atom_site_fract_x
_atom_site_fract_y
_atom_site_fract_z
Si Si1 0.756143 0.779996 0.293946
Si Si2 0.841964 0.880349 0.445597
Si Si3 0.899550 0.621378 0.052587
Si Si4 0.165554 0.299048 0.138441
Si Si5 0.467710 0.380576 0.668586
O O1 0.792773 0.857377 0.363934
O O2 0.691972 0.700394 0.422440
O O3 0.834313 0.706088 0.172412
O O4 0.704521 0.839783 0.232167
O O5 0.944257 0.866742 0.333309
O O6 0.828393 0.000000 0.500487
O O7 0.879887 0.500000 0.107132
O O8 0.882218 0.631510 0.921646
O O9 0.000000 0.642169 0.000000
O O10 0.101548 0.204742 0.232097
O O11 0.250000 0.250000 0.000000
O O12 0.500000 0.369641 0.500000
O O13 0.434330 0.500000 0.713421
#
# Coordination Sequence:
#
# PCOD9185826 Si02
#       5
#     8   8   8   8   8
#     4  10  20  35  55  81 112 146 184 232 279 330
#     4  10  20  34  56  83 113 146 184 231 282 333
#     4  10  21  37  56  75 105 149 191 226 271 332
#     4  10  21  35  55  83 112 145 183 230 278 330
#     4  10  19  34  58  84 110 143 187 232 278 331
#
# _framework density 18.727682999999999
#
# number of rings (size 3 to 8) (size 9 to 14) (size 15 to 20)
#    0.000    2.000    2.000    1.800    0.000    4.000 
#    0.000    3.000    0.000   11.400    0.000    0.000 
#    0.000    0.000    0.000    0.000    0.000    0.000 
#
# Total GULP energy -111498.899186 kJ/mol
# GULP energy per Si atom -5574.944959 kJ/mol
# Density = 1.868506 g / cm^3
# Si number density = 18.727683 Si / 1000 Ang^3
#
#
#
# Elastic Constant Matrix: (Units=GPa)
#
#
# Indices 1 2 3 4 5 6 
#
# 1 114.1363 8.0013 13.6398 0.0000 17.6885 0.0000
# 2 8.0013 23.5639 -0.3256 0.0000 -13.6492 0.0000
# 3 13.6398 -0.3256 40.3314 0.0000 4.7230 0.0000
# 4 0.0000 0.0000 0.0000 17.2637 0.0000 2.8456
# 5 17.6885 -13.6492 4.7230 0.0000 34.0778 0.0000
# 6 0.0000 0.0000 0.0000 2.8456 0.0000 3.1807
#
#
#
# Elastic Compliance Matrix: (Units=1/GPa)
#
#
# Indices 1 2 3 4 5 6 
#
# 1 0.011122 -0.009031 -0.002780 0.000000 -0.009005 0.000000
# 2 -0.009031 0.062781 0.000069 0.000000 0.029824 0.000000
# 3 -0.002780 0.000069 0.025985 0.000000 -0.002131 0.000000
# 4 0.000000 0.000000 0.000000 0.067944 0.000000 -0.060786
# 5 -0.009005 0.029824 -0.002131 0.000000 0.046260 0.000000
# 6 0.000000 0.000000 0.000000 -0.060786 0.000000 0.368778
#
#
# Mechanical properties :
#
#
# Convention : Reuss Voigt Hill
#
# Bulk Modulus (GPa) = 13.08854 24.51807 18.80330
# Shear Modulus (GPa) = 7.91361 21.35217 14.63289
#
# Velocity S-wave (km/s) = 2.05786 3.38026 2.79830
# Velocity P-wave (km/s) = 3.55675 5.32496 4.52800
#
# Compressibility (1/GPa) = 0.07640270
#
# Stress axis : x y z
#
# Youngs Moduli (GPa) = 89.90870 15.92845 38.48399
#
# Poissons Ratio (x) = 0.14386 0.10698
# Poissons Ratio (y) = 0.81200 -0.00264
# Poissons Ratio (z) = 0.24993 -0.00109
#
# Static dielectric constant tensor:
#      x y z
#    x 1.688130 0.000000 0.040430 
#    y 0.000000 1.601230 0.000000 
#    z 0.040430 0.000000 1.631230 
# 
# From -- ./inp_files/111847.got.cif
#   From: 2010.05.17/outbox.cif.g08.bks.cpg/sg12_56_cif.got.tgz:111847.got - 2010.06.03 13:09:07.
