data_PCOD9185936
_publ_section_title
;
Structure prediction by ZEFSAII (Michael W. Deem and Ramdas Pophale) SiO2 
 PCOD9185936
Probable space group: C 2/M
;
_chemical_formula_sum "Si O2"
_cell_formula_units_Z 64
_cell_length_a 29.247293
_cell_length_b 7.583245
_cell_length_c 17.952441
_cell_angle_alpha 90.000000
_cell_angle_beta 43.792974
_cell_angle_gamma 90.000000
_cell_volume 2755.526993
_symmetry_space_group_name_H-M "C 2/M"
_symmetry_group_IT_number 12
_symmetry_cell_setting 'monoclinic'
loop_
_space_group_symop_operation_xyz
x,y,z
-x,y,-z
-x,-y,-z
x,-y,z
1/2+x,1/2+y,z
1/2-x,1/2+y,-z
1/2-x,1/2-y,-z
1/2+x,1/2-y,z
loop_
_atom_site_type_symbol
_atom_site_label
_atom_site_fract_x
_atom_site_fract_y
_atom_site_fract_z
Si Si1 0.796674 0.209921 0.014624
Si Si2 0.924071 0.296966 0.404640
Si Si3 0.826039 0.711319 0.392603
Si Si4 0.821395 0.284039 0.231000
Si Si5 0.711396 0.293278 0.257476
Si Si6 0.570699 0.299827 0.434342
Si Si7 0.450315 0.213412 0.993055
Si Si8 0.445840 0.296420 0.830201
O O1 0.760565 0.281240 0.130236
O O2 0.802162 0.000000 0.017858
O O3 0.750000 0.250000 0.000000
O O4 0.871268 0.277726 0.914545
O O5 0.905473 0.500000 0.441459
O O6 0.874852 0.222094 0.399429
O O7 0.921602 0.198855 0.485674
O O8 0.997857 0.292651 0.284748
O O9 0.835873 0.500000 0.379069
O O10 0.750000 0.750000 0.500000
O O11 0.838368 0.776299 0.294078
O O12 0.820466 0.500000 0.233203
O O13 0.750866 0.221974 0.282637
O O14 0.877885 0.232670 0.106264
O O15 0.699630 0.500000 0.286554
O O16 0.639218 0.216683 0.325399
O O17 0.500000 0.214442 0.500000
O O18 0.566822 0.500000 0.407754
O O19 0.465734 0.285408 0.893691
O O20 0.452627 0.000000 0.984760
O O21 0.500000 0.266099 0.000000
O O22 0.443687 0.500000 0.808751
#
# Coordination Sequence:
#
# PCOD9185936 Si02
#       8
#     8   8   8   8   8   8   8   8
#     4  11  25  42  63  91 123 160 203 257 313 370
#     4  11  24  41  63  92 128 166 208 256 305 365
#     4  10  21  38  60  89 122 160 206 251 300 357
#     4   9  17  32  56  83 113 152 196 238 287 351
#     4  10  20  38  64  90 119 158 202 251 306 367
#     4  10  23  42  64  90 122 160 204 256 311 367
#     4  10  19  34  58  86 119 159 201 245 294 354
#     4  11  24  41  61  89 127 165 204 253 308 367
#
# _framework density 23.226046
#
# number of rings (size 3 to 8) (size 9 to 14) (size 15 to 20)
#    0.000    1.750    1.250    2.625    1.750    6.500 
#    0.000    1.250    0.000    0.000    0.000    0.000 
#    0.000    0.000    0.000    0.000    0.000    0.000 
#
# Total GULP energy -178919.462662 kJ/mol
# GULP energy per Si atom -5591.233208 kJ/mol
# Density = 2.317318 g / cm^3
# Si number density = 23.226046 Si / 1000 Ang^3
#
#
#
# Elastic Constant Matrix: (Units=GPa)
#
#
# Indices 1 2 3 4 5 6 
#
# 1 122.6864 -4.2338 16.2593 -0.0029 -24.2360 0.0038
# 2 -4.2338 59.5240 -7.7706 -0.0021 -4.8839 -0.0260
# 3 16.2593 -7.7706 85.1832 0.0198 -18.6763 -0.0091
# 4 -0.0029 -0.0021 0.0198 21.6459 -0.0062 5.8320
# 5 -24.2360 -4.8839 -18.6763 -0.0062 47.2318 0.0015
# 6 0.0038 -0.0260 -0.0091 5.8320 0.0015 12.3540
#
#
#
# Elastic Compliance Matrix: (Units=1/GPa)
#
#
# Indices 1 2 3 4 5 6 
#
# 1 0.009168 0.000937 -0.000670 0.000004 0.004536 -0.000004
# 2 0.000937 0.017394 0.002089 -0.000011 0.003105 0.000042
# 3 -0.000670 0.002089 0.013172 -0.000016 0.005081 0.000021
# 4 0.000004 -0.000011 -0.000016 0.052930 0.000002 -0.024987
# 5 0.004536 0.003105 0.005081 0.000002 0.025830 0.000005
# 6 -0.000004 0.000042 0.000021 -0.024987 0.000005 0.092741
#
#
# Mechanical properties :
#
#
# Convention : Reuss Voigt Hill
#
# Bulk Modulus (GPa) = 22.49961 30.65596 26.57778
# Shear Modulus (GPa) = 22.58975 33.78891 28.18933
#
# Velocity S-wave (km/s) = 3.12204 3.81830 3.48759
# Velocity P-wave (km/s) = 4.76492 5.71549 5.26172
#
# Compressibility (1/GPa) = 0.04444522
#
# Stress axis : x y z
#
# Youngs Moduli (GPa) = 109.07370 57.49089 75.92027
#
# Poissons Ratio (x) = -0.05386 0.05086
# Poissons Ratio (y) = -0.10219 -0.15858
# Poissons Ratio (z) = 0.07307 -0.12008
#
# Static dielectric constant tensor:
#      x y z
#    x 1.879930 0.000010 -0.056010 
#    y 0.000010 1.833510 0.000070 
#    z -0.056010 0.000070 1.829910 
# 
# From -- ./inp_files/295565.got.cif
#   From: 2010.05.17/outbox.cif.g08.bks.cpg/sg12_148_cif.got.tgz:295565.got - 2010.06.03 13:09:07.
