data_PCOD9185821
_publ_section_title
;
Structure prediction by ZEFSAII (Michael W. Deem and Ramdas Pophale) SiO2 
 PCOD9185821
Probable space group: C 2/M
;
_chemical_formula_sum "Si O2"
_cell_formula_units_Z 48
_cell_length_a 21.367323
_cell_length_b 13.833485
_cell_length_c 12.007535
_cell_angle_alpha 90.000000
_cell_angle_beta 46.030388
_cell_angle_gamma 90.000000
_cell_volume 2554.418117
_symmetry_space_group_name_H-M "C 2/M"
_symmetry_group_IT_number 12
_symmetry_cell_setting 'monoclinic'
loop_
_space_group_symop_operation_xyz
x,y,z
-x,y,-z
-x,-y,-z
x,-y,z
1/2+x,1/2+y,z
1/2-x,1/2+y,-z
1/2-x,1/2-y,-z
1/2+x,1/2-y,z
loop_
_atom_site_type_symbol
_atom_site_label
_atom_site_fract_x
_atom_site_fract_y
_atom_site_fract_z
Si Si1 0.401792 0.396468 0.080403
Si Si2 0.423016 0.889564 0.504790
Si Si3 0.326531 0.612203 0.938566
Si Si4 0.198013 0.756337 0.224124
Si Si5 0.020684 0.388176 0.816360
Si Si6 0.860643 0.690086 0.149094
O O1 0.361354 0.500000 0.160014
O O2 0.356830 0.302994 0.185875
O O3 0.500000 0.395543 0.000000
O O4 0.395328 0.388087 0.954598
O O5 0.500000 0.888681 0.500000
O O6 0.358022 0.804886 0.620279
O O7 0.460716 0.871514 0.335471
O O8 0.385801 0.000000 0.551971
O O9 0.305135 0.500000 0.940716
O O10 0.352572 0.673561 0.798249
O O11 0.246466 0.673001 0.090874
O O12 0.270701 0.823009 0.195227
O O13 0.995296 0.500000 0.862779
O O14 0.106766 0.368243 0.784091
O O15 0.941098 0.325908 0.963856
#
# Coordination Sequence:
#
# PCOD9185821 Si02
#       6
#     8   8   8   8   8   8
#     4   9  16  28  48  75 104 136 175 221 269 314
#     4  10  23  39  57  81 115 152 186 232 288 342
#     4   9  19  32  52  81 111 140 183 235 274 320
#     4  10  21  34  56  83 109 150 190 232 279 336
#     4  10  21  37  57  85 117 146 184 234 282 336
#     4  10  19  34  58  84 109 142 190 234 277 326
#
# _framework density 18.790970999999999
#
# number of rings (size 3 to 8) (size 9 to 14) (size 15 to 20)
#    0.000    2.333    1.667    1.500    7.000    2.667 
#    0.000    0.000    0.000    2.500    0.000    0.000 
#    0.000    0.000    0.000    0.000    0.000    0.000 
#
# Total GULP energy -133660.189546 kJ/mol
# GULP energy per Si atom -5569.174564 kJ/mol
# Density = 1.874820 g / cm^3
# Si number density = 18.790971 Si / 1000 Ang^3
#
#
#
# Elastic Constant Matrix: (Units=GPa)
#
#
# Indices 1 2 3 4 5 6 
#
# 1 76.6330 36.0670 26.8968 0.0000 11.0627 0.0000
# 2 36.0670 89.4362 27.4233 0.0000 10.5539 0.0000
# 3 26.8968 27.4233 62.4640 0.0000 20.1729 0.0000
# 4 0.0000 0.0000 0.0000 16.7797 0.0000 10.7332
# 5 11.0627 10.5539 20.1729 0.0000 21.6700 0.0000
# 6 0.0000 0.0000 0.0000 10.7332 0.0000 25.6030
#
#
#
# Elastic Compliance Matrix: (Units=1/GPa)
#
#
# Indices 1 2 3 4 5 6 
#
# 1 0.017476 -0.005431 -0.004452 0.000000 -0.002132 0.000000
# 2 -0.005431 0.014640 -0.003834 0.000000 -0.000788 0.000000
# 3 -0.004452 -0.003834 0.026128 0.000000 -0.020182 0.000000
# 4 0.000000 0.000000 0.000000 0.081432 0.000000 -0.034138
# 5 -0.002132 -0.000788 -0.020182 0.000000 0.066407 0.000000
# 6 0.000000 0.000000 0.000000 -0.034138 0.000000 0.053369
#
#
# Mechanical properties :
#
#
# Convention : Reuss Voigt Hill
#
# Bulk Modulus (GPa) = 32.45843 45.47860 38.96852
# Shear Modulus (GPa) = 16.82627 22.02028 19.42328
#
# Velocity S-wave (km/s) = 2.99564 3.42695 3.21853
# Velocity P-wave (km/s) = 5.41074 6.31772 5.88174
#
# Compressibility (1/GPa) = 0.03080863
#
# Stress axis : x y z
#
# Youngs Moduli (GPa) = 57.22284 68.30655 38.27383
#
# Poissons Ratio (x) = 0.37095 0.17040
# Poissons Ratio (y) = 0.31076 0.14675
# Poissons Ratio (z) = 0.25477 0.26191
#
# Static dielectric constant tensor:
#      x y z
#    x 1.700350 0.000000 0.010310 
#    y 0.000000 1.689740 0.000000 
#    z 0.010310 0.000000 1.626740 
# 
# From -- ./inp_files/175639.got.cif
#   From: 2010.05.17/outbox.cif.g08.bks.cpg/sg12_88_cif.got.tgz:175639.got - 2010.06.03 13:09:07.
