data_PCOD9185483
_publ_section_title
;
Structure prediction by ZEFSAII (Michael W. Deem and Ramdas Pophale) SiO2 
 PCOD9185483
Probable space group: C 2/M
;
_chemical_formula_sum "Si O2"
_cell_formula_units_Z 64
_cell_length_a 25.588453
_cell_length_b 8.434699
_cell_length_c 19.799631
_cell_angle_alpha 90.000000
_cell_angle_beta 48.490044
_cell_angle_gamma 90.000000
_cell_volume 3200.074439
_symmetry_space_group_name_H-M "C 2/M"
_symmetry_group_IT_number 12
_symmetry_cell_setting 'monoclinic'
loop_
_space_group_symop_operation_xyz
x,y,z
-x,y,-z
-x,-y,-z
x,-y,z
1/2+x,1/2+y,z
1/2-x,1/2+y,-z
1/2-x,1/2-y,-z
1/2+x,1/2-y,z
loop_
_atom_site_type_symbol
_atom_site_label
_atom_site_fract_x
_atom_site_fract_y
_atom_site_fract_z
Si Si1 0.894796 0.305981 0.823016
Si Si2 0.628102 0.813405 0.794159
Si Si3 0.288410 0.685672 0.644698
Si Si4 0.699039 0.188142 0.214803
Si Si5 0.677629 0.691159 0.528878
Si Si6 0.949876 0.308178 0.270889
Si Si7 0.674545 0.814571 0.983907
Si Si8 0.572250 0.315370 0.971341
O O1 0.894950 0.500000 0.825191
O O2 0.866340 0.255163 0.774642
O O3 0.973112 0.253933 0.773573
O O4 0.840191 0.253515 0.927983
O O5 0.705937 0.799882 0.698952
O O6 0.572311 0.761330 0.786114
O O7 0.624500 0.709062 0.864053
O O8 0.617186 0.000000 0.820845
O O9 0.304620 0.500000 0.635865
O O10 0.300558 0.752857 0.708848
O O11 0.326469 0.750089 0.545512
O O12 0.766749 0.234433 0.112307
O O13 0.696795 0.000000 0.219350
O O14 0.679763 0.500000 0.526496
O O15 0.750000 0.750000 0.500000
O O16 0.610940 0.747653 0.628074
O O17 0.948716 0.500000 0.272754
O O18 0.601420 0.786586 0.007501
O O19 0.690651 0.000000 0.972840
O O20 0.567063 0.500000 0.994746
O O21 0.500000 0.260770 0.000000
#
# Coordination Sequence:
#
# PCOD9185483 Si02
#       8
#     8   8   8   8   8   8   8   8
#     4   9  21  39  60  85 115 152 196 238 285 341
#     4  10  19  34  57  81 111 151 188 225 278 343
#     4  10  21  38  58  85 115 148 188 229 278 345
#     4  11  22  38  60  87 116 151 195 244 286 328
#     4  11  22  38  61  89 119 149 188 234 286 347
#     4  10  20  39  62  86 116 150 190 239 287 341
#     4  11  21  37  60  83 111 154 198 236 282 339
#     4  11  23  35  49  78 118 152 186 235 286 334
#
# _framework density 19.999534000000001
#
# number of rings (size 3 to 8) (size 9 to 14) (size 15 to 20)
#    0.000    1.625    2.500    2.625    0.000    3.500 
#    0.000    5.000    0.000    3.750    0.000    0.000 
#    0.000    0.000    0.000    0.000    0.000    0.000 
#
# Total GULP energy -178671.020253 kJ/mol
# GULP energy per Si atom -5583.469383 kJ/mol
# Density = 1.995401 g / cm^3
# Si number density = 19.999534 Si / 1000 Ang^3
#
#
#
# Elastic Constant Matrix: (Units=GPa)
#
#
# Indices 1 2 3 4 5 6 
#
# 1 133.7388 15.0249 40.5887 0.0101 19.6540 -0.0058
# 2 15.0249 13.2314 4.1317 0.0258 4.8807 -0.0220
# 3 40.5887 4.1317 83.0497 0.0080 18.4653 -0.0084
# 4 0.0101 0.0258 0.0080 22.5742 -0.0033 -1.0589
# 5 19.6540 4.8807 18.4653 -0.0033 30.5433 0.0032
# 6 -0.0058 -0.0220 -0.0084 -1.0589 0.0032 16.7995
#
#
#
# Elastic Compliance Matrix: (Units=1/GPa)
#
#
# Indices 1 2 3 4 5 6 
#
# 1 0.010086 -0.009259 -0.003875 0.000007 -0.002667 -0.000010
# 2 -0.009259 0.088937 0.002236 -0.000095 -0.009606 0.000110
# 3 -0.003875 0.002236 0.015422 -0.000007 -0.007187 0.000010
# 4 0.000007 -0.000095 -0.000007 0.044430 0.000020 0.002800
# 5 -0.002667 -0.009606 -0.007187 0.000020 0.040337 -0.000024
# 6 -0.000010 0.000110 0.000010 0.002800 -0.000024 0.059702
#
#
# Mechanical properties :
#
#
# Convention : Reuss Voigt Hill
#
# Bulk Modulus (GPa) = 10.79351 38.83453 24.81402
# Shear Modulus (GPa) = 16.04665 25.33502 20.69084
#
# Velocity S-wave (km/s) = 2.83565 3.56305 3.21996
# Velocity P-wave (km/s) = 4.01620 6.03216 5.12429
#
# Compressibility (1/GPa) = 0.09264831
#
# Stress axis : x y z
#
# Youngs Moduli (GPa) = 99.15149 11.24395 64.84367
#
# Poissons Ratio (x) = 0.10410 0.25130
# Poissons Ratio (y) = 0.91800 -0.14500
# Poissons Ratio (z) = 0.38425 -0.02514
#
# Static dielectric constant tensor:
#      x y z
#    x 1.745190 0.000000 -0.002080 
#    y 0.000000 1.685230 0.000000 
#    z -0.002080 0.000000 1.730530 
# 
# From -- ./inp_files/324103.got.cif
#   From: 2010.05.17/outbox.cif.g08.bks.cpg/sg12_163_cif.got.tgz:324103.got - 2010.06.03 13:09:07.
