data_PCOD9185972
_publ_section_title
;
Structure prediction by ZEFSAII (Michael W. Deem and Ramdas Pophale) SiO2 
 PCOD9185972
Probable space group: C 2/M
;
_chemical_formula_sum "Si O2"
_cell_formula_units_Z 48
_cell_length_a 28.580960
_cell_length_b 9.216178
_cell_length_c 9.714571
_cell_angle_alpha 90.000000
_cell_angle_beta 74.842877
_cell_angle_gamma 90.000000
_cell_volume 2469.870597
_symmetry_space_group_name_H-M "C 2/M"
_symmetry_group_IT_number 12
_symmetry_cell_setting 'monoclinic'
loop_
_space_group_symop_operation_xyz
x,y,z
-x,y,-z
-x,-y,-z
x,-y,z
1/2+x,1/2+y,z
1/2-x,1/2+y,-z
1/2-x,1/2-y,-z
1/2+x,1/2-y,z
loop_
_atom_site_type_symbol
_atom_site_label
_atom_site_fract_x
_atom_site_fract_y
_atom_site_fract_z
Si Si1 0.045857 0.669951 0.783967
Si Si2 0.419708 0.831848 0.557235
Si Si3 0.712684 0.171924 0.724198
Si Si4 0.049285 0.170003 0.202898
Si Si5 0.308173 0.171077 0.581812
Si Si6 0.624127 0.328511 0.914370
O O1 0.046246 0.500000 0.820892
O O2 0.059361 0.681711 0.612049
O O3 0.086233 0.755345 0.838269
O O4 0.993110 0.740433 0.838725
O O5 0.444460 0.728515 0.648220
O O6 0.362328 0.801352 0.591769
O O7 0.426687 0.000000 0.595411
O O8 0.694563 0.199353 0.580619
O O9 0.766823 0.235030 0.686097
O O10 0.675542 0.252194 0.853089
O O11 0.711974 0.000000 0.747759
O O12 0.037063 0.000000 0.209136
O O13 0.099461 0.191118 0.082084
O O14 0.297476 0.000000 0.608326
O O15 0.628134 0.500000 0.883623
#
# Coordination Sequence:
#
# PCOD9185972 Si02
#       6
#     8   8   8   8   8   8
#     4  11  22  39  62  87 112 147 196 240 283 338
#     4  10  21  39  60  85 116 150 189 235 284 338
#     4  10  19  34  58  88 115 144 189 235 282 339
#     4  11  25  40  55  83 119 154 193 234 283 341
#     4   9  18  35  57  85 117 145 182 234 287 336
#     4  11  23  39  58  83 118 154 190 236 285 334
#
# _framework density 19.434214999999998
#
# number of rings (size 3 to 8) (size 9 to 14) (size 15 to 20)
#    0.000    1.667    1.667    3.000    0.000    9.333 
#    0.000    0.833    0.000    0.000    0.000    0.000 
#    0.000    0.000    0.000    0.000    0.000    0.000 
#
# Total GULP energy -134161.914441 kJ/mol
# GULP energy per Si atom -5590.079768 kJ/mol
# Density = 1.938998 g / cm^3
# Si number density = 19.434215 Si / 1000 Ang^3
#
#
#
# Elastic Constant Matrix: (Units=GPa)
#
#
# Indices 1 2 3 4 5 6 
#
# 1 45.8776 27.1034 8.9595 0.0000 -23.3067 0.0000
# 2 27.1034 69.3907 31.8750 0.0000 -18.2385 0.0000
# 3 8.9595 31.8750 44.0539 0.0000 -14.5574 0.0000
# 4 0.0000 0.0000 0.0000 24.6296 0.0000 0.7260
# 5 -23.3067 -18.2385 -14.5574 0.0000 32.8144 0.0000
# 6 0.0000 0.0000 0.0000 0.7260 0.0000 15.5796
#
#
#
# Elastic Compliance Matrix: (Units=1/GPa)
#
#
# Indices 1 2 3 4 5 6 
#
# 1 0.041377 -0.014060 0.010414 0.000000 0.026193 0.000000
# 2 -0.014060 0.027399 -0.017849 0.000000 -0.002677 0.000000
# 3 0.010414 -0.017849 0.038273 0.000000 0.014455 0.000000
# 4 0.000000 0.000000 0.000000 0.040657 0.000000 -0.001895
# 5 0.026193 -0.002677 0.014455 0.000000 0.054003 0.000000
# 6 0.000000 0.000000 0.000000 -0.001895 0.000000 0.064275
#
#
# Mechanical properties :
#
#
# Convention : Reuss Voigt Hill
#
# Bulk Modulus (GPa) = 15.61126 32.79977 24.20552
# Shear Modulus (GPa) = 15.13653 20.69700 17.91677
#
# Velocity S-wave (km/s) = 2.79383 3.26694 3.03961
# Velocity P-wave (km/s) = 4.29624 5.58073 4.98007
#
# Compressibility (1/GPa) = 0.06405631
#
# Stress axis : x y z
#
# Youngs Moduli (GPa) = 24.16824 36.49823 26.12840
#
# Poissons Ratio (x) = 0.51318 -0.27209
# Poissons Ratio (y) = 0.33982 0.46637
# Poissons Ratio (z) = -0.25168 0.65146
#
# Static dielectric constant tensor:
#      x y z
#    x 1.654630 0.000000 -0.015740 
#    y 0.000000 1.649820 0.000000 
#    z -0.015740 0.000000 1.683480 
# 
# From -- ./inp_files/185721.got.cif
#   From: 2010.05.17/outbox.cif.g08.bks.cpg/sg12_93_cif.got.tgz:185721.got - 2010.06.03 13:09:07.
