data_PCOD9185289
_publ_section_title
;
Structure prediction by ZEFSAII (Michael W. Deem and Ramdas Pophale) SiO2 
 PCOD9185289
Probable space group: C 2/M
;
_chemical_formula_sum "Si O2"
_cell_formula_units_Z 52
_cell_length_a 8.893146
_cell_length_b 26.933499
_cell_length_c 11.742494
_cell_angle_alpha 90.000000
_cell_angle_beta 94.947616
_cell_angle_gamma 90.000000
_cell_volume 2802.123861
_symmetry_space_group_name_H-M "C 2/M"
_symmetry_group_IT_number 12
_symmetry_cell_setting 'monoclinic'
loop_
_space_group_symop_operation_xyz
x,y,z
-x,y,-z
-x,-y,-z
x,-y,z
1/2+x,1/2+y,z
1/2-x,1/2+y,-z
1/2-x,1/2-y,-z
1/2+x,1/2-y,z
loop_
_atom_site_type_symbol
_atom_site_label
_atom_site_fract_x
_atom_site_fract_y
_atom_site_fract_z
Si Si1 0.121141 0.707839 0.608150
Si Si2 0.724603 0.944801 0.831172
Si Si3 0.479795 0.099095 0.368522
Si Si4 0.298075 0.854533 0.793719
Si Si5 0.614336 0.255568 0.261861
Si Si6 0.965182 0.856474 0.863722
Si Si7 0.000000 0.404946 0.000000
O O1 0.290342 0.727388 0.620466
O O2 0.000000 0.713285 0.500000
O O3 0.119473 0.649407 0.632036
O O4 0.049317 0.737867 0.708278
O O5 0.610868 0.938154 0.717366
O O6 0.849232 0.901541 0.836260
O O7 0.790646 0.000000 0.836681
O O8 0.619859 0.936207 0.935059
O O9 0.500000 0.082293 0.500000
O O10 0.632353 0.117942 0.313750
O O11 0.318421 0.795425 0.782587
O O12 0.123405 0.865268 0.808222
O O13 0.403923 0.872527 0.904353
O O14 0.603402 0.303665 0.181574
O O15 0.000000 0.853730 0.000000
#
# Coordination Sequence:
#
# PCOD9185289 Si02
#       7
#     8   8   8   8   8   8   4
#     4  10  19  34  56  82 118 153 195 238 280 340
#     4  11  23  41  64  87 115 152 199 250 297 348
#     4   9  20  40  63  86 117 153 201 245 289 345
#     4  10  22  38  60  89 123 159 192 238 290 352
#     4  11  21  35  54  87 120 158 195 228 285 352
#     4  12  24  39  56  88 125 156 193 241 297 349
#     4  10  21  42  62  88 114 152 201 244 290 352
#
# _framework density 18.557352000000002
#
# number of rings (size 3 to 8) (size 9 to 14) (size 15 to 20)
#    0.000    1.538    4.615    0.692    1.077    1.231 
#    0.000    1.538    0.000    0.923    0.000    0.000 
#    0.000    0.000    0.000    0.000    0.000    0.000 
#
# Total GULP energy -144923.108326 kJ/mol
# GULP energy per Si atom -5573.965705 kJ/mol
# Density = 1.851511 g / cm^3
# Si number density = 18.557352 Si / 1000 Ang^3
#
#
#
# Elastic Constant Matrix: (Units=GPa)
#
#
# Indices 1 2 3 4 5 6 
#
# 1 75.0265 20.3435 16.3011 0.0000 -6.7821 0.0000
# 2 20.3435 95.3190 27.8933 0.0000 1.7435 0.0000
# 3 16.3011 27.8933 103.8730 0.0000 3.1446 0.0000
# 4 0.0000 0.0000 0.0000 8.7217 0.0000 0.4004
# 5 -6.7821 1.7435 3.1446 0.0000 24.8910 0.0000
# 6 0.0000 0.0000 0.0000 0.4004 0.0000 16.2605
#
#
#
# Elastic Compliance Matrix: (Units=1/GPa)
#
#
# Indices 1 2 3 4 5 6 
#
# 1 0.014851 -0.002745 -0.001728 0.000000 0.004457 0.000000
# 2 -0.002745 0.011898 -0.002727 0.000000 -0.001237 0.000000
# 3 -0.001728 -0.002727 0.010680 0.000000 -0.001629 0.000000
# 4 0.000000 0.000000 0.000000 0.114786 0.000000 -0.002826
# 5 0.004457 -0.001237 -0.001629 0.000000 0.041682 0.000000
# 6 0.000000 0.000000 0.000000 -0.002826 0.000000 0.061568
#
#
# Mechanical properties :
#
#
# Convention : Reuss Voigt Hill
#
# Bulk Modulus (GPa) = 43.42520 44.81048 44.11784
# Shear Modulus (GPa) = 18.01530 23.95337 20.98433
#
# Velocity S-wave (km/s) = 3.11913 3.59663 3.36636
# Velocity P-wave (km/s) = 6.03517 6.43795 6.23981
#
# Compressibility (1/GPa) = 0.02302810
#
# Stress axis : x y z
#
# Youngs Moduli (GPa) = 67.33331 84.05101 93.63399
#
# Poissons Ratio (x) = 0.23076 0.16184
# Poissons Ratio (y) = 0.18486 0.25530
# Poissons Ratio (z) = 0.11638 0.22917
#
# Static dielectric constant tensor:
#      x y z
#    x 1.658340 0.000000 -0.003780 
#    y 0.000000 1.614360 0.000000 
#    z -0.003780 0.000000 1.668170 
# 
# From -- ./inp_files/123767.got.cif
#   From: 2010.05.17/outbox.cif.g08.bks.cpg/sg12_62_cif.got.tgz:123767.got - 2010.06.03 13:09:07.
