data_PCOD9185255
_publ_section_title
;
Structure prediction by ZEFSAII (Michael W. Deem and Ramdas Pophale) SiO2 
 PCOD9185255
Probable space group: C 2/M
;
_chemical_formula_sum "Si O2"
_cell_formula_units_Z 56
_cell_length_a 9.250566
_cell_length_b 18.333873
_cell_length_c 23.055680
_cell_angle_alpha 90.000000
_cell_angle_beta 134.994017
_cell_angle_gamma 90.000000
_cell_volume 2765.227124
_symmetry_space_group_name_H-M "C 2/M"
_symmetry_group_IT_number 12
_symmetry_cell_setting 'monoclinic'
loop_
_space_group_symop_operation_xyz
x,y,z
-x,y,-z
-x,-y,-z
x,-y,z
1/2+x,1/2+y,z
1/2-x,1/2+y,-z
1/2-x,1/2-y,-z
1/2+x,1/2-y,z
loop_
_atom_site_type_symbol
_atom_site_label
_atom_site_fract_x
_atom_site_fract_y
_atom_site_fract_z
Si Si1 0.196782 0.178962 0.595650
Si Si2 0.082364 0.833759 0.957932
Si Si3 0.388951 0.799273 0.834709
Si Si4 0.407650 0.918007 0.741045
Si Si5 0.643875 0.204021 0.678965
Si Si6 0.504538 0.917606 0.069463
Si Si7 0.169868 0.080183 0.208305
O O1 0.226851 0.113082 0.649810
O O2 0.406328 0.184467 0.618542
O O3 0.178992 0.250424 0.631049
O O4 0.000000 0.171111 0.500000
O O5 0.298232 0.874575 0.027395
O O6 0.043415 0.759068 0.909306
O O7 0.963344 0.890237 0.882719
O O8 0.000000 0.821383 0.000000
O O9 0.457075 0.855369 0.802753
O O10 0.211685 0.752163 0.754545
O O11 0.322495 0.859163 0.863492
O O12 0.605096 0.923106 0.756296
O O13 0.364739 0.000000 0.750275
O O14 0.795352 0.135286 0.728818
O O15 0.515293 0.000000 0.095349
O O16 0.500000 0.922818 0.000000
O O17 0.098474 0.000000 0.205460
#
# Coordination Sequence:
#
# PCOD9185255 Si02
#       7
#     8   8   8   8   8   8   8
#     4  10  19  34  56  82 110 136 167 212 262 313
#     4  11  22  35  54  78 102 137 184 228 266 307
#     4  10  20  35  54  74 104 140 178 217 260 313
#     4   9  18  33  54  81 108 137 173 213 261 314
#     4   9  20  34  54  79 103 137 174 210 257 314
#     4  11  24  37  50  74 108 142 176 222 275 315
#     4   9  18  33  53  76 103 136 178 222 260 306
#
# _framework density 20.251501999999999
#
# number of rings (size 3 to 8) (size 9 to 14) (size 15 to 20)
#    0.000    2.143    0.000    3.000    0.000    9.429 
#    0.000    0.000    0.000    3.857    0.000    0.000 
#    0.000    0.000    0.000    0.000    0.000    0.000 
#
# Total GULP energy -155978.173501 kJ/mol
# GULP energy per Si atom -5570.649054 kJ/mol
# Density = 2.020541 g / cm^3
# Si number density = 20.251502 Si / 1000 Ang^3
#
#
#
# Elastic Constant Matrix: (Units=GPa)
#
#
# Indices 1 2 3 4 5 6 
#
# 1 26.2102 9.9187 3.2426 0.0000 -3.6125 0.0000
# 2 9.9187 147.6861 51.4284 0.0000 0.7487 0.0000
# 3 3.2426 51.4284 128.0686 0.0000 0.8679 0.0000
# 4 0.0000 0.0000 0.0000 12.6524 0.0000 -6.4346
# 5 -3.6125 0.7487 0.8679 0.0000 24.8571 0.0000
# 6 0.0000 0.0000 0.0000 -6.4346 0.0000 19.0198
#
#
#
# Elastic Compliance Matrix: (Units=1/GPa)
#
#
# Indices 1 2 3 4 5 6 
#
# 1 0.039993 -0.002731 0.000044 0.000000 0.005893 0.000000
# 2 -0.002731 0.008059 -0.003163 0.000000 -0.000529 0.000000
# 3 0.000044 -0.003163 0.009079 0.000000 -0.000215 0.000000
# 4 0.000000 0.000000 0.000000 0.095461 0.000000 0.032296
# 5 0.005893 -0.000529 -0.000215 0.000000 0.041110 0.000000
# 6 0.000000 0.000000 0.000000 0.032296 0.000000 0.063503
#
#
# Mechanical properties :
#
#
# Convention : Reuss Voigt Hill
#
# Bulk Modulus (GPa) = 22.01171 47.90490 34.95831
# Shear Modulus (GPa) = 17.60256 27.13087 22.36671
#
# Velocity S-wave (km/s) = 2.95141 3.66416 3.32693
# Velocity P-wave (km/s) = 4.74418 6.45041 5.66193
#
# Compressibility (1/GPa) = 0.04543035
#
# Stress axis : x y z
#
# Youngs Moduli (GPa) = 25.00412 124.08745 110.14435
#
# Poissons Ratio (x) = 0.33891 -0.00487
# Poissons Ratio (y) = 0.06829 0.34844
# Poissons Ratio (z) = -0.00111 0.39254
#
# Static dielectric constant tensor:
#      x y z
#    x 1.747450 0.000000 0.008620 
#    y 0.000000 1.785300 0.000000 
#    z 0.008620 0.000000 1.762990 
# 
# From -- ./inp_files/336316.got.cif
#   From: 2010.05.17/outbox.cif.g08.bks.cpg/sg12_169_cif.got.tgz:336316.got - 2010.06.03 13:09:07.
