data_PCOD9185417
_publ_section_title
;
Structure prediction by ZEFSAII (Michael W. Deem and Ramdas Pophale) SiO2 
 PCOD9185417
Probable space group: C 2/M
;
_chemical_formula_sum "Si O2"
_cell_formula_units_Z 48
_cell_length_a 18.550785
_cell_length_b 24.235643
_cell_length_c 8.968627
_cell_angle_alpha 90.000000
_cell_angle_beta 149.761234
_cell_angle_gamma 90.000000
_cell_volume 2030.637887
_symmetry_space_group_name_H-M "C 2/M"
_symmetry_group_IT_number 12
_symmetry_cell_setting 'monoclinic'
loop_
_space_group_symop_operation_xyz
x,y,z
-x,y,-z
-x,-y,-z
x,-y,z
1/2+x,1/2+y,z
1/2-x,1/2+y,-z
1/2-x,1/2-y,-z
1/2+x,1/2-y,z
loop_
_atom_site_type_symbol
_atom_site_label
_atom_site_fract_x
_atom_site_fract_y
_atom_site_fract_z
Si Si1 0.736311 0.500000 0.482194
Si Si2 0.540504 0.712750 0.742365
Si Si3 0.589482 0.161207 0.819540
Si Si4 0.654878 0.697107 0.353939
Si Si5 0.639213 0.105020 0.407976
Si Si6 0.956670 0.000000 0.170311
Si Si7 0.293451 0.603500 0.981606
O O1 0.839523 0.552328 0.656407
O O2 0.621709 0.500000 0.411969
O O3 0.635223 0.500000 0.150538
O O4 0.500000 0.709993 0.500000
O O5 0.605843 0.773567 0.885361
O O6 0.394079 0.698474 0.564118
O O7 0.647194 0.662848 0.965957
O O8 0.500000 0.162938 0.500000
O O9 0.506687 0.136828 0.815241
O O10 0.717780 0.120053 0.001311
O O11 0.750000 0.750000 0.500000
O O12 0.743359 0.646270 0.450459
O O13 0.500000 0.701312 0.000000
O O14 0.681730 0.086876 0.652991
O O15 0.910232 0.054930 0.178635
#
# Coordination Sequence:
#
# PCOD9185417 Si02
#       7
#     4   8   8   8   8   4   8
#     4   9  18  29  53  81 117 149 201 257 311 355
#     4  11  22  37  57  86 121 161 205 244 310 370
#     4   9  19  32  51  81 114 149 193 239 311 360
#     4  12  24  40  63  93 127 161 208 261 309 368
#     4  10  19  35  55  87 116 155 201 256 306 362
#     4   9  18  31  50  83 104 153 203 246 310 358
#     4  10  19  34  57  78 118 154 196 257 300 370
#
# _framework density 23.637893999999999
#
# number of rings (size 3 to 8) (size 9 to 14) (size 15 to 20)
#    0.000    1.833    3.333    1.500    2.333    2.000 
#    0.000    3.750    0.000    0.000    0.000    0.583 
#    0.000    0.000    0.000    0.000    0.000    0.000 
#
# Total GULP energy -133974.886344 kJ/mol
# GULP energy per Si atom -5582.286931 kJ/mol
# Density = 2.358409 g / cm^3
# Si number density = 23.637894 Si / 1000 Ang^3
#
#
#
# Elastic Constant Matrix: (Units=GPa)
#
#
# Indices 1 2 3 4 5 6 
#
# 1 167.4932 63.3281 38.2516 0.0000 47.7314 0.0000
# 2 63.3281 188.4147 38.0251 0.0000 33.8799 0.0000
# 3 38.2516 38.0251 53.5510 0.0000 15.0462 0.0000
# 4 0.0000 0.0000 0.0000 10.7164 0.0000 11.1220
# 5 47.7314 33.8799 15.0462 0.0000 40.7534 0.0000
# 6 0.0000 0.0000 0.0000 11.1220 0.0000 34.8766
#
#
#
# Elastic Compliance Matrix: (Units=1/GPa)
#
#
# Indices 1 2 3 4 5 6 
#
# 1 0.009840 -0.000851 -0.003777 0.000000 -0.009423 0.000000
# 2 -0.000851 0.006891 -0.003298 0.000000 -0.003515 0.000000
# 3 -0.003777 -0.003298 0.024212 0.000000 -0.001773 0.000000
# 4 0.000000 0.000000 0.000000 0.139476 0.000000 -0.044478
# 5 -0.009423 -0.003515 -0.001773 0.000000 0.039151 0.000000
# 6 0.000000 0.000000 0.000000 -0.044478 0.000000 0.042857
#
#
# Mechanical properties :
#
#
# Convention : Reuss Voigt Hill
#
# Bulk Modulus (GPa) = 39.85412 76.51873 58.18642
# Shear Modulus (GPa) = 17.44336 35.25955 26.35146
#
# Velocity S-wave (km/s) = 2.71945 3.86638 3.34248
# Velocity P-wave (km/s) = 5.17276 7.23695 6.29010
#
# Compressibility (1/GPa) = 0.02509151
#
# Stress axis : x y z
#
# Youngs Moduli (GPa) = 101.62627 145.11815 41.30211
#
# Poissons Ratio (x) = 0.12344 0.15600
# Poissons Ratio (y) = 0.08644 0.13621
# Poissons Ratio (z) = 0.38385 0.47859
#
# Static dielectric constant tensor:
#      x y z
#    x 1.817120 0.000000 -0.126540 
#    y 0.000000 1.956720 0.000000 
#    z -0.126540 0.000000 1.989030 
# 
# From -- ./inp_files/135227.got.cif
#   From: 2010.05.17/outbox.cif.g08.bks.cpg/sg12_68_cif.got.tgz:135227.got - 2010.06.03 13:09:07.
