data_PCOD9185242
_publ_section_title
;
Structure prediction by ZEFSAII (Michael W. Deem and Ramdas Pophale) SiO2 
 PCOD9185242
Probable space group: C 2/M
;
_chemical_formula_sum "Si O2"
_cell_formula_units_Z 56
_cell_length_a 29.323773
_cell_length_b 8.523174
_cell_length_c 14.977242
_cell_angle_alpha 90.000000
_cell_angle_beta 59.641837
_cell_angle_gamma 90.000000
_cell_volume 3230.017938
_symmetry_space_group_name_H-M "C 2/M"
_symmetry_group_IT_number 12
_symmetry_cell_setting 'monoclinic'
loop_
_space_group_symop_operation_xyz
x,y,z
-x,y,-z
-x,-y,-z
x,-y,z
1/2+x,1/2+y,z
1/2-x,1/2+y,-z
1/2-x,1/2-y,-z
1/2+x,1/2-y,z
loop_
_atom_site_type_symbol
_atom_site_label
_atom_site_fract_x
_atom_site_fract_y
_atom_site_fract_z
Si Si1 0.449451 0.688563 0.990816
Si Si2 0.642157 0.187314 0.451965
Si Si3 0.134602 0.681270 0.796968
Si Si4 0.556623 0.690895 0.399373
Si Si5 0.961143 0.816506 0.779651
Si Si6 0.742377 0.313033 0.608779
Si Si7 0.914870 0.179088 0.321081
O O1 0.455776 0.500000 0.978777
O O2 0.448716 0.751061 0.889857
O O3 0.500000 0.744823 0.000000
O O4 0.395381 0.728473 0.094631
O O5 0.605423 0.244640 0.407935
O O6 0.704533 0.221797 0.387504
O O7 0.620913 0.274482 0.560746
O O8 0.635990 0.000000 0.469367
O O9 0.138841 0.500000 0.816078
O O10 0.191054 0.744224 0.707969
O O11 0.097082 0.707003 0.748349
O O12 0.500000 0.735591 0.500000
O O13 0.557958 0.500000 0.399114
O O14 0.559531 0.748177 0.293844
O O15 0.024594 0.812986 0.709808
O O16 0.944804 0.000000 0.797959
O O17 0.736609 0.500000 0.607909
O O18 0.750000 0.250000 0.500000
O O19 0.904100 0.000000 0.302135
#
# Coordination Sequence:
#
# PCOD9185242 Si02
#       7
#     8   8   8   8   8   8   8
#     4  10  19  35  58  81 109 149 190 226 273 330
#     4  11  23  36  52  82 115 144 182 230 279 329
#     4  12  24  36  52  82 117 147 185 229 278 334
#     4  10  19  34  56  81 111 149 188 223 266 329
#     4   9  18  33  54  82 110 145 191 226 261 325
#     4  11  23  38  57  80 110 147 186 228 279 334
#     4  11  19  33  56  80 111 150 187 223 266 327
#
# _framework density 17.337364999999998
#
# number of rings (size 3 to 8) (size 9 to 14) (size 15 to 20)
#    0.000    1.429    4.286    2.571    0.000    2.286 
#    0.000    0.714    0.000    0.857    0.000    0.000 
#    0.000    0.000    0.000    0.000    0.000    0.000 
#
# Total GULP energy -156222.160956 kJ/mol
# GULP energy per Si atom -5579.362891 kJ/mol
# Density = 1.729790 g / cm^3
# Si number density = 17.337365 Si / 1000 Ang^3
#
#
#
# Elastic Constant Matrix: (Units=GPa)
#
#
# Indices 1 2 3 4 5 6 
#
# 1 80.9633 11.6007 18.2994 0.0000 2.1997 0.0000
# 2 11.6007 19.6352 5.1131 0.0000 0.7786 0.0000
# 3 18.2994 5.1131 75.2750 0.0000 0.8103 0.0000
# 4 0.0000 0.0000 0.0000 17.4500 0.0000 -2.3920
# 5 2.1997 0.7786 0.8103 0.0000 23.1851 0.0000
# 6 0.0000 0.0000 0.0000 -2.3920 0.0000 24.7843
#
#
#
# Elastic Compliance Matrix: (Units=1/GPa)
#
#
# Indices 1 2 3 4 5 6 
#
# 1 0.014116 -0.007544 -0.002909 0.000000 -0.000984 0.000000
# 2 -0.007544 0.055938 -0.001954 0.000000 -0.001094 0.000000
# 3 -0.002909 -0.001954 0.014126 0.000000 -0.000152 0.000000
# 4 0.000000 0.000000 0.000000 0.058075 0.000000 0.005605
# 5 -0.000984 -0.001094 -0.000152 0.000000 0.043267 0.000000
# 6 0.000000 0.000000 0.000000 0.005605 0.000000 0.040889
#
#
# Mechanical properties :
#
#
# Convention : Reuss Voigt Hill
#
# Bulk Modulus (GPa) = 16.84415 27.32223 22.08319
# Shear Modulus (GPa) = 18.44933 22.47459 20.46196
#
# Velocity S-wave (km/s) = 3.26565 3.60434 3.43916
# Velocity P-wave (km/s) = 4.89448 5.75456 5.34186
#
# Compressibility (1/GPa) = 0.05936778
#
# Stress axis : x y z
#
# Youngs Moduli (GPa) = 70.83995 17.87693 70.79105
#
# Poissons Ratio (x) = 0.13486 0.20591
# Poissons Ratio (y) = 0.53439 0.13833
# Poissons Ratio (z) = 0.20605 0.03493
#
# Static dielectric constant tensor:
#      x y z
#    x 1.584650 0.000000 0.012290 
#    y 0.000000 1.596560 0.000000 
#    z 0.012290 0.000000 1.594020 
# 
# From -- ./inp_files/243057.got.cif
#   From: 2010.05.17/outbox.cif.g08.bks.cpg/sg12_122_cif.got.tgz:243057.got - 2010.06.03 13:09:07.
