data_PCOD9185844
_publ_section_title
;
Structure prediction by ZEFSAII (Michael W. Deem and Ramdas Pophale) SiO2 
 PCOD9185844
Probable space group: C 2/M
;
_chemical_formula_sum "Si O2"
_cell_formula_units_Z 64
_cell_length_a 10.849666
_cell_length_b 13.804042
_cell_length_c 28.312202
_cell_angle_alpha 90.000000
_cell_angle_beta 136.992214
_cell_angle_gamma 90.000000
_cell_volume 2892.297077
_symmetry_space_group_name_H-M "C 2/M"
_symmetry_group_IT_number 12
_symmetry_cell_setting 'monoclinic'
loop_
_space_group_symop_operation_xyz
x,y,z
-x,y,-z
-x,-y,-z
x,-y,z
1/2+x,1/2+y,z
1/2-x,1/2+y,-z
1/2-x,1/2-y,-z
1/2+x,1/2-y,z
loop_
_atom_site_type_symbol
_atom_site_label
_atom_site_fract_x
_atom_site_fract_y
_atom_site_fract_z
Si Si1 0.093510 0.892562 0.754372
Si Si2 0.345197 0.834828 0.996185
Si Si3 0.452783 0.757950 0.405465
Si Si4 0.534947 0.676939 0.844052
Si Si5 0.371684 0.806384 0.281729
Si Si6 0.738728 0.892241 0.511722
Si Si7 0.734514 0.101209 0.397060
Si Si8 0.976875 0.395994 0.132556
O O1 0.065982 0.868576 0.801639
O O2 0.042935 0.794039 0.713229
O O3 0.307160 0.897714 0.802977
O O4 0.016282 0.000000 0.721633
O O5 0.174343 0.873974 0.918808
O O6 0.500000 0.811352 0.000000
O O7 0.250000 0.750000 0.000000
O O8 0.433270 0.892581 0.064218
O O9 0.340489 0.792121 0.328948
O O10 0.540574 0.845859 0.458518
O O11 0.615294 0.687773 0.432295
O O12 0.339267 0.690889 0.406862
O O13 0.321096 0.670994 0.795851
O O14 0.580857 0.793728 0.859424
O O15 0.526925 0.886675 0.323413
O O16 0.755218 0.899253 0.459062
O O17 0.758822 0.000000 0.537169
O O18 0.809741 0.000000 0.399043
O O19 0.905743 0.500000 0.131404
#
# Coordination Sequence:
#
# PCOD9185844 Si02
#       8
#     8   8   8   8   8   8   8   8
#     4  10  20  35  55  79 108 147 195 241 291 357
#     4  10  19  34  59  92 119 160 207 260 322 379
#     4  10  19  34  58  84 114 150 192 241 296 354
#     4  10  20  36  57  81 117 155 192 249 306 357
#     4  10  22  37  52  81 115 153 192 243 295 350
#     4   9  19  35  58  86 113 145 191 243 295 353
#     4  10  20  36  58  81 111 151 195 236 288 359
#     4   9  19  35  57  86 114 146 194 247 303 369
#
# _framework density 22.127742999999999
#
# number of rings (size 3 to 8) (size 9 to 14) (size 15 to 20)
#    0.000    2.250    1.250    1.500    0.000    3.250 
#    0.000    6.250    0.000   17.250    0.000    0.000 
#    0.000    0.000    0.000    0.000    0.000    0.000 
#
# Total GULP energy -178344.888574 kJ/mol
# GULP energy per Si atom -5573.277768 kJ/mol
# Density = 2.207738 g / cm^3
# Si number density = 22.127743 Si / 1000 Ang^3
#
#
#
# Elastic Constant Matrix: (Units=GPa)
#
#
# Indices 1 2 3 4 5 6 
#
# 1 48.5003 11.0220 0.6660 0.0000 -0.9849 0.0000
# 2 11.0220 84.2813 -1.4936 0.0000 5.5921 0.0000
# 3 0.6660 -1.4936 85.6901 0.0000 11.9251 0.0000
# 4 0.0000 0.0000 0.0000 48.2107 0.0000 20.1771
# 5 -0.9849 5.5921 11.9251 0.0000 21.0001 0.0000
# 6 0.0000 0.0000 0.0000 20.1771 0.0000 26.9562
#
#
#
# Elastic Compliance Matrix: (Units=1/GPa)
#
#
# Indices 1 2 3 4 5 6 
#
# 1 0.021335 -0.002936 -0.000505 0.000000 0.002069 0.000000
# 2 -0.002936 0.012523 0.000787 0.000000 -0.003919 0.000000
# 3 -0.000505 0.000787 0.012726 0.000000 -0.007460 0.000000
# 4 0.000000 0.000000 0.000000 0.030204 0.000000 -0.022608
# 5 0.002069 -0.003919 -0.007460 0.000000 0.052995 0.000000
# 6 0.000000 0.000000 0.000000 -0.022608 0.000000 0.054020
#
#
# Mechanical properties :
#
#
# Convention : Reuss Voigt Hill
#
# Bulk Modulus (GPa) = 24.22842 26.54004 25.38423
# Shear Modulus (GPa) = 24.64629 33.11855 28.88242
#
# Velocity S-wave (km/s) = 3.34101 3.87292 3.61676
# Velocity P-wave (km/s) = 5.08491 5.65856 5.37939
#
# Compressibility (1/GPa) = 0.04127385
#
# Stress axis : x y z
#
# Youngs Moduli (GPa) = 46.87200 79.85307 78.58111
#
# Poissons Ratio (x) = 0.23447 0.03968
# Poissons Ratio (y) = 0.13763 -0.06180
# Poissons Ratio (z) = 0.02367 -0.06281
#
# Static dielectric constant tensor:
#      x y z
#    x 1.832000 0.000000 0.010430 
#    y 0.000000 1.890310 0.000000 
#    z 0.010430 0.000000 1.830410 
# 
# From -- ./inp_files/374122.got.cif
#   From: 2010.05.17/outbox.cif.g08.bks.cpg/sg12_188_cif.got.tgz:374122.got - 2010.06.03 13:09:07.
