data_PCOD9185910
_publ_section_title
;
Structure prediction by ZEFSAII (Michael W. Deem and Ramdas Pophale) SiO2 
 PCOD9185910
Probable space group: C 2/M
;
_chemical_formula_sum "Si O2"
_cell_formula_units_Z 36
_cell_length_a 8.933240
_cell_length_b 18.353347
_cell_length_c 10.936220
_cell_angle_alpha 90.000000
_cell_angle_beta 85.360852
_cell_angle_gamma 90.000000
_cell_volume 1787.172058
_symmetry_space_group_name_H-M "C 2/M"
_symmetry_group_IT_number 12
_symmetry_cell_setting 'monoclinic'
loop_
_space_group_symop_operation_xyz
x,y,z
-x,y,-z
-x,-y,-z
x,-y,z
1/2+x,1/2+y,z
1/2-x,1/2+y,-z
1/2-x,1/2-y,-z
1/2+x,1/2-y,z
loop_
_atom_site_type_symbol
_atom_site_label
_atom_site_fract_x
_atom_site_fract_y
_atom_site_fract_z
Si Si1 0.809544 0.841222 0.128707
Si Si2 0.616572 0.500000 0.379829
Si Si3 0.256908 0.843609 0.368279
Si Si4 0.582459 0.500000 0.860235
Si Si5 0.377834 0.288862 0.848727
Si Si6 0.000000 0.739350 0.500000
O O1 0.817971 0.926928 0.148118
O O2 0.659637 0.796224 0.165016
O O3 0.952302 0.810083 0.194501
O O4 0.847193 0.817712 0.987216
O O5 0.500000 0.500000 0.500000
O O6 0.715556 0.427497 0.389484
O O7 0.529736 0.500000 0.251651
O O8 0.242313 0.830104 0.225614
O O9 0.408695 0.813462 0.415562
O O10 0.123438 0.792342 0.431146
O O11 0.500000 0.500000 0.000000
#
# Coordination Sequence:
#
# PCOD9185910 Si02
#       6
#     8   4   8   4   8   4
#     4  10  20  34  59  88 114 147 200 232 298 339
#     4  12  24  37  61  90 121 154 199 253 298 352
#     4  11  21  40  57  85 116 157 199 242 298 346
#     4  12  20  38  59  91 116 160 191 247 287 360
#     4  10  19  34  58  86 113 151 190 247 277 358
#     4  10  24  36  60  80 116 158 200 240 286 364
#
# _framework density 20.143554999999999
#
# number of rings (size 3 to 8) (size 9 to 14) (size 15 to 20)
#    0.000    1.333    5.556    1.333    0.000    0.444 
#    0.000    0.000    0.000   17.333    0.000    0.000 
#    0.000    0.000    0.000    0.000    0.000    0.000 
#
# Total GULP energy -100402.277542 kJ/mol
# GULP energy per Si atom -5577.904308 kJ/mol
# Density = 2.009771 g / cm^3
# Si number density = 20.143555 Si / 1000 Ang^3
#
#
#
# Elastic Constant Matrix: (Units=GPa)
#
#
# Indices 1 2 3 4 5 6 
#
# 1 58.1056 52.1275 31.5711 0.0000 21.9309 0.0000
# 2 52.1275 220.2201 31.4889 0.0000 23.3656 0.0000
# 3 31.5711 31.4889 97.0164 0.0000 31.3103 0.0000
# 4 0.0000 0.0000 0.0000 19.8818 0.0000 4.3418
# 5 21.9309 23.3656 31.3103 0.0000 30.9785 0.0000
# 6 0.0000 0.0000 0.0000 4.3418 0.0000 32.5116
#
#
#
# Elastic Compliance Matrix: (Units=1/GPa)
#
#
# Indices 1 2 3 4 5 6 
#
# 1 0.028297 -0.004835 -0.003489 0.000000 -0.012859 0.000000
# 2 -0.004835 0.005785 -0.000001 0.000000 -0.000940 0.000000
# 3 -0.003489 -0.000001 0.015799 0.000000 -0.013498 0.000000
# 4 0.000000 0.000000 0.000000 0.051808 0.000000 -0.006919
# 5 -0.012859 -0.000940 -0.013498 0.000000 0.055735 0.000000
# 6 0.000000 0.000000 0.000000 -0.006919 0.000000 0.031682
#
#
# Mechanical properties :
#
#
# Convention : Reuss Voigt Hill
#
# Bulk Modulus (GPa) = 30.09182 67.30190 48.69686
# Shear Modulus (GPa) = 23.05915 34.01802 28.53859
#
# Velocity S-wave (km/s) = 3.38707 4.11393 3.76807
# Velocity P-wave (km/s) = 5.50159 7.48663 6.56952
#
# Compressibility (1/GPa) = 0.03323163
#
# Stress axis : x y z
#
# Youngs Moduli (GPa) = 35.34004 172.85550 63.29319
#
# Poissons Ratio (x) = 0.83571 0.22083
# Poissons Ratio (y) = 0.17086 0.00007
# Poissons Ratio (z) = 0.12330 0.00020
#
# Static dielectric constant tensor:
#      x y z
#    x 1.730320 0.000000 -0.015650 
#    y 0.000000 1.715620 0.000000 
#    z -0.015650 0.000000 1.807730 
# 
# From -- ./inp_files/119256.got.cif
#   From: 2010.05.17/outbox.cif.g08.bks.cpg/sg12_60_cif.got.tgz:119256.got - 2010.06.03 13:09:07.
