data_PCOD9185200
_publ_section_title
;
Structure prediction by ZEFSAII (Michael W. Deem and Ramdas Pophale) SiO2 
 PCOD9185200
Probable space group: C 2/M
;
_chemical_formula_sum "Si O2"
_cell_formula_units_Z 64
_cell_length_a 14.621865
_cell_length_b 12.851003
_cell_length_c 19.661734
_cell_angle_alpha 90.000000
_cell_angle_beta 57.250799
_cell_angle_gamma 90.000000
_cell_volume 3107.289005
_symmetry_space_group_name_H-M "C 2/M"
_symmetry_group_IT_number 12
_symmetry_cell_setting 'monoclinic'
loop_
_space_group_symop_operation_xyz
x,y,z
-x,y,-z
-x,-y,-z
x,-y,z
1/2+x,1/2+y,z
1/2-x,1/2+y,-z
1/2-x,1/2-y,-z
1/2+x,1/2-y,z
loop_
_atom_site_type_symbol
_atom_site_label
_atom_site_fract_x
_atom_site_fract_y
_atom_site_fract_z
Si Si1 0.578929 0.327518 0.029633
Si Si2 0.292295 0.745582 0.230011
Si Si3 0.594311 0.615034 0.172550
Si Si4 0.871575 0.875645 0.626574
Si Si5 0.873003 0.125726 0.476392
Si Si6 0.206741 0.326613 0.129550
Si Si7 0.512388 0.121176 0.117601
Si Si8 0.366680 0.623499 0.330589
O O1 0.700857 0.358698 0.960780
O O2 0.500000 0.356570 0.000000
O O3 0.546126 0.376359 0.115024
O O4 0.572488 0.201792 0.042336
O O5 0.192500 0.820466 0.288120
O O6 0.259431 0.666388 0.182955
O O7 0.396907 0.819773 0.174014
O O8 0.312881 0.681553 0.289991
O O9 0.636989 0.500000 0.167217
O O10 0.684682 0.702945 0.135483
O O11 0.496356 0.635999 0.264257
O O12 0.828905 0.844562 0.568232
O O13 0.998711 0.849270 0.575968
O O14 0.861924 0.000000 0.636983
O O15 0.831679 0.161711 0.419563
O O16 0.865628 0.000000 0.478163
O O17 0.090884 0.373907 0.153316
O O18 0.501195 0.000000 0.102595
O O19 0.345960 0.500000 0.335033
#
# Coordination Sequence:
#
# PCOD9185200 Si02
#       8
#     8   8   8   8   8   8   8   8
#     4  11  21  40  57  82 116 149 194 244 285 341
#     4  12  22  37  59  85 116 152 196 240 281 352
#     4  10  20  35  57  82 106 145 190 233 285 338
#     4   9  18  32  55  87 116 145 182 232 288 340
#     4   8  16  33  55  83 116 143 181 236 285 334
#     4  11  23  39  58  80 117 152 191 243 294 343
#     4  11  24  41  59  85 117 154 193 240 299 351
#     4  10  19  34  56  80 110 145 187 234 283 333
#
# _framework density 20.596733
#
# number of rings (size 3 to 8) (size 9 to 14) (size 15 to 20)
#    0.000    1.750    3.750    3.375    0.000    5.500 
#    0.000    0.000    0.000    0.000    0.000    1.750 
#    0.000    0.000    0.000    0.000    0.000    0.000 
#
# Total GULP energy -178431.469538 kJ/mol
# GULP energy per Si atom -5575.983423 kJ/mol
# Density = 2.054985 g / cm^3
# Si number density = 20.596733 Si / 1000 Ang^3
#
#
#
# Elastic Constant Matrix: (Units=GPa)
#
#
# Indices 1 2 3 4 5 6 
#
# 1 64.1219 -5.6959 3.0382 0.0000 12.9770 0.0000
# 2 -5.6959 36.7070 -4.8843 0.0000 -2.1305 0.0000
# 3 3.0382 -4.8843 66.5347 0.0000 9.8149 0.0000
# 4 0.0000 0.0000 0.0000 13.7633 0.0000 -0.6032
# 5 12.9770 -2.1305 9.8149 0.0000 34.5585 0.0000
# 6 0.0000 0.0000 0.0000 -0.6032 0.0000 7.9726
#
#
#
# Elastic Compliance Matrix: (Units=1/GPa)
#
#
# Indices 1 2 3 4 5 6 
#
# 1 0.017074 0.002324 0.000329 0.000000 -0.006362 0.000000
# 2 0.002324 0.027873 0.001895 0.000000 0.000308 0.000000
# 3 0.000329 0.001895 0.015818 0.000000 -0.004499 0.000000
# 4 0.000000 0.000000 0.000000 0.072899 0.000000 0.005516
# 5 -0.006362 0.000308 -0.004499 0.000000 0.032622 0.000000
# 6 0.000000 0.000000 0.000000 0.005516 0.000000 0.125847
#
#
# Mechanical properties :
#
#
# Convention : Reuss Voigt Hill
#
# Bulk Modulus (GPa) = 14.31426 16.91996 15.61711
# Shear Modulus (GPa) = 16.32262 22.91923 19.62093
#
# Velocity S-wave (km/s) = 2.81817 3.33943 3.08981
# Velocity P-wave (km/s) = 4.18978 4.80643 4.50866
#
# Compressibility (1/GPa) = 0.06986041
#
# Stress axis : x y z
#
# Youngs Moduli (GPa) = 58.56998 35.87662 63.22109
#
# Poissons Ratio (x) = -0.08338 -0.02082
# Poissons Ratio (y) = -0.13611 -0.11978
# Poissons Ratio (z) = -0.01929 -0.06797
#
# Static dielectric constant tensor:
#      x y z
#    x 1.844670 0.000000 0.064170 
#    y 0.000000 1.728830 0.000000 
#    z 0.064170 0.000000 1.748290 
# 
# From -- ./inp_files/270269.got.cif
#   From: 2010.05.17/outbox.cif.g08.bks.cpg/sg12_136_cif.got.tgz:270269.got - 2010.06.03 13:09:07.
