data_PCOD9185118
_publ_section_title
;
Structure prediction by ZEFSAII (Michael W. Deem and Ramdas Pophale) SiO2 
 PCOD9185118
Probable space group: C 2/M
;
_chemical_formula_sum "Si O2"
_cell_formula_units_Z 64
_cell_length_a 13.660272
_cell_length_b 33.097837
_cell_length_c 9.165130
_cell_angle_alpha 90.000000
_cell_angle_beta 120.621118
_cell_angle_gamma 90.000000
_cell_volume 3565.955275
_symmetry_space_group_name_H-M "C 2/M"
_symmetry_group_IT_number 12
_symmetry_cell_setting 'monoclinic'
loop_
_space_group_symop_operation_xyz
x,y,z
-x,y,-z
-x,-y,-z
x,-y,z
1/2+x,1/2+y,z
1/2-x,1/2+y,-z
1/2-x,1/2-y,-z
1/2+x,1/2-y,z
loop_
_atom_site_type_symbol
_atom_site_label
_atom_site_fract_x
_atom_site_fract_y
_atom_site_fract_z
Si Si1 0.368528 0.383967 0.932898
Si Si2 0.272902 0.045846 0.021383
Si Si3 0.133757 0.754287 0.069551
Si Si4 0.085970 0.813247 0.801028
Si Si5 0.319612 0.319202 0.665205
Si Si6 0.266601 0.176293 0.713685
Si Si7 0.521611 0.953573 0.356619
Si Si8 0.874805 0.411150 0.830994
O O1 0.316495 0.361786 0.750329
O O2 0.500000 0.394298 0.000000
O O3 0.301387 0.422090 0.944803
O O4 0.372602 0.348866 0.058932
O O5 0.295517 0.061395 0.874213
O O6 0.227940 0.000000 0.990025
O O7 0.398491 0.045218 0.187241
O O8 0.200051 0.784265 0.230072
O O9 0.164796 0.709442 0.141130
O O10 0.138242 0.771792 0.908728
O O11 0.000000 0.760336 0.000000
O O12 0.140388 0.821564 0.686490
O O13 0.949961 0.813638 0.708612
O O14 0.240063 0.315812 0.464152
O O15 0.320924 0.132826 0.780597
O O16 0.500000 0.935733 0.500000
O O17 0.605259 0.929867 0.313427
O O18 0.562064 0.000000 0.404423
O O19 0.000000 0.408981 0.000000
#
# Coordination Sequence:
#
# PCOD9185118 Si02
#       8
#     8   8   8   8   8   8   8   8
#     4   9  18  35  53  76 104 137 177 217 265 308
#     4  10  19  34  56  77 102 137 180 218 260 322
#     4   9  19  35  51  72 106 139 174 213 259 309
#     4   9  18  35  52  73  99 143 177 214 252 318
#     4   9  20  33  52  73 106 135 177 219 255 309
#     4  12  19  30  54  80 102 136 173 222 263 308
#     4   9  19  35  55  76 105 141 175 212 265 323
#     4  10  21  34  50  79 110 138 174 217 265 316
#
# _framework density 17.947505
#
# number of rings (size 3 to 8) (size 9 to 14) (size 15 to 20)
#    0.000    2.375    1.250    3.375    1.750    1.750 
#    0.000    0.000    0.000    0.000    0.000    1.750 
#    0.000    0.000    0.000    0.000    0.000    0.000 
#
# Total GULP energy -178316.258083 kJ/mol
# GULP energy per Si atom -5572.383065 kJ/mol
# Density = 1.790666 g / cm^3
# Si number density = 17.947505 Si / 1000 Ang^3
#
#
#
# Elastic Constant Matrix: (Units=GPa)
#
#
# Indices 1 2 3 4 5 6 
#
# 1 49.2280 29.1290 11.5153 0.0000 -23.6508 0.0000
# 2 29.1290 109.6653 24.9613 0.0000 -12.0718 0.0000
# 3 11.5153 24.9613 66.3951 0.0000 -24.9176 0.0000
# 4 0.0000 0.0000 0.0000 13.4436 0.0000 -4.5424
# 5 -23.6508 -12.0718 -24.9176 0.0000 28.6562 0.0000
# 6 0.0000 0.0000 0.0000 -4.5424 0.0000 16.1396
#
#
#
# Elastic Compliance Matrix: (Units=1/GPa)
#
#
# Indices 1 2 3 4 5 6 
#
# 1 0.043494 -0.009618 0.011911 0.000000 0.042202 0.000000
# 2 -0.009618 0.012137 -0.005871 0.000000 -0.007930 0.000000
# 3 0.011911 -0.005871 0.026666 0.000000 0.030544 0.000000
# 4 0.000000 0.000000 0.000000 0.082202 0.000000 0.023135
# 5 0.042202 -0.007930 0.030544 0.000000 0.092945 0.000000
# 6 0.000000 0.000000 0.000000 0.023135 0.000000 0.068471
#
#
# Mechanical properties :
#
#
# Convention : Reuss Voigt Hill
#
# Bulk Modulus (GPa) = 13.30865 39.61107 26.45986
# Shear Modulus (GPa) = 13.96191 22.29341 18.12766
#
# Velocity S-wave (km/s) = 2.79217 3.52823 3.18156
# Velocity P-wave (km/s) = 4.22213 6.22224 5.31708
#
# Compressibility (1/GPa) = 0.07513909
#
# Stress axis : x y z
#
# Youngs Moduli (GPa) = 22.99169 82.39434 37.50155
#
# Poissons Ratio (x) = 0.79249 -0.44666
# Poissons Ratio (y) = 0.22114 0.22017
# Poissons Ratio (z) = -0.27384 0.48373
#
# Static dielectric constant tensor:
#      x y z
#    x 1.625510 0.000000 -0.019880 
#    y 0.000000 1.608340 0.000000 
#    z -0.019880 0.000000 1.622540 
# 
# From -- ./inp_files/68286.got.cif
#   From: 2010.05.17/outbox.cif.g08.bks.cpg/sg12_35_cif.got.tgz:68286.got - 2010.06.03 13:09:07.
