data_PCOD9185908
_publ_section_title
;
Structure prediction by ZEFSAII (Michael W. Deem and Ramdas Pophale) SiO2 
 PCOD9185908
Probable space group: C 2/M
;
_chemical_formula_sum "Si O2"
_cell_formula_units_Z 48
_cell_length_a 20.343881
_cell_length_b 9.002296
_cell_length_c 27.372622
_cell_angle_alpha 90.000000
_cell_angle_beta 33.245121
_cell_angle_gamma 90.000000
_cell_volume 2748.273601
_symmetry_space_group_name_H-M "C 2/M"
_symmetry_group_IT_number 12
_symmetry_cell_setting 'monoclinic'
loop_
_space_group_symop_operation_xyz
x,y,z
-x,y,-z
-x,-y,-z
x,-y,z
1/2+x,1/2+y,z
1/2-x,1/2+y,-z
1/2-x,1/2-y,-z
1/2+x,1/2-y,z
loop_
_atom_site_type_symbol
_atom_site_label
_atom_site_fract_x
_atom_site_fract_y
_atom_site_fract_z
Si Si1 0.760979 0.821850 0.546039
Si Si2 0.620845 0.322698 0.073006
Si Si3 0.539962 0.678329 0.920430
Si Si4 0.996229 0.326036 0.443695
Si Si5 0.245152 0.176044 0.268266
Si Si6 0.909007 0.676454 0.261317
O O1 0.750000 0.750000 0.500000
O O2 0.650852 0.780078 0.650315
O O3 0.882860 0.763392 0.494477
O O4 0.763173 0.000000 0.541590
O O5 0.630721 0.500000 0.069584
O O6 0.560590 0.284342 0.057902
O O7 0.526835 0.263829 0.171737
O O8 0.750000 0.250000 0.000000
O O9 0.558810 0.500000 0.906260
O O10 0.661206 0.760309 0.829147
O O11 0.500000 0.716391 0.000000
O O12 0.984733 0.500000 0.438414
O O13 0.119325 0.259940 0.346238
O O14 0.000000 0.312473 0.500000
O O15 0.309684 0.201123 0.280664
O O16 0.228025 0.000000 0.272921
O O17 0.935215 0.500000 0.245672
#
# Coordination Sequence:
#
# PCOD9185908 Si02
#       6
#     8   8   8   8   8   8
#     4  11  23  40  59  83 117 153 189 233 287 338
#     4  10  20  35  58  83 108 142 186 230 275 332
#     4   9  19  37  58  81 111 146 182 228 282 333
#     4  11  22  36  59  87 114 148 192 236 276 334
#     4  10  19  34  58  86 113 145 187 234 281 332
#     4   9  19  36  58  81 110 147 185 228 281 335
#
# _framework density 17.465510999999999
#
# number of rings (size 3 to 8) (size 9 to 14) (size 15 to 20)
#    0.000    2.000    1.667    2.000    0.000    3.667 
#    3.000    0.000    0.000    0.000    0.000    0.000 
#    0.000    0.000    0.000    0.000    0.000    0.000 
#
# Total GULP energy -134001.267135 kJ/mol
# GULP energy per Si atom -5583.386131 kJ/mol
# Density = 1.742576 g / cm^3
# Si number density = 17.465511 Si / 1000 Ang^3
#
#
#
# Elastic Constant Matrix: (Units=GPa)
#
#
# Indices 1 2 3 4 5 6 
#
# 1 72.6781 48.8651 77.8385 0.0000 4.3638 -0.0001
# 2 48.8651 68.1031 75.5933 -0.0001 0.3363 0.0001
# 3 77.8385 75.5933 172.6289 0.0000 3.8915 0.0000
# 4 0.0000 -0.0001 0.0000 36.3719 0.0000 -4.2156
# 5 4.3638 0.3363 3.8915 0.0000 35.9852 0.0000
# 6 -0.0001 0.0001 0.0000 -4.2156 0.0000 28.4645
#
#
#
# Elastic Compliance Matrix: (Units=1/GPa)
#
#
# Indices 1 2 3 4 5 6 
#
# 1 0.032200 -0.013709 -0.008451 0.000000 -0.002863 0.000000
# 2 -0.013709 0.034450 -0.008956 0.000000 0.002309 0.000000
# 3 -0.008451 -0.008956 0.013533 0.000000 -0.000355 0.000000
# 4 0.000000 0.000000 0.000000 0.027974 0.000000 0.004143
# 5 -0.002863 0.002309 -0.000355 0.000000 0.028153 0.000000
# 6 0.000000 0.000000 0.000000 0.004143 0.000000 0.035745
#
#
# Mechanical properties :
#
#
# Convention : Reuss Voigt Hill
#
# Bulk Modulus (GPa) = 55.70973 79.77821 67.74397
# Shear Modulus (GPa) = 20.80991 27.57187 24.19089
#
# Velocity S-wave (km/s) = 3.45554 3.97753 3.72569
# Velocity P-wave (km/s) = 6.92006 8.17747 7.57490
#
# Compressibility (1/GPa) = 0.01795019
#
# Stress axis : x y z
#
# Youngs Moduli (GPa) = 31.05624 29.02800 73.89207
#
# Poissons Ratio (x) = 0.39794 0.62448
# Poissons Ratio (y) = 0.42574 0.66178
# Poissons Ratio (z) = 0.26247 0.25997
#
# Static dielectric constant tensor:
#      x y z
#    x 1.581290 0.000000 0.009990 
#    y 0.000000 1.578670 0.000000 
#    z 0.009990 0.000000 1.567750 
# 
# From -- ./inp_files/248801.got.cif
#   From: 2010.05.17/outbox.cif.g08.bks.cpg/sg12_125_cif.got.tgz:248801.got - 2010.06.03 13:09:07.
