data_PCOD9185376
_publ_section_title
;
Structure prediction by ZEFSAII (Michael W. Deem and Ramdas Pophale) SiO2 
 PCOD9185376
Probable space group: C 2/M
;
_chemical_formula_sum "Si O2"
_cell_formula_units_Z 56
_cell_length_a 14.189714
_cell_length_b 18.904901
_cell_length_c 12.552492
_cell_angle_alpha 90.000000
_cell_angle_beta 113.979909
_cell_angle_gamma 90.000000
_cell_volume 3076.634714
_symmetry_space_group_name_H-M "C 2/M"
_symmetry_group_IT_number 12
_symmetry_cell_setting 'monoclinic'
loop_
_space_group_symop_operation_xyz
x,y,z
-x,y,-z
-x,-y,-z
x,-y,z
1/2+x,1/2+y,z
1/2-x,1/2+y,-z
1/2-x,1/2-y,-z
1/2+x,1/2-y,z
loop_
_atom_site_type_symbol
_atom_site_label
_atom_site_fract_x
_atom_site_fract_y
_atom_site_fract_z
Si Si1 0.253076 0.328623 0.955952
Si Si2 0.749730 0.151930 0.304658
Si Si3 0.545475 0.578527 0.668773
Si Si4 0.190354 0.916109 0.454540
Si Si5 0.377111 0.082783 0.944027
Si Si6 0.519796 0.382641 0.893787
Si Si7 0.807366 0.814199 0.744845
O O1 0.245779 0.330562 0.825102
O O2 0.250000 0.250000 0.000000
O O3 0.170411 0.376992 0.976924
O O4 0.366473 0.353283 0.040835
O O5 0.865471 0.135047 0.314068
O O6 0.745417 0.113485 0.416664
O O7 0.673252 0.117609 0.183484
O O8 0.722095 0.234602 0.301140
O O9 0.580355 0.500000 0.649475
O O10 0.431411 0.594321 0.572014
O O11 0.523719 0.575398 0.785659
O O12 0.211639 0.869769 0.358925
O O13 0.205230 0.000000 0.444092
O O14 0.349176 0.000000 0.934384
O O15 0.500000 0.089557 0.000000
O O16 0.428335 0.325114 0.833118
O O17 0.500000 0.417968 0.000000
#
# Coordination Sequence:
#
# PCOD9185376 Si02
#       7
#     8   8   8   8   8   8   8
#     4  11  20  36  60  85 119 158 197 243 299 349
#     4  12  21  37  60  85 121 158 200 247 297 356
#     4  10  19  34  56  86 118 152 197 244 295 354
#     4  10  22  39  60  87 120 157 199 249 304 355
#     4  11  25  40  60  91 122 159 204 247 296 355
#     4   9  19  32  52  84 119 154 188 239 298 354
#     4  10  22  36  58  90 122 154 199 243 300 358
#
# _framework density 18.201705
#
# number of rings (size 3 to 8) (size 9 to 14) (size 15 to 20)
#    0.000    1.571    2.857    2.143    2.000    2.000 
#    0.000    2.857    0.000    0.000    0.000    3.000 
#    0.000    0.000    0.000    0.000    0.000    0.000 
#
# Total GULP energy -156191.394186 kJ/mol
# GULP energy per Si atom -5578.264078 kJ/mol
# Density = 1.816028 g / cm^3
# Si number density = 18.201705 Si / 1000 Ang^3
#
#
#
# Elastic Constant Matrix: (Units=GPa)
#
#
# Indices 1 2 3 4 5 6 
#
# 1 71.1369 61.6102 28.5628 0.0000 -15.5695 0.0000
# 2 61.6102 153.3588 52.6359 0.0000 -7.9015 0.0000
# 3 28.5628 52.6359 98.4055 0.0000 -16.0848 0.0000
# 4 0.0000 0.0000 0.0000 29.9159 0.0000 -19.4762
# 5 -15.5695 -7.9015 -16.0848 0.0000 27.2243 0.0000
# 6 0.0000 0.0000 0.0000 -19.4762 0.0000 36.8051
#
#
#
# Elastic Compliance Matrix: (Units=1/GPa)
#
#
# Indices 1 2 3 4 5 6 
#
# 1 0.024609 -0.009169 -0.000413 0.000000 0.011169 0.000000
# 2 -0.009169 0.011405 -0.004156 0.000000 -0.004389 0.000000
# 3 -0.000413 -0.004156 0.013581 0.000000 0.006581 0.000000
# 4 0.000000 0.000000 0.000000 0.050995 0.000000 0.026985
# 5 0.011169 -0.004389 0.006581 0.000000 0.045734 0.000000
# 6 0.000000 0.000000 0.000000 0.026985 0.000000 0.041450
#
#
# Mechanical properties :
#
#
# Convention : Reuss Voigt Hill
#
# Bulk Modulus (GPa) = 45.21265 67.61323 56.41294
# Shear Modulus (GPa) = 22.45954 30.79522 26.62738
#
# Velocity S-wave (km/s) = 3.51654 4.11772 3.82894
# Velocity P-wave (km/s) = 6.43287 7.73529 7.11395
#
# Compressibility (1/GPa) = 0.02211770
#
# Stress axis : x y z
#
# Youngs Moduli (GPa) = 40.63581 87.68360 73.63357
#
# Poissons Ratio (x) = 0.80399 0.03040
# Poissons Ratio (y) = 0.37260 0.30604
# Poissons Ratio (z) = 0.01677 0.36444
#
# Static dielectric constant tensor:
#      x y z
#    x 1.618610 0.000000 -0.036720 
#    y 0.000000 1.602800 0.000000 
#    z -0.036720 0.000000 1.654220 
# 
# From -- ./inp_files/146261.got.cif
#   From: 2010.05.17/outbox.cif.g08.bks.cpg/sg12_74_cif.got.tgz:146261.got - 2010.06.03 13:09:07.
