data_PCOD9185391
_publ_section_title
;
Structure prediction by ZEFSAII (Michael W. Deem and Ramdas Pophale) SiO2 
 PCOD9185391
Probable space group: C 2/M
;
_chemical_formula_sum "Si O2"
_cell_formula_units_Z 56
_cell_length_a 11.196161
_cell_length_b 21.530088
_cell_length_c 13.240255
_cell_angle_alpha 90.000000
_cell_angle_beta 89.985088
_cell_angle_gamma 90.000000
_cell_volume 3191.620711
_symmetry_space_group_name_H-M "C 2/M"
_symmetry_group_IT_number 12
_symmetry_cell_setting 'monoclinic'
loop_
_space_group_symop_operation_xyz
x,y,z
-x,y,-z
-x,-y,-z
x,-y,z
1/2+x,1/2+y,z
1/2-x,1/2+y,-z
1/2-x,1/2-y,-z
1/2+x,1/2-y,z
loop_
_atom_site_type_symbol
_atom_site_label
_atom_site_fract_x
_atom_site_fract_y
_atom_site_fract_z
Si Si1 0.146642 0.314965 0.581962
Si Si2 0.864815 0.931202 0.043575
Si Si3 0.148357 0.217809 0.273114
Si Si4 0.616007 0.851116 0.356691
Si Si5 0.357420 0.703537 0.965288
Si Si6 0.299394 0.429821 0.278867
Si Si7 0.569423 0.675797 0.596963
O O1 0.252533 0.318620 0.662079
O O2 0.161553 0.347349 0.473334
O O3 0.128588 0.240953 0.560697
O O4 0.025588 0.341810 0.630587
O O5 0.848920 0.925243 0.164779
O O6 0.812599 0.000000 0.017530
O O7 0.819975 0.865777 0.000326
O O8 0.000000 0.933284 0.000000
O O9 0.164317 0.290736 0.297068
O O10 0.146594 0.205821 0.155404
O O11 0.022373 0.198998 0.318911
O O12 0.660900 0.910470 0.294801
O O13 0.500000 0.714728 0.000000
O O14 0.250000 0.750000 0.000000
O O15 0.319735 0.500000 0.312683
O O16 0.359545 0.378740 0.349885
O O17 0.500000 0.650951 0.500000
#
# Coordination Sequence:
#
# PCOD9185391 Si02
#       7
#     8   8   8   8   8   8   8
#     4  10  19  34  56  88 110 157 179 230 287 344
#     4   9  19  39  60  78 107 150 195 235 287 355
#     4  11  20  32  59  83 114 143 183 237 292 335
#     4  10  19  34  57  84 118 142 192 223 280 345
#     4  11  24  37  56  89 120 148 191 250 302 339
#     4  11  22  35  56  80 110 151 191 231 275 339
#     4  11  19  32  54  82 116 142 185 230 282 340
#
# _framework density 17.545946000000001
#
# number of rings (size 3 to 8) (size 9 to 14) (size 15 to 20)
#    0.000    1.571    4.286    3.857    4.000    0.286 
#    0.000    1.429    0.000    3.000    0.000    0.000 
#    0.000    0.000    0.000    0.000    0.000    0.000 
#
# Total GULP energy -155871.810793 kJ/mol
# GULP energy per Si atom -5566.850385 kJ/mol
# Density = 1.750601 g / cm^3
# Si number density = 17.545946 Si / 1000 Ang^3
#
#
#
# Elastic Constant Matrix: (Units=GPa)
#
#
# Indices 1 2 3 4 5 6 
#
# 1 61.3643 30.8824 31.2906 0.0000 -6.9879 0.0000
# 2 30.8824 110.3322 47.3164 0.0000 -9.5949 0.0000
# 3 31.2906 47.3164 105.4379 0.0000 -12.7786 0.0000
# 4 0.0000 0.0000 0.0000 1.9394 0.0000 9.7342
# 5 -6.9879 -9.5949 -12.7786 0.0000 25.8149 0.0000
# 6 0.0000 0.0000 0.0000 9.7342 0.0000 14.6945
#
#
#
# Elastic Compliance Matrix: (Units=1/GPa)
#
#
# Indices 1 2 3 4 5 6 
#
# 1 0.020558 -0.003794 -0.004143 0.000000 0.002104 0.000000
# 2 -0.003794 0.012002 -0.004089 0.000000 0.001410 0.000000
# 3 -0.004143 -0.004089 0.013009 0.000000 0.003798 0.000000
# 4 0.000000 0.000000 0.000000 -0.221786 0.000000 0.146919
# 5 0.002104 0.001410 0.003798 0.000000 0.041711 0.000000
# 6 0.000000 0.000000 0.000000 0.146919 0.000000 -0.029271
#
#
# Mechanical properties :
#
#
# Convention : Reuss Voigt Hill
#
# Bulk Modulus (GPa) = 46.47799 55.12368 50.80084
# Shear Modulus (GPa) = -37.72103 19.66610 -9.02747
#
# Velocity S-wave (km/s) = -4.64167 3.35152 -2.27073
# Velocity P-wave (km/s) = 1.47648 6.81629 4.70542
#
# Compressibility (1/GPa) = 0.02151556
#
# Stress axis : x y z
#
# Youngs Moduli (GPa) = 48.64287 83.32082 76.86899
#
# Poissons Ratio (x) = 0.31616 0.31848
# Poissons Ratio (y) = 0.18458 0.31432
# Poissons Ratio (z) = 0.20154 0.34070
#
# Static dielectric constant tensor:
#      x y z
#    x 1.699790 0.000000 -0.019250 
#    y 0.000000 1.601370 0.000000 
#    z -0.019250 0.000000 1.555620 
# 
# From -- ./inp_files/133135.got.cif
#   From: 2010.05.17/outbox.cif.g08.bks.cpg/sg12_67_cif.got.tgz:133135.got - 2010.06.03 13:09:07.
