data_PCOD9185131
_publ_section_title
;
Structure prediction by ZEFSAII (Michael W. Deem and Ramdas Pophale) SiO2 
 PCOD9185131
Probable space group: C 2/M
;
_chemical_formula_sum "Si O2"
_cell_formula_units_Z 48
_cell_length_a 16.896960
_cell_length_b 12.431701
_cell_length_c 11.365806
_cell_angle_alpha 90.000000
_cell_angle_beta 73.064868
_cell_angle_gamma 90.000000
_cell_volume 2283.945347
_symmetry_space_group_name_H-M "C 2/M"
_symmetry_group_IT_number 12
_symmetry_cell_setting 'monoclinic'
loop_
_space_group_symop_operation_xyz
x,y,z
-x,y,-z
-x,-y,-z
x,-y,z
1/2+x,1/2+y,z
1/2-x,1/2+y,-z
1/2-x,1/2-y,-z
1/2+x,1/2-y,z
loop_
_atom_site_type_symbol
_atom_site_label
_atom_site_fract_x
_atom_site_fract_y
_atom_site_fract_z
Si Si1 0.340419 0.126827 0.073544
Si Si2 0.757915 0.620310 0.463122
Si Si3 0.168989 0.167686 0.268631
Si Si4 0.887961 0.622900 0.788881
Si Si5 0.577786 0.816254 0.727013
Si Si6 0.012614 0.878304 0.628527
O O1 0.244700 0.143902 0.148940
O O2 0.396460 0.184151 0.147495
O O3 0.359547 0.000000 0.075387
O O4 0.359778 0.158067 0.931916
O O5 0.748015 0.500000 0.528515
O O6 0.750000 0.750000 0.500000
O O7 0.694531 0.618061 0.381162
O O8 0.850703 0.619954 0.370427
O O9 0.155515 0.296139 0.282073
O O10 0.078467 0.126134 0.273361
O O11 0.864760 0.500000 0.779546
O O12 0.987065 0.635260 0.744480
O O13 0.572787 0.697272 0.674924
O O14 0.000000 0.837435 0.500000
O O15 0.041387 0.000000 0.609841
#
# Coordination Sequence:
#
# PCOD9185131 Si02
#       6
#     8   8   8   8   8   8
#     4  10  19  34  56  78 105 142 182 224 272 328
#     4  11  23  39  60  84 112 148 188 230 277 329
#     4  10  20  35  55  79 110 143 183 229 273 327
#     4  10  20  34  55  82 109 141 180 224 276 330
#     4  10  20  34  56  82 110 141 180 229 276 327
#     4  10  20  35  55  78 106 144 186 227 275 330
#
# _framework density 21.016266000000002
#
# number of rings (size 3 to 8) (size 9 to 14) (size 15 to 20)
#    0.000    1.833    0.000    6.000    0.000    4.000 
#    0.000    2.500    0.000   18.000    0.000    0.000 
#    0.000    0.000    0.000    0.000    0.000    0.000 
#
# Total GULP energy -133818.021577 kJ/mol
# GULP energy per Si atom -5575.750899 kJ/mol
# Density = 2.096843 g / cm^3
# Si number density = 21.016266 Si / 1000 Ang^3
#
#
#
# Elastic Constant Matrix: (Units=GPa)
#
#
# Indices 1 2 3 4 5 6 
#
# 1 74.8813 21.0419 13.4518 0.0000 -2.9537 0.0000
# 2 21.0419 144.3047 34.2279 0.0000 23.8843 0.0000
# 3 13.4518 34.2279 31.2882 0.0000 -4.4604 0.0000
# 4 0.0000 0.0000 0.0000 28.6267 0.0000 7.9858
# 5 -2.9537 23.8843 -4.4604 0.0000 24.3152 0.0000
# 6 0.0000 0.0000 0.0000 7.9858 0.0000 4.8507
#
#
#
# Elastic Compliance Matrix: (Units=1/GPa)
#
#
# Indices 1 2 3 4 5 6 
#
# 1 0.014651 -0.001545 -0.004250 0.000000 0.002518 0.000000
# 2 -0.001545 0.014067 -0.017170 0.000000 -0.017155 0.000000
# 3 -0.004250 -0.017170 0.056376 0.000000 0.026691 0.000000
# 4 0.000000 0.000000 0.000000 0.064601 0.000000 -0.106354
# 5 0.002518 -0.017155 0.026691 0.000000 0.063180 0.000000
# 6 0.000000 0.000000 0.000000 -0.106354 0.000000 0.381245
#
#
# Mechanical properties :
#
#
# Convention : Reuss Voigt Hill
#
# Bulk Modulus (GPa) = 25.53314 43.10194 34.31754
# Shear Modulus (GPa) = 7.65573 23.67538 15.66556
#
# Velocity S-wave (km/s) = 1.91067 3.36002 2.73317
# Velocity P-wave (km/s) = 4.12834 5.96710 5.13077
#
# Compressibility (1/GPa) = 0.03916478
#
# Stress axis : x y z
#
# Youngs Moduli (GPa) = 68.25273 71.08793 17.73790
#
# Poissons Ratio (x) = 0.10984 0.07538
# Poissons Ratio (y) = 0.10546 0.30456
# Poissons Ratio (z) = 0.29007 1.22058
#
# Static dielectric constant tensor:
#      x y z
#    x 1.738140 0.000000 -0.034170 
#    y 0.000000 1.822200 0.000000 
#    z -0.034170 0.000000 1.775820 
# 
# From -- ./inp_files/154191.got.cif
#   From: 2010.05.17/outbox.cif.g08.bks.cpg/sg12_78_cif.got.tgz:154191.got - 2010.06.03 13:09:07.
