data_PCOD9185301
_publ_section_title
;
Structure prediction by ZEFSAII (Michael W. Deem and Ramdas Pophale) SiO2 
 PCOD9185301
Probable space group: C 2/M
;
_chemical_formula_sum "Si O2"
_cell_formula_units_Z 48
_cell_length_a 8.579528
_cell_length_b 25.813169
_cell_length_c 12.914332
_cell_angle_alpha 90.000000
_cell_angle_beta 70.599409
_cell_angle_gamma 90.000000
_cell_volume 2697.673060
_symmetry_space_group_name_H-M "C 2/M"
_symmetry_group_IT_number 12
_symmetry_cell_setting 'monoclinic'
loop_
_space_group_symop_operation_xyz
x,y,z
-x,y,-z
-x,-y,-z
x,-y,z
1/2+x,1/2+y,z
1/2-x,1/2+y,-z
1/2-x,1/2-y,-z
1/2+x,1/2-y,z
loop_
_atom_site_type_symbol
_atom_site_label
_atom_site_fract_x
_atom_site_fract_y
_atom_site_fract_z
Si Si1 0.875855 0.192321 0.619657
Si Si2 0.623710 0.000000 0.377062
Si Si3 0.995511 0.692321 0.380343
Si Si4 0.999228 0.000000 0.377063
Si Si5 0.310007 0.560157 0.000000
Si Si6 0.070553 0.899485 0.236517
Si Si7 0.807070 0.600515 0.763483
O O1 0.692769 0.194058 0.614463
O O2 0.000000 0.175756 0.500000
O O3 0.929805 0.250000 0.640390
O O4 0.886614 0.152005 0.710673
O O5 0.500000 0.000000 0.500000
O O6 0.810048 0.000000 0.379904
O O7 0.608521 0.948716 0.310841
O O8 0.000000 0.675756 0.500000
O O9 0.097287 0.652005 0.289327
O O10 0.080638 0.948716 0.310841
O O11 0.000000 0.000000 0.500000
O O12 0.259440 0.500000 0.000000
O O13 0.318078 0.588543 0.888254
O O14 0.500000 0.558984 0.000000
O O15 0.206332 0.588543 0.111746
O O16 0.880585 0.896182 0.238831
#
# Coordination Sequence:
#
# PCOD9185301 Si02
#       7
#     8   4   8   4   8   8   8
#     4  11  22  38  59  83 111 145 184 229 281 335
#     4  10  20  31  49  77 111 144 179 222 271 326
#     4  11  22  38  59  83 111 145 184 229 281 335
#     4  10  20  31  49  77 111 144 179 222 271 326
#     4   9  16  32  58  83 110 149 192 228 271 324
#     4  10  19  34  56  83 112 146 187 229 272 327
#     4  10  19  34  56  83 112 146 187 229 272 327
#
# _framework density 17.793112000000001
#
# number of rings (size 3 to 8) (size 9 to 14) (size 15 to 20)
#    0.000    1.833    1.667    5.000    0.000    4.000 
#    0.000    1.667    0.000    1.000    0.000    0.000 
#    0.000    0.000    0.000    0.000    0.000    0.000 
#
# Total GULP energy -134049.645160 kJ/mol
# GULP energy per Si atom -5585.401882 kJ/mol
# Density = 1.775261 g / cm^3
# Si number density = 17.793112 Si / 1000 Ang^3
#
#
#
# Elastic Constant Matrix: (Units=GPa)
#
#
# Indices 1 2 3 4 5 6 
#
# 1 61.0187 39.1179 46.1963 0.0000 -0.3725 0.0000
# 2 39.1179 110.4942 102.1779 0.0000 -1.0377 0.0000
# 3 46.1963 102.1779 197.3336 0.0000 -1.8708 0.0000
# 4 0.0000 0.0000 0.0000 82.3229 0.0000 -1.0222
# 5 -0.3725 -1.0377 -1.8708 0.0000 18.7530 0.0000
# 6 0.0000 0.0000 0.0000 -1.0222 0.0000 20.2418
#
#
#
# Elastic Compliance Matrix: (Units=1/GPa)
#
#
# Indices 1 2 3 4 5 6 
#
# 1 0.021648 -0.005713 -0.002111 0.000000 -0.000097 0.000000
# 2 -0.005713 0.018873 -0.008434 0.000000 0.000089 0.000000
# 3 -0.002111 -0.008434 0.009933 0.000000 0.000482 0.000000
# 4 0.000000 0.000000 0.000000 0.012155 0.000000 0.000614
# 5 -0.000097 0.000089 0.000482 0.000000 0.053376 0.000000
# 6 0.000000 0.000000 0.000000 0.000614 0.000000 0.049434
#
#
# Mechanical properties :
#
#
# Convention : Reuss Voigt Hill
#
# Bulk Modulus (GPa) = 55.74448 82.64784 69.19616
# Shear Modulus (GPa) = 24.52010 36.35382 30.43696
#
# Velocity S-wave (km/s) = 3.71626 4.52501 4.14043
# Velocity P-wave (km/s) = 7.05772 8.59367 7.86329
#
# Compressibility (1/GPa) = 0.01793899
#
# Stress axis : x y z
#
# Youngs Moduli (GPa) = 46.19278 52.98611 100.67220
#
# Poissons Ratio (x) = 0.30273 0.21247
# Poissons Ratio (y) = 0.26391 0.84906
# Poissons Ratio (z) = 0.09749 0.44688
#
# Static dielectric constant tensor:
#      x y z
#    x 1.602990 0.000000 0.000200 
#    y 0.000000 1.585000 0.000000 
#    z 0.000200 0.000000 1.590910 
# 
# From -- ./inp_files/122468.got.cif
#   From: 2010.05.17/outbox.cif.g08.bks.cpg/sg12_62_cif.got.tgz:122468.got - 2010.06.03 13:09:07.
