data_PCOD9185542
_publ_section_title
;
Structure prediction by ZEFSAII (Michael W. Deem and Ramdas Pophale) SiO2 
 PCOD9185542
Probable space group: C 2/M
;
_chemical_formula_sum "Si O2"
_cell_formula_units_Z 64
_cell_length_a 15.080370
_cell_length_b 12.559941
_cell_length_c 26.576193
_cell_angle_alpha 90.000000
_cell_angle_beta 39.579881
_cell_angle_gamma 90.000000
_cell_volume 3207.276217
_symmetry_space_group_name_H-M "C 2/M"
_symmetry_group_IT_number 12
_symmetry_cell_setting 'monoclinic'
loop_
_space_group_symop_operation_xyz
x,y,z
-x,y,-z
-x,-y,-z
x,-y,z
1/2+x,1/2+y,z
1/2-x,1/2+y,-z
1/2-x,1/2-y,-z
1/2+x,1/2-y,z
loop_
_atom_site_type_symbol
_atom_site_label
_atom_site_fract_x
_atom_site_fract_y
_atom_site_fract_z
Si Si1 0.838989 0.375821 0.202991
Si Si2 0.583784 0.272571 0.360833
Si Si3 0.809554 0.778137 0.528618
Si Si4 0.685607 0.375996 0.060042
Si Si5 0.514172 0.758695 0.212481
Si Si6 0.466953 0.764680 0.954882
Si Si7 0.240155 0.125892 0.642669
Si Si8 0.965552 0.622210 0.327048
O O1 0.863058 0.500000 0.183064
O O2 0.681146 0.355952 0.289744
O O3 0.929642 0.330035 0.209534
O O4 0.890425 0.303382 0.134024
O O5 0.465209 0.317812 0.449761
O O6 0.676913 0.190209 0.351344
O O7 0.512810 0.199860 0.350068
O O8 0.750000 0.750000 0.500000
O O9 0.804597 0.669289 0.562612
O O10 0.701366 0.855734 0.604549
O O11 0.655239 0.500000 0.079795
O O12 0.627713 0.303707 0.130923
O O13 0.606266 0.333378 0.044084
O O14 0.851283 0.355000 0.991161
O O15 0.416356 0.669874 0.281815
O O16 0.549204 0.840206 0.241372
O O17 0.500000 0.750173 0.000000
O O18 0.248021 0.000000 0.643840
O O19 0.989531 0.500000 0.328083
#
# Coordination Sequence:
#
# PCOD9185542 Si02
#       8
#     8   8   8   8   8   8   8   8
#     4  10  21  38  59  82 115 154 190 237 295 348
#     4  10  21  35  54  85 115 142 193 241 281 348
#     4   9  20  35  50  77 111 144 191 237 278 342
#     4  10  21  40  67  92 124 166 203 249 306 358
#     4   9  20  37  57  84 118 148 198 240 280 350
#     4  10  23  41  63  93 129 156 203 255 299 370
#     4  10  19  34  57  82 113 150 185 236 293 337
#     4  10  20  36  56  78 112 154 190 236 293 342
#
# _framework density 19.954626000000001
#
# number of rings (size 3 to 8) (size 9 to 14) (size 15 to 20)
#    0.000    2.250    0.000    1.875    1.750    4.750 
#    0.000    6.250    0.000    4.500    0.000    0.000 
#    0.000    0.000    0.000    0.000    0.000    0.000 
#
# Total GULP energy -178313.461919 kJ/mol
# GULP energy per Si atom -5572.295685 kJ/mol
# Density = 1.990921 g / cm^3
# Si number density = 19.954626 Si / 1000 Ang^3
#
#
#
# Elastic Constant Matrix: (Units=GPa)
#
#
# Indices 1 2 3 4 5 6 
#
# 1 39.9240 4.3424 13.4454 0.0000 15.0425 0.0000
# 2 4.3424 49.9976 6.6025 0.0000 -0.4413 0.0000
# 3 13.4454 6.6025 83.3069 0.0000 7.7104 0.0000
# 4 0.0000 0.0000 0.0000 9.0378 0.0000 -7.5866
# 5 15.0425 -0.4413 7.7104 0.0000 32.5812 0.0000
# 6 0.0000 0.0000 0.0000 -7.5866 0.0000 4.9965
#
#
#
# Elastic Compliance Matrix: (Units=1/GPa)
#
#
# Indices 1 2 3 4 5 6 
#
# 1 0.031748 -0.002397 -0.003654 0.000000 -0.013825 0.000000
# 2 -0.002397 0.020408 -0.001389 0.000000 0.001712 0.000000
# 3 -0.003654 -0.001389 0.012830 0.000000 -0.001368 0.000000
# 4 0.000000 0.000000 0.000000 -0.402975 0.000000 -0.611869
# 5 -0.013825 0.001712 -0.001368 0.000000 0.037423 0.000000
# 6 0.000000 0.000000 0.000000 -0.611869 0.000000 -0.728912
#
#
# Mechanical properties :
#
#
# Convention : Reuss Voigt Hill
#
# Bulk Modulus (GPa) = 19.95786 24.66766 22.31276
# Shear Modulus (GPa) = -5.01055 19.24567 7.11756
#
# Velocity S-wave (km/s) = -1.58632 3.10896 1.89067
# Velocity P-wave (km/s) = 2.58227 5.02755 3.99652
#
# Compressibility (1/GPa) = 0.05010558
#
# Stress axis : x y z
#
# Youngs Moduli (GPa) = 31.49789 49.00117 77.94049
#
# Poissons Ratio (x) = 0.11745 0.28483
# Poissons Ratio (y) = 0.07550 0.10826
# Poissons Ratio (z) = 0.11511 0.06806
#
# Static dielectric constant tensor:
#      x y z
#    x 1.757970 0.000000 -0.028340 
#    y 0.000000 1.649800 0.000000 
#    z -0.028340 0.000000 1.793800 
# 
# From -- ./inp_files/361017.got.cif
#   From: 2010.05.17/outbox.cif.g08.bks.cpg/sg12_181_cif.got.tgz:361017.got - 2010.06.03 13:09:07.
