data_PCOD9185645
_publ_section_title
;
Structure prediction by ZEFSAII (Michael W. Deem and Ramdas Pophale) SiO2 
 PCOD9185645
Probable space group: C 2/M
;
_chemical_formula_sum "Si O2"
_cell_formula_units_Z 64
_cell_length_a 13.400127
_cell_length_b 13.406333
_cell_length_c 20.030861
_cell_angle_alpha 90.000000
_cell_angle_beta 112.442050
_cell_angle_gamma 90.000000
_cell_volume 3325.948841
_symmetry_space_group_name_H-M "C 2/M"
_symmetry_group_IT_number 12
_symmetry_cell_setting 'monoclinic'
loop_
_space_group_symop_operation_xyz
x,y,z
-x,y,-z
-x,-y,-z
x,-y,z
1/2+x,1/2+y,z
1/2-x,1/2+y,-z
1/2-x,1/2-y,-z
1/2+x,1/2-y,z
loop_
_atom_site_type_symbol
_atom_site_label
_atom_site_fract_x
_atom_site_fract_y
_atom_site_fract_z
Si Si1 0.872399 0.381978 0.470824
Si Si2 0.739108 0.386870 0.924497
Si Si3 0.740145 0.613029 0.774316
Si Si4 0.523027 0.884440 0.318324
Si Si5 0.998814 0.613674 0.841379
Si Si6 0.866338 0.252834 0.360477
Si Si7 0.907893 0.765641 0.026646
Si Si8 0.242853 0.884184 0.570335
O O1 0.877852 0.500000 0.477760
O O2 0.818637 0.348236 0.387604
O O3 0.797941 0.350689 0.514410
O O4 0.000000 0.348733 0.500000
O O5 0.780511 0.500000 0.941191
O O6 0.696393 0.375859 0.838282
O O7 0.648852 0.360452 0.955285
O O8 0.828214 0.303870 0.962977
O O9 0.714771 0.500000 0.743430
O O10 0.869253 0.619360 0.814859
O O11 0.694894 0.696874 0.714263
O O12 0.480223 0.872206 0.232223
O O13 0.471977 0.800629 0.352839
O O14 0.652887 0.876938 0.353821
O O15 0.499522 0.000000 0.334408
O O16 0.031393 0.500000 0.867696
O O17 0.052057 0.694282 0.902962
O O18 0.855079 0.175845 0.420463
O O19 0.000000 0.796673 0.000000
O O20 0.212935 0.000000 0.555908
#
# Coordination Sequence:
#
# PCOD9185645 Si02
#       8
#     8   8   8   8   8   8   8   8
#     4  10  20  36  58  84 113 144 185 232 281 336
#     4  10  22  38  56  84 118 151 188 233 285 334
#     4  10  20  35  57  83 112 148 189 232 280 336
#     4  10  20  35  56  82 112 144 184 231 277 329
#     4  10  19  34  57  85 113 145 186 237 283 324
#     4  12  20  32  59  86 108 143 188 230 278 327
#     4  11  21  35  60  87 113 149 195 236 275 331
#     4  10  20  36  56  82 111 143 184 227 274 335
#
# _framework density 19.242629000000001
#
# number of rings (size 3 to 8) (size 9 to 14) (size 15 to 20)
#    0.000    1.625    3.750    2.250    0.000    0.750 
#    0.000    0.000    0.000    6.750    0.000    0.000 
#    0.000    0.000    0.000    0.000    0.000    0.000 
#
# Total GULP energy -178210.569598 kJ/mol
# GULP energy per Si atom -5569.080300 kJ/mol
# Density = 1.919883 g / cm^3
# Si number density = 19.242629 Si / 1000 Ang^3
#
#
#
# Elastic Constant Matrix: (Units=GPa)
#
#
# Indices 1 2 3 4 5 6 
#
# 1 74.5380 35.7134 8.2358 0.0000 -27.2137 0.0000
# 2 35.7134 55.2890 17.8810 0.0000 -7.4499 0.0000
# 3 8.2358 17.8810 67.7840 0.0000 -15.1481 0.0000
# 4 0.0000 0.0000 0.0000 29.3297 0.0000 -3.5403
# 5 -27.2137 -7.4499 -15.1481 0.0000 27.3864 0.0000
# 6 0.0000 0.0000 0.0000 -3.5403 0.0000 26.7753
#
#
#
# Elastic Compliance Matrix: (Units=1/GPa)
#
#
# Indices 1 2 3 4 5 6 
#
# 1 0.034635 -0.020673 0.008763 0.000000 0.033640 0.000000
# 2 -0.020673 0.032310 -0.009856 0.000000 -0.017205 0.000000
# 3 0.008763 -0.009856 0.020122 0.000000 0.017157 0.000000
# 4 0.000000 0.000000 0.000000 0.034648 0.000000 0.004581
# 5 0.033640 -0.017205 0.017157 0.000000 0.074751 0.000000
# 6 0.000000 0.000000 0.000000 0.004581 0.000000 0.037954
#
#
# Mechanical properties :
#
#
# Convention : Reuss Voigt Hill
#
# Bulk Modulus (GPa) = 22.97081 35.69681 29.33381
# Shear Modulus (GPa) = 17.09613 25.75034 21.42323
#
# Velocity S-wave (km/s) = 2.98392 3.66210 3.34027
# Velocity P-wave (km/s) = 4.88212 6.03924 5.49125
#
# Compressibility (1/GPa) = 0.04353350
#
# Stress axis : x y z
#
# Youngs Moduli (GPa) = 28.87280 30.95044 49.69641
#
# Poissons Ratio (x) = 0.63985 -0.43549
# Poissons Ratio (y) = 0.59689 0.48982
# Poissons Ratio (z) = -0.25301 0.30506
#
# Static dielectric constant tensor:
#      x y z
#    x 1.697540 0.000000 -0.027450 
#    y 0.000000 1.684350 0.000000 
#    z -0.027450 0.000000 1.714750 
# 
# From -- ./inp_files/309868.got.cif
#   From: 2010.05.17/outbox.cif.g08.bks.cpg/sg12_155_cif.got.tgz:309868.got - 2010.06.03 13:09:07.
