data_PCOD9185418
_publ_section_title
;
Structure prediction by ZEFSAII (Michael W. Deem and Ramdas Pophale) SiO2 
 PCOD9185418
Probable space group: C 2/M
;
_chemical_formula_sum "Si O2"
_cell_formula_units_Z 40
_cell_length_a 17.830811
_cell_length_b 25.892037
_cell_length_c 8.372473
_cell_angle_alpha 90.000000
_cell_angle_beta 151.676502
_cell_angle_gamma 90.000000
_cell_volume 1833.921967
_symmetry_space_group_name_H-M "C 2/M"
_symmetry_group_IT_number 12
_symmetry_cell_setting 'monoclinic'
loop_
_space_group_symop_operation_xyz
x,y,z
-x,y,-z
-x,-y,-z
x,-y,z
1/2+x,1/2+y,z
1/2-x,1/2+y,-z
1/2-x,1/2-y,-z
1/2+x,1/2-y,z
loop_
_atom_site_type_symbol
_atom_site_label
_atom_site_fract_x
_atom_site_fract_y
_atom_site_fract_z
Si Si1 0.146037 0.720549 0.675497
Si Si2 0.662089 0.939860 0.951752
Si Si3 0.809498 0.600419 0.666558
Si Si4 0.193202 0.606814 0.688912
Si Si5 0.856098 0.207064 0.615006
O O1 0.215351 0.668861 0.726095
O O2 0.091175 0.763662 0.446561
O O3 0.000000 0.698712 0.500000
O O4 0.250000 0.750000 0.000000
O O5 0.491276 0.911413 0.649107
O O6 0.753294 0.914335 0.972499
O O7 0.639328 0.000000 0.874012
O O8 0.733997 0.934528 0.263768
O O9 0.745737 0.587253 0.369187
O O10 0.749476 0.656790 0.606998
O O11 0.000000 0.601379 0.000000
O O12 0.750000 0.250000 0.500000
O O13 0.000000 0.194221 0.000000
#
# Coordination Sequence:
#
# PCOD9185418 Si02
#       5
#     8   8   8   8   8
#     4  12  24  37  57  85 123 166 203 244 298 363
#     4  10  20  35  59  89 119 153 200 261 315 360
#     4  10  22  38  60  87 125 158 201 253 304 366
#     4  10  19  34  57  78 124 149 198 245 305 352
#     4  12  24  38  61  87 125 167 206 244 301 363
#
# _framework density 21.811177000000001
#
# number of rings (size 3 to 8) (size 9 to 14) (size 15 to 20)
#    0.000    1.200    4.000    4.200    5.600    4.400 
#    0.000    0.000    0.000    0.600    0.000    1.400 
#    0.000    0.000    0.000    0.000    0.000    0.000 
#
# Total GULP energy -111553.271435 kJ/mol
# GULP energy per Si atom -5577.663572 kJ/mol
# Density = 2.176153 g / cm^3
# Si number density = 21.811177 Si / 1000 Ang^3
#
#
#
# Elastic Constant Matrix: (Units=GPa)
#
#
# Indices 1 2 3 4 5 6 
#
# 1 147.1977 31.5716 18.8798 0.0000 -51.3646 0.0000
# 2 31.5716 98.5985 7.3929 0.0000 -18.4668 0.0000
# 3 18.8798 7.3929 29.0881 0.0000 -21.3989 0.0000
# 4 0.0000 0.0000 0.0000 20.9696 0.0000 -10.6091
# 5 -51.3646 -18.4668 -21.3989 0.0000 37.1806 0.0000
# 6 0.0000 0.0000 0.0000 -10.6091 0.0000 23.7027
#
#
#
# Elastic Compliance Matrix: (Units=1/GPa)
#
#
# Indices 1 2 3 4 5 6 
#
# 1 0.014440 -0.000650 0.009071 0.000000 0.024846 0.000000
# 2 -0.000650 0.011290 0.001764 0.000000 0.005724 0.000000
# 3 0.009071 0.001764 0.065740 0.000000 0.051244 0.000000
# 4 0.000000 0.000000 0.000000 0.061648 0.000000 0.027593
# 5 0.024846 0.005724 0.051244 0.000000 0.093556 0.000000
# 6 0.000000 0.000000 0.000000 0.027593 0.000000 0.054540
#
#
# Mechanical properties :
#
#
# Convention : Reuss Voigt Hill
#
# Bulk Modulus (GPa) = 8.94137 43.39700 26.16918
# Shear Modulus (GPa) = 15.71710 30.83992 23.27851
#
# Velocity S-wave (km/s) = 2.68731 3.76433 3.27046
# Velocity P-wave (km/s) = 3.70637 6.23165 5.12692
#
# Compressibility (1/GPa) = 0.11183974
#
# Stress axis : x y z
#
# Youngs Moduli (GPa) = 69.25420 88.57197 15.21137
#
# Poissons Ratio (x) = 0.05760 -0.13799
# Poissons Ratio (y) = 0.04504 -0.02683
# Poissons Ratio (z) = -0.62823 -0.15622
#
# Static dielectric constant tensor:
#      x y z
#    x 1.835480 0.000000 -0.113190 
#    y 0.000000 1.749840 0.000000 
#    z -0.113190 0.000000 1.812780 
# 
# From -- ./inp_files/39452.got.cif
#   From: 2010.05.17/outbox.cif.g08.bks.cpg/sg12_20_cif.got.tgz:39452.got - 2010.06.03 13:09:07.
