data_PCOD9185046
_publ_section_title
;
Structure prediction by ZEFSAII (Michael W. Deem and Ramdas Pophale) SiO2 
 PCOD9185046
Probable space group: C 2/M
;
_chemical_formula_sum "Si O2"
_cell_formula_units_Z 56
_cell_length_a 19.696986
_cell_length_b 8.831838
_cell_length_c 25.915586
_cell_angle_alpha 90.000000
_cell_angle_beta 40.772566
_cell_angle_gamma 90.000000
_cell_volume 2944.175567
_symmetry_space_group_name_H-M "C 2/M"
_symmetry_group_IT_number 12
_symmetry_cell_setting 'monoclinic'
loop_
_space_group_symop_operation_xyz
x,y,z
-x,y,-z
-x,-y,-z
x,-y,z
1/2+x,1/2+y,z
1/2-x,1/2+y,-z
1/2-x,1/2-y,-z
1/2+x,1/2-y,z
loop_
_atom_site_type_symbol
_atom_site_label
_atom_site_fract_x
_atom_site_fract_y
_atom_site_fract_z
Si Si1 0.911114 0.174658 0.506522
Si Si2 0.090203 0.817364 0.330951
Si Si3 0.435081 0.176719 0.173995
Si Si4 0.384285 0.823010 0.084631
Si Si5 0.740748 0.179479 0.332205
Si Si6 0.644929 0.319691 0.083672
Si Si7 0.171353 0.679767 0.178548
O O1 0.817435 0.274999 0.581505
O O2 0.000000 0.179463 0.500000
O O3 0.974544 0.218630 0.418840
O O4 0.877021 0.000000 0.522157
O O5 0.170639 0.749605 0.326430
O O6 0.115716 0.748953 0.260845
O O7 0.101573 0.000000 0.324111
O O8 0.384301 0.187360 0.146501
O O9 0.354511 0.249632 0.260303
O O10 0.544400 0.261992 0.110828
O O11 0.452188 0.000000 0.175443
O O12 0.293272 0.722000 0.114049
O O13 0.366192 0.000000 0.080552
O O14 0.500000 0.782189 0.000000
O O15 0.745105 0.000000 0.323894
O O16 0.651577 0.500000 0.079126
O O17 0.632483 0.258106 0.148877
O O18 0.750000 0.250000 0.000000
O O19 0.157806 0.500000 0.184098
#
# Coordination Sequence:
#
# PCOD9185046 Si02
#       7
#     8   8   8   8   8   8   8
#     4   8  16  30  50  77 113 155 194 235 288 347
#     4  10  19  34  55  82 117 156 197 241 292 346
#     4  11  22  38  61  86 119 156 196 243 295 350
#     4  10  21  37  59  85 114 149 189 238 297 350
#     4  11  20  31  52  85 121 154 194 241 291 347
#     4  12  26  45  65  86 117 154 200 245 294 354
#     4  12  24  38  60  88 119 153 196 243 293 352
#
# _framework density 19.020605
#
# number of rings (size 3 to 8) (size 9 to 14) (size 15 to 20)
#    0.000    1.429    1.429    6.429    0.000    5.143 
#    0.000    0.000    0.000    0.857    0.000    0.000 
#    0.000    0.000    0.000    0.000    0.000    0.000 
#
# Total GULP energy -156472.880668 kJ/mol
# GULP energy per Si atom -5588.317167 kJ/mol
# Density = 1.897731 g / cm^3
# Si number density = 19.020605 Si / 1000 Ang^3
#
#
#
# Elastic Constant Matrix: (Units=GPa)
#
#
# Indices 1 2 3 4 5 6 
#
# 1 18.4426 10.2605 -15.4422 0.0000 0.9710 -0.0001
# 2 10.2605 126.6398 33.7607 0.0000 -3.8363 0.0000
# 3 -15.4422 33.7607 94.1503 0.0000 2.9359 -0.0001
# 4 0.0000 0.0000 0.0000 26.9503 0.0000 -3.2144
# 5 0.9710 -3.8363 2.9359 0.0000 22.2152 0.0000
# 6 -0.0001 0.0000 -0.0001 -3.2144 0.0000 23.3091
#
#
#
# Elastic Compliance Matrix: (Units=1/GPa)
#
#
# Indices 1 2 3 4 5 6 
#
# 1 0.073941 -0.010505 0.016118 0.000000 -0.007176 0.000000
# 2 -0.010505 0.010307 -0.005511 0.000000 0.002967 0.000000
# 3 0.016118 -0.005511 0.015356 0.000000 -0.003686 0.000000
# 4 0.000000 0.000000 0.000000 0.037726 0.000000 0.005202
# 5 -0.007176 0.002967 -0.003686 0.000000 0.046328 0.000000
# 6 0.000000 0.000000 0.000000 0.005202 0.000000 0.043619
#
#
# Mechanical properties :
#
#
# Convention : Reuss Voigt Hill
#
# Bulk Modulus (GPa) = 10.01933 32.93230 21.47581
# Shear Modulus (GPa) = 19.20555 28.53848 23.87202
#
# Velocity S-wave (km/s) = 3.18106 3.87770 3.54653
# Velocity P-wave (km/s) = 4.33258 6.11558 5.29960
#
# Compressibility (1/GPa) = 0.09980707
#
# Stress axis : x y z
#
# Youngs Moduli (GPa) = 13.52437 97.02423 65.12031
#
# Poissons Ratio (x) = 1.01925 -1.04962
# Poissons Ratio (y) = 0.14207 0.35890
# Poissons Ratio (z) = -0.21799 0.53474
#
# Static dielectric constant tensor:
#      x y z
#    x 1.652120 0.000000 0.017570 
#    y 0.000000 1.629740 0.000000 
#    z 0.017570 0.000000 1.690120 
# 
# From -- ./inp_files/362914.got.cif
#   From: 2010.05.17/outbox.cif.g08.bks.cpg/sg12_182_cif.got.tgz:362914.got - 2010.06.03 13:09:07.
