data_PCOD9185430
_publ_section_title
;
Structure prediction by ZEFSAII (Michael W. Deem and Ramdas Pophale) SiO2 
 PCOD9185430
Probable space group: C 2/M
;
_chemical_formula_sum "Si O2"
_cell_formula_units_Z 64
_cell_length_a 21.194344
_cell_length_b 7.563190
_cell_length_c 21.002758
_cell_angle_alpha 90.000000
_cell_angle_beta 72.074205
_cell_angle_gamma 90.000000
_cell_volume 3203.243818
_symmetry_space_group_name_H-M "C 2/M"
_symmetry_group_IT_number 12
_symmetry_cell_setting 'monoclinic'
loop_
_space_group_symop_operation_xyz
x,y,z
-x,y,-z
-x,-y,-z
x,-y,z
1/2+x,1/2+y,z
1/2-x,1/2+y,-z
1/2-x,1/2-y,-z
1/2+x,1/2-y,z
loop_
_atom_site_type_symbol
_atom_site_label
_atom_site_fract_x
_atom_site_fract_y
_atom_site_fract_z
Si Si1 0.304537 0.714412 0.296712
Si Si2 0.568871 0.797179 0.505982
Si Si3 0.421218 0.706299 0.008053
Si Si4 0.348347 0.293893 0.639232
Si Si5 0.394129 0.716042 0.152695
Si Si6 0.938459 0.783429 0.726796
Si Si7 0.545110 0.716235 0.137244
Si Si8 0.415855 0.704707 0.357415
O O1 0.302157 0.500000 0.298135
O O2 0.229960 0.776096 0.329274
O O3 0.338107 0.770279 0.219734
O O4 0.354081 0.778065 0.337143
O O5 0.500000 0.719324 0.500000
O O6 0.622680 0.791036 0.433586
O O7 0.592091 0.712196 0.564419
O O8 0.554487 0.000000 0.527544
O O9 0.401781 0.500000 0.010131
O O10 0.386997 0.780396 0.082092
O O11 0.500000 0.710505 0.000000
O O12 0.417195 0.780466 0.937973
O O13 0.365740 0.500000 0.627956
O O14 0.385979 0.224214 0.690293
O O15 0.394480 0.500000 0.150784
O O16 0.467377 0.766805 0.155312
O O17 0.927120 0.728182 0.803179
O O18 0.011923 0.722444 0.683234
O O19 0.937445 0.000000 0.726923
O O20 0.545862 0.500000 0.134977
O O21 0.419460 0.500000 0.336291
#
# Coordination Sequence:
#
# PCOD9185430 Si02
#       8
#     8   8   8   8   8   8   8   8
#     4  10  20  34  53  76 105 136 169 209 252 297
#     4  11  23  38  57  80 104 128 159 205 256 302
#     4   7  10  15  30  61  99 129 154 194 249 295
#     4  11  23  37  54  74 101 135 170 207 249 303
#     4   8  12  21  39  66  99 132 159 196 252 297
#     4   9  16  28  48  72  96 128 169 207 246 292
#     4   8  11  19  38  67  98 125 161 207 247 288
#     4  10  19  34  57  79  99 131 170 207 249 297
#
# _framework density 19.979745999999999
#
# number of rings (size 3 to 8) (size 9 to 14) (size 15 to 20)
#    0.000    2.750    2.500    2.250    0.000    1.500 
#    0.000    0.000    0.000    0.750    0.000    0.000 
#    0.000    6.500    0.000    0.000    0.000    0.125 
#
# Total GULP energy -178421.922842 kJ/mol
# GULP energy per Si atom -5575.685089 kJ/mol
# Density = 1.993427 g / cm^3
# Si number density = 19.979746 Si / 1000 Ang^3
#
#
#
# Elastic Constant Matrix: (Units=GPa)
#
#
# Indices 1 2 3 4 5 6 
#
# 1 115.2536 -2.7679 72.9002 0.0000 8.3308 0.0000
# 2 -2.7679 44.7730 -7.5640 0.0000 1.7651 0.0001
# 3 72.9002 -7.5640 165.0577 0.0000 19.8763 0.0000
# 4 0.0000 0.0000 0.0000 -21.9784 0.0000 -6.6090
# 5 8.3308 1.7651 19.8763 0.0000 29.2399 0.0000
# 6 0.0000 0.0001 0.0000 -6.6090 0.0000 6.2128
#
#
#
# Elastic Compliance Matrix: (Units=1/GPa)
#
#
# Indices 1 2 3 4 5 6 
#
# 1 0.012042 -0.000168 -0.005353 0.000000 0.000218 0.000000
# 2 -0.000168 0.022647 0.001384 0.000000 -0.002260 0.000000
# 3 -0.005353 0.001384 0.009054 0.000000 -0.004713 0.000000
# 4 0.000000 0.000000 0.000000 -0.034472 0.000000 -0.036671
# 5 0.000218 -0.002260 -0.004713 0.000000 0.037478 0.000000
# 6 0.000000 0.000000 0.000000 -0.036671 0.000000 0.121949
#
#
# Mechanical properties :
#
#
# Convention : Reuss Voigt Hill
#
# Bulk Modulus (GPa) = 28.19275 50.02456 39.10865
# Shear Modulus (GPa) = 26.48378 20.19591 23.33984
#
# Velocity S-wave (km/s) = 3.64473 3.18279 3.42157
# Velocity P-wave (km/s) = 5.64388 6.21280 5.93516
#
# Compressibility (1/GPa) = 0.03547012
#
# Stress axis : x y z
#
# Youngs Moduli (GPa) = 83.04001 44.15506 110.45431
#
# Poissons Ratio (x) = 0.00744 0.59122
# Poissons Ratio (y) = 0.01398 -0.15291
# Poissons Ratio (z) = 0.44448 -0.06113
#
# Static dielectric constant tensor:
#      x y z
#    x 1.671410 0.000000 0.029330 
#    y 0.000000 1.764540 0.000000 
#    z 0.029330 0.000000 1.718280 
# 
# From -- ./inp_files/319864.got.cif
#   From: 2010.05.17/outbox.cif.g08.bks.cpg/sg12_160_cif.got.tgz:319864.got - 2010.06.03 13:09:07.
