data_PCOD9185407
_publ_section_title
;
Structure prediction by ZEFSAII (Michael W. Deem and Ramdas Pophale) SiO2 
 PCOD9185407
Probable space group: C 2/M
;
_chemical_formula_sum "Si O2"
_cell_formula_units_Z 52
_cell_length_a 19.049679
_cell_length_b 15.572327
_cell_length_c 12.221673
_cell_angle_alpha 90.000000
_cell_angle_beta 48.865450
_cell_angle_gamma 90.000000
_cell_volume 2730.631107
_symmetry_space_group_name_H-M "C 2/M"
_symmetry_group_IT_number 12
_symmetry_cell_setting 'monoclinic'
loop_
_space_group_symop_operation_xyz
x,y,z
-x,y,-z
-x,-y,-z
x,-y,z
1/2+x,1/2+y,z
1/2-x,1/2+y,-z
1/2-x,1/2-y,-z
1/2+x,1/2-y,z
loop_
_atom_site_type_symbol
_atom_site_label
_atom_site_fract_x
_atom_site_fract_y
_atom_site_fract_z
Si Si1 0.254101 0.658881 0.226588
Si Si2 0.947377 0.000000 0.290990
Si Si3 0.724005 0.500000 0.393064
Si Si4 0.256171 0.500000 0.380289
Si Si5 0.519114 0.160621 0.144965
Si Si6 0.336447 0.151675 0.185217
Si Si7 0.948623 0.140940 0.934478
Si Si8 0.070206 0.600572 0.327122
O O1 0.232049 0.588325 0.343475
O O2 0.292192 0.752186 0.226291
O O3 0.160324 0.660338 0.252433
O O4 0.340576 0.623153 0.067816
O O5 0.009087 0.081574 0.201913
O O6 0.885198 0.000000 0.463446
O O7 0.868091 0.000000 0.277656
O O8 0.773956 0.500000 0.462125
O O9 0.757533 0.583890 0.295765
O O10 0.420008 0.146122 0.188151
O O11 0.534969 0.262439 0.121004
O O12 0.522027 0.123591 0.262588
O O13 0.607310 0.127654 0.983106
O O14 0.000000 0.130522 0.000000
O O15 0.098609 0.500000 0.296704
O O16 0.000000 0.612273 0.500000
#
# Coordination Sequence:
#
# PCOD9185407 Si02
#       8
#     8   4   4   4   8   8   8   8
#     4  11  21  39  65  92 120 172 215 263 318 367
#     4  10  20  31  57  93 129 156 190 283 322 362
#     4  10  24  33  53  99 130 165 199 258 339 370
#     4  10  19  34  56  91 126 153 207 253 334 358
#     4  10  22  40  63  92 120 170 213 261 320 362
#     4  10  22  39  65  93 126 164 222 265 302 387
#     4  11  17  36  61  94 121 152 214 270 310 364
#     4  11  27  42  60  91 130 166 207 257 320 391
#
# _framework density 19.043216000000001
#
# number of rings (size 3 to 8) (size 9 to 14) (size 15 to 20)
#    0.462    1.077    5.385    0.692    4.308    4.923 
#    0.000    0.000    0.000    0.000    0.000    3.231 
#    0.000    0.000    0.000    0.000    0.000    0.000 
#
# Total GULP energy -144961.061452 kJ/mol
# GULP energy per Si atom -5575.425440 kJ/mol
# Density = 1.899987 g / cm^3
# Si number density = 19.043216 Si / 1000 Ang^3
#
#
#
# Elastic Constant Matrix: (Units=GPa)
#
#
# Indices 1 2 3 4 5 6 
#
# 1 58.9562 6.8670 36.3552 0.0000 -4.9907 0.0000
# 2 6.8670 69.5900 64.1420 0.0000 -8.7179 0.0000
# 3 36.3552 64.1420 125.5197 0.0000 -4.3301 0.0000
# 4 0.0000 0.0000 0.0000 -76.6871 0.0000 -6.0546
# 5 -4.9907 -8.7179 -4.3301 0.0000 28.5565 0.0000
# 6 0.0000 0.0000 0.0000 -6.0546 0.0000 18.0729
#
#
#
# Elastic Compliance Matrix: (Units=1/GPa)
#
#
# Indices 1 2 3 4 5 6 
#
# 1 0.023007 0.008185 -0.010678 0.000000 0.004901 0.000000
# 2 0.008185 0.031222 -0.018042 0.000000 0.008226 0.000000
# 3 -0.010678 -0.018042 0.020130 0.000000 -0.004322 0.000000
# 4 0.000000 0.000000 0.000000 -0.012704 0.000000 -0.004256
# 5 0.004901 0.008226 -0.004322 0.000000 0.037731 0.000000
# 6 0.000000 0.000000 0.000000 -0.004256 0.000000 0.053906
#
#
# Mechanical properties :
#
#
# Convention : Reuss Voigt Hill
#
# Bulk Modulus (GPa) = 30.03784 52.08826 41.06305
# Shear Modulus (GPa) = 24.33592 3.76856 14.05224
#
# Velocity S-wave (km/s) = 3.57869 1.40828 2.71940
# Velocity P-wave (km/s) = 5.73444 5.48237 5.60982
#
# Compressibility (1/GPa) = 0.03329135
#
# Stress axis : x y z
#
# Youngs Moduli (GPa) = 43.46412 32.02853 49.67710
#
# Poissons Ratio (x) = -0.26216 0.53043
# Poissons Ratio (y) = -0.35576 0.89627
# Poissons Ratio (z) = 0.46409 0.57785
#
# Static dielectric constant tensor:
#      x y z
#    x 1.686760 0.000000 -0.000300 
#    y 0.000000 1.664790 0.000000 
#    z -0.000300 0.000000 1.660980 
# 
# From -- ./inp_files/167167.got.cif
#   From: 2010.05.17/outbox.cif.g08.bks.cpg/sg12_84_cif.got.tgz:167167.got - 2010.06.03 13:09:07.
