data_PCOD9185305
_publ_section_title
;
Structure prediction by ZEFSAII (Michael W. Deem and Ramdas Pophale) SiO2 
 PCOD9185305
Probable space group: C 2/M
;
_chemical_formula_sum "Si O2"
_cell_formula_units_Z 64
_cell_length_a 29.024515
_cell_length_b 9.103195
_cell_length_c 14.303242
_cell_angle_alpha 90.000000
_cell_angle_beta 87.371967
_cell_angle_gamma 90.000000
_cell_volume 3775.168119
_symmetry_space_group_name_H-M "C 2/M"
_symmetry_group_IT_number 12
_symmetry_cell_setting 'monoclinic'
loop_
_space_group_symop_operation_xyz
x,y,z
-x,y,-z
-x,-y,-z
x,-y,z
1/2+x,1/2+y,z
1/2-x,1/2+y,-z
1/2-x,1/2-y,-z
1/2+x,1/2-y,z
loop_
_atom_site_type_symbol
_atom_site_label
_atom_site_fract_x
_atom_site_fract_y
_atom_site_fract_z
Si Si1 0.656460 0.827939 0.959797
Si Si2 0.774360 0.826127 0.178715
Si Si3 0.847759 0.826033 0.339453
Si Si4 0.700629 0.175895 0.486091
Si Si5 0.176545 0.324244 0.273526
Si Si6 0.888195 0.824571 0.858146
Si Si7 0.582124 0.172696 0.799309
Si Si8 0.493871 0.324157 0.890656
O O1 0.702047 0.762393 0.907195
O O2 0.615759 0.810793 0.886445
O O3 0.662458 0.000000 0.979490
O O4 0.640378 0.743427 0.053112
O O5 0.806297 0.804929 0.267870
O O6 0.722714 0.783010 0.211424
O O7 0.775182 0.000000 0.156963
O O8 0.834089 0.742149 0.434611
O O9 0.892796 0.759393 0.286210
O O10 0.852231 0.000000 0.354979
O O11 0.750000 0.250000 0.500000
O O12 0.685187 0.207405 0.381556
O O13 0.704538 0.000000 0.496030
O O14 0.170674 0.500000 0.264316
O O15 0.133693 0.240397 0.233475
O O16 0.941974 0.785808 0.865690
O O17 0.884468 0.000000 0.860943
O O18 0.532912 0.239653 0.829956
O O19 0.579195 0.000000 0.778493
O O20 0.500322 0.500000 0.879083
O O21 0.500000 0.290253 0.000000
#
# Coordination Sequence:
#
# PCOD9185305 Si02
#       8
#     8   8   8   8   8   8   8   8
#     4  10  20  33  51  78 110 144 182 225 269 317
#     4   9  18  34  53  75 107 147 185 218 264 322
#     4  10  19  34  56  83 113 144 180 226 276 322
#     4  11  21  36  58  84 112 145 185 228 275 324
#     4  10  22  39  55  77 111 148 183 225 275 323
#     4  11  23  37  55  79 107 146 188 225 273 329
#     4  10  20  33  54  85 113 141 181 226 274 327
#     4  10  20  36  57  80 109 144 182 227 278 328
#
# _framework density 16.952888999999999
#
# number of rings (size 3 to 8) (size 9 to 14) (size 15 to 20)
#    0.000    1.875    2.500    1.875    0.000    4.750 
#    0.000    0.000    0.000    0.750    0.000    5.250 
#    0.000    0.000    0.000    0.000    0.000    0.000 
#
# Total GULP energy -178732.434142 kJ/mol
# GULP energy per Si atom -5585.388567 kJ/mol
# Density = 1.691430 g / cm^3
# Si number density = 16.952889 Si / 1000 Ang^3
#
#
#
# Elastic Constant Matrix: (Units=GPa)
#
#
# Indices 1 2 3 4 5 6 
#
# 1 112.5074 62.5824 67.3292 0.0000 -2.7569 0.0000
# 2 62.5824 72.6492 64.5250 0.0000 0.6443 0.0000
# 3 67.3292 64.5250 97.9712 0.0000 -8.6741 0.0000
# 4 0.0000 0.0000 0.0000 32.5222 0.0000 -4.7753
# 5 -2.7569 0.6443 -8.6741 0.0000 22.4532 0.0000
# 6 0.0000 0.0000 0.0000 -4.7753 0.0000 28.6616
#
#
#
# Elastic Compliance Matrix: (Units=1/GPa)
#
#
# Indices 1 2 3 4 5 6 
#
# 1 0.018121 -0.011082 -0.005104 0.000000 0.000571 0.000000
# 2 -0.011082 0.042127 -0.021078 0.000000 -0.010712 0.000000
# 3 -0.005104 -0.021078 0.028572 0.000000 0.011016 0.000000
# 4 0.000000 0.000000 0.000000 0.031519 0.000000 0.005251
# 5 0.000571 -0.010712 0.011016 0.000000 0.049170 0.000000
# 6 0.000000 0.000000 0.000000 0.005251 0.000000 0.035765
#
#
# Mechanical properties :
#
#
# Convention : Reuss Voigt Hill
#
# Bulk Modulus (GPa) = 69.96702 74.66678 72.31690
# Shear Modulus (GPa) = 17.57060 22.64016 20.10538
#
# Velocity S-wave (km/s) = 3.22287 3.65838 3.44751
# Velocity P-wave (km/s) = 7.43036 7.87301 7.65488
#
# Compressibility (1/GPa) = 0.01429245
#
# Stress axis : x y z
#
# Youngs Moduli (GPa) = 55.18406 23.73802 34.99873
#
# Poissons Ratio (x) = 0.26305 0.17865
# Poissons Ratio (y) = 0.61153 0.73770
# Poissons Ratio (z) = 0.28169 0.50035
#
# Static dielectric constant tensor:
#      x y z
#    x 1.561340 0.000000 0.009230 
#    y 0.000000 1.559770 0.000000 
#    z 0.009230 0.000000 1.557310 
# 
# From -- ./inp_files/244013.got.cif
#   From: 2010.05.17/outbox.cif.g08.bks.cpg/sg12_123_cif.got.tgz:244013.got - 2010.06.03 13:09:07.
