data_PCOD9185209
_publ_section_title
;
Structure prediction by ZEFSAII (Michael W. Deem and Ramdas Pophale) SiO2 
 PCOD9185209
Probable space group: C 2/M
;
_chemical_formula_sum "Si O2"
_cell_formula_units_Z 40
_cell_length_a 26.536123
_cell_length_b 19.197733
_cell_length_c 13.874667
_cell_angle_alpha 90.000000
_cell_angle_beta 17.330713
_cell_angle_gamma 90.000000
_cell_volume 2105.527850
_symmetry_space_group_name_H-M "C 2/M"
_symmetry_group_IT_number 12
_symmetry_cell_setting 'monoclinic'
loop_
_space_group_symop_operation_xyz
x,y,z
-x,y,-z
-x,-y,-z
x,-y,z
1/2+x,1/2+y,z
1/2-x,1/2+y,-z
1/2-x,1/2-y,-z
1/2+x,1/2-y,z
loop_
_atom_site_type_symbol
_atom_site_label
_atom_site_fract_x
_atom_site_fract_y
_atom_site_fract_z
Si Si1 0.783236 0.270344 0.136254
Si Si2 0.312281 0.830009 0.387341
Si Si3 0.973894 0.647943 0.439177
Si Si4 0.726497 0.078667 0.350981
Si Si5 0.041348 0.839520 0.727866
O O1 0.672396 0.207039 0.297638
O O2 0.665410 0.321002 0.413648
O O3 0.866998 0.312635 0.897339
O O4 0.927862 0.232529 0.938745
O O5 0.250000 0.750000 0.500000
O O6 0.304196 0.866915 0.505880
O O7 0.164675 0.860668 0.589388
O O8 0.500000 0.836382 0.000000
O O9 0.916932 0.589883 0.467273
O O10 0.000000 0.624056 0.500000
O O11 0.730681 0.000000 0.379252
O O12 0.901200 0.100728 0.980163
#
# Coordination Sequence:
#
# PCOD9185209 Si02
#       5
#     8   8   8   8   8
#     4   9  18  34  58  91 114 138 184 237 290 337
#     4  12  22  36  61  89 114 144 184 230 283 340
#     4  10  19  35  60  85 114 147 186 239 289 334
#     4  11  25  40  54  79 115 155 195 231 278 340
#     4  10  19  34  56  80 114 147 178 227 285 341
#
# _framework density 18.997610000000002
#
# number of rings (size 3 to 8) (size 9 to 14) (size 15 to 20)
#    0.000    1.600    0.000    8.400    0.000    2.400 
#    0.000    3.000    0.000    1.200    0.000    0.000 
#    0.000    0.000    0.000    0.000    0.000    0.000 
#
# Total GULP energy -111549.253001 kJ/mol
# GULP energy per Si atom -5577.462650 kJ/mol
# Density = 1.895437 g / cm^3
# Si number density = 18.997610 Si / 1000 Ang^3
#
#
#
# Elastic Constant Matrix: (Units=GPa)
#
#
# Indices 1 2 3 4 5 6 
#
# 1 107.6990 25.0637 23.6477 -0.0028 16.6643 0.0031
# 2 25.0637 81.1191 26.0896 0.0033 12.7387 0.0003
# 3 23.6477 26.0896 109.0452 0.0044 11.0400 0.0000
# 4 -0.0028 0.0033 0.0044 8.5948 0.0016 1.5692
# 5 16.6643 12.7387 11.0400 0.0016 16.5564 -0.0023
# 6 0.0031 0.0003 0.0000 1.5692 -0.0023 11.4681
#
#
#
# Elastic Compliance Matrix: (Units=1/GPa)
#
#
# Indices 1 2 3 4 5 6 
#
# 1 0.011377 -0.001679 -0.001112 0.000008 -0.009418 -0.000006
# 2 -0.001679 0.014895 -0.002370 -0.000003 -0.008190 -0.000001
# 3 -0.001112 -0.002370 0.010382 -0.000004 -0.003979 0.000000
# 4 0.000008 -0.000003 -0.000004 0.119330 -0.000016 -0.016328
# 5 -0.009418 -0.008190 -0.003979 -0.000016 0.078834 0.000021
# 6 -0.000006 -0.000001 0.000000 -0.016328 0.000021 0.089432
#
#
# Mechanical properties :
#
#
# Convention : Reuss Voigt Hill
#
# Bulk Modulus (GPa) = 37.97757 49.71839 43.84798
# Shear Modulus (GPa) = 14.56242 22.19470 18.37856
#
# Velocity S-wave (km/s) = 2.77165 3.42173 3.11370
# Velocity P-wave (km/s) = 5.50244 6.46828 6.00481
#
# Compressibility (1/GPa) = 0.02633133
#
# Stress axis : x y z
#
# Youngs Moduli (GPa) = 87.89463 67.13798 96.32325
#
# Poissons Ratio (x) = 0.11270 0.10713
# Poissons Ratio (y) = 0.14754 0.22833
# Poissons Ratio (z) = 0.09775 0.15915
#
# Static dielectric constant tensor:
#      x y z
#    x 1.714740 0.000000 -0.030600 
#    y 0.000000 1.668950 0.000000 
#    z -0.030600 0.000000 1.676400 
# 
# From -- ./inp_files/177853.got.cif
#   From: 2010.05.17/outbox.cif.g08.bks.cpg/sg12_89_cif.got.tgz:177853.got - 2010.06.03 13:09:07.
