data_PCOD9185398
_publ_section_title
;
Structure prediction by ZEFSAII (Michael W. Deem and Ramdas Pophale) SiO2 
 PCOD9185398
Probable space group: C 2/M
;
_chemical_formula_sum "Si O2"
_cell_formula_units_Z 52
_cell_length_a 14.649094
_cell_length_b 17.164216
_cell_length_c 10.654839
_cell_angle_alpha 90.000000
_cell_angle_beta 85.776983
_cell_angle_gamma 90.000000
_cell_volume 2671.781294
_symmetry_space_group_name_H-M "C 2/M"
_symmetry_group_IT_number 12
_symmetry_cell_setting 'monoclinic'
loop_
_space_group_symop_operation_xyz
x,y,z
-x,y,-z
-x,-y,-z
x,-y,z
1/2+x,1/2+y,z
1/2-x,1/2+y,-z
1/2-x,1/2-y,-z
1/2+x,1/2-y,z
loop_
_atom_site_type_symbol
_atom_site_label
_atom_site_fract_x
_atom_site_fract_y
_atom_site_fract_z
Si Si1 0.000000 0.313999 0.000000
Si Si2 0.561283 0.413611 0.369580
Si Si3 0.621198 0.088904 0.155039
Si Si4 0.244236 0.188819 0.687467
Si Si5 0.039007 0.783106 0.747253
Si Si6 0.536298 0.881407 0.632913
Si Si7 0.260782 0.136950 0.399883
O O1 0.973470 0.259876 0.119558
O O2 0.083864 0.368992 0.034228
O O3 0.500000 0.398145 0.500000
O O4 0.537250 0.500000 0.326764
O O5 0.537060 0.346662 0.274066
O O6 0.667981 0.410063 0.392268
O O7 0.693812 0.144528 0.217875
O O8 0.532751 0.087594 0.255827
O O9 0.652909 0.000000 0.133358
O O10 0.137267 0.176197 0.725227
O O11 0.269589 0.158255 0.546368
O O12 0.252865 0.282485 0.676109
O O13 0.033863 0.713064 0.646401
O O14 0.500000 0.904141 0.500000
O O15 0.642437 0.901538 0.644699
#
# Coordination Sequence:
#
# PCOD9185398 Si02
#       7
#     4   8   8   8   8   8   8
#     4  10  23  42  63  78 104 158 206 250 279 320
#     4  11  22  35  56  87 124 150 175 228 297 353
#     4  11  23  38  57  86 121 152 189 238 296 347
#     4  10  20  34  60  87 112 152 191 238 279 340
#     4  10  21  38  62  83 111 150 204 241 275 333
#     4  10  19  34  58  85 115 152 189 234 282 339
#     4  10  19  34  56  88 121 151 189 226 278 351
#
# _framework density 19.462671
#
# number of rings (size 3 to 8) (size 9 to 14) (size 15 to 20)
#    0.000    1.692    3.077    2.538    2.154    2.769 
#    0.000    1.923    0.000    5.538    0.000    0.000 
#    0.000    0.000    0.000    0.000    0.000    0.000 
#
# Total GULP energy -145169.687096 kJ/mol
# GULP energy per Si atom -5583.449504 kJ/mol
# Density = 1.941837 g / cm^3
# Si number density = 19.462671 Si / 1000 Ang^3
#
#
#
# Elastic Constant Matrix: (Units=GPa)
#
#
# Indices 1 2 3 4 5 6 
#
# 1 90.5790 26.0631 7.6375 0.0000 13.9633 0.0000
# 2 26.0631 89.1107 24.9704 0.0000 27.6533 0.0000
# 3 7.6375 24.9704 56.8838 0.0000 20.1103 0.0000
# 4 0.0000 0.0000 0.0000 10.6720 0.0000 -1.4009
# 5 13.9633 27.6533 20.1103 0.0000 30.8857 0.0000
# 6 0.0000 0.0000 0.0000 -1.4009 0.0000 7.0399
#
#
#
# Elastic Compliance Matrix: (Units=1/GPa)
#
#
# Indices 1 2 3 4 5 6 
#
# 1 0.012314 -0.002685 0.000836 0.000000 -0.003707 0.000000
# 2 -0.002685 0.016398 -0.002697 0.000000 -0.011711 0.000000
# 3 0.000836 -0.002697 0.023293 0.000000 -0.013130 0.000000
# 4 0.000000 0.000000 0.000000 0.096217 0.000000 0.019147
# 5 -0.003707 -0.011711 -0.013130 0.000000 0.053088 0.000000
# 6 0.000000 0.000000 0.000000 0.019147 0.000000 0.145858
#
#
# Mechanical properties :
#
#
# Convention : Reuss Voigt Hill
#
# Bulk Modulus (GPa) = 23.30386 39.32393 31.31390
# Shear Modulus (GPa) = 13.49295 21.57967 17.53631
#
# Velocity S-wave (km/s) = 2.63587 3.33344 3.00496
# Velocity P-wave (km/s) = 4.61122 5.92152 5.30696
#
# Compressibility (1/GPa) = 0.04291134
#
# Stress axis : x y z
#
# Youngs Moduli (GPa) = 81.21002 60.98490 42.93091
#
# Poissons Ratio (x) = 0.16377 -0.03589
# Poissons Ratio (y) = 0.21808 0.11579
# Poissons Ratio (z) = -0.06790 0.16449
#
# Static dielectric constant tensor:
#      x y z
#    x 1.693360 0.000000 -0.001010 
#    y 0.000000 1.689740 0.000000 
#    z -0.001010 0.000000 1.671460 
# 
# From -- ./inp_files/144895.got.cif
#   From: 2010.05.17/outbox.cif.g08.bks.cpg/sg12_73_cif.got.tgz:144895.got - 2010.06.03 13:09:07.
