data_PCOD9185579
_publ_section_title
;
Structure prediction by ZEFSAII (Michael W. Deem and Ramdas Pophale) SiO2 
 PCOD9185579
Probable space group: C 2/M
;
_chemical_formula_sum "Si O2"
_cell_formula_units_Z 60
_cell_length_a 19.619215
_cell_length_b 8.016307
_cell_length_c 14.964699
_cell_angle_alpha 90.000000
_cell_angle_beta 83.209667
_cell_angle_gamma 90.000000
_cell_volume 2337.043777
_symmetry_space_group_name_H-M "C 2/M"
_symmetry_group_IT_number 12
_symmetry_cell_setting 'monoclinic'
loop_
_space_group_symop_operation_xyz
x,y,z
-x,y,-z
-x,-y,-z
x,-y,z
1/2+x,1/2+y,z
1/2-x,1/2+y,-z
1/2-x,1/2-y,-z
1/2+x,1/2-y,z
loop_
_atom_site_type_symbol
_atom_site_label
_atom_site_fract_x
_atom_site_fract_y
_atom_site_fract_z
Si Si1 0.466480 0.186256 0.604876
Si Si2 0.165710 0.809924 0.450203
Si Si3 0.607604 0.199307 0.934306
Si Si4 0.894962 0.201595 0.348627
Si Si5 0.161601 0.184986 0.163645
Si Si6 0.525127 0.198515 0.134037
Si Si7 0.740650 0.308078 0.706032
Si Si8 0.750000 0.250000 0.000000
O O1 0.500000 0.188605 0.500000
O O2 0.401017 0.302463 0.604157
O O3 0.528470 0.228327 0.662119
O O4 0.440743 0.000000 0.627569
O O5 0.137231 0.751301 0.549836
O O6 0.224952 0.701168 0.397322
O O7 0.189077 0.000000 0.453570
O O8 0.552581 0.262615 0.868184
O O9 0.683982 0.268243 0.937311
O O10 0.615465 0.000000 0.919808
O O11 0.564013 0.224078 0.032609
O O12 0.836963 0.256694 0.287979
O O13 0.898916 0.000000 0.345747
O O14 0.081565 0.217990 0.189641
O O15 0.208731 0.201474 0.241785
O O16 0.195192 0.303811 0.084689
O O17 0.173641 0.000000 0.120625
O O18 0.522563 0.000000 0.150957
O O19 0.740577 0.500000 0.734873
#
# Coordination Sequence:
#
# PCOD9185579 Si02
#       8
#     8   8   8   8   8   8   8   4
#     4   9  17  30  52  82 114 150 192 232 273 331
#     4  10  19  34  57  83 113 148 189 236 284 334
#     4   8  14  28  52  79 103 134 174 212 259 321
#     4   9  19  35  56  83 115 152 190 233 284 333
#     4  11  23  38  57  82 111 144 185 234 286 337
#     4   8  15  31  54  76 103 139 175 213 261 322
#     4  11  23  38  56  80 113 151 191 234 284 339
#     4  10  20  36  58  84 112 140 174 224 278 334
#
# _framework density 25.673462000000001
#
# number of rings (size 3 to 8) (size 9 to 14) (size 15 to 20)
#    0.000    2.533    0.000    3.200    0.000    4.800 
#    0.000    7.333    0.000    4.800    0.000    0.000 
#    0.000    0.000    0.000    0.000    0.000    0.000 
#
# Total GULP energy -167149.999259 kJ/mol
# GULP energy per Si atom -5571.666642 kJ/mol
# Density = 2.561503 g / cm^3
# Si number density = 25.673462 Si / 1000 Ang^3
#
#
#
# Elastic Constant Matrix: (Units=GPa)
#
#
# Indices 1 2 3 4 5 6 
#
# 1 225.7800 19.7757 50.4034 0.0000 49.2009 0.0000
# 2 19.7757 43.0012 6.4913 0.0000 13.4835 0.0000
# 3 50.4034 6.4913 64.6038 0.0000 19.6314 0.0000
# 4 0.0000 0.0000 0.0000 -6.0276 0.0000 13.1157
# 5 49.2009 13.4835 19.6314 0.0000 67.2883 0.0000
# 6 0.0000 0.0000 0.0000 13.1157 0.0000 11.1091
#
#
#
# Elastic Compliance Matrix: (Units=1/GPa)
#
#
# Indices 1 2 3 4 5 6 
#
# 1 0.006024 -0.001252 -0.003634 0.000000 -0.003094 0.000000
# 2 -0.001252 0.025143 -0.000326 0.000000 -0.004028 0.000000
# 3 -0.003634 -0.000326 0.019224 0.000000 -0.002886 0.000000
# 4 0.000000 0.000000 0.000000 -0.046485 0.000000 0.054881
# 5 -0.003094 -0.004028 -0.002886 0.000000 0.018773 0.000000
# 6 0.000000 0.000000 0.000000 0.054881 0.000000 0.025222
#
#
# Mechanical properties :
#
#
# Convention : Reuss Voigt Hill
#
# Bulk Modulus (GPa) = 25.02004 54.08065 39.55034
# Shear Modulus (GPa) = 69.78659 31.58826 50.68742
#
# Velocity S-wave (km/s) = 5.21933 3.51149 4.44814
# Velocity P-wave (km/s) = 6.78885 6.12791 6.46683
#
# Compressibility (1/GPa) = 0.03996797
#
# Stress axis : x y z
#
# Youngs Moduli (GPa) = 165.99709 39.77245 52.01820
#
# Poissons Ratio (x) = 0.04979 0.18904
# Poissons Ratio (y) = 0.20779 0.01694
# Poissons Ratio (z) = 0.60326 0.01296
#
# Static dielectric constant tensor:
#      x y z
#    x 1.983080 0.000000 0.029900 
#    y 0.000000 1.985490 0.000000 
#    z 0.029900 0.000000 2.140950 
# 
# From -- ./inp_files/281486.got.cif
#   From: 2010.05.17/outbox.cif.g08.bks.cpg/sg12_141_cif.got.tgz:281486.got - 2010.06.03 13:09:07.
