data_PCOD9185052
_publ_section_title
;
Structure prediction by ZEFSAII (Michael W. Deem and Ramdas Pophale) SiO2 
 PCOD9185052
Probable space group: C 2/M
;
_chemical_formula_sum "Si O2"
_cell_formula_units_Z 50
_cell_length_a 9.646542
_cell_length_b 23.109462
_cell_length_c 13.510907
_cell_angle_alpha 90.000000
_cell_angle_beta 110.781396
_cell_angle_gamma 90.000000
_cell_volume 2815.983931
_symmetry_space_group_name_H-M "C 2/M"
_symmetry_group_IT_number 12
_symmetry_cell_setting 'monoclinic'
loop_
_space_group_symop_operation_xyz
x,y,z
-x,y,-z
-x,-y,-z
x,-y,z
1/2+x,1/2+y,z
1/2-x,1/2+y,-z
1/2-x,1/2-y,-z
1/2+x,1/2-y,z
loop_
_atom_site_type_symbol
_atom_site_label
_atom_site_fract_x
_atom_site_fract_y
_atom_site_fract_z
Si Si1 0.224995 0.067754 0.440004
Si Si2 0.961298 0.882697 0.888547
Si Si3 0.548841 0.643790 0.693742
Si Si4 0.143707 0.374636 0.330451
Si Si5 0.417572 0.237355 0.576332
Si Si6 0.657856 0.932650 0.750342
Si Si7 0.000000 0.000000 0.000000
O O1 0.298127 0.100255 0.550187
O O2 0.320073 0.073211 0.362815
O O3 0.065740 0.095912 0.376949
O O4 0.211901 0.000000 0.459254
O O5 0.024813 0.855525 0.805303
O O6 0.785681 0.893577 0.830697
O O7 0.023770 0.947754 0.923302
O O8 0.000000 0.850244 0.000000
O O9 0.715433 0.628896 0.705118
O O10 0.497946 0.704224 0.631883
O O11 0.085098 0.310434 0.339391
O O12 0.005879 0.413407 0.262070
O O13 0.500000 0.214211 0.500000
O O14 0.250000 0.250000 0.500000
O O15 0.686526 0.000000 0.783883
#
# Coordination Sequence:
#
# PCOD9185052 Si02
#       7
#     8   8   8   8   8   8   2
#     4  10  20  34  51  77 119 158 186 220 279 355
#     4   9  19  39  64  82 108 147 195 237 286 349
#     4  11  23  36  55  85 113 149 197 241 289 338
#     4  12  23  34  53  85 120 151 189 240 285 341
#     4  12  22  39  58  82 119 161 203 235 277 346
#     4  10  19  34  55  83 112 150 191 231 287 349
#     4   8  16  40  68  82 104 152 200 238 290 360
#
# _framework density 17.755783000000001
#
# number of rings (size 3 to 8) (size 9 to 14) (size 15 to 20)
#    0.480    0.960    4.000    2.400    3.360    3.200 
#    0.000    0.800    0.000    5.760    0.000    0.000 
#    0.000    0.000    0.000    0.000    0.000    0.000 
#
# Total GULP energy -139242.779443 kJ/mol
# GULP energy per Si atom -5569.711178 kJ/mol
# Density = 1.771537 g / cm^3
# Si number density = 17.755783 Si / 1000 Ang^3
#
#
#
# Elastic Constant Matrix: (Units=GPa)
#
#
# Indices 1 2 3 4 5 6 
#
# 1 133.4133 24.1118 37.6585 0.0000 14.2994 0.0000
# 2 24.1118 50.1074 4.4583 0.0000 -1.1953 0.0000
# 3 37.6585 4.4583 80.2340 0.0000 -4.9214 0.0000
# 4 0.0000 0.0000 0.0000 1.0374 0.0000 2.5626
# 5 14.2994 -1.1953 -4.9214 0.0000 8.9913 0.0000
# 6 0.0000 0.0000 0.0000 2.5626 0.0000 22.6853
#
#
#
# Elastic Compliance Matrix: (Units=1/GPa)
#
#
# Indices 1 2 3 4 5 6 
#
# 1 0.013769 -0.006580 -0.007754 0.000000 -0.027017 0.000000
# 2 -0.006580 0.023240 0.002720 0.000000 0.015044 0.000000
# 3 -0.007754 0.002720 0.017312 0.000000 0.022169 0.000000
# 4 0.000000 0.000000 0.000000 1.337085 0.000000 -0.151044
# 5 -0.027017 0.015044 0.022169 0.000000 0.168321 0.000000
# 6 0.000000 0.000000 0.000000 -0.151044 0.000000 0.061144
#
#
# Mechanical properties :
#
#
# Convention : Reuss Voigt Hill
#
# Bulk Modulus (GPa) = 32.16255 44.02352 38.09304
# Shear Modulus (GPa) = 3.02212 19.71120 11.36666
#
# Velocity S-wave (km/s) = 1.30604 3.33547 2.53290
# Velocity P-wave (km/s) = 4.51968 6.29933 5.48220
#
# Compressibility (1/GPa) = 0.03109206
#
# Stress axis : x y z
#
# Youngs Moduli (GPa) = 72.62505 43.02837 57.76415
#
# Poissons Ratio (x) = 0.28314 0.44792
# Poissons Ratio (y) = 0.47790 -0.15711
# Poissons Ratio (z) = 0.56316 -0.11703
#
# Static dielectric constant tensor:
#      x y z
#    x 1.642690 0.000000 0.012500 
#    y 0.000000 1.611060 0.000000 
#    z 0.012500 0.000000 1.645320 
# 
# From -- ./inp_files/198558.got.cif
#   From: 2010.05.17/outbox.cif.g08.bks.cpg/sg12_100_cif.got.tgz:198558.got - 2010.06.03 13:09:07.
