data_PCOD9185472
_publ_section_title
;
Structure prediction by ZEFSAII (Michael W. Deem and Ramdas Pophale) SiO2 
 PCOD9185472
Probable space group: C 2/M
;
_chemical_formula_sum "Si O2"
_cell_formula_units_Z 64
_cell_length_a 20.573296
_cell_length_b 7.764024
_cell_length_c 22.645050
_cell_angle_alpha 90.000000
_cell_angle_beta 120.082314
_cell_angle_gamma 90.000000
_cell_volume 3129.924314
_symmetry_space_group_name_H-M "C 2/M"
_symmetry_group_IT_number 12
_symmetry_cell_setting 'monoclinic'
loop_
_space_group_symop_operation_xyz
x,y,z
-x,y,-z
-x,-y,-z
x,-y,z
1/2+x,1/2+y,z
1/2-x,1/2+y,-z
1/2-x,1/2-y,-z
1/2+x,1/2-y,z
loop_
_atom_site_type_symbol
_atom_site_label
_atom_site_fract_x
_atom_site_fract_y
_atom_site_fract_z
Si Si1 0.373125 0.792889 0.295156
Si Si2 0.648590 0.291327 0.294101
Si Si3 0.277164 0.299197 0.447118
Si Si4 0.143727 0.209398 0.910013
Si Si5 0.189375 0.795101 0.056700
Si Si6 0.519425 0.706983 0.761743
Si Si7 0.420361 0.201909 0.443801
Si Si8 0.205687 0.211186 0.192276
O O1 0.438834 0.749507 0.279895
O O2 0.390196 0.724368 0.368285
O O3 0.292467 0.731370 0.235397
O O4 0.366468 0.000000 0.295069
O O5 0.648849 0.500000 0.294100
O O6 0.712594 0.239114 0.369589
O O7 0.565793 0.229140 0.274234
O O8 0.667245 0.234975 0.235807
O O9 0.292735 0.500000 0.453800
O O10 0.250000 0.250000 0.500000
O O11 0.354721 0.212741 0.462037
O O12 0.222161 0.265894 0.916139
O O13 0.073280 0.269536 0.839332
O O14 0.143688 0.000000 0.910208
O O15 0.146361 0.271649 0.979138
O O16 0.172293 0.728447 0.114546
O O17 0.176404 0.000000 0.052031
O O18 0.516094 0.500000 0.765464
O O19 0.500000 0.277784 0.500000
O O20 0.434071 0.000000 0.438026
O O21 0.204161 0.000000 0.190746
#
# Coordination Sequence:
#
# PCOD9185472 Si02
#       8
#     8   8   8   8   8   8   8   8
#     4  10  19  34  57  81 109 143 184 228 270 326
#     4  10  21  40  59  78 111 150 186 227 281 337
#     4  12  26  43  63  86 115 151 190 230 277 335
#     4   9  17  29  45  74 110 139 176 227 280 326
#     4   9  16  28  49  74 102 141 185 225 270 329
#     4  10  21  34  52  80 114 147 180 231 285 327
#     4  10  22  41  63  88 117 148 183 229 280 334
#     4   9  16  31  55  78 101 140 187 226 268 324
#
# _framework density 20.447779000000001
#
# number of rings (size 3 to 8) (size 9 to 14) (size 15 to 20)
#    0.000    2.125    2.500    1.125    1.750    1.250 
#    0.000    1.250    0.000    3.750    0.000    0.000 
#    0.000    6.000    0.000    0.000    0.000    0.000 
#
# Total GULP energy -178608.792763 kJ/mol
# GULP energy per Si atom -5581.524774 kJ/mol
# Density = 2.040124 g / cm^3
# Si number density = 20.447779 Si / 1000 Ang^3
#
#
#
# Elastic Constant Matrix: (Units=GPa)
#
#
# Indices 1 2 3 4 5 6 
#
# 1 100.2118 -23.2605 38.2011 0.0000 -13.3863 0.0000
# 2 -23.2605 22.9573 -6.6316 0.0000 0.6713 0.0000
# 3 38.2011 -6.6316 111.7453 0.0000 -24.3880 0.0000
# 4 0.0000 0.0000 0.0000 9.4363 0.0000 -2.2687
# 5 -13.3863 0.6713 -24.3880 0.0000 36.3614 0.0000
# 6 0.0000 0.0000 0.0000 -2.2687 0.0000 21.0403
#
#
#
# Elastic Compliance Matrix: (Units=1/GPa)
#
#
# Indices 1 2 3 4 5 6 
#
# 1 0.015027 0.014078 -0.003691 0.000000 0.002796 0.000000
# 2 0.014078 0.057545 -0.000584 0.000000 0.003729 0.000000
# 3 -0.003691 -0.000584 0.011577 0.000000 0.006416 0.000000
# 4 0.000000 0.000000 0.000000 0.108794 0.000000 0.011731
# 5 0.002796 0.003729 0.006416 0.000000 0.032766 0.000000
# 6 0.000000 0.000000 0.000000 0.011731 0.000000 0.048793
#
#
# Mechanical properties :
#
#
# Convention : Reuss Voigt Hill
#
# Bulk Modulus (GPa) = 9.63821 27.94804 18.79313
# Shear Modulus (GPa) = 17.27229 28.47463 22.87346
#
# Velocity S-wave (km/s) = 2.90953 3.73574 3.34822
# Velocity P-wave (km/s) = 4.00137 5.68378 4.91510
#
# Compressibility (1/GPa) = 0.10375365
#
# Stress axis : x y z
#
# Youngs Moduli (GPa) = 66.54602 17.37770 86.38141
#
# Poissons Ratio (x) = -0.24464 0.31887
# Poissons Ratio (y) = -0.93681 0.05042
# Poissons Ratio (z) = 0.24565 0.01014
#
# Static dielectric constant tensor:
#      x y z
#    x 1.679010 0.000000 0.004680 
#    y 0.000000 1.731370 0.000000 
#    z 0.004680 0.000000 1.747670 
# 
# From -- ./inp_files/320094.got.cif
#   From: 2010.05.17/outbox.cif.g08.bks.cpg/sg12_161_cif.got.tgz:320094.got - 2010.06.03 13:09:07.
