data_PCOD9185889
_publ_section_title
;
Structure prediction by ZEFSAII (Michael W. Deem and Ramdas Pophale) SiO2 
 PCOD9185889
Probable space group: C 2/M
;
_chemical_formula_sum "Si O2"
_cell_formula_units_Z 56
_cell_length_a 16.725449
_cell_length_b 24.170005
_cell_length_c 7.990351
_cell_angle_alpha 90.000000
_cell_angle_beta 59.510645
_cell_angle_gamma 90.000000
_cell_volume 2783.481186
_symmetry_space_group_name_H-M "C 2/M"
_symmetry_group_IT_number 12
_symmetry_cell_setting 'monoclinic'
loop_
_space_group_symop_operation_xyz
x,y,z
-x,y,-z
-x,-y,-z
x,-y,z
1/2+x,1/2+y,z
1/2-x,1/2+y,-z
1/2-x,1/2-y,-z
1/2+x,1/2-y,z
loop_
_atom_site_type_symbol
_atom_site_label
_atom_site_fract_x
_atom_site_fract_y
_atom_site_fract_z
Si Si1 0.212748 0.438612 0.246930
Si Si2 0.896864 0.331166 0.550263
Si Si3 0.793764 0.560991 0.150302
Si Si4 0.895071 0.667742 0.154600
Si Si5 0.904667 0.934503 0.700111
Si Si6 0.224241 0.766258 0.721493
Si Si7 0.393243 0.625334 0.058870
O O1 0.191931 0.500000 0.331128
O O2 0.137453 0.392554 0.369538
O O3 0.213445 0.439926 0.043896
O O4 0.314013 0.418366 0.202299
O O5 0.891459 0.328483 0.357217
O O6 0.819804 0.288285 0.699030
O O7 0.000000 0.319879 0.500000
O O8 0.821020 0.500000 0.179654
O O9 0.864295 0.607355 0.130867
O O10 0.687240 0.572706 0.315851
O O11 0.822584 0.711484 0.156233
O O12 0.000000 0.681173 0.000000
O O13 0.897947 0.889739 0.856012
O O14 0.000000 0.927506 0.500000
O O15 0.901994 0.000000 0.761717
O O16 0.250000 0.750000 0.500000
O O17 0.150314 0.816244 0.831580
O O18 0.500000 0.619214 0.000000
#
# Coordination Sequence:
#
# PCOD9185889 Si02
#       7
#     8   8   8   8   8   8   8
#     4   9  19  36  56  81 116 152 188 234 283 334
#     4  10  21  39  60  84 111 143 188 237 282 337
#     4   9  19  37  57  80 113 150 189 232 282 342
#     4  11  22  38  60  82 111 145 183 231 287 345
#     4   9  19  35  55  84 124 162 196 240 291 346
#     4   9  21  40  58  80 112 146 186 240 294 342
#     4  10  19  34  58  85 115 154 198 243 294 352
#
# _framework density 20.118693
#
# number of rings (size 3 to 8) (size 9 to 14) (size 15 to 20)
#    0.000    2.429    0.000    2.571    0.000    5.714 
#    0.000   19.286    0.000    0.000    0.000    0.000 
#    0.000    0.000    0.000    0.000    0.000    0.000 
#
# Total GULP energy -156001.155646 kJ/mol
# GULP energy per Si atom -5571.469844 kJ/mol
# Density = 2.007290 g / cm^3
# Si number density = 20.118693 Si / 1000 Ang^3
#
#
#
# Elastic Constant Matrix: (Units=GPa)
#
#
# Indices 1 2 3 4 5 6 
#
# 1 106.6299 55.3691 16.1309 0.0000 -27.4582 0.0000
# 2 55.3691 118.4758 29.1550 0.0000 -15.3467 0.0000
# 3 16.1309 29.1550 62.7793 0.0000 -15.0605 0.0000
# 4 0.0000 0.0000 0.0000 26.0407 0.0000 -8.2107
# 5 -27.4582 -15.3467 -15.0605 0.0000 29.1893 0.0000
# 6 0.0000 0.0000 0.0000 -8.2107 0.0000 4.1171
#
#
#
# Elastic Compliance Matrix: (Units=1/GPa)
#
#
# Indices 1 2 3 4 5 6 
#
# 1 0.015399 -0.006053 0.001787 0.000000 0.012226 0.000000
# 2 -0.006053 0.012163 -0.004480 0.000000 -0.001610 0.000000
# 3 0.001787 -0.004480 0.019845 0.000000 0.009565 0.000000
# 4 0.000000 0.000000 0.000000 0.103453 0.000000 0.206316
# 5 0.012226 -0.001610 0.009565 0.000000 0.049848 0.000000
# 6 0.000000 0.000000 0.000000 0.206316 0.000000 0.654339
#
#
# Mechanical properties :
#
#
# Convention : Reuss Voigt Hill
#
# Bulk Modulus (GPa) = 33.42694 54.35499 43.89096
# Shear Modulus (GPa) = 5.66566 24.35143 15.00854
#
# Velocity S-wave (km/s) = 1.67995 3.48284 2.73426
# Velocity P-wave (km/s) = 4.51818 6.57642 5.64195
#
# Compressibility (1/GPa) = 0.02991599
#
# Stress axis : x y z
#
# Youngs Moduli (GPa) = 64.93886 82.21595 50.39163
#
# Poissons Ratio (x) = 0.49764 -0.09005
# Poissons Ratio (y) = 0.39306 0.22574
# Poissons Ratio (z) = -0.11605 0.36830
#
# Static dielectric constant tensor:
#      x y z
#    x 1.679170 0.000000 0.030830 
#    y 0.000000 1.731320 0.000000 
#    z 0.030830 0.000000 1.710800 
# 
# From -- ./inp_files/77381.got.cif
#   From: 2010.05.17/outbox.cif.g08.bks.cpg/sg12_39_cif.got.tgz:77381.got - 2010.06.03 13:09:07.
