data_PCOD9185961
_publ_section_title
;
Structure prediction by ZEFSAII (Michael W. Deem and Ramdas Pophale) SiO2 
 PCOD9185961
Probable space group: C 2/M
;
_chemical_formula_sum "Si O2"
_cell_formula_units_Z 44
_cell_length_a 14.997288
_cell_length_b 15.004214
_cell_length_c 12.267870
_cell_angle_alpha 90.000000
_cell_angle_beta 136.292901
_cell_angle_gamma 90.000000
_cell_volume 1907.460636
_symmetry_space_group_name_H-M "C 2/M"
_symmetry_group_IT_number 12
_symmetry_cell_setting 'monoclinic'
loop_
_space_group_symop_operation_xyz
x,y,z
-x,y,-z
-x,-y,-z
x,-y,z
1/2+x,1/2+y,z
1/2-x,1/2+y,-z
1/2-x,1/2-y,-z
1/2+x,1/2-y,z
loop_
_atom_site_type_symbol
_atom_site_label
_atom_site_fract_x
_atom_site_fract_y
_atom_site_fract_z
Si Si1 0.000000 0.857596 0.000000
Si Si2 0.283527 0.904811 0.283852
Si Si3 0.975107 0.209033 0.737013
Si Si4 0.353760 0.289024 0.420293
Si Si5 0.048259 0.403630 0.787009
Si Si6 0.712539 0.603850 0.838976
O O1 0.137028 0.906215 0.110021
O O2 0.022761 0.808118 0.133571
O O3 0.306800 0.812952 0.368022
O O4 0.377163 0.902254 0.262511
O O5 0.306379 0.000000 0.362160
O O6 0.967401 0.314790 0.717444
O O7 0.107692 0.164394 0.809890
O O8 0.867679 0.175899 0.555948
O O9 0.500000 0.290157 0.500000
O O10 0.274101 0.351642 0.268050
O O11 0.984781 0.500000 0.744570
O O12 0.156377 0.394117 0.976590
O O13 0.670432 0.500000 0.794654
#
# Coordination Sequence:
#
# PCOD9185961 Si02
#       6
#     4   8   8   8   8   8
#     4  12  25  38  61  84 126 164 193 236 295 362
#     4  11  22  38  61  91 122 154 196 245 297 353
#     4  11  22  38  58  89 119 158 195 244 296 352
#     4  10  21  37  60  89 119 150 199 249 298 341
#     4  10  19  36  64  89 114 152 208 253 282 336
#     4  10  19  34  58  87 117 151 196 247 290 338
#
# _framework density 23.067318
#
# number of rings (size 3 to 8) (size 9 to 14) (size 15 to 20)
#    0.000    1.455    5.455    1.909    0.000    5.818 
#    0.000    0.455    0.000    3.273    0.000    0.000 
#    0.000    0.000    0.000    0.000    0.000    0.000 
#
# Total GULP energy -122844.204824 kJ/mol
# GULP energy per Si atom -5583.827492 kJ/mol
# Density = 2.301482 g / cm^3
# Si number density = 23.067318 Si / 1000 Ang^3
#
#
#
# Elastic Constant Matrix: (Units=GPa)
#
#
# Indices 1 2 3 4 5 6 
#
# 1 31.6357 1.6343 18.0125 0.0000 -19.9518 0.0000
# 2 1.6343 109.5330 38.1252 0.0000 -22.9403 0.0000
# 3 18.0125 38.1252 142.9965 0.0000 -35.6215 0.0000
# 4 0.0000 0.0000 0.0000 60.9486 0.0000 31.3769
# 5 -19.9518 -22.9403 -35.6215 0.0000 33.1532 0.0000
# 6 0.0000 0.0000 0.0000 31.3769 0.0000 -1.3881
#
#
#
# Elastic Compliance Matrix: (Units=1/GPa)
#
#
# Indices 1 2 3 4 5 6 
#
# 1 0.055495 0.007082 0.000904 0.000000 0.039268 0.000000
# 2 0.007082 0.011782 -0.001285 0.000000 0.011034 0.000000
# 3 0.000904 -0.001285 0.009744 0.000000 0.010124 0.000000
# 4 0.000000 0.000000 0.000000 0.001298 0.000000 0.029349
# 5 0.039268 0.011034 0.010124 0.000000 0.072308 0.000000
# 6 0.000000 0.000000 0.000000 0.029349 0.000000 -0.057009
#
#
# Mechanical properties :
#
#
# Convention : Reuss Voigt Hill
#
# Bulk Modulus (GPa) = 11.05919 44.41212 27.73566
# Shear Modulus (GPa) = 45.30688 33.63563 39.47125
#
# Velocity S-wave (km/s) = 4.43664 3.82272 4.14107
# Velocity P-wave (km/s) = 5.57223 6.22730 5.90885
#
# Compressibility (1/GPa) = 0.09042250
#
# Stress axis : x y z
#
# Youngs Moduli (GPa) = 18.01957 84.87423 102.62867
#
# Poissons Ratio (x) = -0.60106 -0.09273
# Poissons Ratio (y) = -0.12761 0.13184
# Poissons Ratio (z) = -0.01628 0.10903
#
# Static dielectric constant tensor:
#      x y z
#    x 1.929550 0.000000 -0.069820 
#    y 0.000000 1.885940 0.000000 
#    z -0.069820 0.000000 2.143340 
# 
# From -- ./inp_files/156299.got.cif
#   From: 2010.05.17/outbox.cif.g08.bks.cpg/sg12_79_cif.got.tgz:156299.got - 2010.06.03 13:09:07.
