data_PCOD9185476
_publ_section_title
;
Structure prediction by ZEFSAII (Michael W. Deem and Ramdas Pophale) SiO2 
 PCOD9185476
Probable space group: C 2/M
;
_chemical_formula_sum "Si O2"
_cell_formula_units_Z 64
_cell_length_a 20.350911
_cell_length_b 7.749993
_cell_length_c 32.377792
_cell_angle_alpha 90.000000
_cell_angle_beta 37.253858
_cell_angle_gamma 90.000000
_cell_volume 3091.271916
_symmetry_space_group_name_H-M "C 2/M"
_symmetry_group_IT_number 12
_symmetry_cell_setting 'monoclinic'
loop_
_space_group_symop_operation_xyz
x,y,z
-x,y,-z
-x,-y,-z
x,-y,z
1/2+x,1/2+y,z
1/2-x,1/2+y,-z
1/2-x,1/2-y,-z
1/2+x,1/2-y,z
loop_
_atom_site_type_symbol
_atom_site_label
_atom_site_fract_x
_atom_site_fract_y
_atom_site_fract_z
Si Si1 0.503866 0.209487 0.303949
Si Si2 0.403776 0.707253 0.188887
Si Si3 0.863008 0.294687 0.965054
Si Si4 0.126345 0.701496 0.947580
Si Si5 0.888135 0.711481 0.534514
Si Si6 0.159642 0.206481 0.688016
Si Si7 0.372782 0.793248 0.448925
Si Si8 0.254080 0.800271 0.804358
O O1 0.434065 0.260631 0.298874
O O2 0.444891 0.271382 0.375109
O O3 0.627225 0.274169 0.245605
O O4 0.504532 0.000000 0.303068
O O5 0.392816 0.500000 0.195217
O O6 0.528218 0.740114 0.113417
O O7 0.373196 0.772731 0.249998
O O8 0.321284 0.774654 0.194584
O O9 0.871060 0.500000 0.964562
O O10 0.750000 0.250000 0.000000
O O11 0.859985 0.224896 0.013390
O O12 0.160865 0.500000 0.929969
O O13 0.189482 0.792686 0.879411
O O14 0.000000 0.707132 0.000000
O O15 0.884601 0.500000 0.536347
O O16 0.776404 0.770171 0.612399
O O17 0.894152 0.771434 0.484211
O O18 0.000000 0.763200 0.500000
O O19 0.170365 0.000000 0.686318
O O20 0.250000 0.750000 0.500000
O O21 0.386925 0.000000 0.442974
O O22 0.272473 0.000000 0.783481
#
# Coordination Sequence:
#
# PCOD9185476 Si02
#       8
#     8   8   8   8   8   8   8   8
#     4  10  22  37  55  83 116 149 185 232 284 332
#     4  10  22  39  58  83 116 150 188 234 281 333
#     4  11  24  41  62  86 115 149 188 233 282 338
#     4  10  21  40  62  84 111 145 188 236 282 330
#     4   9  18  32  55  84 109 142 188 233 277 326
#     4  10  21  37  57  82 113 149 190 233 277 333
#     4  10  19  34  57  81 110 145 186 233 280 330
#     4  10  22  38  58  85 115 149 188 231 282 336
#
# _framework density 20.703451999999999
#
# number of rings (size 3 to 8) (size 9 to 14) (size 15 to 20)
#    0.000    2.000    2.500    0.375    3.500    2.250 
#    0.000    0.000    0.000    1.500    0.000    0.000 
#    0.000    0.000    0.000    0.000    0.000    0.000 
#
# Total GULP energy -178621.815895 kJ/mol
# GULP energy per Si atom -5581.931747 kJ/mol
# Density = 2.065633 g / cm^3
# Si number density = 20.703452 Si / 1000 Ang^3
#
#
#
# Elastic Constant Matrix: (Units=GPa)
#
#
# Indices 1 2 3 4 5 6 
#
# 1 211.1766 3.7080 112.9703 -0.0012 12.3262 0.0176
# 2 3.7080 30.5948 4.5321 0.0055 1.6473 -0.0051
# 3 112.9703 4.5321 172.1768 -0.0006 7.8695 -0.0034
# 4 -0.0012 0.0055 -0.0006 12.7001 -0.0002 -3.3716
# 5 12.3262 1.6473 7.8695 -0.0002 42.0870 0.0008
# 6 0.0176 -0.0051 -0.0034 -3.3716 0.0008 20.1852
#
#
#
# Elastic Compliance Matrix: (Units=1/GPa)
#
#
# Indices 1 2 3 4 5 6 
#
# 1 0.007363 -0.000118 -0.004770 -0.000001 -0.001260 -0.000007
# 2 -0.000118 0.032869 -0.000737 -0.000013 -0.001114 0.000006
# 3 -0.004770 -0.000737 0.008969 0.000002 -0.000251 0.000006
# 4 -0.000001 -0.000013 0.000002 0.082393 0.000001 0.013762
# 5 -0.001260 -0.001114 -0.000251 0.000001 0.024220 0.000000
# 6 -0.000007 0.000006 0.000006 0.013762 0.000000 0.051840
#
#
# Mechanical properties :
#
#
# Convention : Reuss Voigt Hill
#
# Bulk Modulus (GPa) = 26.35032 72.92989 49.64010
# Shear Modulus (GPa) = 21.59326 34.51032 28.05179
#
# Velocity S-wave (km/s) = 3.23302 4.08718 3.68493
# Velocity P-wave (km/s) = 5.16640 7.58787 6.49105
#
# Compressibility (1/GPa) = 0.03795020
#
# Stress axis : x y z
#
# Youngs Moduli (GPa) = 135.81605 30.42406 111.49749
#
# Poissons Ratio (x) = 0.00359 0.53188
# Poissons Ratio (y) = 0.01601 0.08216
# Poissons Ratio (z) = 0.64789 0.02242
#
# Static dielectric constant tensor:
#      x y z
#    x 1.691140 0.000060 0.062820 
#    y 0.000060 1.787740 -0.000140 
#    z 0.062820 -0.000140 1.568070 
# 
# From -- ./inp_files/346156.got.cif
#   From: 2010.05.17/outbox.cif.g08.bks.cpg/sg12_174_cif.got.tgz:346156.got - 2010.06.03 13:09:07.
