data_PCOD9185805
_publ_section_title
;
Structure prediction by ZEFSAII (Michael W. Deem and Ramdas Pophale) SiO2 
 PCOD9185805
Probable space group: C 2/M
;
_chemical_formula_sum "Si O2"
_cell_formula_units_Z 64
_cell_length_a 13.368786
_cell_length_b 18.379858
_cell_length_c 17.286810
_cell_angle_alpha 90.000000
_cell_angle_beta 45.194629
_cell_angle_gamma 90.000000
_cell_volume 3013.729340
_symmetry_space_group_name_H-M "C 2/M"
_symmetry_group_IT_number 12
_symmetry_cell_setting 'monoclinic'
loop_
_space_group_symop_operation_xyz
x,y,z
-x,y,-z
-x,-y,-z
x,-y,z
1/2+x,1/2+y,z
1/2-x,1/2+y,-z
1/2-x,1/2-y,-z
1/2+x,1/2-y,z
loop_
_atom_site_type_symbol
_atom_site_label
_atom_site_fract_x
_atom_site_fract_y
_atom_site_fract_z
Si Si1 0.979593 0.778601 0.374550
Si Si2 0.291995 0.914761 0.957144
Si Si3 0.373780 0.915257 0.197137
Si Si4 0.784930 0.662338 0.394539
Si Si5 0.167467 0.655478 0.345395
Si Si6 0.663380 0.326277 0.891714
Si Si7 0.277963 0.337243 0.852849
Si Si8 0.119337 0.580434 0.519566
O O1 0.895174 0.724567 0.362146
O O2 0.867627 0.814511 0.492492
O O3 0.085364 0.729058 0.367824
O O4 0.072944 0.832699 0.272513
O O5 0.459050 0.907425 0.881374
O O6 0.252319 0.881165 0.896306
O O7 0.255575 0.000000 0.981463
O O8 0.214102 0.867708 0.065257
O O9 0.299718 0.861207 0.298521
O O10 0.325179 0.889566 0.139389
O O11 0.336924 0.000000 0.229216
O O12 0.829361 0.593540 0.422307
O O13 0.300563 0.655585 0.217108
O O14 0.188978 0.640308 0.424276
O O15 0.048364 0.594976 0.390553
O O16 0.715596 0.244567 0.882998
O O17 0.500000 0.332777 0.000000
O O18 0.153652 0.500000 0.474144
#
# Coordination Sequence:
#
# PCOD9185805 Si02
#       8
#     8   8   8   8   8   8   8   8
#     4   9  21  37  58  84 117 153 195 247 299 350
#     4  11  24  43  64  87 121 160 200 247 301 362
#     4  11  23  40  63  88 119 161 206 250 298 356
#     4  10  21  37  58  87 118 155 195 242 299 354
#     4   9  19  35  55  83 113 148 190 235 288 345
#     4  11  24  40  64  92 121 155 197 250 304 360
#     4  11  23  41  64  90 117 157 207 254 296 347
#     4  10  19  34  58  83 112 151 193 235 282 348
#
# _framework density 21.236146999999999
#
# number of rings (size 3 to 8) (size 9 to 14) (size 15 to 20)
#    0.000    1.750    0.000    5.250    0.000   14.750 
#    0.000    4.375    0.000    0.000    0.000    0.000 
#    0.000    0.000    0.000    0.000    0.000    0.000 
#
# Total GULP energy -178929.060459 kJ/mol
# GULP energy per Si atom -5591.533139 kJ/mol
# Density = 2.118781 g / cm^3
# Si number density = 21.236147 Si / 1000 Ang^3
#
#
#
# Elastic Constant Matrix: (Units=GPa)
#
#
# Indices 1 2 3 4 5 6 
#
# 1 30.5602 3.1405 3.3890 0.0000 -4.2264 0.0000
# 2 3.1405 82.2560 18.1368 0.0000 -7.2517 0.0000
# 3 3.3890 18.1368 97.2082 -0.0001 -10.9202 0.0000
# 4 0.0000 0.0000 -0.0001 22.1449 0.0000 8.5166
# 5 -4.2264 -7.2517 -10.9202 0.0000 28.8158 0.0000
# 6 0.0000 0.0000 0.0000 8.5166 0.0000 24.4652
#
#
#
# Elastic Compliance Matrix: (Units=1/GPa)
#
#
# Indices 1 2 3 4 5 6 
#
# 1 0.033484 -0.000766 -0.000516 0.000000 0.004523 0.000000
# 2 -0.000766 0.012857 -0.002111 0.000000 0.002323 0.000000
# 3 -0.000516 -0.002111 0.011104 0.000000 0.003601 0.000000
# 4 0.000000 0.000000 0.000000 0.052137 0.000000 -0.018150
# 5 0.004523 0.002323 0.003601 0.000000 0.037316 0.000000
# 6 0.000000 0.000000 0.000000 -0.018150 0.000000 0.047192
#
#
# Mechanical properties :
#
#
# Convention : Reuss Voigt Hill
#
# Bulk Modulus (GPa) = 19.74046 28.81744 24.27895
# Shear Modulus (GPa) = 22.96088 27.44239 25.20164
#
# Velocity S-wave (km/s) = 3.29175 3.59869 3.44864
# Velocity P-wave (km/s) = 4.87477 5.55579 5.22639
#
# Compressibility (1/GPa) = 0.05065738
#
# Stress axis : x y z
#
# Youngs Moduli (GPa) = 29.86528 77.78052 90.06089
#
# Poissons Ratio (x) = 0.05957 0.04651
# Poissons Ratio (y) = 0.02287 0.19013
# Poissons Ratio (z) = 0.01542 0.16420
#
# Static dielectric constant tensor:
#      x y z
#    x 1.764700 0.000000 0.000500 
#    y 0.000000 1.754770 0.000000 
#    z 0.000500 0.000000 1.752430 
# 
# From -- ./inp_files/271685.got.cif
#   From: 2010.05.17/outbox.cif.g08.bks.cpg/sg12_136_cif.got.tgz:271685.got - 2010.06.03 13:09:07.
