data_PCOD9185060
_publ_section_title
;
Structure prediction by ZEFSAII (Michael W. Deem and Ramdas Pophale) SiO2 
 PCOD9185060
Probable space group: C 2/M
;
_chemical_formula_sum "Si O2"
_cell_formula_units_Z 56
_cell_length_a 25.725608
_cell_length_b 7.532106
_cell_length_c 14.721084
_cell_angle_alpha 90.000000
_cell_angle_beta 60.927658
_cell_angle_gamma 90.000000
_cell_volume 2493.082880
_symmetry_space_group_name_H-M "C 2/M"
_symmetry_group_IT_number 12
_symmetry_cell_setting 'monoclinic'
loop_
_space_group_symop_operation_xyz
x,y,z
-x,y,-z
-x,-y,-z
x,-y,z
1/2+x,1/2+y,z
1/2-x,1/2+y,-z
1/2-x,1/2-y,-z
1/2+x,1/2-y,z
loop_
_atom_site_type_symbol
_atom_site_label
_atom_site_fract_x
_atom_site_fract_y
_atom_site_fract_z
Si Si1 0.566396 0.203306 0.672105
Si Si2 0.726313 0.208681 0.781962
Si Si3 0.508233 0.285122 0.097013
Si Si4 0.531683 0.704145 0.385549
Si Si5 0.806393 0.713241 0.389352
Si Si6 0.857446 0.214225 0.978470
Si Si7 0.840662 0.218079 0.791107
O O1 0.542144 0.209743 0.795242
O O2 0.516644 0.295337 0.653368
O O3 0.632526 0.281494 0.617831
O O4 0.568553 0.000000 0.638192
O O5 0.704906 0.282283 0.703328
O O6 0.788074 0.280576 0.770182
O O7 0.736661 0.000000 0.757372
O O8 0.678172 0.226280 0.902812
O O9 0.504743 0.500000 0.105121
O O10 0.573664 0.230675 0.074610
O O11 0.500000 0.232670 0.000000
O O12 0.500000 0.787381 0.500000
O O13 0.545778 0.500000 0.398406
O O14 0.594470 0.778462 0.298068
O O15 0.814664 0.500000 0.376176
O O16 0.750000 0.750000 0.500000
O O17 0.831385 0.273784 0.903722
O O18 0.856647 0.000000 0.980410
O O19 0.840284 0.000000 0.792751
#
# Coordination Sequence:
#
# PCOD9185060 Si02
#       7
#     8   8   8   8   8   8   8
#     4  11  23  39  58  86 123 154 186 240 299 349
#     4  10  21  37  58  83 114 151 191 235 286 342
#     4  10  20  35  58  85 115 155 198 240 283 338
#     4  10  21  38  64  90 112 150 199 243 290 348
#     4  10  24  42  60  84 115 152 195 240 285 341
#     4  10  19  34  55  83 118 147 185 238 284 338
#     4   9  18  35  57  85 116 143 186 242 283 333
#
# _framework density 22.462147999999999
#
# number of rings (size 3 to 8) (size 9 to 14) (size 15 to 20)
#    0.000    2.000    1.429    1.714    2.000    2.857 
#    0.000    0.714    0.000    0.000    0.000    0.000 
#    0.000    0.000    0.000    0.000    0.000    0.000 
#
# Total GULP energy -156487.723462 kJ/mol
# GULP energy per Si atom -5588.847266 kJ/mol
# Density = 2.241102 g / cm^3
# Si number density = 22.462148 Si / 1000 Ang^3
#
#
#
# Elastic Constant Matrix: (Units=GPa)
#
#
# Indices 1 2 3 4 5 6 
#
# 1 73.5469 0.2211 8.8796 0.0000 -32.1987 0.0000
# 2 0.2211 53.2577 -12.7302 0.0000 3.9152 -0.0001
# 3 8.8796 -12.7302 105.2448 0.0000 -17.7732 0.0000
# 4 0.0000 0.0000 0.0000 20.3527 0.0000 -7.8478
# 5 -32.1987 3.9152 -17.7732 0.0000 36.3546 0.0000
# 6 0.0000 -0.0001 0.0000 -7.8478 0.0000 23.2344
#
#
#
# Elastic Compliance Matrix: (Units=1/GPa)
#
#
# Indices 1 2 3 4 5 6 
#
# 1 0.022535 -0.001275 0.001459 0.000000 0.020809 0.000000
# 2 -0.001275 0.019443 0.002087 0.000000 -0.002202 0.000000
# 3 0.001459 0.002087 0.010694 0.000000 0.006295 0.000000
# 4 0.000000 0.000000 0.000000 0.056491 0.000000 0.019081
# 5 0.020809 -0.002202 0.006295 0.000000 0.049252 0.000000
# 6 0.000000 0.000000 0.000000 0.019081 0.000000 0.049484
#
#
# Mechanical properties :
#
#
# Convention : Reuss Voigt Hill
#
# Bulk Modulus (GPa) = 17.47813 24.97672 21.22743
# Shear Modulus (GPa) = 22.47927 31.70028 27.08978
#
# Velocity S-wave (km/s) = 3.16691 3.76077 3.47655
# Velocity P-wave (km/s) = 4.60114 5.47736 5.05826
#
# Compressibility (1/GPa) = 0.05721435
#
# Stress axis : x y z
#
# Youngs Moduli (GPa) = 44.37631 51.43306 93.50868
#
# Poissons Ratio (x) = 0.06556 -0.13640
# Poissons Ratio (y) = 0.05656 -0.19519
# Poissons Ratio (z) = -0.06473 -0.10736
#
# Static dielectric constant tensor:
#      x y z
#    x 1.826820 0.000000 0.007900 
#    y 0.000000 1.887730 0.000000 
#    z 0.007900 0.000000 1.788090 
# 
# From -- ./inp_files/238302.got.cif
#   From: 2010.05.17/outbox.cif.g08.bks.cpg/sg12_120_cif.got.tgz:238302.got - 2010.06.03 13:09:07.
