data_PCOD9185389
_publ_section_title
;
Structure prediction by ZEFSAII (Michael W. Deem and Ramdas Pophale) SiO2 
 PCOD9185389
Probable space group: C 2/M
;
_chemical_formula_sum "Si O2"
_cell_formula_units_Z 56
_cell_length_a 14.912641
_cell_length_b 20.749880
_cell_length_c 10.816495
_cell_angle_alpha 90.000000
_cell_angle_beta 46.836517
_cell_angle_gamma 90.000000
_cell_volume 2441.323352
_symmetry_space_group_name_H-M "C 2/M"
_symmetry_group_IT_number 12
_symmetry_cell_setting 'monoclinic'
loop_
_space_group_symop_operation_xyz
x,y,z
-x,y,-z
-x,-y,-z
x,-y,z
1/2+x,1/2+y,z
1/2-x,1/2+y,-z
1/2-x,1/2-y,-z
1/2+x,1/2-y,z
loop_
_atom_site_type_symbol
_atom_site_label
_atom_site_fract_x
_atom_site_fract_y
_atom_site_fract_z
Si Si1 0.749440 0.807009 0.282056
Si Si2 0.113562 0.750859 0.066041
Si Si3 0.571364 0.871156 0.244612
Si Si4 0.808530 0.573449 0.530790
Si Si5 0.570886 0.296358 0.557056
Si Si6 0.185100 0.927084 0.390071
Si Si7 0.619285 0.925786 0.965069
O O1 0.655272 0.837507 0.267730
O O2 0.780446 0.871837 0.328912
O O3 0.686909 0.753169 0.431011
O O4 0.857614 0.774878 0.099026
O O5 0.061137 0.679606 0.140093
O O6 0.015264 0.788841 0.242183
O O7 0.250000 0.750000 0.000000
O O8 0.443660 0.896135 0.417755
O O9 0.622453 0.927294 0.110426
O O10 0.799528 0.500000 0.588760
O O11 0.783453 0.569640 0.408833
O O12 0.500000 0.275910 0.500000
O O13 0.594917 0.371771 0.519214
O O14 0.254673 0.896727 0.206584
O O15 0.136145 0.000000 0.419696
O O16 0.631929 0.000000 0.911059
O O17 0.500000 0.903745 0.000000
#
# Coordination Sequence:
#
# PCOD9185389 Si02
#       7
#     8   8   8   8   8   8   8
#     4  11  23  40  62  97 128 164 210 254 324 378
#     4  10  21  37  60  89 123 159 201 259 313 373
#     4  11  19  35  61  92 124 162 204 259 317 370
#     4  11  22  40  62  90 133 168 206 260 313 380
#     4  12  21  41  67  88 121 162 206 270 309 369
#     4  10  24  41  61  89 124 171 212 256 318 372
#     4  10  19  34  56  87 125 161 204 254 306 367
#
# _framework density 22.938379000000001
#
# number of rings (size 3 to 8) (size 9 to 14) (size 15 to 20)
#    0.000    1.286    5.714    1.714    2.000    2.571 
#    0.000    1.429    0.000    1.714    0.000    0.000 
#    0.000    0.000    0.000    0.000    0.000    0.000 
#
# Total GULP energy -155955.935128 kJ/mol
# GULP energy per Si atom -5569.854826 kJ/mol
# Density = 2.288617 g / cm^3
# Si number density = 22.938379 Si / 1000 Ang^3
#
#
#
# Elastic Constant Matrix: (Units=GPa)
#
#
# Indices 1 2 3 4 5 6 
#
# 1 57.2907 -0.1448 11.3370 0.0000 10.2335 0.0000
# 2 -0.1448 127.2402 54.7471 0.0000 -3.5566 0.0000
# 3 11.3370 54.7471 166.2947 0.0000 8.9590 0.0000
# 4 0.0000 0.0000 0.0000 34.2889 0.0000 -1.6143
# 5 10.2335 -3.5566 8.9590 0.0000 24.9725 0.0000
# 6 0.0000 0.0000 0.0000 -1.6143 0.0000 42.1674
#
#
#
# Elastic Compliance Matrix: (Units=1/GPa)
#
#
# Indices 1 2 3 4 5 6 
#
# 1 0.018968 0.000233 -0.000972 0.000000 -0.007391 0.000000
# 2 0.000233 0.009306 -0.003208 0.000000 0.002381 0.000000
# 3 -0.000972 -0.003208 0.007280 0.000000 -0.002670 0.000000
# 4 0.000000 0.000000 0.000000 0.029217 0.000000 0.001118
# 5 -0.007391 0.002381 -0.002670 0.000000 0.044370 0.000000
# 6 0.000000 0.000000 0.000000 0.001118 0.000000 0.023758
#
#
# Mechanical properties :
#
#
# Convention : Reuss Voigt Hill
#
# Bulk Modulus (GPa) = 36.15229 53.63378 44.89303
# Shear Modulus (GPa) = 33.33080 39.27817 36.30449
#
# Velocity S-wave (km/s) = 3.81604 4.14253 3.98263
# Velocity P-wave (km/s) = 5.93389 6.80537 6.38452
#
# Compressibility (1/GPa) = 0.02766077
#
# Stress axis : x y z
#
# Youngs Moduli (GPa) = 52.72053 107.45500 137.36971
#
# Poissons Ratio (x) = -0.02504 0.13348
# Poissons Ratio (y) = -0.01229 0.44067
# Poissons Ratio (z) = 0.05123 0.34471
#
# Static dielectric constant tensor:
#      x y z
#    x 2.310800 0.000000 0.151960 
#    y 0.000000 2.328050 0.000000 
#    z 0.151960 0.000000 2.048090 
# 
# From -- ./inp_files/160254.got.cif
#   From: 2010.05.17/outbox.cif.g08.bks.cpg/sg12_81_cif.got.tgz:160254.got - 2010.06.03 13:09:07.
