data_PCOD9185849
_publ_section_title
;
Structure prediction by ZEFSAII (Michael W. Deem and Ramdas Pophale) SiO2 
 PCOD9185849
Probable space group: C 2/M
;
_chemical_formula_sum "Si O2"
_cell_formula_units_Z 56
_cell_length_a 24.684828
_cell_length_b 7.548767
_cell_length_c 17.225271
_cell_angle_alpha 90.000000
_cell_angle_beta 46.372598
_cell_angle_gamma 90.000000
_cell_volume 2323.356998
_symmetry_space_group_name_H-M "C 2/M"
_symmetry_group_IT_number 12
_symmetry_cell_setting 'monoclinic'
loop_
_space_group_symop_operation_xyz
x,y,z
-x,y,-z
-x,-y,-z
x,-y,z
1/2+x,1/2+y,z
1/2-x,1/2+y,-z
1/2-x,1/2-y,-z
1/2+x,1/2-y,z
loop_
_atom_site_type_symbol
_atom_site_label
_atom_site_fract_x
_atom_site_fract_y
_atom_site_fract_z
Si Si1 0.231700 0.290099 0.687451
Si Si2 0.918798 0.206406 0.227374
Si Si3 0.240085 0.213274 0.848369
Si Si4 0.357200 0.284815 0.451429
Si Si5 0.581713 0.701489 0.048399
Si Si6 0.501568 0.713958 0.409935
Si Si7 0.866549 0.295786 0.835353
O O1 0.226012 0.500000 0.684872
O O2 0.147967 0.215460 0.767793
O O3 0.269323 0.252991 0.733292
O O4 0.281010 0.219409 0.566773
O O5 0.882884 0.282603 0.341975
O O6 0.999005 0.283419 0.123730
O O7 0.935176 0.000000 0.228292
O O8 0.292597 0.278197 0.866270
O O9 0.237912 0.000000 0.858889
O O10 0.155600 0.284684 0.937834
O O11 0.350808 0.500000 0.452867
O O12 0.424358 0.243261 0.443571
O O13 0.576864 0.500000 0.022459
O O14 0.602936 0.699128 0.118847
O O15 0.500000 0.773844 0.500000
O O16 0.509622 0.500000 0.401180
O O17 0.569636 0.789051 0.293127
O O18 0.853679 0.500000 0.870595
#
# Coordination Sequence:
#
# PCOD9185849 Si02
#       7
#     8   8   8   8   8   8   8
#     4  11  23  38  59  87 117 150 191 242 294 341
#     4  10  20  38  62  84 112 150 195 243 284 340
#     4  10  23  41  59  84 117 155 195 235 286 346
#     4   9  18  35  57  84 114 149 195 233 277 343
#     4  10  21  40  65  85 110 155 202 235 276 345
#     4  10  19  34  58  84 115 156 198 234 273 339
#     4  11  22  36  57  88 123 149 184 241 296 342
#
# _framework density 24.103052999999999
#
# number of rings (size 3 to 8) (size 9 to 14) (size 15 to 20)
#    0.000    1.857    1.429    2.571    0.000    4.286 
#    0.000    5.000    0.000    0.000    0.000    0.000 
#    0.000    0.000    0.000    0.000    0.000    0.000 
#
# Total GULP energy -156558.229735 kJ/mol
# GULP energy per Si atom -5591.365348 kJ/mol
# Density = 2.404819 g / cm^3
# Si number density = 24.103053 Si / 1000 Ang^3
#
#
#
# Elastic Constant Matrix: (Units=GPa)
#
#
# Indices 1 2 3 4 5 6 
#
# 1 73.1439 -2.3053 1.6915 -0.0023 -16.9909 -0.0587
# 2 -2.3053 66.8747 -1.1233 -0.0668 -8.1937 -0.0410
# 3 1.6915 -1.1233 83.2262 0.0023 -19.9045 -0.0172
# 4 -0.0023 -0.0668 0.0023 6.6837 0.0173 8.6902
# 5 -16.9909 -8.1937 -19.9045 0.0173 49.7358 0.0324
# 6 -0.0587 -0.0410 -0.0172 8.6902 0.0324 -26.7484
#
#
#
# Elastic Compliance Matrix: (Units=1/GPa)
#
#
# Indices 1 2 3 4 5 6 
#
# 1 0.015027 0.001244 0.001093 0.000028 0.005776 -0.000020
# 2 0.001244 0.015425 0.000987 0.000123 0.003361 0.000017
# 3 0.001093 0.000987 0.013419 -0.000002 0.005906 -0.000006
# 4 0.000028 0.000123 -0.000002 0.105187 -0.000030 0.034174
# 5 0.005776 0.003361 0.005906 -0.000030 0.024997 -0.000001
# 6 -0.000020 0.000017 -0.000006 0.034174 -0.000001 -0.026283
#
#
# Mechanical properties :
#
#
# Convention : Reuss Voigt Hill
#
# Bulk Modulus (GPa) = 19.79481 24.41896 22.10688
# Shear Modulus (GPa) = 31.65277 20.93301 26.29289
#
# Velocity S-wave (km/s) = 3.62778 2.95020 3.30639
# Velocity P-wave (km/s) = 5.07721 4.66454 4.87525
#
# Compressibility (1/GPa) = 0.05051830
#
# Stress axis : x y z
#
# Youngs Moduli (GPa) = 66.54541 64.83099 74.52062
#
# Poissons Ratio (x) = -0.08066 -0.08143
# Poissons Ratio (y) = -0.08279 -0.07353
# Poissons Ratio (z) = -0.07272 -0.06397
#
# Static dielectric constant tensor:
#      x y z
#    x 1.890480 -0.000020 -0.026510 
#    y -0.000020 1.943320 0.000010 
#    z -0.026510 0.000010 1.924050 
# 
# From -- ./inp_files/288224.got.cif
#   From: 2010.05.17/outbox.cif.g08.bks.cpg/sg12_145_cif.got.tgz:288224.got - 2010.06.03 13:09:07.
