data_PCOD9185595
_publ_section_title
;
Structure prediction by ZEFSAII (Michael W. Deem and Ramdas Pophale) SiO2 
 PCOD9185595
Probable space group: C 2/M
;
_chemical_formula_sum "Si O2"
_cell_formula_units_Z 44
_cell_length_a 9.560846
_cell_length_b 15.863931
_cell_length_c 14.084589
_cell_angle_alpha 90.000000
_cell_angle_beta 103.611509
_cell_angle_gamma 90.000000
_cell_volume 2076.247101
_symmetry_space_group_name_H-M "C 2/M"
_symmetry_group_IT_number 12
_symmetry_cell_setting 'monoclinic'
loop_
_space_group_symop_operation_xyz
x,y,z
-x,y,-z
-x,-y,-z
x,-y,z
1/2+x,1/2+y,z
1/2-x,1/2+y,-z
1/2-x,1/2-y,-z
1/2+x,1/2-y,z
loop_
_atom_site_type_symbol
_atom_site_label
_atom_site_fract_x
_atom_site_fract_y
_atom_site_fract_z
Si Si1 0.982598 0.094060 0.837944
Si Si2 0.145729 0.760509 0.571134
Si Si3 0.500000 0.264877 0.000000
Si Si4 0.805706 0.593775 0.305731
Si Si5 0.233475 0.832645 0.775725
Si Si6 0.922097 0.673734 0.151255
O O1 0.957612 0.168128 0.910982
O O2 0.141459 0.098449 0.817733
O O3 0.865450 0.108403 0.735998
O O4 0.957780 0.000000 0.872954
O O5 0.250000 0.750000 0.500000
O O6 0.130826 0.669079 0.620852
O O7 0.203422 0.825333 0.659108
O O8 0.000000 0.789741 0.500000
O O9 0.392928 0.199583 0.037129
O O10 0.831120 0.500000 0.347916
O O11 0.864707 0.597916 0.206235
O O12 0.154170 0.750041 0.805166
O O13 0.404227 0.831168 0.817444
#
# Coordination Sequence:
#
# PCOD9185595 Si02
#       6
#     8   8   4   8   8   8
#     4  10  21  36  55  78 111 148 178 218 269 319
#     4  11  20  34  58  82 102 135 183 226 265 318
#     4  10  19  34  57  84 106 136 190 224 255 312
#     4  10  22  40  55  76 113 148 175 216 278 324
#     4  10  20  36  54  80 112 141 178 220 273 322
#     4  10  20  34  57  81 108 145 177 221 266 315
#
# _framework density 21.192083
#
# number of rings (size 3 to 8) (size 9 to 14) (size 15 to 20)
#    0.000    1.818    0.000    7.909    0.000    7.636 
#    0.000    1.364    0.000    3.273    0.000    0.000 
#    0.000    0.000    0.000    0.000    0.000    0.000 
#
# Total GULP energy -122472.574098 kJ/mol
# GULP energy per Si atom -5566.935186 kJ/mol
# Density = 2.114385 g / cm^3
# Si number density = 21.192083 Si / 1000 Ang^3
#
#
#
# Elastic Constant Matrix: (Units=GPa)
#
#
# Indices 1 2 3 4 5 6 
#
# 1 126.8825 -12.6795 17.3994 0.0000 0.6545 0.0000
# 2 -12.6795 70.6280 9.7167 0.0000 -1.6784 0.0000
# 3 17.3994 9.7167 79.2163 0.0000 -16.1266 0.0000
# 4 0.0000 0.0000 0.0000 17.8541 0.0000 -5.7710
# 5 0.6545 -1.6784 -16.1266 0.0000 41.6110 0.0000
# 6 0.0000 0.0000 0.0000 -5.7710 0.0000 17.3973
#
#
#
# Elastic Compliance Matrix: (Units=1/GPa)
#
#
# Indices 1 2 3 4 5 6 
#
# 1 0.008373 0.001790 -0.002248 0.000000 -0.000931 0.000000
# 2 0.001790 0.014785 -0.002270 0.000000 -0.000312 0.000000
# 3 -0.002248 -0.002270 0.014531 0.000000 0.005575 0.000000
# 4 0.000000 0.000000 0.000000 0.062736 0.000000 0.020811
# 5 -0.000931 -0.000312 0.005575 0.000000 0.026195 0.000000
# 6 0.000000 0.000000 0.000000 0.020811 0.000000 0.064383
#
#
# Mechanical properties :
#
#
# Convention : Reuss Voigt Hill
#
# Bulk Modulus (GPa) = 31.02396 33.95555 32.48975
# Shear Modulus (GPa) = 24.13078 32.85849 28.49464
#
# Velocity S-wave (km/s) = 3.37808 3.94192 3.67084
# Velocity P-wave (km/s) = 5.46685 6.06431 5.77331
#
# Compressibility (1/GPa) = 0.03223316
#
# Stress axis : x y z
#
# Youngs Moduli (GPa) = 119.42683 67.63594 68.81858
#
# Poissons Ratio (x) = -0.12110 0.15472
# Poissons Ratio (y) = -0.21382 0.15623
# Poissons Ratio (z) = 0.26850 0.15355
#
# Static dielectric constant tensor:
#      x y z
#    x 1.780890 0.000000 -0.016330 
#    y 0.000000 1.816560 0.000000 
#    z -0.016330 0.000000 1.796860 
# 
# From -- ./inp_files/195575.got.cif
#   From: 2010.05.17/outbox.cif.g08.bks.cpg/sg12_98_cif.got.tgz:195575.got - 2010.06.03 13:09:07.
