data_PCOD9185722
_publ_section_title
;
Structure prediction by ZEFSAII (Michael W. Deem and Ramdas Pophale) SiO2 
 PCOD9185722
Probable space group: C 2/M
;
_chemical_formula_sum "Si O2"
_cell_formula_units_Z 36
_cell_length_a 6.658496
_cell_length_b 20.177890
_cell_length_c 10.485546
_cell_angle_alpha 90.000000
_cell_angle_beta 89.253849
_cell_angle_gamma 90.000000
_cell_volume 1408.659782
_symmetry_space_group_name_H-M "C 2/M"
_symmetry_group_IT_number 12
_symmetry_cell_setting 'monoclinic'
loop_
_space_group_symop_operation_xyz
x,y,z
-x,y,-z
-x,-y,-z
x,-y,z
1/2+x,1/2+y,z
1/2-x,1/2+y,-z
1/2-x,1/2-y,-z
1/2+x,1/2-y,z
loop_
_atom_site_type_symbol
_atom_site_label
_atom_site_fract_x
_atom_site_fract_y
_atom_site_fract_z
Si Si1 0.046468 0.813315 0.862369
Si Si2 0.000000 0.898536 0.500000
Si Si3 0.368397 0.269496 0.400029
Si Si4 0.773383 0.927256 0.749669
Si Si5 0.373421 0.073512 0.870487
O O1 0.107595 0.761290 0.752915
O O2 0.224767 0.866012 0.877585
O O3 0.871263 0.863788 0.816627
O O4 0.000000 0.782614 0.000000
O O5 0.860266 0.849341 0.418358
O O6 0.862615 0.930889 0.606877
O O7 0.625916 0.253855 0.429825
O O8 0.535050 0.918354 0.756348
O O9 0.811405 0.000000 0.810610
O O10 0.278932 0.000000 0.856350
O O11 0.500000 0.072795 0.000000
#
# Coordination Sequence:
#
# PCOD9185722 Si02
#       5
#     8   4   8   8   8
#     4  11  21  37  61  91 123 159 205 252 306 366
#     4   8  19  36  60  82 114 160 199 242 304 358
#     4   9  21  41  62  84 112 154 205 257 317 366
#     4  10  19  34  57  88 128 160 197 238 290 362
#     4  10  20  32  54  93 131 166 198 236 298 362
#
# _framework density 25.556208000000002
#
# number of rings (size 3 to 8) (size 9 to 14) (size 15 to 20)
#    0.667    1.556    2.222    1.000    0.000    2.667 
#    0.000    4.444    0.000   12.000    0.000    0.000 
#    0.000    0.000    0.000    0.000    0.000    0.000 
#
# Total GULP energy -100427.583907 kJ/mol
# GULP energy per Si atom -5579.310217 kJ/mol
# Density = 2.549804 g / cm^3
# Si number density = 25.556208 Si / 1000 Ang^3
#
#
#
# Elastic Constant Matrix: (Units=GPa)
#
#
# Indices 1 2 3 4 5 6 
#
# 1 120.5235 46.7630 63.6526 0.0000 -17.9520 0.0000
# 2 46.7630 74.7549 27.8055 0.0000 -5.4912 0.0000
# 3 63.6526 27.8055 222.1356 0.0000 -41.5188 0.0000
# 4 0.0000 0.0000 0.0000 26.5212 0.0000 -3.3512
# 5 -17.9520 -5.4912 -41.5188 0.0000 43.9916 0.0000
# 6 0.0000 0.0000 0.0000 -3.3512 0.0000 106.2079
#
#
#
# Elastic Compliance Matrix: (Units=1/GPa)
#
#
# Indices 1 2 3 4 5 6 
#
# 1 0.012468 -0.006778 -0.002345 0.000000 0.002029 0.000000
# 2 -0.006778 0.017715 -0.000460 0.000000 -0.000989 0.000000
# 3 -0.002345 -0.000460 0.006122 0.000000 0.004763 0.000000
# 4 0.000000 0.000000 0.000000 0.037857 0.000000 0.001194
# 5 0.002029 -0.000989 0.004763 0.000000 0.027931 0.000000
# 6 0.000000 0.000000 0.000000 0.001194 0.000000 0.009453
#
#
# Mechanical properties :
#
#
# Convention : Reuss Voigt Hill
#
# Bulk Modulus (GPa) = 58.34794 77.09514 67.72154
# Shear Modulus (GPa) = 36.65029 53.95700 45.30364
#
# Velocity S-wave (km/s) = 3.79107 4.59988 4.21492
# Velocity P-wave (km/s) = 6.48411 7.64488 7.08830
#
# Compressibility (1/GPa) = 0.01713856
#
# Stress axis : x y z
#
# Youngs Moduli (GPa) = 80.20821 56.44792 163.35676
#
# Poissons Ratio (x) = 0.38259 0.38307
# Poissons Ratio (y) = 0.54364 0.07517
# Poissons Ratio (z) = 0.18809 0.02598
#
# Static dielectric constant tensor:
#      x y z
#    x 2.149590 0.000000 -0.040600 
#    y 0.000000 1.906960 0.000000 
#    z -0.040600 0.000000 2.146260 
# 
# From -- ./inp_files/114846.got.cif
#   From: 2010.05.17/outbox.cif.g08.bks.cpg/sg12_58_cif.got.tgz:114846.got - 2010.06.03 13:09:07.
