data_PCOD9185238
_publ_section_title
;
Structure prediction by ZEFSAII (Michael W. Deem and Ramdas Pophale) SiO2 
 PCOD9185238
Probable space group: C 2/M
;
_chemical_formula_sum "Si O2"
_cell_formula_units_Z 64
_cell_length_a 21.048677
_cell_length_b 8.087335
_cell_length_c 25.245640
_cell_angle_alpha 90.000000
_cell_angle_beta 128.698146
_cell_angle_gamma 90.000000
_cell_volume 3353.992308
_symmetry_space_group_name_H-M "C 2/M"
_symmetry_group_IT_number 12
_symmetry_cell_setting 'monoclinic'
loop_
_space_group_symop_operation_xyz
x,y,z
-x,y,-z
-x,-y,-z
x,-y,z
1/2+x,1/2+y,z
1/2-x,1/2+y,-z
1/2-x,1/2-y,-z
1/2+x,1/2-y,z
loop_
_atom_site_type_symbol
_atom_site_label
_atom_site_fract_x
_atom_site_fract_y
_atom_site_fract_z
Si Si1 0.544020 0.803097 0.293594
Si Si2 0.201216 0.198499 0.922409
Si Si3 0.513198 0.300960 0.447148
Si Si4 0.399264 0.799741 0.294908
Si Si5 0.735075 0.302283 0.157954
Si Si6 0.843046 0.197249 0.554766
Si Si7 0.948190 0.797017 0.921768
Si Si8 0.481552 0.697752 0.153226
O O1 0.463267 0.742859 0.283073
O O2 0.619356 0.753354 0.369635
O O3 0.541264 0.736576 0.232835
O O4 0.540270 0.000000 0.289204
O O5 0.241932 0.267521 0.890731
O O6 0.108403 0.261046 0.879196
O O7 0.200360 0.000000 0.918262
O O8 0.250000 0.250000 0.000000
O O9 0.500000 0.238478 0.500000
O O10 0.519414 0.500000 0.453022
O O11 0.437128 0.257166 0.369979
O O12 0.594403 0.239684 0.458426
O O13 0.309335 0.739330 0.233021
O O14 0.399166 0.000000 0.294382
O O15 0.732595 0.500000 0.163903
O O16 0.644984 0.239151 0.123171
O O17 0.750000 0.250000 0.500000
O O18 0.846211 0.000000 0.554628
O O19 0.988302 0.740519 0.887826
O O20 0.947855 0.000000 0.921674
O O21 0.000000 0.745873 0.000000
O O22 0.475178 0.500000 0.145459
#
# Coordination Sequence:
#
# PCOD9185238 Si02
#       8
#     8   8   8   8   8   8   8   8
#     4  10  19  34  56  81 111 143 178 224 274 318
#     4  11  22  34  54  81 108 138 179 226 271 321
#     4   9  19  36  57  80 109 144 178 219 267 317
#     4   9  18  32  53  80 108 140 175 219 268 316
#     4  10  19  35  56  78 107 138 178 225 270 320
#     4  10  20  36  58  83 113 146 182 220 264 320
#     4   9  18  34  55  76 105 144 180 219 271 328
#     4  10  20  35  55  80 107 141 183 222 269 327
#
# _framework density 19.081738000000001
#
# number of rings (size 3 to 8) (size 9 to 14) (size 15 to 20)
#    0.000    2.250    1.250    1.875    0.000    4.250 
#    2.250    0.625    0.000    1.500    0.000    0.000 
#    0.000    0.000    0.000    0.000    0.000    0.000 
#
# Total GULP energy -178593.808524 kJ/mol
# GULP energy per Si atom -5581.056516 kJ/mol
# Density = 1.903831 g / cm^3
# Si number density = 19.081738 Si / 1000 Ang^3
#
#
#
# Elastic Constant Matrix: (Units=GPa)
#
#
# Indices 1 2 3 4 5 6 
#
# 1 69.4585 0.4213 47.1387 0.0000 -3.6225 0.0000
# 2 0.4213 2.3165 -9.2498 0.0000 1.6352 0.0000
# 3 47.1387 -9.2498 130.4260 0.0000 -6.8300 0.0000
# 4 0.0000 0.0000 0.0000 26.3302 0.0000 -2.2960
# 5 -3.6225 1.6352 -6.8300 0.0000 39.3717 0.0000
# 6 0.0000 0.0000 0.0000 -2.2960 0.0000 13.7450
#
#
#
# Elastic Compliance Matrix: (Units=1/GPa)
#
#
# Indices 1 2 3 4 5 6 
#
# 1 0.022979 -0.053662 -0.011992 0.000000 0.002263 0.000000
# 2 -0.053662 0.740107 0.070656 0.000001 -0.023419 -0.000001
# 3 -0.011992 0.070656 0.016955 0.000000 -0.001097 0.000000
# 4 0.000000 0.000001 0.000000 0.038541 0.000000 0.006438
# 5 0.002263 -0.023419 -0.001097 0.000000 0.026390 0.000000
# 6 0.000000 -0.000001 0.000000 0.006438 0.000000 0.073829
#
#
# Mechanical properties :
#
#
# Convention : Reuss Voigt Hill
#
# Bulk Modulus (GPa) = 1.26575 30.98014 16.12295
# Shear Modulus (GPa) = 4.26569 26.81542 15.54055
#
# Velocity S-wave (km/s) = 1.49677 3.75279 2.85690
# Velocity P-wave (km/s) = 1.91099 5.92019 4.39889
#
# Compressibility (1/GPa) = 0.79004536
#
# Stress axis : x y z
#
# Youngs Moduli (GPa) = 43.51746 1.35116 58.97982
#
# Poissons Ratio (x) = 0.07251 0.70731
# Poissons Ratio (y) = 2.33522 -4.16729
# Poissons Ratio (z) = 0.52188 -0.09547
#
# Static dielectric constant tensor:
#      x y z
#    x 1.659220 0.000000 0.006320 
#    y 0.000000 1.671930 0.000000 
#    z 0.006320 0.000000 1.640030 
# 
# From -- ./inp_files/346307.got.cif
#   From: 2010.05.17/outbox.cif.g08.bks.cpg/sg12_174_cif.got.tgz:346307.got - 2010.06.03 13:09:07.
