data_PCOD9185443
_publ_section_title
;
Structure prediction by ZEFSAII (Michael W. Deem and Ramdas Pophale) SiO2 
 PCOD9185443
Probable space group: C 2/M
;
_chemical_formula_sum "Si O2"
_cell_formula_units_Z 48
_cell_length_a 19.743627
_cell_length_b 7.739401
_cell_length_c 14.227774
_cell_angle_alpha 90.000000
_cell_angle_beta 75.665963
_cell_angle_gamma 90.000000
_cell_volume 2106.377605
_symmetry_space_group_name_H-M "C 2/M"
_symmetry_group_IT_number 12
_symmetry_cell_setting 'monoclinic'
loop_
_space_group_symop_operation_xyz
x,y,z
-x,y,-z
-x,-y,-z
x,-y,z
1/2+x,1/2+y,z
1/2-x,1/2+y,-z
1/2-x,1/2-y,-z
1/2+x,1/2-y,z
loop_
_atom_site_type_symbol
_atom_site_label
_atom_site_fract_x
_atom_site_fract_y
_atom_site_fract_z
Si Si1 0.902861 0.198199 0.089136
Si Si2 0.350635 0.203228 0.430618
Si Si3 0.895687 0.788285 0.887352
Si Si4 0.530119 0.291001 0.741504
Si Si5 0.282657 0.800304 0.640643
Si Si6 0.753649 0.802309 0.854738
O O1 0.929770 0.273367 0.177873
O O2 0.818795 0.201989 0.118324
O O3 0.927607 0.000000 0.081487
O O4 0.922488 0.271344 0.980272
O O5 0.427534 0.227830 0.362994
O O6 0.335132 0.265086 0.541638
O O7 0.294257 0.289943 0.380656
O O8 0.333472 0.000000 0.436280
O O9 0.816920 0.730405 0.895155
O O10 0.950134 0.739396 0.787473
O O11 0.893535 0.000000 0.890316
O O12 0.533348 0.500000 0.737399
O O13 0.281154 0.700613 0.738315
O O14 0.298230 0.000000 0.656761
O O15 0.738848 0.000000 0.886895
#
# Coordination Sequence:
#
# PCOD9185443 Si02
#       6
#     8   8   8   8   8   8
#     4  10  19  34  57  80 105 142 187 225 262 314
#     4  10  20  34  55  82 109 134 171 224 273 315
#     4   9  20  36  53  78 111 148 183 216 262 319
#     4  10  19  34  57  81 108 143 182 219 262 318
#     4  10  20  35  55  79 106 140 178 216 265 324
#     4  11  21  34  54  80 112 143 178 225 267 310
#
# _framework density 22.787935999999998
#
# number of rings (size 3 to 8) (size 9 to 14) (size 15 to 20)
#    0.000    2.000    1.667    2.500    0.000    4.000 
#    0.000    4.167    0.000    7.000    0.000    0.000 
#    0.000    0.000    0.000    0.000    0.000    0.000 
#
# Total GULP energy -134093.424316 kJ/mol
# GULP energy per Si atom -5587.226013 kJ/mol
# Density = 2.273607 g / cm^3
# Si number density = 22.787936 Si / 1000 Ang^3
#
#
#
# Elastic Constant Matrix: (Units=GPa)
#
#
# Indices 1 2 3 4 5 6 
#
# 1 60.0114 -0.7823 -1.7210 0.0000 -20.0707 0.0000
# 2 -0.7823 48.9931 2.2017 0.0000 0.0709 0.0000
# 3 -1.7210 2.2017 94.2657 0.0000 -23.2547 0.0000
# 4 0.0000 0.0000 0.0000 14.1280 0.0000 -3.3194
# 5 -20.0707 0.0709 -23.2547 0.0000 36.8817 0.0000
# 6 0.0000 0.0000 0.0000 -3.3194 0.0000 13.7258
#
#
#
# Elastic Compliance Matrix: (Units=1/GPa)
#
#
# Indices 1 2 3 4 5 6 
#
# 1 0.021510 0.000149 0.003880 0.000000 0.014152 0.000000
# 2 0.000149 0.020439 -0.000550 0.000000 -0.000305 0.000000
# 3 0.003880 -0.000550 0.013279 0.000000 0.010485 0.000000
# 4 0.000000 0.000000 0.000000 0.075046 0.000000 0.018149
# 5 0.014152 -0.000305 0.010485 0.000000 0.041427 0.000000
# 6 0.000000 0.000000 0.000000 0.018149 0.000000 0.077245
#
#
# Mechanical properties :
#
#
# Convention : Reuss Voigt Hill
#
# Bulk Modulus (GPa) = 16.08106 22.51856 19.29981
# Shear Modulus (GPa) = 19.03210 26.51856 22.77533
#
# Velocity S-wave (km/s) = 2.89309 3.41502 3.16483
# Velocity P-wave (km/s) = 4.26991 5.04510 4.67361
#
# Compressibility (1/GPa) = 0.06218495
#
# Stress axis : x y z
#
# Youngs Moduli (GPa) = 46.49060 48.92708 75.30905
#
# Poissons Ratio (x) = -0.00727 -0.29223
# Poissons Ratio (y) = -0.00691 0.04142
# Poissons Ratio (z) = -0.18040 0.02691
#
# Static dielectric constant tensor:
#      x y z
#    x 1.839050 0.000000 -0.014190 
#    y 0.000000 1.849650 0.000000 
#    z -0.014190 0.000000 1.869850 
# 
# From -- ./inp_files/229848.got.cif
#   From: 2010.05.17/outbox.cif.g08.bks.cpg/sg12_115_cif.got.tgz:229848.got - 2010.06.03 13:09:07.
