data_PCOD9185184
_publ_section_title
;
Structure prediction by ZEFSAII (Michael W. Deem and Ramdas Pophale) SiO2 
 PCOD9185184
Probable space group: C 2/M
;
_chemical_formula_sum "Si O2"
_cell_formula_units_Z 56
_cell_length_a 20.265564
_cell_length_b 19.277364
_cell_length_c 28.731165
_cell_angle_alpha 90.000000
_cell_angle_beta 162.036388
_cell_angle_gamma 90.000000
_cell_volume 3461.721693
_symmetry_space_group_name_H-M "C 2/M"
_symmetry_group_IT_number 12
_symmetry_cell_setting 'monoclinic'
loop_
_space_group_symop_operation_xyz
x,y,z
-x,y,-z
-x,-y,-z
x,-y,z
1/2+x,1/2+y,z
1/2-x,1/2+y,-z
1/2-x,1/2-y,-z
1/2+x,1/2-y,z
loop_
_atom_site_type_symbol
_atom_site_label
_atom_site_fract_x
_atom_site_fract_y
_atom_site_fract_z
Si Si1 0.694775 0.920465 0.378644
Si Si2 0.746224 0.222717 0.550604
Si Si3 0.336980 0.423733 0.580614
Si Si4 0.452759 0.804403 0.081650
Si Si5 0.833210 0.580488 0.929006
Si Si6 0.115121 0.695382 0.852773
Si Si7 0.457048 0.690921 0.418536
O O1 0.741645 0.919809 0.465035
O O2 0.471992 0.879743 0.221439
O O3 0.890577 0.876677 0.487043
O O4 0.690472 0.000000 0.359404
O O5 0.750000 0.250000 0.500000
O O6 0.753590 0.140267 0.554201
O O7 0.540584 0.253770 0.437578
O O8 0.944100 0.253360 0.713074
O O9 0.291971 0.500000 0.570156
O O10 0.593049 0.416352 0.748225
O O11 0.410281 0.807647 0.108461
O O12 0.704617 0.815759 0.243140
O O13 0.347821 0.866234 0.981428
O O14 0.343915 0.730487 0.994609
O O15 0.876246 0.500000 0.971550
O O16 0.000000 0.598852 0.000000
O O17 0.500000 0.714625 0.500000
#
# Coordination Sequence:
#
# PCOD9185184 Si02
#       7
#     8   8   8   8   8   8   8
#     4  10  20  36  57  82 116 149 183 226 279 346
#     4  11  19  36  58  78 107 146 189 231 266 336
#     4  10  19  34  56  80 106 144 188 229 271 324
#     4  11  21  35  53  79 116 149 181 232 274 330
#     4  10  21  33  50  80 116 148 179 219 276 342
#     4  10  21  35  54  80 110 148 192 222 277 335
#     4  11  21  35  53  85 112 144 185 227 283 330
#
# _framework density 16.176922000000001
#
# number of rings (size 3 to 8) (size 9 to 14) (size 15 to 20)
#    0.000    1.571    7.143    0.857    0.000    2.571 
#    0.000    0.000    0.000    1.286    0.000    2.000 
#    0.000    0.000    0.000    0.000    0.000    0.000 
#
# Total GULP energy -155927.203894 kJ/mol
# GULP energy per Si atom -5568.828710 kJ/mol
# Density = 1.614010 g / cm^3
# Si number density = 16.176922 Si / 1000 Ang^3
#
#
#
# Elastic Constant Matrix: (Units=GPa)
#
#
# Indices 1 2 3 4 5 6 
#
# 1 57.9856 46.2097 7.4848 0.0325 -14.4707 -0.0072
# 2 46.2097 128.9416 33.8357 0.0150 0.7471 -0.0022
# 3 7.4848 33.8357 66.1950 0.0827 -9.5443 -0.0256
# 4 0.0325 0.0150 0.0827 10.5959 -0.0125 -3.6954
# 5 -14.4707 0.7471 -9.5443 -0.0125 22.4385 0.0096
# 6 -0.0072 -0.0022 -0.0256 -3.6954 0.0096 18.3795
#
#
#
# Elastic Compliance Matrix: (Units=1/GPa)
#
#
# Indices 1 2 3 4 5 6 
#
# 1 0.033960 -0.014171 0.007063 -0.000114 0.025377 -0.000015
# 2 -0.014171 0.014992 -0.007938 0.000071 -0.013014 0.000006
# 3 0.007063 -0.007938 0.020306 -0.000156 0.013456 -0.000008
# 4 -0.000114 0.000071 -0.000156 0.101494 -0.000095 0.020406
# 5 0.025377 -0.013014 0.013456 -0.000095 0.067089 -0.000027
# 6 -0.000015 0.000006 -0.000008 0.020406 -0.000027 0.058511
#
#
# Mechanical properties :
#
#
# Convention : Reuss Voigt Hill
#
# Bulk Modulus (GPa) = 25.53181 47.57585 36.55383
# Shear Modulus (GPa) = 14.72754 21.32225 18.02490
#
# Velocity S-wave (km/s) = 3.02056 3.63446 3.34164
# Velocity P-wave (km/s) = 5.28982 6.86192 6.12650
#
# Compressibility (1/GPa) = 0.03916683
#
# Stress axis : x y z
#
# Youngs Moduli (GPa) = 29.44632 66.70105 49.24659
#
# Poissons Ratio (x) = 0.94521 -0.34781
# Poissons Ratio (y) = 0.41728 0.39090
# Poissons Ratio (z) = -0.20797 0.52944
#
# Static dielectric constant tensor:
#      x y z
#    x 1.523230 -0.000010 -0.006530 
#    y -0.000010 1.573070 -0.000040 
#    z -0.006530 -0.000040 1.567830 
# 
# From -- ./inp_files/344783.got.cif
#   From: 2010.05.17/outbox.cif.g08.bks.cpg/sg12_173_cif.got.tgz:344783.got - 2010.06.03 13:09:07.
