data_PCOD9185068
_publ_section_title
;
Structure prediction by ZEFSAII (Michael W. Deem and Ramdas Pophale) SiO2 
 PCOD9185068
Probable space group: C 2/M
;
_chemical_formula_sum "Si O2"
_cell_formula_units_Z 36
_cell_length_a 13.389036
_cell_length_b 14.315380
_cell_length_c 11.782177
_cell_angle_alpha 90.000000
_cell_angle_beta 122.141572
_cell_angle_gamma 90.000000
_cell_volume 1912.167029
_symmetry_space_group_name_H-M "C 2/M"
_symmetry_group_IT_number 12
_symmetry_cell_setting 'monoclinic'
loop_
_space_group_symop_operation_xyz
x,y,z
-x,y,-z
-x,-y,-z
x,-y,z
1/2+x,1/2+y,z
1/2-x,1/2+y,-z
1/2-x,1/2-y,-z
1/2+x,1/2-y,z
loop_
_atom_site_type_symbol
_atom_site_label
_atom_site_fract_x
_atom_site_fract_y
_atom_site_fract_z
Si Si1 0.203303 0.606106 0.484667
Si Si2 0.244144 0.710213 0.869446
Si Si3 0.471952 0.895442 0.188723
Si Si4 0.000000 0.250029 0.000000
Si Si5 0.641151 0.717862 0.591562
O O1 0.222701 0.500000 0.534842
O O2 0.303398 0.640105 0.457181
O O3 0.190727 0.683124 0.574662
O O4 0.080339 0.610012 0.341317
O O5 0.149308 0.627598 0.819347
O O6 0.190085 0.785823 0.749035
O O7 0.250000 0.750000 0.000000
O O8 0.379360 0.691934 0.917876
O O9 0.491488 0.818350 0.103611
O O10 0.468177 0.000000 0.138309
O O11 0.500000 0.716877 0.500000
#
# Coordination Sequence:
#
# PCOD9185068 Si02
#       5
#     8   8   8   4   8
#     4  10  22  36  57  86 114 147 190 233 282 333
#     4  10  21  35  56  85 111 149 185 227 279 336
#     4  10  19  34  55  84 110 143 190 233 272 330
#     4  10  19  36  57  76 114 152 184 222 277 336
#     4  11  21  38  60  82 117 150 187 234 284 333
#
# _framework density 18.826805
#
# number of rings (size 3 to 8) (size 9 to 14) (size 15 to 20)
#    0.000    1.778    4.444    0.333    0.000    1.778 
#    0.000    0.556    0.000    5.333    0.000    0.000 
#    0.000    0.000    0.000    0.000    0.000    0.000 
#
# Total GULP energy -100383.174695 kJ/mol
# GULP energy per Si atom -5576.843039 kJ/mol
# Density = 1.878395 g / cm^3
# Si number density = 18.826805 Si / 1000 Ang^3
#
#
#
# Elastic Constant Matrix: (Units=GPa)
#
#
# Indices 1 2 3 4 5 6 
#
# 1 127.8260 21.8858 31.5660 0.0000 24.2937 0.0000
# 2 21.8858 61.8779 -7.1682 0.0000 2.6169 0.0000
# 3 31.5660 -7.1682 60.1212 0.0000 4.3051 0.0000
# 4 0.0000 0.0000 0.0000 8.3184 0.0000 -5.0855
# 5 24.2937 2.6169 4.3051 0.0000 27.6538 0.0000
# 6 0.0000 0.0000 0.0000 -5.0855 0.0000 8.1050
#
#
#
# Elastic Compliance Matrix: (Units=1/GPa)
#
#
# Indices 1 2 3 4 5 6 
#
# 1 0.011809 -0.004502 -0.006092 0.000000 -0.008999 0.000000
# 2 -0.004502 0.018200 0.004423 0.000000 0.001544 0.000000
# 3 -0.006092 0.004423 0.020231 0.000000 0.001784 0.000000
# 4 0.000000 0.000000 0.000000 0.195024 0.000000 0.122367
# 5 -0.008999 0.001544 0.001784 0.000000 0.043643 0.000000
# 6 0.000000 0.000000 0.000000 0.122367 0.000000 0.200159
#
#
# Mechanical properties :
#
#
# Convention : Reuss Voigt Hill
#
# Bulk Modulus (GPa) = 26.38656 38.04361 32.21508
# Shear Modulus (GPa) = 9.72684 22.38489 16.05586
#
# Velocity S-wave (km/s) = 2.27546 3.45191 2.92348
# Velocity P-wave (km/s) = 4.57706 6.01154 5.34266
#
# Compressibility (1/GPa) = 0.03789808
#
# Stress axis : x y z
#
# Youngs Moduli (GPa) = 84.68276 54.94433 49.42806
#
# Poissons Ratio (x) = 0.24735 0.30114
# Poissons Ratio (y) = 0.38123 -0.21862
# Poissons Ratio (z) = 0.51592 -0.24302
#
# Static dielectric constant tensor:
#      x y z
#    x 1.682220 0.000000 -0.015150 
#    y 0.000000 1.627710 0.000000 
#    z -0.015150 0.000000 1.664730 
# 
# From -- ./inp_files/129020.got.cif
#   From: 2010.05.17/outbox.cif.g08.bks.cpg/sg12_65_cif.got.tgz:129020.got - 2010.06.03 13:09:07.
