data_PCOD9185748
_publ_section_title
;
Structure prediction by ZEFSAII (Michael W. Deem and Ramdas Pophale) SiO2 
 PCOD9185748
Probable space group: C 2/M
;
_chemical_formula_sum "Si O2"
_cell_formula_units_Z 60
_cell_length_a 23.754531
_cell_length_b 21.796921
_cell_length_c 11.715879
_cell_angle_alpha 90.000000
_cell_angle_beta 153.055479
_cell_angle_gamma 90.000000
_cell_volume 2748.760745
_symmetry_space_group_name_H-M "C 2/M"
_symmetry_group_IT_number 12
_symmetry_cell_setting 'monoclinic'
loop_
_space_group_symop_operation_xyz
x,y,z
-x,y,-z
-x,-y,-z
x,-y,z
1/2+x,1/2+y,z
1/2-x,1/2+y,-z
1/2-x,1/2-y,-z
1/2+x,1/2-y,z
loop_
_atom_site_type_symbol
_atom_site_label
_atom_site_fract_x
_atom_site_fract_y
_atom_site_fract_z
Si Si1 0.654412 0.569396 0.040352
Si Si2 0.802986 0.654632 0.148047
Si Si3 0.877660 0.779858 0.353219
Si Si4 0.102983 0.429676 0.868958
Si Si5 0.628419 0.931315 0.401634
Si Si6 0.266062 0.158628 0.708926
Si Si7 0.000000 0.336400 0.000000
Si Si8 0.587318 0.570885 0.265717
O O1 0.680552 0.500000 0.046021
O O2 0.733526 0.575909 0.300510
O O3 0.702053 0.621076 0.042790
O O4 0.509269 0.573989 0.803436
O O5 0.734021 0.692820 0.924261
O O6 0.877037 0.602985 0.214588
O O7 0.876722 0.705834 0.352027
O O8 0.836938 0.802756 0.405872
O O9 0.000000 0.798088 0.500000
O O10 0.146381 0.500000 0.946502
O O11 0.175745 0.391145 0.097675
O O12 0.959471 0.429187 0.645727
O O13 0.573832 0.880315 0.220708
O O14 0.613385 0.000000 0.324887
O O15 0.385858 0.193205 0.867741
O O16 0.193925 0.119206 0.483476
O O17 0.630756 0.500000 0.335746
O O18 0.500000 0.583986 0.000000
#
# Coordination Sequence:
#
# PCOD9185748 Si02
#       8
#     8   8   8   8   8   8   4   8
#     4  10  20  33  53  84 116 147 184 230 288 350
#     4  10  21  36  57  83 109 149 191 241 290 340
#     4  10  22  39  59  82 109 153 202 241 283 340
#     4   9  18  32  53  86 120 148 183 231 289 348
#     4   9  18  30  49  82 118 151 184 223 277 343
#     4  10  20  36  58  85 118 154 196 237 282 338
#     4  10  19  34  58  80 114 152 191 240 280 332
#     4  10  20  34  56  84 117 154 189 229 284 349
#
# _framework density 21.828018
#
# number of rings (size 3 to 8) (size 9 to 14) (size 15 to 20)
#    0.000    2.267    0.000    2.600    1.867    2.667 
#    0.000    2.000    1.467    8.000    0.000    0.000 
#    0.000    0.000    0.000    0.000    0.000    0.000 
#
# Total GULP energy -167323.364234 kJ/mol
# GULP energy per Si atom -5577.445474 kJ/mol
# Density = 2.177834 g / cm^3
# Si number density = 21.828018 Si / 1000 Ang^3
#
#
#
# Elastic Constant Matrix: (Units=GPa)
#
#
# Indices 1 2 3 4 5 6 
#
# 1 129.5479 41.5192 21.2199 0.0000 28.8279 0.0000
# 2 41.5192 54.2257 5.5421 0.0000 7.2038 0.0000
# 3 21.2199 5.5421 32.4645 0.0000 17.7860 0.0000
# 4 0.0000 0.0000 0.0000 13.5116 0.0000 7.3133
# 5 28.8279 7.2038 17.7860 0.0000 39.7643 0.0000
# 6 0.0000 0.0000 0.0000 7.3133 0.0000 26.4501
#
#
#
# Elastic Compliance Matrix: (Units=1/GPa)
#
#
# Indices 1 2 3 4 5 6 
#
# 1 0.012211 -0.008227 -0.003369 0.000000 -0.005855 0.000000
# 2 -0.008227 0.024518 0.000474 0.000000 0.001311 0.000000
# 3 -0.003369 0.000474 0.041901 0.000000 -0.016385 0.000000
# 4 0.000000 0.000000 0.000000 0.087036 0.000000 -0.024065
# 5 -0.005855 0.001311 -0.016385 0.000000 0.036484 0.000000
# 6 0.000000 0.000000 0.000000 -0.024065 0.000000 0.044461
#
#
# Mechanical properties :
#
#
# Convention : Reuss Voigt Hill
#
# Bulk Modulus (GPa) = 17.73527 39.20008 28.46768
# Shear Modulus (GPa) = 17.38221 25.80902 21.59561
#
# Velocity S-wave (km/s) = 2.82499 3.44231 3.14881
# Velocity P-wave (km/s) = 4.33398 5.81351 5.12739
#
# Compressibility (1/GPa) = 0.05638483
#
# Stress axis : x y z
#
# Youngs Moduli (GPa) = 81.89570 40.78598 23.86588
#
# Poissons Ratio (x) = 0.33556 0.08041
# Poissons Ratio (y) = 0.67377 -0.01131
# Poissons Ratio (z) = 0.27592 -0.01933
#
# Static dielectric constant tensor:
#      x y z
#    x 1.882140 0.000000 0.032580 
#    y 0.000000 1.783980 0.000000 
#    z 0.032580 0.000000 1.799510 
# 
# From -- ./inp_files/178033.got.cif
#   From: 2010.05.17/outbox.cif.g08.bks.cpg/sg12_90_cif.got.tgz:178033.got - 2010.06.03 13:09:07.
