data_PCOD9185432
_publ_section_title
;
Structure prediction by ZEFSAII (Michael W. Deem and Ramdas Pophale) SiO2 
 PCOD9185432
Probable space group: C 2/M
;
_chemical_formula_sum "Si O2"
_cell_formula_units_Z 64
_cell_length_a 20.338189
_cell_length_b 7.420018
_cell_length_c 24.794062
_cell_angle_alpha 90.000000
_cell_angle_beta 129.655140
_cell_angle_gamma 90.000000
_cell_volume 2880.705935
_symmetry_space_group_name_H-M "C 2/M"
_symmetry_group_IT_number 12
_symmetry_cell_setting 'monoclinic'
loop_
_space_group_symop_operation_xyz
x,y,z
-x,y,-z
-x,-y,-z
x,-y,z
1/2+x,1/2+y,z
1/2-x,1/2+y,-z
1/2-x,1/2-y,-z
1/2+x,1/2-y,z
loop_
_atom_site_type_symbol
_atom_site_label
_atom_site_fract_x
_atom_site_fract_y
_atom_site_fract_z
Si Si1 0.166638 0.716714 0.233211
Si Si2 0.973613 0.717647 0.122321
Si Si3 0.590419 0.779637 0.382371
Si Si4 0.065001 0.709194 0.489639
Si Si5 0.759488 0.718350 0.613531
Si Si6 0.436171 0.220203 0.223937
Si Si7 0.588953 0.710157 0.024578
Si Si8 0.755264 0.287641 0.170796
O O1 0.162405 0.500000 0.233206
O O2 0.194933 0.777324 0.307212
O O3 0.233216 0.767328 0.221951
O O4 0.071893 0.779750 0.167282
O O5 0.973309 0.500000 0.121076
O O6 0.943868 0.775596 0.165834
O O7 0.916346 0.778878 0.042560
O O8 0.568075 0.714353 0.430588
O O9 0.682003 0.723115 0.406255
O O10 0.517348 0.724903 0.301912
O O11 0.592182 0.000000 0.384744
O O12 0.039224 0.500000 0.469673
O O13 0.162472 0.717961 0.560608
O O14 0.000000 0.787610 0.500000
O O15 0.757657 0.500000 0.612502
O O16 0.347456 0.284411 0.202851
O O17 0.438173 0.000000 0.225380
O O18 0.588345 0.500000 0.040416
O O19 0.500000 0.790578 0.000000
O O20 0.674576 0.788698 0.095368
O O21 0.759592 0.500000 0.160416
#
# Coordination Sequence:
#
# PCOD9185432 Si02
#       8
#     8   8   8   8   8   8   8   8
#     4  10  20  34  54  80 106 134 179 228 265 310
#     4  10  19  34  57  80 101 135 185 227 260 313
#     4   9  17  34  57  78 106 141 177 221 265 310
#     4  10  22  36  54  85 115 139 176 222 262 308
#     4  10  20  36  58  79 105 145 180 215 268 319
#     4   9  18  34  56  80 104 137 182 223 264 317
#     4  10  20  34  50  76 113 144 174 218 273 326
#     4  10  21  35  55  79 106 144 181 216 269 327
#
# _framework density 22.216777
#
# number of rings (size 3 to 8) (size 9 to 14) (size 15 to 20)
#    0.000    2.250    2.500    0.375    1.750    2.000 
#    0.000    0.625    0.000    1.500    0.000    0.000 
#    0.000    0.000    0.000    0.000    0.000    0.000 
#
# Total GULP energy -178801.076452 kJ/mol
# GULP energy per Si atom -5587.533639 kJ/mol
# Density = 2.216621 g / cm^3
# Si number density = 22.216777 Si / 1000 Ang^3
#
#
#
# Elastic Constant Matrix: (Units=GPa)
#
#
# Indices 1 2 3 4 5 6 
#
# 1 188.2411 -3.2830 54.9924 0.0000 -3.8654 0.0000
# 2 -3.2830 67.7555 -7.6159 0.0000 5.7929 0.0000
# 3 54.9924 -7.6159 101.7446 0.0000 -14.6733 0.0000
# 4 0.0000 0.0000 0.0000 21.2106 0.0000 -21.5598
# 5 -3.8654 5.7929 -14.6733 0.0000 30.2953 0.0000
# 6 0.0000 0.0000 0.0000 -21.5598 0.0000 18.6240
#
#
#
# Elastic Compliance Matrix: (Units=1/GPa)
#
#
# Indices 1 2 3 4 5 6 
#
# 1 0.006332 -0.000015 -0.003555 0.000000 -0.000911 0.000000
# 2 -0.000015 0.015060 0.000774 0.000000 -0.002507 0.000000
# 3 -0.003555 0.000774 0.012601 0.000000 0.005502 0.000000
# 4 0.000000 0.000000 0.000000 -0.266815 0.000000 -0.308875
# 5 -0.000911 -0.002507 0.005502 0.000000 0.036036 0.000000
# 6 0.000000 0.000000 0.000000 -0.308875 0.000000 -0.303871
#
#
# Mechanical properties :
#
#
# Convention : Reuss Voigt Hill
#
# Bulk Modulus (GPa) = 35.21027 49.54757 42.37892
# Shear Modulus (GPa) = -10.29658 34.93581 12.31962
#
# Velocity S-wave (km/s) = -2.15515 3.96977 2.35738
# Velocity P-wave (km/s) = 3.11288 6.58502 5.15036
#
# Compressibility (1/GPa) = 0.02840080
#
# Stress axis : x y z
#
# Youngs Moduli (GPa) = 157.93113 66.40319 79.35704
#
# Poissons Ratio (x) = 0.00099 0.28210
# Poissons Ratio (y) = 0.00235 -0.06141
# Poissons Ratio (z) = 0.56142 -0.05138
#
# Static dielectric constant tensor:
#      x y z
#    x 1.797310 0.000000 -0.002600 
#    y 0.000000 1.865510 0.000000 
#    z -0.002600 0.000000 1.779490 
# 
# From -- ./inp_files/346121.got.cif
#   From: 2010.05.17/outbox.cif.g08.bks.cpg/sg12_174_cif.got.tgz:346121.got - 2010.06.03 13:09:07.
