data_PCOD9185914
_publ_section_title
;
Structure prediction by ZEFSAII (Michael W. Deem and Ramdas Pophale) SiO2 
 PCOD9185914
Probable space group: C 2/M
;
_chemical_formula_sum "Si O2"
_cell_formula_units_Z 56
_cell_length_a 18.796450
_cell_length_b 14.904150
_cell_length_c 14.683629
_cell_angle_alpha 90.000000
_cell_angle_beta 144.884679
_cell_angle_gamma 90.000000
_cell_volume 2366.210908
_symmetry_space_group_name_H-M "C 2/M"
_symmetry_group_IT_number 12
_symmetry_cell_setting 'monoclinic'
loop_
_space_group_symop_operation_xyz
x,y,z
-x,y,-z
-x,-y,-z
x,-y,z
1/2+x,1/2+y,z
1/2-x,1/2+y,-z
1/2-x,1/2-y,-z
1/2+x,1/2-y,z
loop_
_atom_site_type_symbol
_atom_site_label
_atom_site_fract_x
_atom_site_fract_y
_atom_site_fract_z
Si Si1 0.252384 0.855631 0.585649
Si Si2 0.344632 0.392938 0.972445
Si Si3 0.286780 0.893300 0.977083
Si Si4 0.613291 0.330347 0.262389
Si Si5 0.636090 0.603203 0.652302
Si Si6 0.970534 0.603251 0.678674
Si Si7 0.819242 0.398107 0.357117
O O1 0.318905 0.763619 0.684909
O O2 0.137966 0.843769 0.396064
O O3 0.203769 0.898992 0.626285
O O4 0.357153 0.899195 0.631260
O O5 0.363055 0.500000 0.973225
O O6 0.230602 0.360864 0.790053
O O7 0.307752 0.385461 0.038824
O O8 0.471687 0.341388 0.088362
O O9 0.226188 0.855608 0.822519
O O10 0.312561 0.000000 0.987173
O O11 0.414830 0.853000 0.149078
O O12 0.695992 0.398558 0.290723
O O13 0.500000 0.645234 0.500000
O O14 0.614549 0.500000 0.660960
O O15 0.004988 0.500000 0.693342
O O16 0.921704 0.643946 0.532071
O O17 0.858329 0.500000 0.379714
#
# Coordination Sequence:
#
# PCOD9185914 Si02
#       7
#     8   8   8   8   8   8   8
#     4  10  21  36  56  78 114 153 185 229 281 337
#     4  10  19  34  58  86 114 144 187 244 291 327
#     4   9  19  34  54  83 115 145 183 232 281 336
#     4  10  20  35  54  79 114 145 187 234 284 340
#     4  10  20  36  60  88 113 144 190 236 281 333
#     4   9  18  35  56  81 113 149 189 228 280 344
#     4   9  18  33  57  83 108 142 188 241 289 334
#
# _framework density 23.666529000000001
#
# number of rings (size 3 to 8) (size 9 to 14) (size 15 to 20)
#    0.000    2.429    0.000    2.143    0.000    5.143 
#    5.143    5.714    9.429    0.000    0.000    0.000 
#    0.000    0.000    0.000    0.000    0.000    0.000 
#
# Total GULP energy -156292.855666 kJ/mol
# GULP energy per Si atom -5581.887702 kJ/mol
# Density = 2.361266 g / cm^3
# Si number density = 23.666529 Si / 1000 Ang^3
#
#
#
# Elastic Constant Matrix: (Units=GPa)
#
#
# Indices 1 2 3 4 5 6 
#
# 1 51.1251 4.7960 38.1115 0.0000 -13.9492 0.0000
# 2 4.7960 54.7004 11.9403 0.0000 -6.6109 0.0000
# 3 38.1115 11.9403 178.5320 0.0000 -1.0878 0.0000
# 4 0.0000 0.0000 0.0000 4.6581 0.0000 -0.5055
# 5 -13.9492 -6.6109 -1.0878 0.0000 32.3024 0.0000
# 6 0.0000 0.0000 0.0000 -0.5055 0.0000 -20.0599
#
#
#
# Elastic Compliance Matrix: (Units=1/GPa)
#
#
# Indices 1 2 3 4 5 6 
#
# 1 0.026912 0.000271 -0.005693 0.000000 0.011485 0.000000
# 2 0.000271 0.019022 -0.001306 0.000000 0.003966 0.000000
# 3 -0.005693 -0.001306 0.006889 0.000000 -0.002494 0.000000
# 4 0.000000 0.000000 0.000000 0.214097 0.000000 -0.005395
# 5 0.011485 0.003966 -0.002494 0.000000 0.036645 0.000000
# 6 0.000000 0.000000 0.000000 -0.005395 0.000000 -0.049715
#
#
# Mechanical properties :
#
#
# Convention : Reuss Voigt Hill
#
# Bulk Modulus (GPa) = 25.40190 43.78368 34.59279
# Shear Modulus (GPa) = 17.82991 18.68076 18.25533
#
# Velocity S-wave (km/s) = 2.74776 2.81255 2.78034
# Velocity P-wave (km/s) = 4.56327 5.39330 4.99556
#
# Compressibility (1/GPa) = 0.03936714
#
# Stress axis : x y z
#
# Youngs Moduli (GPa) = 37.15799 52.57068 145.16519
#
# Poissons Ratio (x) = -0.01426 0.82644
# Poissons Ratio (y) = -0.01008 0.18958
# Poissons Ratio (z) = 0.21155 0.06865
#
# Static dielectric constant tensor:
#      x y z
#    x 1.837960 0.000000 -0.003760 
#    y 0.000000 1.932960 0.000000 
#    z -0.003760 0.000000 1.940360 
# 
# From -- ./inp_files/234732.got.cif
#   From: 2010.05.17/outbox.cif.g08.bks.cpg/sg12_118_cif.got.tgz:234732.got - 2010.06.03 13:09:07.
