data_PCOD9185699
_publ_section_title
;
Structure prediction by ZEFSAII (Michael W. Deem and Ramdas Pophale) SiO2 
 PCOD9185699
Probable space group: C 2/M
;
_chemical_formula_sum "Si O2"
_cell_formula_units_Z 56
_cell_length_a 25.222449
_cell_length_b 8.781231
_cell_length_c 13.995289
_cell_angle_alpha 90.000000
_cell_angle_beta 111.028366
_cell_angle_gamma 90.000000
_cell_volume 2893.301334
_symmetry_space_group_name_H-M "C 2/M"
_symmetry_group_IT_number 12
_symmetry_cell_setting 'monoclinic'
loop_
_space_group_symop_operation_xyz
x,y,z
-x,y,-z
-x,-y,-z
x,-y,z
1/2+x,1/2+y,z
1/2-x,1/2+y,-z
1/2-x,1/2-y,-z
1/2+x,1/2-y,z
loop_
_atom_site_type_symbol
_atom_site_label
_atom_site_fract_x
_atom_site_fract_y
_atom_site_fract_z
Si Si1 0.845808 0.682802 0.816257
Si Si2 0.285726 0.669550 0.605050
Si Si3 0.059066 0.816772 0.588893
Si Si4 0.920915 0.183488 0.181858
Si Si5 0.463747 0.819934 0.795839
Si Si6 0.811045 0.316461 0.009224
Si Si7 0.093011 0.827994 0.415259
O O1 0.846840 0.500000 0.810049
O O2 0.798823 0.743143 0.711453
O O3 0.909974 0.732974 0.826310
O O4 0.827897 0.726071 0.911233
O O5 0.263576 0.500000 0.609703
O O6 0.250000 0.750000 0.500000
O O7 0.347612 0.659586 0.597888
O O8 0.070064 0.760995 0.702375
O O9 0.101947 0.779144 0.530501
O O10 0.000000 0.770906 0.500000
O O11 0.059075 0.000000 0.598015
O O12 0.862147 0.251283 0.106129
O O13 0.975383 0.238983 0.155495
O O14 0.918932 0.000000 0.178495
O O15 0.444046 0.781653 0.674661
O O16 0.470979 0.000000 0.814276
O O17 0.809364 0.500000 0.014340
O O18 0.750000 0.250000 0.000000
O O19 0.066687 0.000000 0.397470
#
# Coordination Sequence:
#
# PCOD9185699 Si02
#       7
#     8   8   8   8   8   8   8
#     4   9  21  41  63  83 114 158 197 242 303 362
#     4  10  20  33  55  85 117 150 194 245 294 351
#     4   9  16  30  54  81 113 152 189 225 278 346
#     4  11  22  37  60  89 121 160 202 244 293 354
#     4  10  19  34  57  87 118 149 189 239 294 350
#     4  11  25  46  66  86 115 153 201 253 303 360
#     4   9  17  32  52  77 110 151 190 232 283 343
#
# _framework density 19.355052000000001
#
# number of rings (size 3 to 8) (size 9 to 14) (size 15 to 20)
#    0.000    2.143    1.429    1.714    0.000    4.000 
#    0.000    7.857    0.000    0.000    0.000    0.000 
#    0.000    0.000    0.000    0.000    0.000    0.000 
#
# Total GULP energy -156031.543133 kJ/mol
# GULP energy per Si atom -5572.555112 kJ/mol
# Density = 1.931100 g / cm^3
# Si number density = 19.355052 Si / 1000 Ang^3
#
#
#
# Elastic Constant Matrix: (Units=GPa)
#
#
# Indices 1 2 3 4 5 6 
#
# 1 104.5220 40.9332 76.7867 0.0000 0.4587 0.0000
# 2 40.9332 43.4192 36.8823 0.0000 2.8990 0.0000
# 3 76.7867 36.8823 143.9233 0.0000 -2.1261 0.0000
# 4 0.0000 0.0000 0.0000 30.5428 0.0000 4.7043
# 5 0.4587 2.8990 -2.1261 0.0000 36.0854 0.0000
# 6 0.0000 0.0000 0.0000 4.7043 0.0000 26.7262
#
#
#
# Elastic Compliance Matrix: (Units=1/GPa)
#
#
# Indices 1 2 3 4 5 6 
#
# 1 0.019903 -0.012486 -0.007414 0.000000 0.000313 0.000000
# 2 -0.012486 0.037561 -0.003009 0.000000 -0.003036 0.000000
# 3 -0.007414 -0.003009 0.011690 0.000000 0.001025 0.000000
# 4 0.000000 0.000000 0.000000 0.033653 0.000000 -0.005924
# 5 0.000313 -0.003036 0.001025 0.000000 0.028012 0.000000
# 6 0.000000 0.000000 0.000000 -0.005924 0.000000 0.038459
#
#
# Mechanical properties :
#
#
# Convention : Reuss Voigt Hill
#
# Bulk Modulus (GPa) = 42.85310 66.78544 54.81927
# Shear Modulus (GPa) = 22.43414 27.82169 25.12792
#
# Velocity S-wave (km/s) = 3.40823 3.79547 3.60705
# Velocity P-wave (km/s) = 6.13813 7.33402 6.76256
#
# Compressibility (1/GPa) = 0.02333554
#
# Stress axis : x y z
#
# Youngs Moduli (GPa) = 50.24465 26.62350 85.54328
#
# Poissons Ratio (x) = 0.33242 0.63424
# Poissons Ratio (y) = 0.62735 0.25738
# Poissons Ratio (z) = 0.37252 0.08010
#
# Static dielectric constant tensor:
#      x y z
#    x 1.728570 0.000000 -0.022750 
#    y 0.000000 1.710700 0.000000 
#    z -0.022750 0.000000 1.689100 
# 
# From -- ./inp_files/237791.got.cif
#   From: 2010.05.17/outbox.cif.g08.bks.cpg/sg12_119_cif.got.tgz:237791.got - 2010.06.03 13:09:07.
