data_PCOD9185883
_publ_section_title
;
Structure prediction by ZEFSAII (Michael W. Deem and Ramdas Pophale) SiO2 
 PCOD9185883
Probable space group: C 2/M
;
_chemical_formula_sum "Si O2"
_cell_formula_units_Z 64
_cell_length_a 21.520270
_cell_length_b 17.088409
_cell_length_c 16.639823
_cell_angle_alpha 90.000000
_cell_angle_beta 147.220661
_cell_angle_gamma 90.000000
_cell_volume 3312.991810
_symmetry_space_group_name_H-M "C 2/M"
_symmetry_group_IT_number 12
_symmetry_cell_setting 'monoclinic'
loop_
_space_group_symop_operation_xyz
x,y,z
-x,y,-z
-x,-y,-z
x,-y,z
1/2+x,1/2+y,z
1/2-x,1/2+y,-z
1/2-x,1/2-y,-z
1/2+x,1/2-y,z
loop_
_atom_site_type_symbol
_atom_site_label
_atom_site_fract_x
_atom_site_fract_y
_atom_site_fract_z
Si Si1 0.118121 0.090633 0.869716
Si Si2 0.157204 0.356716 0.449684
Si Si3 0.264376 0.909389 0.696583
Si Si4 0.786762 0.300587 0.120663
Si Si5 0.994422 0.591800 0.398219
Si Si6 0.243689 0.357753 0.136298
Si Si7 0.874313 0.827998 0.592068
Si Si8 0.509178 0.910162 0.140936
O O1 0.193458 0.100795 0.870049
O O2 0.999390 0.135748 0.730355
O O3 0.099422 0.000000 0.864826
O O4 0.189577 0.133509 0.017074
O O5 0.123474 0.265591 0.403206
O O6 0.290980 0.359437 0.572178
O O7 0.084202 0.403036 0.303312
O O8 0.116652 0.389402 0.490461
O O9 0.231951 0.899242 0.753395
O O10 0.188142 0.855440 0.557164
O O11 0.398316 0.888603 0.826991
O O12 0.251373 0.000000 0.657770
O O13 0.904616 0.349155 0.256745
O O14 0.783961 0.232165 0.182828
O O15 0.750000 0.250000 0.000000
O O16 0.964415 0.500000 0.351585
O O17 0.000000 0.604929 0.500000
O O18 0.106060 0.360757 0.975685
O O19 0.472534 0.000000 0.087894
#
# Coordination Sequence:
#
# PCOD9185883 Si02
#       8
#     8   8   8   8   8   8   8   8
#     4  11  21  35  56  81 114 153 194 236 283 355
#     4  10  20  38  61  83 115 152 201 245 295 345
#     4  10  21  35  53  83 118 154 195 241 295 353
#     4  10  22  39  58  87 116 153 200 243 298 362
#     4  11  24  41  66  95 122 155 204 266 314 350
#     4  11  21  34  55  83 116 154 187 238 304 354
#     4  10  22  37  56  85 118 157 197 238 286 361
#     4  10  19  34  58  85 114 149 199 251 290 347
#
# _framework density 19.317886000000001
#
# number of rings (size 3 to 8) (size 9 to 14) (size 15 to 20)
#    0.000    1.625    0.000    6.375    1.750    3.000 
#    0.000    1.250    0.000    0.000    0.000    2.625 
#    0.000    0.000    0.000    0.000    0.000    0.000 
#
# Total GULP energy -178596.093288 kJ/mol
# GULP energy per Si atom -5581.127915 kJ/mol
# Density = 1.927392 g / cm^3
# Si number density = 19.317886 Si / 1000 Ang^3
#
#
#
# Elastic Constant Matrix: (Units=GPa)
#
#
# Indices 1 2 3 4 5 6 
#
# 1 60.8341 18.1087 8.7292 0.0000 1.4560 0.0000
# 2 18.1087 72.6838 16.2089 0.0000 7.0064 0.0000
# 3 8.7292 16.2089 56.8695 0.0000 14.2155 0.0000
# 4 0.0000 0.0000 0.0000 8.1469 0.0000 4.5342
# 5 1.4560 7.0064 14.2155 0.0000 24.0982 0.0000
# 6 0.0000 0.0000 0.0000 4.5342 0.0000 22.7216
#
#
#
# Elastic Compliance Matrix: (Units=1/GPa)
#
#
# Indices 1 2 3 4 5 6 
#
# 1 0.017917 -0.004165 -0.001871 0.000000 0.001232 0.000000
# 2 -0.004165 0.015753 -0.003247 0.000000 -0.002413 0.000000
# 3 -0.001871 -0.003247 0.021738 0.000000 -0.011766 0.000000
# 4 0.000000 0.000000 0.000000 0.138082 0.000000 -0.027555
# 5 0.001232 -0.002413 -0.011766 0.000000 0.049065 0.000000
# 6 0.000000 0.000000 0.000000 -0.027555 0.000000 0.049510
#
#
# Mechanical properties :
#
#
# Convention : Reuss Voigt Hill
#
# Bulk Modulus (GPa) = 27.14422 30.72010 28.93216
# Shear Modulus (GPa) = 15.48409 20.81605 18.15007
#
# Velocity S-wave (km/s) = 2.83422 3.28617 3.06853
# Velocity P-wave (km/s) = 4.97918 5.50777 5.25013
#
# Compressibility (1/GPa) = 0.03684026
#
# Stress axis : x y z
#
# Youngs Moduli (GPa) = 55.81265 63.48082 46.00243
#
# Poissons Ratio (x) = 0.26443 0.08607
# Poissons Ratio (y) = 0.23249 0.14939
# Poissons Ratio (z) = 0.10443 0.20614
#
# Static dielectric constant tensor:
#      x y z
#    x 1.710830 0.000000 -0.001080 
#    y 0.000000 1.679050 0.000000 
#    z -0.001080 0.000000 1.670680 
# 
# From -- ./inp_files/285212.got.cif
#   From: 2010.05.17/outbox.cif.g08.bks.cpg/sg12_143_cif.got.tgz:285212.got - 2010.06.03 13:09:07.
