data_PCOD9185366
_publ_section_title
;
Structure prediction by ZEFSAII (Michael W. Deem and Ramdas Pophale) SiO2 
 PCOD9185366
Probable space group: C 2/M
;
_chemical_formula_sum "Si O2"
_cell_formula_units_Z 48
_cell_length_a 20.305631
_cell_length_b 14.625058
_cell_length_c 12.099651
_cell_angle_alpha 90.000000
_cell_angle_beta 132.494956
_cell_angle_gamma 90.000000
_cell_volume 2649.432417
_symmetry_space_group_name_H-M "C 2/M"
_symmetry_group_IT_number 12
_symmetry_cell_setting 'monoclinic'
loop_
_space_group_symop_operation_xyz
x,y,z
-x,y,-z
-x,-y,-z
x,-y,z
1/2+x,1/2+y,z
1/2-x,1/2+y,-z
1/2-x,1/2-y,-z
1/2+x,1/2-y,z
loop_
_atom_site_type_symbol
_atom_site_label
_atom_site_fract_x
_atom_site_fract_y
_atom_site_fract_z
Si Si1 0.644944 0.000000 0.506043
Si Si2 0.774449 0.314060 0.354451
Si Si3 0.516851 0.795630 0.892813
Si Si4 0.272317 0.200693 0.911861
Si Si5 0.279372 0.500000 0.447279
Si Si6 0.993712 0.500000 0.179345
Si Si7 0.129918 0.819229 0.367904
Si Si8 0.783424 0.500000 0.876868
O O1 0.676407 0.089939 0.605242
O O2 0.702892 0.000000 0.456209
O O3 0.541094 0.000000 0.353278
O O4 0.768324 0.255341 0.237444
O O5 0.826850 0.260074 0.509015
O O6 0.677748 0.326700 0.302228
O O7 0.468823 0.718447 0.764975
O O8 0.477728 0.899600 0.834155
O O9 0.500000 0.771631 0.000000
O O10 0.620995 0.799146 0.984513
O O11 0.243083 0.094739 0.874960
O O12 0.250000 0.250000 0.000000
O O13 0.342227 0.411975 0.538432
O O14 0.231260 0.500000 0.273173
O O15 0.887326 0.500000 0.034465
#
# Coordination Sequence:
#
# PCOD9185366 Si02
#       8
#     4   8   8   8   4   4   8   4
#     4  10  20  30  55  93 125 151 189 250 307 352
#     4  10  19  34  56  85 121 156 193 238 294 352
#     4  11  21  36  60  89 123 151 196 251 297 349
#     4  11  24  41  61  87 121 163 199 241 299 360
#     4  10  20  33  57  88 118 155 204 247 293 346
#     4  10  21  28  56  96 120 143 187 249 308 348
#     4  10  19  34  57  87 117 151 197 246 293 338
#     4  10  22  38  61  85 115 158 206 246 287 360
#
# _framework density 18.117089
#
# number of rings (size 3 to 8) (size 9 to 14) (size 15 to 20)
#    0.000    1.667    5.000    0.250    4.667    0.667 
#    0.000    2.917    0.000    3.000    0.000    0.000 
#    0.000    0.000    0.000    0.000    0.000    0.000 
#
# Total GULP energy -133694.558273 kJ/mol
# GULP energy per Si atom -5570.606595 kJ/mol
# Density = 1.807585 g / cm^3
# Si number density = 18.117089 Si / 1000 Ang^3
#
#
#
# Elastic Constant Matrix: (Units=GPa)
#
#
# Indices 1 2 3 4 5 6 
#
# 1 46.4329 19.9927 19.2763 0.0000 -13.6462 0.0000
# 2 19.9927 142.0236 50.6899 0.0000 -3.0911 0.0000
# 3 19.2763 50.6899 82.2201 0.0000 -3.2274 0.0000
# 4 0.0000 0.0000 0.0000 38.1278 0.0000 -1.3040
# 5 -13.6462 -3.0911 -3.2274 0.0000 20.3817 0.0000
# 6 0.0000 0.0000 0.0000 -1.3040 0.0000 10.5488
#
#
#
# Elastic Compliance Matrix: (Units=1/GPa)
#
#
# Indices 1 2 3 4 5 6 
#
# 1 0.030106 -0.002014 -0.005069 0.000000 0.019049 0.000000
# 2 -0.002014 0.009167 -0.005210 0.000000 -0.000783 0.000000
# 3 -0.005069 -0.005210 0.016501 0.000000 -0.001571 0.000000
# 4 0.000000 0.000000 0.000000 0.026339 0.000000 0.003256
# 5 0.019049 -0.000783 -0.001571 0.000000 0.061450 0.000000
# 6 0.000000 0.000000 0.000000 0.003256 0.000000 0.095200
#
#
# Mechanical properties :
#
#
# Convention : Reuss Voigt Hill
#
# Bulk Modulus (GPa) = 32.06334 50.06603 41.06469
# Shear Modulus (GPa) = 18.26509 25.85951 22.06230
#
# Velocity S-wave (km/s) = 3.17861 3.78213 3.49343
# Velocity P-wave (km/s) = 5.58639 6.83867 6.24400
#
# Compressibility (1/GPa) = 0.03118826
#
# Stress axis : x y z
#
# Youngs Moduli (GPa) = 33.21559 109.08491 60.60130
#
# Poissons Ratio (x) = 0.21974 0.30717
# Poissons Ratio (y) = 0.06691 0.31574
# Poissons Ratio (z) = 0.16836 0.56835
#
# Static dielectric constant tensor:
#      x y z
#    x 1.614370 0.000000 0.019300 
#    y 0.000000 1.659150 0.000000 
#    z 0.019300 0.000000 1.631780 
# 
# From -- ./inp_files/167684.got.cif
#   From: 2010.05.17/outbox.cif.g08.bks.cpg/sg12_84_cif.got.tgz:167684.got - 2010.06.03 13:09:07.
