data_PCOD9185186
_publ_section_title
;
Structure prediction by ZEFSAII (Michael W. Deem and Ramdas Pophale) SiO2 
 PCOD9185186
Probable space group: C 2/M
;
_chemical_formula_sum "Si O2"
_cell_formula_units_Z 40
_cell_length_a 7.328184
_cell_length_b 27.172747
_cell_length_c 12.926842
_cell_angle_alpha 90.000000
_cell_angle_beta 141.693299
_cell_angle_gamma 90.000000
_cell_volume 1595.598198
_symmetry_space_group_name_H-M "C 2/M"
_symmetry_group_IT_number 12
_symmetry_cell_setting 'monoclinic'
loop_
_space_group_symop_operation_xyz
x,y,z
-x,y,-z
-x,-y,-z
x,-y,z
1/2+x,1/2+y,z
1/2-x,1/2+y,-z
1/2-x,1/2-y,-z
1/2+x,1/2-y,z
loop_
_atom_site_type_symbol
_atom_site_label
_atom_site_fract_x
_atom_site_fract_y
_atom_site_fract_z
Si Si1 0.070802 0.711628 0.147031
Si Si2 0.211461 0.384040 0.991255
Si Si3 0.813577 0.055878 0.693484
Si Si4 0.690621 0.288389 0.381255
Si Si5 0.229214 0.944352 0.679588
O O1 0.391663 0.684591 0.280079
O O2 0.115835 0.755016 0.248136
O O3 0.000000 0.729639 0.000000
O O4 0.825893 0.671482 0.065650
O O5 0.532673 0.404364 0.162627
O O6 0.000000 0.384353 0.000000
O O7 0.038109 0.418714 0.835057
O O8 0.500000 0.067078 0.500000
O O9 0.052263 0.052864 0.707659
O O10 0.794734 0.000000 0.729138
O O11 0.750000 0.250000 0.500000
O O12 0.000000 0.315414 0.500000
O O13 0.000000 0.918976 0.500000
O O14 0.281918 0.000000 0.665243
#
# Coordination Sequence:
#
# PCOD9185186 Si02
#       5
#     8   8   8   8   8
#     4  10  19  34  56  80 107 142 183 232 285 336
#     4   9  18  32  52  78 108 145 183 225 276 334
#     4   9  17  32  55  80 108 145 187 229 274 325
#     4   9  19  35  56  80 106 139 184 231 281 342
#     4   9  17  30  50  76 107 144 181 217 264 329
#
# _framework density 25.068968000000002
#
# number of rings (size 3 to 8) (size 9 to 14) (size 15 to 20)
#    0.000    2.800    0.000    1.200    0.000    4.800 
#    0.000   10.000    0.000   21.600    0.000    0.000 
#    0.000    0.000    0.000    0.000    0.000    0.000 
#
# Total GULP energy -111690.014883 kJ/mol
# GULP energy per Si atom -5584.500744 kJ/mol
# Density = 2.501191 g / cm^3
# Si number density = 25.068968 Si / 1000 Ang^3
#
#
#
# Elastic Constant Matrix: (Units=GPa)
#
#
# Indices 1 2 3 4 5 6 
#
# 1 70.6264 7.8219 16.2648 0.0000 20.9122 0.0000
# 2 7.8219 101.7148 74.7371 0.0000 10.9198 0.0000
# 3 16.2648 74.7371 196.0664 0.0000 25.8694 0.0000
# 4 0.0000 0.0000 0.0000 33.0429 0.0000 2.1154
# 5 20.9122 10.9198 25.8694 0.0000 55.0386 0.0000
# 6 0.0000 0.0000 0.0000 2.1154 0.0000 4.9247
#
#
#
# Elastic Compliance Matrix: (Units=1/GPa)
#
#
# Indices 1 2 3 4 5 6 
#
# 1 0.016017 -0.000271 -0.000458 0.000000 -0.005817 0.000000
# 2 -0.000271 0.013665 -0.005162 0.000000 -0.000182 0.000000
# 3 -0.000458 -0.005162 0.007407 0.000000 -0.002283 0.000000
# 4 0.000000 0.000000 0.000000 0.031119 0.000000 -0.013367
# 5 -0.005817 -0.000182 -0.002283 0.000000 0.021488 0.000000
# 6 0.000000 0.000000 0.000000 -0.013367 0.000000 0.208799
#
#
# Mechanical properties :
#
#
# Convention : Reuss Voigt Hill
#
# Bulk Modulus (GPa) = 39.51497 62.89504 51.20500
# Shear Modulus (GPa) = 15.68806 36.57349 26.13078
#
# Velocity S-wave (km/s) = 2.50431 3.82372 3.23206
# Velocity P-wave (km/s) = 4.91516 6.68114 5.86500
#
# Compressibility (1/GPa) = 0.02530686
#
# Stress axis : x y z
#
# Youngs Moduli (GPa) = 62.43458 73.18009 135.00027
#
# Poissons Ratio (x) = 0.01981 0.06183
# Poissons Ratio (y) = 0.01690 0.69692
# Poissons Ratio (z) = 0.02860 0.37778
#
# Static dielectric constant tensor:
#      x y z
#    x 2.049550 0.000000 0.030820 
#    y 0.000000 1.988100 0.000000 
#    z 0.030820 0.000000 2.023610 
# 
# From -- ./inp_files/41433.got.cif
#   From: 2010.05.17/outbox.cif.g08.bks.cpg/sg12_21_cif.got.tgz:41433.got - 2010.06.03 13:09:07.
