data_PCOD9185750
_publ_section_title
;
Structure prediction by ZEFSAII (Michael W. Deem and Ramdas Pophale) SiO2 
 PCOD9185750
Probable space group: C 2/M
;
_chemical_formula_sum "Si O2"
_cell_formula_units_Z 56
_cell_length_a 18.701051
_cell_length_b 8.863952
_cell_length_c 23.592054
_cell_angle_alpha 90.000000
_cell_angle_beta 53.703696
_cell_angle_gamma 90.000000
_cell_volume 3151.926911
_symmetry_space_group_name_H-M "C 2/M"
_symmetry_group_IT_number 12
_symmetry_cell_setting 'monoclinic'
loop_
_space_group_symop_operation_xyz
x,y,z
-x,y,-z
-x,-y,-z
x,-y,z
1/2+x,1/2+y,z
1/2-x,1/2+y,-z
1/2-x,1/2-y,-z
1/2+x,1/2-y,z
loop_
_atom_site_type_symbol
_atom_site_label
_atom_site_fract_x
_atom_site_fract_y
_atom_site_fract_z
Si Si1 0.011224 0.318543 0.930197
Si Si2 0.118667 0.179027 0.786418
Si Si3 0.414032 0.320132 0.502065
Si Si4 0.768266 0.818577 0.369345
Si Si5 0.075076 0.680413 0.626910
Si Si6 0.339884 0.180175 0.935237
Si Si7 0.963726 0.680868 0.782755
O O1 0.017255 0.500000 0.926733
O O2 0.096138 0.254794 0.856846
O O3 0.922653 0.276337 0.936719
O O4 0.000000 0.267377 0.000000
O O5 0.204356 0.220038 0.708448
O O6 0.038303 0.232123 0.783467
O O7 0.117308 0.000000 0.794137
O O8 0.500000 0.289010 0.500000
O O9 0.399967 0.500000 0.506480
O O10 0.327544 0.241768 0.568959
O O11 0.428222 0.257259 0.432311
O O12 0.841194 0.744409 0.376917
O O13 0.772971 0.000000 0.373068
O O14 0.084757 0.500000 0.616503
O O15 0.987384 0.710750 0.706458
O O16 0.370939 0.220060 0.856482
O O17 0.331178 0.000000 0.941942
O O18 0.250000 0.250000 0.000000
O O19 0.976742 0.500000 0.785453
#
# Coordination Sequence:
#
# PCOD9185750 Si02
#       7
#     8   8   8   8   8   8   8
#     4   9  18  33  51  70  97 134 171 204 242 294
#     4   9  17  29  49  77 102 125 160 208 252 288
#     4  11  24  39  53  73 104 138 170 207 252 302
#     4  10  20  35  56  80 104 131 168 211 253 302
#     4  10  19  34  58  81 101 130 169 212 255 300
#     4   9  17  30  48  71  98 128 163 200 241 289
#     4   8  16  31  50  72  98 130 166 202 244 295
#
# _framework density 17.766909999999999
#
# number of rings (size 3 to 8) (size 9 to 14) (size 15 to 20)
#    0.000    2.571    0.000    3.000    0.000    6.000 
#    0.000    1.429    0.000    6.857    0.000    0.000 
#    0.000    0.000    0.000    0.000    0.000    0.000 
#
# Total GULP energy -156007.850892 kJ/mol
# GULP energy per Si atom -5571.708960 kJ/mol
# Density = 1.772647 g / cm^3
# Si number density = 17.766910 Si / 1000 Ang^3
#
#
#
# Elastic Constant Matrix: (Units=GPa)
#
#
# Indices 1 2 3 4 5 6 
#
# 1 46.5984 28.5349 64.4377 0.0000 4.2819 0.0001
# 2 28.5349 35.3398 53.2404 0.0000 2.9295 0.0003
# 3 64.4377 53.2404 204.3389 0.0000 6.2611 0.0000
# 4 0.0000 0.0000 0.0000 30.6627 0.0000 2.1234
# 5 4.2819 2.9295 6.2611 0.0000 26.5078 0.0000
# 6 0.0001 0.0003 0.0000 2.1234 0.0000 19.1489
#
#
#
# Elastic Compliance Matrix: (Units=1/GPa)
#
#
# Indices 1 2 3 4 5 6 
#
# 1 0.050621 -0.027510 -0.008701 0.000000 -0.003082 0.000000
# 2 -0.027510 0.061670 -0.007374 0.000000 -0.000630 -0.000001
# 3 -0.008701 -0.007374 0.009560 0.000000 -0.000038 0.000000
# 4 0.000000 0.000000 0.000000 0.032865 0.000000 -0.003644
# 5 -0.003082 -0.000630 -0.000038 0.000000 0.038301 0.000000
# 6 0.000000 -0.000001 0.000000 -0.003644 0.000000 0.052626
#
#
# Mechanical properties :
#
#
# Convention : Reuss Voigt Hill
#
# Bulk Modulus (GPa) = 28.83316 64.30034 46.56675
# Shear Modulus (GPa) = 14.51906 24.60148 19.56027
#
# Velocity S-wave (km/s) = 2.86177 3.72517 3.32164
# Velocity P-wave (km/s) = 5.21377 7.40082 6.40139
#
# Compressibility (1/GPa) = 0.03468229
#
# Stress axis : x y z
#
# Youngs Moduli (GPa) = 19.75453 16.21523 104.60125
#
# Poissons Ratio (x) = 0.44608 0.91016
# Poissons Ratio (y) = 0.54344 0.77130
# Poissons Ratio (z) = 0.17189 0.11957
#
# Static dielectric constant tensor:
#      x y z
#    x 1.582190 0.000000 0.008440 
#    y 0.000000 1.597930 0.000000 
#    z 0.008440 0.000000 1.654230 
# 
# From -- ./inp_files/342220.got.cif
#   From: 2010.05.17/outbox.cif.g08.bks.cpg/sg12_172_cif.got.tgz:342220.got - 2010.06.03 13:09:07.
