data_PCOD9185808
_publ_section_title
;
Structure prediction by ZEFSAII (Michael W. Deem and Ramdas Pophale) SiO2 
 PCOD9185808
Probable space group: C 2/M
;
_chemical_formula_sum "Si O2"
_cell_formula_units_Z 40
_cell_length_a 13.403711
_cell_length_b 24.123533
_cell_length_c 7.157331
_cell_angle_alpha 90.000000
_cell_angle_beta 134.733536
_cell_angle_gamma 90.000000
_cell_volume 1644.040342
_symmetry_space_group_name_H-M "C 2/M"
_symmetry_group_IT_number 12
_symmetry_cell_setting 'monoclinic'
loop_
_space_group_symop_operation_xyz
x,y,z
-x,y,-z
-x,-y,-z
x,-y,z
1/2+x,1/2+y,z
1/2-x,1/2+y,-z
1/2-x,1/2-y,-z
1/2+x,1/2-y,z
loop_
_atom_site_type_symbol
_atom_site_label
_atom_site_fract_x
_atom_site_fract_y
_atom_site_fract_z
Si Si1 0.929524 0.060039 0.705022
Si Si2 0.362497 0.126271 0.128136
Si Si3 0.436731 0.219140 0.711534
Si Si4 0.366379 0.063216 0.514335
Si Si5 0.330071 0.333748 0.448983
O O1 0.760673 0.062307 0.508234
O O2 0.950638 0.121884 0.659210
O O3 0.965787 0.000000 0.663521
O O4 0.000000 0.058025 0.000000
O O5 0.446286 0.183831 0.238738
O O6 0.327003 0.101073 0.282866
O O7 0.483156 0.083845 0.213744
O O8 0.237532 0.139799 0.824812
O O9 0.394002 0.272436 0.537322
O O10 0.302995 0.179497 0.585567
O O11 0.500000 0.235400 0.000000
O O12 0.377230 0.000000 0.462124
#
# Coordination Sequence:
#
# PCOD9185808 Si02
#       5
#     8   8   8   8   8
#     4  10  21  37  59  83 110 151 196 231 277 340
#     4  10  19  35  59  86 113 146 190 228 284 345
#     4   9  18  33  57  83 115 152 183 233 281 332
#     4  10  21  38  58  83 120 152 178 236 296 327
#     4  10  19  34  58  83 113 149 191 232 277 329
#
# _framework density 24.330304999999999
#
# number of rings (size 3 to 8) (size 9 to 14) (size 15 to 20)
#    0.000    2.200    2.000    1.800    0.000    1.600 
#    0.000    7.000    0.000    3.600    0.000    0.000 
#    0.000    0.000    0.000    0.000    0.000    0.000 
#
# Total GULP energy -111567.707395 kJ/mol
# GULP energy per Si atom -5578.385370 kJ/mol
# Density = 2.427493 g / cm^3
# Si number density = 24.330305 Si / 1000 Ang^3
#
#
#
# Elastic Constant Matrix: (Units=GPa)
#
#
# Indices 1 2 3 4 5 6 
#
# 1 55.6463 16.9077 11.4665 0.0000 -6.2216 0.0000
# 2 16.9077 180.0642 72.0832 0.0000 -14.7049 0.0000
# 3 11.4665 72.0832 117.8966 0.0000 -15.7730 0.0000
# 4 0.0000 0.0000 0.0000 -7.5230 0.0000 -1.4537
# 5 -6.2216 -14.7049 -15.7730 0.0000 23.7789 0.0000
# 6 0.0000 0.0000 0.0000 -1.4537 0.0000 10.7249
#
#
#
# Elastic Compliance Matrix: (Units=1/GPa)
#
#
# Indices 1 2 3 4 5 6 
#
# 1 0.018888 -0.001233 -0.000575 0.000000 0.003798 0.000000
# 2 -0.001233 0.007498 -0.004266 0.000000 0.001485 0.000000
# 3 -0.000575 -0.004266 0.011822 0.000000 0.005053 0.000000
# 4 0.000000 0.000000 0.000000 -0.129534 0.000000 -0.017557
# 5 0.003798 0.001485 0.005053 0.000000 0.047318 0.000000
# 6 0.000000 0.000000 0.000000 -0.017557 0.000000 0.090861
#
#
# Mechanical properties :
#
#
# Convention : Reuss Voigt Hill
#
# Bulk Modulus (GPa) = 38.37189 61.61354 49.99271
# Shear Modulus (GPa) = 73.86620 22.27282 48.06951
#
# Velocity S-wave (km/s) = 5.51595 3.02890 4.44971
# Velocity P-wave (km/s) = 7.50820 6.13279 6.85507
#
# Compressibility (1/GPa) = 0.02606075
#
# Stress axis : x y z
#
# Youngs Moduli (GPa) = 52.94229 133.36198 84.58593
#
# Poissons Ratio (x) = 0.16447 0.04863
# Poissons Ratio (y) = 0.06529 0.36085
# Poissons Ratio (z) = 0.03044 0.56893
#
# Static dielectric constant tensor:
#      x y z
#    x 2.033700 0.000000 -0.004230 
#    y 0.000000 1.977380 0.000000 
#    z -0.004230 0.000000 1.959530 
# 
# From -- ./inp_files/77761.got.cif
#   From: 2010.05.17/outbox.cif.g08.bks.cpg/sg12_39_cif.got.tgz:77761.got - 2010.06.03 13:09:07.
