data_PCOD9185335
_publ_section_title
;
Structure prediction by ZEFSAII (Michael W. Deem and Ramdas Pophale) SiO2 
 PCOD9185335
Probable space group: C 2/M
;
_chemical_formula_sum "Si O2"
_cell_formula_units_Z 64
_cell_length_a 31.654896
_cell_length_b 16.403161
_cell_length_c 7.528782
_cell_angle_alpha 90.000000
_cell_angle_beta 42.713610
_cell_angle_gamma 90.000000
_cell_volume 2651.776322
_symmetry_space_group_name_H-M "C 2/M"
_symmetry_group_IT_number 12
_symmetry_cell_setting 'monoclinic'
loop_
_space_group_symop_operation_xyz
x,y,z
-x,y,-z
-x,-y,-z
x,-y,z
1/2+x,1/2+y,z
1/2-x,1/2+y,-z
1/2-x,1/2-y,-z
1/2+x,1/2-y,z
loop_
_atom_site_type_symbol
_atom_site_label
_atom_site_fract_x
_atom_site_fract_y
_atom_site_fract_z
Si Si1 0.056632 0.914515 0.460898
Si Si2 0.401519 0.244351 0.808149
Si Si3 0.718113 0.639462 0.216589
Si Si4 0.269444 0.298098 0.218028
Si Si5 0.586285 0.411622 0.757304
Si Si6 0.440851 0.772799 0.056853
Si Si7 0.355451 0.914010 0.857541
Si Si8 0.160681 0.593047 0.668155
O O1 0.043722 0.913315 0.710818
O O2 0.000000 0.919080 0.500000
O O3 0.093420 0.000000 0.318118
O O4 0.083323 0.827001 0.336494
O O5 0.333357 0.265267 0.105680
O O6 0.449163 0.221390 0.817201
O O7 0.390665 0.169632 0.707398
O O8 0.727561 0.718598 0.311725
O O9 0.657452 0.592035 0.464807
O O10 0.783905 0.593256 0.020305
O O11 0.712103 0.670349 0.034331
O O12 0.229328 0.368299 0.432907
O O13 0.579973 0.500000 0.871564
O O14 0.577426 0.322930 0.869039
O O15 0.388404 0.841638 0.260137
O O16 0.500000 0.786148 0.000000
O O17 0.354045 0.912974 0.076819
O O18 0.382543 0.000000 0.712654
O O19 0.157584 0.500000 0.606534
#
# Coordination Sequence:
#
# PCOD9185335 Si02
#       8
#     8   8   8   8   8   8   8   8
#     4  10  21  38  57  78 108 147 192 236 282 340
#     4  10  21  37  60  82 113 154 187 237 288 339
#     4  10  19  34  56  84 116 147 180 227 282 347
#     4  10  20  35  58  86 116 146 185 234 287 344
#     4  11  22  36  57  82 112 148 189 234 284 340
#     4  11  24  40  59  84 116 153 198 243 283 336
#     4   9  20  35  55  83 115 150 186 227 282 342
#     4  10  22  39  60  86 117 153 193 238 289 343
#
# _framework density 24.134765000000002
#
# number of rings (size 3 to 8) (size 9 to 14) (size 15 to 20)
#    0.000    1.875    2.500    1.125    1.750    4.000 
#    0.000    0.000    0.000    0.375    0.000    0.000 
#    0.000    0.000    0.000    0.000    0.000    0.000 
#
# Total GULP energy -178760.526073 kJ/mol
# GULP energy per Si atom -5586.266440 kJ/mol
# Density = 2.407983 g / cm^3
# Si number density = 24.134765 Si / 1000 Ang^3
#
#
#
# Elastic Constant Matrix: (Units=GPa)
#
#
# Indices 1 2 3 4 5 6 
#
# 1 117.5649 29.9080 9.0107 0.0000 -8.6185 0.0000
# 2 29.9080 228.5040 29.5421 0.0000 -19.4904 0.0000
# 3 9.0107 29.5421 29.7115 0.0000 -2.8561 0.0000
# 4 0.0000 0.0000 0.0000 34.5501 0.0000 -6.6609
# 5 -8.6185 -19.4904 -2.8561 0.0000 27.4136 0.0000
# 6 0.0000 0.0000 0.0000 -6.6609 0.0000 4.2115
#
#
#
# Elastic Compliance Matrix: (Units=1/GPa)
#
#
# Indices 1 2 3 4 5 6 
#
# 1 0.008990 -0.000771 -0.001759 0.000000 0.002095 0.000000
# 2 -0.000771 0.005359 -0.004800 0.000000 0.003068 0.000000
# 3 -0.001759 -0.004800 0.038972 0.000000 0.000094 0.000000
# 4 0.000000 0.000000 0.000000 0.041640 0.000000 0.065858
# 5 0.002095 0.003068 0.000094 0.000000 0.039328 0.000000
# 6 0.000000 0.000000 0.000000 0.065858 0.000000 0.341604
#
#
# Mechanical properties :
#
#
# Convention : Reuss Voigt Hill
#
# Bulk Modulus (GPa) = 25.86471 56.96686 41.41579
# Shear Modulus (GPa) = 9.93164 33.72301 21.82733
#
# Velocity S-wave (km/s) = 2.03077 3.74208 3.01058
# Velocity P-wave (km/s) = 4.02973 6.50582 5.41131
#
# Compressibility (1/GPa) = 0.03866271
#
# Stress axis : x y z
#
# Youngs Moduli (GPa) = 111.22989 186.58654 25.65916
#
# Poissons Ratio (x) = 0.14378 0.04513
# Poissons Ratio (y) = 0.08571 0.12317
# Poissons Ratio (z) = 0.19564 0.89566
#
# Static dielectric constant tensor:
#      x y z
#    x 1.930710 0.000000 -0.020720 
#    y 0.000000 1.961760 0.000000 
#    z -0.020720 0.000000 2.013560 
# 
# From -- ./inp_files/111952.got.cif
#   From: 2010.05.17/outbox.cif.g08.bks.cpg/sg12_56_cif.got.tgz:111952.got - 2010.06.03 13:09:07.
