data_PCOD9185606
_publ_section_title
;
Structure prediction by ZEFSAII (Michael W. Deem and Ramdas Pophale) SiO2 
 PCOD9185606
Probable space group: C 2/M
;
_chemical_formula_sum "Si O2"
_cell_formula_units_Z 56
_cell_length_a 19.234160
_cell_length_b 9.035256
_cell_length_c 21.650371
_cell_angle_alpha 90.000000
_cell_angle_beta 121.878673
_cell_angle_gamma 90.000000
_cell_volume 3195.014377
_symmetry_space_group_name_H-M "C 2/M"
_symmetry_group_IT_number 12
_symmetry_cell_setting 'monoclinic'
loop_
_space_group_symop_operation_xyz
x,y,z
-x,y,-z
-x,-y,-z
x,-y,z
1/2+x,1/2+y,z
1/2-x,1/2+y,-z
1/2-x,1/2-y,-z
1/2+x,1/2-y,z
loop_
_atom_site_type_symbol
_atom_site_label
_atom_site_fract_x
_atom_site_fract_y
_atom_site_fract_z
Si Si1 0.780704 0.674281 0.577528
Si Si2 0.171493 0.821869 0.997160
Si Si3 0.409497 0.171835 0.926345
Si Si4 0.634456 0.172730 0.559111
Si Si5 0.050325 0.175779 0.304750
Si Si6 0.506240 0.827699 0.607110
Si Si7 0.505760 0.322928 0.144487
O O1 0.787753 0.500000 0.572030
O O2 0.750000 0.750000 0.500000
O O3 0.710386 0.718922 0.592600
O O4 0.865453 0.742321 0.639712
O O5 0.087194 0.787383 0.920218
O O6 0.180748 0.000000 0.004208
O O7 0.250000 0.750000 0.000000
O O8 0.152374 0.756595 0.056627
O O9 0.427824 0.245572 0.868807
O O10 0.385838 0.000000 0.909783
O O11 0.500000 0.178097 0.000000
O O12 0.573495 0.203775 0.472916
O O13 0.581762 0.188572 0.596163
O O14 0.659893 0.000000 0.565655
O O15 0.990713 0.226401 0.331731
O O16 0.019524 0.216360 0.222239
O O17 0.062595 0.000000 0.312555
O O18 0.500738 0.000000 0.623038
O O19 0.515022 0.500000 0.141615
#
# Coordination Sequence:
#
# PCOD9185606 Si02
#       7
#     8   8   8   8   8   8   8
#     4  12  23  35  53  78 105 137 179 226 271 319
#     4  10  19  34  57  84 113 145 182 222 264 316
#     4   9  17  31  54  82 109 139 178 220 261 312
#     4   9  18  34  54  76 102 133 174 224 273 322
#     4  11  22  36  55  79 108 142 180 224 273 323
#     4   9  18  33  54  77 103 136 173 218 272 323
#     4   9  20  37  55  78 110 146 180 218 268 322
#
# _framework density 17.527307
#
# number of rings (size 3 to 8) (size 9 to 14) (size 15 to 20)
#    0.000    2.143    1.429    3.429    0.000    4.000 
#    0.000    2.857    0.000    3.429    0.000    0.000 
#    0.000    0.000    0.000    0.000    0.000    0.000 
#
# Total GULP energy -156190.376331 kJ/mol
# GULP energy per Si atom -5578.227726 kJ/mol
# Density = 1.748741 g / cm^3
# Si number density = 17.527307 Si / 1000 Ang^3
#
#
#
# Elastic Constant Matrix: (Units=GPa)
#
#
# Indices 1 2 3 4 5 6 
#
# 1 116.0938 63.9815 43.0905 0.0000 -18.3535 0.0000
# 2 63.9815 85.6427 54.1178 0.0000 -17.2059 0.0000
# 3 43.0905 54.1178 89.5442 0.0000 -24.2508 0.0000
# 4 0.0000 0.0000 0.0000 22.4220 0.0000 -5.0528
# 5 -18.3535 -17.2059 -24.2508 0.0000 25.0711 0.0000
# 6 0.0000 0.0000 0.0000 -5.0528 0.0000 37.1089
#
#
#
# Elastic Compliance Matrix: (Units=1/GPa)
#
#
# Indices 1 2 3 4 5 6 
#
# 1 0.014951 -0.010525 0.000236 0.000000 0.003950 0.000000
# 2 -0.010525 0.026427 -0.010950 0.000000 -0.000161 0.000000
# 3 0.000236 -0.010950 0.021250 0.000000 0.013213 0.000000
# 4 0.000000 0.000000 0.000000 0.046011 0.000000 0.006265
# 5 0.003950 -0.000161 0.013213 0.000000 0.055449 0.000000
# 6 0.000000 0.000000 0.000000 0.006265 0.000000 0.027801
#
#
# Mechanical properties :
#
#
# Convention : Reuss Voigt Hill
#
# Bulk Modulus (GPa) = 49.62799 68.18445 58.90622
# Shear Modulus (GPa) = 20.73969 25.59312 23.16640
#
# Velocity S-wave (km/s) = 3.44361 3.82538 3.63951
# Velocity P-wave (km/s) = 6.64736 7.64838 7.16537
#
# Compressibility (1/GPa) = 0.02014992
#
# Stress axis : x y z
#
# Youngs Moduli (GPa) = 66.88391 37.84053 47.05821
#
# Poissons Ratio (x) = 0.39828 -0.01111
# Poissons Ratio (y) = 0.70398 0.51529
# Poissons Ratio (z) = -0.01580 0.41435
#
# Static dielectric constant tensor:
#      x y z
#    x 1.627570 0.000000 -0.011340 
#    y 0.000000 1.590360 0.000000 
#    z -0.011340 0.000000 1.584580 
# 
# From -- ./inp_files/314383.got.cif
#   From: 2010.05.17/outbox.cif.g08.bks.cpg/sg12_158_cif.got.tgz:314383.got - 2010.06.03 13:09:07.
