data_PCOD9185997
_publ_section_title
;
Structure prediction by ZEFSAII (Michael W. Deem and Ramdas Pophale) SiO2 
 PCOD9185997
Probable space group: C 2/M
;
_chemical_formula_sum "Si O2"
_cell_formula_units_Z 52
_cell_length_a 18.710931
_cell_length_b 18.832644
_cell_length_c 9.279794
_cell_angle_alpha 90.000000
_cell_angle_beta 49.033896
_cell_angle_gamma 90.000000
_cell_volume 2469.153574
_symmetry_space_group_name_H-M "C 2/M"
_symmetry_group_IT_number 12
_symmetry_cell_setting 'monoclinic'
loop_
_space_group_symop_operation_xyz
x,y,z
-x,y,-z
-x,-y,-z
x,-y,z
1/2+x,1/2+y,z
1/2-x,1/2+y,-z
1/2-x,1/2-y,-z
1/2+x,1/2-y,z
loop_
_atom_site_type_symbol
_atom_site_label
_atom_site_fract_x
_atom_site_fract_y
_atom_site_fract_z
Si Si1 0.850505 0.340888 0.090840
Si Si2 0.596030 0.309365 0.945848
Si Si3 0.850900 0.500000 0.421867
Si Si4 0.711027 0.378886 0.044264
Si Si5 0.838575 0.500000 0.759796
Si Si6 0.086093 0.080146 0.468267
Si Si7 0.779763 0.135443 0.473086
Si Si8 0.063953 0.500000 0.067113
O O1 0.920148 0.274172 0.000562
O O2 0.785354 0.330783 0.034468
O O3 0.787853 0.329729 0.317400
O O4 0.891648 0.421929 0.035661
O O5 0.680422 0.324655 0.718910
O O6 0.500000 0.338260 0.000000
O O7 0.632130 0.344389 0.046866
O O8 0.881922 0.500000 0.546065
O O9 0.782683 0.566955 0.486366
O O10 0.949498 0.500000 0.201784
O O11 0.665501 0.420955 0.239246
O O12 0.771561 0.431984 0.867542
O O13 0.910239 0.500000 0.797087
O O14 0.128735 0.114714 0.552727
O O15 0.000000 0.117410 0.500000
O O16 0.057359 0.000000 0.544885
#
# Coordination Sequence:
#
# PCOD9185997 Si02
#       8
#     8   8   4   8   4   8   8   4
#     4  10  24  44  67  90 126 164 223 261 328 376
#     4  12  25  41  61  93 135 172 210 259 320 385
#     4  12  22  38  68  97 137 152 217 269 339 363
#     4  10  20  40  64  87 124 174 210 257 315 392
#     4  10  19  40  63  95 131 161 208 265 332 379
#     4  10  19  34  58  89 122 165 220 261 300 369
#     4  11  23  39  62  95 129 169 204 267 328 374
#     4  10  24  42  73  98 115 167 222 285 309 383
#
# _framework density 21.059847999999999
#
# number of rings (size 3 to 8) (size 9 to 14) (size 15 to 20)
#    0.000    1.385    3.077    2.538    4.308    0.615 
#    0.000    0.769    0.000    0.000    0.000    0.000 
#    0.000    0.000    0.000    0.000    0.000    0.000 
#
# Total GULP energy -144867.687571 kJ/mol
# GULP energy per Si atom -5571.834137 kJ/mol
# Density = 2.101191 g / cm^3
# Si number density = 21.059848 Si / 1000 Ang^3
#
#
#
# Elastic Constant Matrix: (Units=GPa)
#
#
# Indices 1 2 3 4 5 6 
#
# 1 114.7411 36.5253 1.0548 0.0000 12.0439 0.0000
# 2 36.5253 83.8010 21.7371 0.0000 8.4372 0.0000
# 3 1.0548 21.7371 88.3099 0.0000 6.8964 0.0000
# 4 0.0000 0.0000 0.0000 31.7733 0.0000 8.1017
# 5 12.0439 8.4372 6.8964 0.0000 39.1377 0.0000
# 6 0.0000 0.0000 0.0000 8.1017 0.0000 2.6393
#
#
#
# Elastic Compliance Matrix: (Units=1/GPa)
#
#
# Indices 1 2 3 4 5 6 
#
# 1 0.010427 -0.004612 0.001200 0.000000 -0.002426 0.000000
# 2 -0.004612 0.014981 -0.003540 0.000000 -0.001187 0.000000
# 3 0.001200 -0.003540 0.012319 0.000000 -0.001777 0.000000
# 4 0.000000 0.000000 0.000000 0.144836 0.000000 -0.444588
# 5 -0.002426 -0.001187 -0.001777 0.000000 0.026866 0.000000
# 6 0.000000 0.000000 0.000000 -0.444588 0.000000 1.743591
#
#
# Mechanical properties :
#
#
# Convention : Reuss Voigt Hill
#
# Bulk Modulus (GPa) = 41.97365 45.05404 43.51385
# Shear Modulus (GPa) = 2.53182 29.87905 16.20543
#
# Velocity S-wave (km/s) = 1.09764 3.77074 2.77699
# Velocity P-wave (km/s) = 4.64546 6.35592 5.56678
#
# Compressibility (1/GPa) = 0.02382447
#
# Stress axis : x y z
#
# Youngs Moduli (GPa) = 95.90561 66.75254 81.17228
#
# Poissons Ratio (x) = 0.30784 -0.09741
# Poissons Ratio (y) = 0.44229 0.28732
# Poissons Ratio (z) = -0.11509 0.23628
#
# Static dielectric constant tensor:
#      x y z
#    x 1.801840 0.000000 -0.007160 
#    y 0.000000 1.764430 0.000000 
#    z -0.007160 0.000000 1.759040 
# 
# From -- ./inp_files/87219.got.cif
#   From: 2010.05.17/outbox.cif.g08.bks.cpg/sg12_44_cif.got.tgz:87219.got - 2010.06.03 13:09:07.
