data_PCOD9185437
_publ_section_title
;
Structure prediction by ZEFSAII (Michael W. Deem and Ramdas Pophale) SiO2 
 PCOD9185437
Probable space group: C 2/M
;
_chemical_formula_sum "Si O2"
_cell_formula_units_Z 44
_cell_length_a 9.046680
_cell_length_b 17.561256
_cell_length_c 14.598679
_cell_angle_alpha 90.000000
_cell_angle_beta 47.375927
_cell_angle_gamma 90.000000
_cell_volume 1706.575869
_symmetry_space_group_name_H-M "C 2/M"
_symmetry_group_IT_number 12
_symmetry_cell_setting 'monoclinic'
loop_
_space_group_symop_operation_xyz
x,y,z
-x,y,-z
-x,-y,-z
x,-y,z
1/2+x,1/2+y,z
1/2-x,1/2+y,-z
1/2-x,1/2-y,-z
1/2+x,1/2-y,z
loop_
_atom_site_type_symbol
_atom_site_label
_atom_site_fract_x
_atom_site_fract_y
_atom_site_fract_z
Si Si1 0.989270 0.083416 0.878536
Si Si2 0.433418 0.580589 0.369143
Si Si3 0.524341 0.081920 0.098351
Si Si4 0.500000 0.135140 0.500000
Si Si5 0.527244 0.749163 0.137213
Si Si6 0.482432 0.740061 0.373540
O O1 0.064366 0.169956 0.865331
O O2 0.981360 0.081098 0.770722
O O3 0.084613 0.000000 0.862455
O O4 0.764808 0.082662 0.013850
O O5 0.476335 0.500000 0.394174
O O6 0.191537 0.590005 0.456968
O O7 0.520731 0.652987 0.383886
O O8 0.441975 0.166135 0.154990
O O9 0.447223 0.000000 0.168965
O O10 0.500000 0.077288 0.000000
O O11 0.417161 0.192504 0.612354
O O12 0.522591 0.744797 0.249175
O O13 0.750000 0.750000 0.000000
O O14 0.250000 0.750000 0.500000
#
# Coordination Sequence:
#
# PCOD9185437 Si02
#       6
#     8   8   8   4   8   8
#     4   8  15  30  50  72 106 138 170 222 278 320
#     4   9  17  33  55  78 105 145 186 228 276 331
#     4   9  17  31  52  80 110 144 181 225 282 339
#     4  10  19  34  57  80 104 150 190 224 277 342
#     4   9  17  33  52  79 104 141 184 225 275 326
#     4   9  19  36  53  79 113 144 181 233 284 329
#
# _framework density 25.782620000000001
#
# number of rings (size 3 to 8) (size 9 to 14) (size 15 to 20)
#    0.000    3.091    0.000    0.273    0.000    0.000 
#   29.455    5.000    0.000    0.545    0.000    0.000 
#    0.000    0.000    0.000    0.000    0.000    0.000 
#
# Total GULP energy -122655.171713 kJ/mol
# GULP energy per Si atom -5575.235078 kJ/mol
# Density = 2.572394 g / cm^3
# Si number density = 25.782620 Si / 1000 Ang^3
#
#
#
# Elastic Constant Matrix: (Units=GPa)
#
#
# Indices 1 2 3 4 5 6 
#
# 1 36.2672 19.2259 48.3588 0.0000 -3.3162 0.0000
# 2 19.2259 313.6430 34.0331 0.0000 4.8791 0.0000
# 3 48.3588 34.0331 127.3440 0.0000 -5.8513 -0.0001
# 4 0.0000 0.0000 0.0000 2.7747 0.0000 -12.0020
# 5 -3.3162 4.8791 -5.8513 0.0000 56.4745 0.0000
# 6 0.0000 0.0000 -0.0001 -12.0020 0.0000 -59.5709
#
#
#
# Elastic Compliance Matrix: (Units=1/GPa)
#
#
# Indices 1 2 3 4 5 6 
#
# 1 0.056352 -0.001192 -0.021024 0.000000 0.001234 0.000000
# 2 -0.001192 0.003317 -0.000452 0.000000 -0.000403 0.000000
# 3 -0.021024 -0.000452 0.015979 0.000000 0.000460 0.000000
# 4 0.000000 0.000000 0.000000 0.192575 0.000000 -0.038799
# 5 0.001234 -0.000403 0.000460 0.000000 0.017862 0.000000
# 6 0.000000 0.000000 0.000000 -0.038799 0.000000 -0.008970
#
#
# Mechanical properties :
#
#
# Convention : Reuss Voigt Hill
#
# Bulk Modulus (GPa) = 32.99248 75.60997 54.30123
# Shear Modulus (GPa) = 15.03510 24.97807 20.00659
#
# Velocity S-wave (km/s) = 2.41747 3.11592 2.78865
# Velocity P-wave (km/s) = 4.54053 6.50653 5.61032
#
# Compressibility (1/GPa) = 0.03030993
#
# Stress axis : x y z
#
# Youngs Moduli (GPa) = 17.74569 301.49880 62.58340
#
# Poissons Ratio (x) = 0.35943 1.31577
# Poissons Ratio (y) = 0.02116 0.02830
# Poissons Ratio (z) = 0.37309 0.13635
#
# Static dielectric constant tensor:
#      x y z
#    x 2.140890 0.000000 -0.100680 
#    y 0.000000 2.117820 0.000000 
#    z -0.100680 0.000000 2.066180 
# 
# From -- ./inp_files/264127.got.cif
#   From: 2010.05.17/outbox.cif.g08.bks.cpg/sg12_133_cif.got.tgz:264127.got - 2010.06.03 13:09:07.
