data_PCOD9185823
_publ_section_title
;
Structure prediction by ZEFSAII (Michael W. Deem and Ramdas Pophale) SiO2 
 PCOD9185823
Probable space group: C 2/M
;
_chemical_formula_sum "Si O2"
_cell_formula_units_Z 40
_cell_length_a 24.119914
_cell_length_b 7.356241
_cell_length_c 23.147610
_cell_angle_alpha 90.000000
_cell_angle_beta 24.085802
_cell_angle_gamma 90.000000
_cell_volume 1676.134918
_symmetry_space_group_name_H-M "C 2/M"
_symmetry_group_IT_number 12
_symmetry_cell_setting 'monoclinic'
loop_
_space_group_symop_operation_xyz
x,y,z
-x,y,-z
-x,-y,-z
x,-y,z
1/2+x,1/2+y,z
1/2-x,1/2+y,-z
1/2-x,1/2-y,-z
1/2+x,1/2-y,z
loop_
_atom_site_type_symbol
_atom_site_label
_atom_site_fract_x
_atom_site_fract_y
_atom_site_fract_z
Si Si1 0.355834 0.722633 0.785222
Si Si2 0.422872 0.220771 0.898397
Si Si3 0.850607 0.221380 0.658739
Si Si4 0.076283 0.278921 0.868977
Si Si5 0.101372 0.199472 0.618691
O O1 0.357445 0.500000 0.785215
O O2 0.320741 0.774038 0.753194
O O3 0.504019 0.791493 0.663742
O O4 0.233316 0.777623 0.944012
O O5 0.502864 0.276743 0.880351
O O6 0.501878 0.297573 0.768591
O O7 0.427460 0.000000 0.889613
O O8 0.731899 0.278857 0.728515
O O9 0.000000 0.282971 0.500000
O O10 0.851018 0.000000 0.657434
O O11 0.072136 0.500000 0.872444
O O12 0.000000 0.221895 0.000000
O O13 0.250000 0.250000 0.500000
O O14 0.124846 0.000000 0.571816
#
# Coordination Sequence:
#
# PCOD9185823 Si02
#       5
#     8   8   8   8   8
#     4   9  18  33  52  79 111 141 178 222 268 318
#     4  10  19  34  58  84 110 140 177 222 270 322
#     4   9  16  25  43  75 112 140 167 214 268 313
#     4   9  15  26  47  79 111 136 168 214 266 316
#     4  11  24  39  55  78 108 143 183 225 270 319
#
# _framework density 23.864428
#
# number of rings (size 3 to 8) (size 9 to 14) (size 15 to 20)
#    0.000    2.400    2.000    1.200    2.800    0.000 
#    0.000    1.000    0.000    0.600    0.000    1.400 
#    0.000    0.000    0.000    0.000    0.000    0.000 
#
# Total GULP energy -111713.941036 kJ/mol
# GULP energy per Si atom -5585.697052 kJ/mol
# Density = 2.381011 g / cm^3
# Si number density = 23.864428 Si / 1000 Ang^3
#
#
#
# Elastic Constant Matrix: (Units=GPa)
#
#
# Indices 1 2 3 4 5 6 
#
# 1 75.3418 -7.1473 3.3437 0.0004 -35.5432 -0.0003
# 2 -7.1473 83.6178 -3.4363 0.0023 -9.5430 -0.0012
# 3 3.3437 -3.4363 116.0328 -0.0001 -39.3336 -0.0001
# 4 0.0004 0.0023 -0.0001 6.2286 -0.0004 4.9091
# 5 -35.5432 -9.5430 -39.3336 -0.0004 53.7414 0.0002
# 6 -0.0003 -0.0012 -0.0001 4.9091 0.0002 -1.6276
#
#
#
# Elastic Compliance Matrix: (Units=1/GPa)
#
#
# Indices 1 2 3 4 5 6 
#
# 1 0.023417 0.004692 0.006645 0.000001 0.021185 -0.000003
# 2 0.004692 0.013335 0.002812 0.000001 0.007530 -0.000007
# 3 0.006645 0.002812 0.013525 0.000001 0.014793 -0.000001
# 4 0.000001 0.000001 0.000001 0.047538 0.000001 0.143386
# 5 0.021185 0.007530 0.014793 0.000001 0.044783 -0.000002
# 6 -0.000003 -0.000007 -0.000001 0.143386 -0.000002 -0.181924
#
#
# Mechanical properties :
#
#
# Convention : Reuss Voigt Hill
#
# Bulk Modulus (GPa) = 12.72637 28.94586 20.83612
# Shear Modulus (GPa) = -120.67578 30.48395 -45.09591
#
# Velocity S-wave (km/s) = -7.11878 3.57792 -4.35175
# Velocity P-wave (km/s) = 7.88828 5.40595 4.06206
#
# Compressibility (1/GPa) = 0.07857697
#
# Stress axis : x y z
#
# Youngs Moduli (GPa) = 42.70387 74.98980 73.93830
#
# Poissons Ratio (x) = -0.35188 -0.49135
# Poissons Ratio (y) = -0.20038 -0.20792
# Poissons Ratio (z) = -0.28379 -0.21088
#
# Static dielectric constant tensor:
#      x y z
#    x 1.872550 0.000000 -0.032290 
#    y 0.000000 1.823570 0.000000 
#    z -0.032290 0.000000 1.880360 
# 
# From -- ./inp_files/83360.got.cif
#   From: 2010.05.17/outbox.cif.g08.bks.cpg/sg12_42_cif.got.tgz:83360.got - 2010.06.03 13:09:07.
