data_PCOD9185603
_publ_section_title
;
Structure prediction by ZEFSAII (Michael W. Deem and Ramdas Pophale) SiO2 
 PCOD9185603
Probable space group: C 2/M
;
_chemical_formula_sum "Si O2"
_cell_formula_units_Z 56
_cell_length_a 19.804475
_cell_length_b 9.045625
_cell_length_c 21.044120
_cell_angle_alpha 90.000000
_cell_angle_beta 55.329837
_cell_angle_gamma 90.000000
_cell_volume 3100.538371
_symmetry_space_group_name_H-M "C 2/M"
_symmetry_group_IT_number 12
_symmetry_cell_setting 'monoclinic'
loop_
_space_group_symop_operation_xyz
x,y,z
-x,y,-z
-x,-y,-z
x,-y,z
1/2+x,1/2+y,z
1/2-x,1/2+y,-z
1/2-x,1/2-y,-z
1/2+x,1/2-y,z
loop_
_atom_site_type_symbol
_atom_site_label
_atom_site_fract_x
_atom_site_fract_y
_atom_site_fract_z
Si Si1 0.386228 0.324033 0.806953
Si Si2 0.508769 0.323487 0.371589
Si Si3 0.908067 0.327559 0.056896
Si Si4 0.848935 0.324895 0.624443
Si Si5 0.758277 0.825751 0.193659
Si Si6 0.837473 0.329252 0.953079
Si Si7 0.678654 0.322520 0.495768
O O1 0.379670 0.500000 0.817152
O O2 0.455914 0.289916 0.717490
O O3 0.302467 0.260483 0.821432
O O4 0.395126 0.249460 0.870516
O O5 0.519033 0.500000 0.376790
O O6 0.566504 0.239774 0.391325
O O7 0.412915 0.288339 0.428850
O O8 0.911504 0.500000 0.075332
O O9 0.848697 0.237983 0.135023
O O10 0.870947 0.322172 0.006207
O O11 0.000000 0.269665 0.000000
O O12 0.858110 0.500000 0.607835
O O13 0.780307 0.303949 0.715940
O O14 0.822700 0.241754 0.574771
O O15 0.756087 0.000000 0.180617
O O16 0.827630 0.500000 0.940100
O O17 0.750000 0.250000 0.000000
O O18 0.688385 0.500000 0.489924
O O19 0.750000 0.250000 0.500000
#
# Coordination Sequence:
#
# PCOD9185603 Si02
#       7
#     8   8   8   8   8   8   8
#     4  10  19  34  57  84 112 145 183 232 282 329
#     4   9  20  38  60  85 114 148 190 233 279 334
#     4  10  22  39  56  77 111 151 190 232 278 332
#     4  10  21  37  60  89 116 145 187 236 281 333
#     4  10  20  35  57  84 113 145 185 233 278 329
#     4  11  21  34  56  83 112 146 186 233 278 329
#     4  11  23  40  60  84 117 154 188 229 280 338
#
# _framework density 18.061378999999999
#
# number of rings (size 3 to 8) (size 9 to 14) (size 15 to 20)
#    0.000    1.857    1.429    2.571    0.000    6.000 
#    2.571    0.000    0.000    0.000    0.000    0.000 
#    0.000    0.000    0.000    0.000    0.000    0.000 
#
# Total GULP energy -156341.621640 kJ/mol
# GULP energy per Si atom -5583.629344 kJ/mol
# Density = 1.802027 g / cm^3
# Si number density = 18.061379 Si / 1000 Ang^3
#
#
#
# Elastic Constant Matrix: (Units=GPa)
#
#
# Indices 1 2 3 4 5 6 
#
# 1 91.3998 52.1618 59.1812 0.0000 -18.0643 0.0001
# 2 52.1618 90.6819 65.5791 0.0001 -4.6565 0.0002
# 3 59.1812 65.5791 109.2862 0.0000 -10.7709 0.0000
# 4 0.0000 0.0001 0.0000 34.1212 0.0000 1.5305
# 5 -18.0643 -4.6565 -10.7709 0.0000 27.5572 0.0000
# 6 0.0001 0.0002 0.0000 1.5305 0.0000 25.2377
#
#
#
# Elastic Compliance Matrix: (Units=1/GPa)
#
#
# Indices 1 2 3 4 5 6 
#
# 1 0.020949 -0.007152 -0.006051 0.000000 0.010159 0.000000
# 2 -0.007152 0.021971 -0.009784 0.000000 -0.004800 0.000000
# 3 -0.006051 -0.009784 0.018455 0.000000 0.001593 0.000000
# 4 0.000000 0.000000 0.000000 0.029387 0.000000 -0.001782
# 5 0.010159 -0.004800 0.001593 0.000000 0.042759 0.000000
# 6 0.000000 0.000000 0.000000 -0.001782 0.000000 0.039731
#
#
# Mechanical properties :
#
#
# Convention : Reuss Voigt Hill
#
# Bulk Modulus (GPa) = 64.93557 71.69024 68.31290
# Shear Modulus (GPa) = 22.28565 25.01293 23.64929
#
# Velocity S-wave (km/s) = 3.51648 3.72544 3.62247
# Velocity P-wave (km/s) = 7.24695 7.63439 7.44319
#
# Compressibility (1/GPa) = 0.01539988
#
# Stress axis : x y z
#
# Youngs Moduli (GPa) = 47.73591 45.51532 54.18555
#
# Poissons Ratio (x) = 0.32554 0.32788
# Poissons Ratio (y) = 0.34142 0.53014
# Poissons Ratio (z) = 0.28886 0.44531
#
# Static dielectric constant tensor:
#      x y z
#    x 1.588690 0.000000 -0.005530 
#    y 0.000000 1.609720 0.000000 
#    z -0.005530 0.000000 1.634420 
# 
# From -- ./inp_files/313698.got.cif
#   From: 2010.05.17/outbox.cif.g08.bks.cpg/sg12_157_cif.got.tgz:313698.got - 2010.06.03 13:09:07.
