data_PCOD9185397
_publ_section_title
;
Structure prediction by ZEFSAII (Michael W. Deem and Ramdas Pophale) SiO2 
 PCOD9185397
Probable space group: C 2/M
;
_chemical_formula_sum "Si O2"
_cell_formula_units_Z 56
_cell_length_a 14.070089
_cell_length_b 20.807836
_cell_length_c 13.617938
_cell_angle_alpha 90.000000
_cell_angle_beta 138.451885
_cell_angle_gamma 90.000000
_cell_volume 2644.305090
_symmetry_space_group_name_H-M "C 2/M"
_symmetry_group_IT_number 12
_symmetry_cell_setting 'monoclinic'
loop_
_space_group_symop_operation_xyz
x,y,z
-x,y,-z
-x,-y,-z
x,-y,z
1/2+x,1/2+y,z
1/2-x,1/2+y,-z
1/2-x,1/2-y,-z
1/2+x,1/2-y,z
loop_
_atom_site_type_symbol
_atom_site_label
_atom_site_fract_x
_atom_site_fract_y
_atom_site_fract_z
Si Si1 0.611454 0.928701 0.177199
Si Si2 0.623295 0.106308 0.659908
Si Si3 0.156624 0.569031 0.905788
Si Si4 0.412999 0.335986 0.838630
Si Si5 0.300188 0.792654 0.691743
Si Si6 0.830598 0.187892 0.108242
Si Si7 0.974511 0.734671 0.624022
O O1 0.509625 0.931086 0.194072
O O2 0.699357 0.863410 0.261368
O O3 0.680718 0.000000 0.220607
O O4 0.500000 0.922257 0.000000
O O5 0.500000 0.073054 0.500000
O O6 0.670190 0.075636 0.799328
O O7 0.767927 0.123671 0.712546
O O8 0.546641 0.172075 0.635125
O O9 0.217743 0.500000 0.984629
O O10 0.225498 0.628157 0.017292
O O11 0.364716 0.261695 0.813617
O O12 0.528608 0.334959 0.842271
O O13 0.500000 0.358914 0.000000
O O14 0.148280 0.766816 0.535886
O O15 0.402020 0.786994 0.672213
O O16 0.899388 0.214138 0.260459
O O17 0.750000 0.250000 0.000000
#
# Coordination Sequence:
#
# PCOD9185397 Si02
#       7
#     8   8   8   8   8   8   8
#     4  10  21  38  62  89 118 161 213 257 308 376
#     4  12  22  39  60  93 129 162 205 249 310 383
#     4  11  23  41  62  86 127 170 205 257 316 369
#     4  11  20  32  58  90 118 158 206 255 306 360
#     4  10  19  34  56  88 120 154 203 258 313 353
#     4  11  20  37  61  85 119 162 210 260 306 359
#     4  10  20  34  56  86 122 159 197 258 309 365
#
# _framework density 21.177586999999999
#
# number of rings (size 3 to 8) (size 9 to 14) (size 15 to 20)
#    0.000    1.286    5.714    1.286    0.000    1.429 
#    0.000    2.143    0.000    0.000    0.000    5.000 
#    0.000    0.000    0.000    0.000    0.000    0.000 
#
# Total GULP energy -156276.818711 kJ/mol
# GULP energy per Si atom -5581.314954 kJ/mol
# Density = 2.112939 g / cm^3
# Si number density = 21.177587 Si / 1000 Ang^3
#
#
#
# Elastic Constant Matrix: (Units=GPa)
#
#
# Indices 1 2 3 4 5 6 
#
# 1 66.7209 -7.5736 -3.1156 0.0000 13.5294 0.0000
# 2 -7.5736 135.8565 36.9464 0.0000 7.8914 0.0000
# 3 -3.1156 36.9464 92.7970 0.0000 11.5718 0.0000
# 4 0.0000 0.0000 0.0000 21.0464 0.0000 1.0181
# 5 13.5294 7.8914 11.5718 0.0000 30.2190 0.0000
# 6 0.0000 0.0000 0.0000 1.0181 0.0000 12.7221
#
#
#
# Elastic Compliance Matrix: (Units=1/GPa)
#
#
# Indices 1 2 3 4 5 6 
#
# 1 0.016845 0.001105 0.001157 0.000000 -0.008273 0.000000
# 2 0.001105 0.008353 -0.003103 0.000000 -0.001488 0.000000
# 3 0.001157 -0.003103 0.012616 0.000000 -0.004539 0.000000
# 4 0.000000 0.000000 0.000000 0.047699 0.000000 -0.003817
# 5 -0.008273 -0.001488 -0.004539 0.000000 0.038923 0.000000
# 6 0.000000 0.000000 0.000000 -0.003817 0.000000 0.078909
#
#
# Mechanical properties :
#
#
# Convention : Reuss Voigt Hill
#
# Bulk Modulus (GPa) = 27.67583 38.65431 33.16507
# Shear Modulus (GPa) = 23.03411 30.73864 26.88638
#
# Velocity S-wave (km/s) = 3.30155 3.81395 3.56696
# Velocity P-wave (km/s) = 5.25647 6.13898 5.71478
#
# Compressibility (1/GPa) = 0.03613261
#
# Stress axis : x y z
#
# Youngs Moduli (GPa) = 59.36511 119.72384 79.26130
#
# Poissons Ratio (x) = -0.13228 -0.09173
# Poissons Ratio (y) = -0.06559 0.24594
# Poissons Ratio (z) = -0.06871 0.37149
#
# Static dielectric constant tensor:
#      x y z
#    x 1.961930 0.000000 -0.051180 
#    y 0.000000 1.784840 0.000000 
#    z -0.051180 0.000000 1.773300 
# 
# From -- ./inp_files/217729.got.cif
#   From: 2010.05.17/outbox.cif.g08.bks.cpg/sg12_109_cif.got.tgz:217729.got - 2010.06.03 13:09:07.
