data_PCOD9185251
_publ_section_title
;
Structure prediction by ZEFSAII (Michael W. Deem and Ramdas Pophale) SiO2 
 PCOD9185251
Probable space group: C 2/M
;
_chemical_formula_sum "Si O2"
_cell_formula_units_Z 48
_cell_length_a 32.262063
_cell_length_b 8.582283
_cell_length_c 9.258501
_cell_angle_alpha 90.000000
_cell_angle_beta 90.626760
_cell_angle_gamma 90.000000
_cell_volume 2563.360331
_symmetry_space_group_name_H-M "C 2/M"
_symmetry_group_IT_number 12
_symmetry_cell_setting 'monoclinic'
loop_
_space_group_symop_operation_xyz
x,y,z
-x,y,-z
-x,-y,-z
x,-y,z
1/2+x,1/2+y,z
1/2-x,1/2+y,-z
1/2-x,1/2-y,-z
1/2+x,1/2-y,z
loop_
_atom_site_type_symbol
_atom_site_label
_atom_site_fract_x
_atom_site_fract_y
_atom_site_fract_z
Si Si1 0.580696 0.813305 0.665056
Si Si2 0.160409 0.186599 0.833731
Si Si3 0.081376 0.187067 0.341572
Si Si4 0.161898 0.810703 0.170158
Si Si5 0.252613 0.812982 0.164061
Si Si6 0.997700 0.688304 0.832047
O O1 0.621666 0.748854 0.743472
O O2 0.578097 0.754057 0.501739
O O3 0.539676 0.764183 0.751503
O O4 0.582131 0.000000 0.666155
O O5 0.204564 0.245498 0.774642
O O6 0.160532 0.000000 0.832319
O O7 0.157066 0.238601 0.002166
O O8 0.123684 0.242767 0.265437
O O9 0.042150 0.239916 0.246405
O O10 0.082407 0.000000 0.348954
O O11 0.207888 0.766024 0.226931
O O12 0.161020 0.000000 0.168740
O O13 0.255017 0.000000 0.162662
O O14 0.250000 0.750000 0.000000
O O15 0.994492 0.500000 0.824363
O O16 0.000000 0.733183 0.000000
#
# Coordination Sequence:
#
# PCOD9185251 Si02
#       6
#     8   8   8   8   8   8
#     4  11  23  38  55  78 110 145 179 218 268 323
#     4  10  19  34  56  82 109 139 181 228 272 317
#     4  11  22  37  57  81 110 144 180 218 265 318
#     4   8  17  33  54  80 109 140 177 223 267 314
#     4   9  16  30  52  79 110 142 179 223 270 315
#     4  10  22  40  60  82 108 139 177 221 268 319
#
# _framework density 18.725418999999999
#
# number of rings (size 3 to 8) (size 9 to 14) (size 15 to 20)
#    0.000    2.167    0.000    4.500    0.000    3.667 
#    0.000   10.000    0.000    0.000    0.000    0.000 
#    0.000    0.000    0.000    0.000    0.000    0.000 
#
# Total GULP energy -133951.570077 kJ/mol
# GULP energy per Si atom -5581.315420 kJ/mol
# Density = 1.868280 g / cm^3
# Si number density = 18.725419 Si / 1000 Ang^3
#
#
#
# Elastic Constant Matrix: (Units=GPa)
#
#
# Indices 1 2 3 4 5 6 
#
# 1 219.0528 50.8604 93.3445 0.0000 -18.8490 0.0000
# 2 50.8604 44.3890 34.0580 0.0000 -5.1594 0.0000
# 3 93.3445 34.0580 115.7931 0.0000 -15.8896 0.0000
# 4 0.0000 0.0000 0.0000 26.5550 0.0000 7.1208
# 5 -18.8490 -5.1594 -15.8896 0.0000 -13.4413 0.0000
# 6 0.0000 0.0000 0.0000 7.1208 0.0000 33.9053
#
#
#
# Elastic Compliance Matrix: (Units=1/GPa)
#
#
# Indices 1 2 3 4 5 6 
#
# 1 0.007695 -0.005280 -0.005036 0.000000 -0.002811 0.000000
# 2 -0.005280 0.032703 -0.005222 0.000000 0.001024 0.000000
# 3 -0.005036 -0.005222 0.013316 0.000000 -0.006675 0.000000
# 4 0.000000 0.000000 0.000000 0.039905 0.000000 -0.008381
# 5 -0.002811 0.001024 -0.006675 0.000000 -0.062959 0.000000
# 6 0.000000 0.000000 0.000000 -0.008381 0.000000 0.031254
#
#
# Mechanical properties :
#
#
# Convention : Reuss Voigt Hill
#
# Bulk Modulus (GPa) = 44.17293 81.75118 62.96205
# Shear Modulus (GPa) = 49.73267 22.80193 36.26730
#
# Velocity S-wave (km/s) = 5.15912 3.49334 4.40568
# Velocity P-wave (km/s) = 7.68959 7.74751 7.71860
#
# Compressibility (1/GPa) = 0.02263830
#
# Stress axis : x y z
#
# Youngs Moduli (GPa) = 129.95281 30.57782 75.09779
#
# Poissons Ratio (x) = 0.16144 0.37820
# Poissons Ratio (y) = 0.68611 0.39219
# Poissons Ratio (z) = 0.65446 0.15969
#
# Static dielectric constant tensor:
#      x y z
#    x 1.652900 0.000000 -0.031570 
#    y 0.000000 1.639200 0.000000 
#    z -0.031570 0.000000 1.593360 
# 
# From -- ./inp_files/108671.got.cif
#   From: 2010.05.17/outbox.cif.g08.bks.cpg/sg12_55_cif.got.tgz:108671.got - 2010.06.03 13:09:07.
