data_PCOD9185403
_publ_section_title
;
Structure prediction by ZEFSAII (Michael W. Deem and Ramdas Pophale) SiO2 
 PCOD9185403
Probable space group: C 2/M
;
_chemical_formula_sum "Si O2"
_cell_formula_units_Z 64
_cell_length_a 19.882678
_cell_length_b 14.830724
_cell_length_c 11.844961
_cell_angle_alpha 90.000000
_cell_angle_beta 71.540150
_cell_angle_gamma 90.000000
_cell_volume 3313.058926
_symmetry_space_group_name_H-M "C 2/M"
_symmetry_group_IT_number 12
_symmetry_cell_setting 'monoclinic'
loop_
_space_group_symop_operation_xyz
x,y,z
-x,y,-z
-x,-y,-z
x,-y,z
1/2+x,1/2+y,z
1/2-x,1/2+y,-z
1/2-x,1/2-y,-z
1/2+x,1/2-y,z
loop_
_atom_site_type_symbol
_atom_site_label
_atom_site_fract_x
_atom_site_fract_y
_atom_site_fract_z
Si Si1 0.915127 0.392054 0.059290
Si Si2 0.080016 0.895371 0.009045
Si Si3 0.851426 0.599681 0.733063
Si Si4 0.641122 0.401262 0.733956
Si Si5 0.489633 0.094149 0.373076
Si Si6 0.380672 0.205027 0.312319
Si Si7 0.332760 0.765243 0.928780
Si Si8 0.709124 0.101525 0.474271
O O1 0.904938 0.500000 0.062246
O O2 0.888871 0.348332 0.190771
O O3 0.869181 0.341616 0.988303
O O4 0.000000 0.374888 0.000000
O O5 0.133991 0.896400 0.873169
O O6 0.116040 0.822446 0.075158
O O7 0.075387 0.000000 0.053168
O O8 0.000000 0.873402 0.000000
O O9 0.818987 0.500000 0.778072
O O10 0.933526 0.594717 0.721721
O O11 0.845430 0.608410 0.601253
O O12 0.826711 0.689075 0.808448
O O13 0.611747 0.500000 0.718117
O O14 0.606615 0.309795 0.712749
O O15 0.717766 0.393063 0.634546
O O16 0.500000 0.093957 0.500000
O O17 0.444194 0.174763 0.356795
O O18 0.453588 0.000000 0.357861
O O19 0.310597 0.172925 0.418456
O O20 0.250000 0.750000 0.000000
O O21 0.706566 0.000000 0.523795
#
# Coordination Sequence:
#
# PCOD9185403 Si02
#       8
#     8   8   8   8   8   8   8   8
#     4  11  24  41  62  93 130 164 200 254 324 381
#     4  10  22  42  64  85 114 160 219 264 293 349
#     4  10  21  36  58  85 122 157 190 236 296 365
#     4  10  22  38  58  84 116 153 202 254 298 347
#     4  10  19  34  56  89 120 149 192 238 293 363
#     4  12  21  35  63  89 121 157 201 250 301 365
#     4  12  24  38  60  89 124 162 204 249 308 374
#     4  10  20  37  59  88 119 156 197 239 295 364
#
# _framework density 19.317494
#
# number of rings (size 3 to 8) (size 9 to 14) (size 15 to 20)
#    0.000    1.375    2.500    3.750    1.750    4.000 
#    0.000    0.000    0.000    1.125    0.000    0.000 
#    0.000    0.000    0.000    0.000    0.000    0.000 
#
# Total GULP energy -178191.711060 kJ/mol
# GULP energy per Si atom -5568.490971 kJ/mol
# Density = 1.927353 g / cm^3
# Si number density = 19.317494 Si / 1000 Ang^3
#
#
#
# Elastic Constant Matrix: (Units=GPa)
#
#
# Indices 1 2 3 4 5 6 
#
# 1 51.8330 27.8296 -0.3301 0.0000 -3.6183 0.0000
# 2 27.8296 152.3263 30.4116 0.0000 10.4791 0.0000
# 3 -0.3301 30.4116 74.0940 0.0000 -7.5772 0.0000
# 4 0.0000 0.0000 0.0000 35.3572 0.0000 3.1350
# 5 -3.6183 10.4791 -7.5772 0.0000 26.1579 0.0000
# 6 0.0000 0.0000 0.0000 3.1350 0.0000 25.5616
#
#
#
# Elastic Compliance Matrix: (Units=1/GPa)
#
#
# Indices 1 2 3 4 5 6 
#
# 1 0.022445 -0.005066 0.002787 0.000000 0.005941 0.000000
# 2 -0.005066 0.008687 -0.004138 0.000000 -0.005379 0.000000
# 3 0.002787 -0.004138 0.015887 0.000000 0.006645 0.000000
# 4 0.000000 0.000000 0.000000 0.028594 0.000000 -0.003507
# 5 0.005941 -0.005379 0.006645 0.000000 0.043131 0.000000
# 6 0.000000 0.000000 0.000000 -0.003507 0.000000 0.039551
#
#
# Mechanical properties :
#
#
# Convention : Reuss Voigt Hill
#
# Bulk Modulus (GPa) = 29.25310 43.78617 36.51963
# Shear Modulus (GPa) = 27.39374 32.10482 29.74928
#
# Velocity S-wave (km/s) = 3.76982 4.08113 3.92856
# Velocity P-wave (km/s) = 5.84166 6.70249 6.28682
#
# Compressibility (1/GPa) = 0.03418442
#
# Stress axis : x y z
#
# Youngs Moduli (GPa) = 44.55321 115.12015 62.94538
#
# Poissons Ratio (x) = 0.58317 -0.17542
# Poissons Ratio (y) = 0.22570 0.26047
# Poissons Ratio (z) = -0.12416 0.47637
#
# Static dielectric constant tensor:
#      x y z
#    x 1.729770 0.000000 -0.049230 
#    y 0.000000 1.746050 0.000000 
#    z -0.049230 0.000000 1.745060 
# 
# From -- ./inp_files/167253.got.cif
#   From: 2010.05.17/outbox.cif.g08.bks.cpg/sg12_84_cif.got.tgz:167253.got - 2010.06.03 13:09:07.
