data_PCOD9185082
_publ_section_title
;
Structure prediction by ZEFSAII (Michael W. Deem and Ramdas Pophale) SiO2 
 PCOD9185082
Probable space group: C 2/M
;
_chemical_formula_sum "Si O2"
_cell_formula_units_Z 40
_cell_length_a 13.421898
_cell_length_b 11.490803
_cell_length_c 23.004069
_cell_angle_alpha 90.000000
_cell_angle_beta 24.132548
_cell_angle_gamma 90.000000
_cell_volume 1450.547181
_symmetry_space_group_name_H-M "C 2/M"
_symmetry_group_IT_number 12
_symmetry_cell_setting 'monoclinic'
loop_
_space_group_symop_operation_xyz
x,y,z
-x,y,-z
-x,-y,-z
x,-y,z
1/2+x,1/2+y,z
1/2-x,1/2+y,-z
1/2-x,1/2-y,-z
1/2+x,1/2-y,z
loop_
_atom_site_type_symbol
_atom_site_label
_atom_site_fract_x
_atom_site_fract_y
_atom_site_fract_z
Si Si1 0.081853 0.125804 0.522675
Si Si2 0.820815 0.129897 0.011385
Si Si3 0.292208 0.723490 0.779891
Si Si4 0.493075 0.680430 0.793922
Si Si5 0.011229 0.629132 0.573948
O O1 0.868243 0.141922 0.684933
O O2 0.184133 0.259233 0.471540
O O3 0.000000 0.120494 0.500000
O O4 0.195488 0.000000 0.473996
O O5 0.850040 0.128669 0.925971
O O6 0.019606 0.225198 0.926302
O O7 0.861308 0.000000 0.011557
O O8 0.561974 0.181299 0.169180
O O9 0.373425 0.658345 0.795153
O O10 0.420595 0.844379 0.687883
O O11 0.769462 0.643031 0.662405
O O12 0.107101 0.500000 0.514909
#
# Coordination Sequence:
#
# PCOD9185082 Si02
#       5
#     8   8   8   8   8
#     4   9  20  39  60  83 115 150 186 237 296 345
#     4  10  21  36  54  81 121 157 191 237 284 335
#     4   9  19  34  58  82 112 154 192 233 280 342
#     4  10  19  34  55  85 113 153 193 229 281 338
#     4   9  20  38  59  84 115 148 189 238 284 336
#
# _framework density 27.575799
#
# number of rings (size 3 to 8) (size 9 to 14) (size 15 to 20)
#    1.200    1.400    0.000    3.000    0.000    5.200 
#    0.000    2.000    0.000    8.400    0.000    0.000 
#    0.000    0.000    0.000    0.000    0.000    0.000 
#
# Total GULP energy -111442.124511 kJ/mol
# GULP energy per Si atom -5572.106226 kJ/mol
# Density = 2.751304 g / cm^3
# Si number density = 27.575799 Si / 1000 Ang^3
#
#
#
# Elastic Constant Matrix: (Units=GPa)
#
#
# Indices 1 2 3 4 5 6 
#
# 1 223.7386 44.7142 55.5474 -0.0035 30.8694 0.0024
# 2 44.7142 212.6319 33.7348 -0.0163 -20.9842 0.0006
# 3 55.5474 33.7348 74.0795 -0.0379 11.9731 0.0068
# 4 -0.0035 -0.0163 -0.0379 19.8254 0.0012 -11.7912
# 5 30.8694 -20.9842 11.9731 0.0012 46.6869 -0.0018
# 6 0.0024 0.0006 0.0068 -11.7912 -0.0018 14.3112
#
#
#
# Elastic Compliance Matrix: (Units=1/GPa)
#
#
# Indices 1 2 3 4 5 6 
#
# 1 0.006038 -0.001075 -0.003458 -0.000012 -0.003589 -0.000010
# 2 -0.001075 0.005697 -0.002417 0.000001 0.003891 0.000003
# 3 -0.003458 -0.002417 0.017733 0.000052 -0.003348 0.000035
# 4 -0.000012 0.000001 0.000052 0.098906 -0.000004 0.081490
# 5 -0.003589 0.003891 -0.003348 -0.000004 0.026400 0.000002
# 6 -0.000010 0.000003 0.000035 0.081490 0.000002 0.137015
#
#
# Mechanical properties :
#
#
# Convention : Reuss Voigt Hill
#
# Bulk Modulus (GPa) = 64.23296 86.49366 75.36331
# Shear Modulus (GPa) = 16.08344 41.26162 28.67253
#
# Velocity S-wave (km/s) = 2.41767 3.87240 3.22805
# Velocity P-wave (km/s) = 5.58008 7.17132 6.42515
#
# Compressibility (1/GPa) = 0.01556833
#
# Stress axis : x y z
#
# Youngs Moduli (GPa) = 165.61685 175.54567 56.39062
#
# Poissons Ratio (x) = 0.18877 0.19499
# Poissons Ratio (y) = 0.17809 0.13628
# Poissons Ratio (z) = 0.57267 0.42424
#
# Static dielectric constant tensor:
#      x y z
#    x 2.283980 0.000000 -0.002870 
#    y 0.000000 2.103920 0.000010 
#    z -0.002870 0.000010 2.268570 
# 
# From -- ./inp_files/339194.got.cif
#   From: 2010.05.17/outbox.cif.g08.bks.cpg/sg12_170_cif.got.tgz:339194.got - 2010.06.03 13:09:07.
