data_PCOD9185112
_publ_section_title
;
Structure prediction by ZEFSAII (Michael W. Deem and Ramdas Pophale) SiO2 
 PCOD9185112
Probable space group: C 2/M
;
_chemical_formula_sum "Si O2"
_cell_formula_units_Z 56
_cell_length_a 26.188183
_cell_length_b 7.891301
_cell_length_c 15.965473
_cell_angle_alpha 90.000000
_cell_angle_beta 56.120899
_cell_angle_gamma 90.000000
_cell_volume 2739.218604
_symmetry_space_group_name_H-M "C 2/M"
_symmetry_group_IT_number 12
_symmetry_cell_setting 'monoclinic'
loop_
_space_group_symop_operation_xyz
x,y,z
-x,y,-z
-x,-y,-z
x,-y,z
1/2+x,1/2+y,z
1/2-x,1/2+y,-z
1/2-x,1/2-y,-z
1/2+x,1/2-y,z
loop_
_atom_site_type_symbol
_atom_site_label
_atom_site_fract_x
_atom_site_fract_y
_atom_site_fract_z
Si Si1 0.597981 0.296167 0.421362
Si Si2 0.510548 0.293007 0.356602
Si Si3 0.263580 0.203382 0.723695
Si Si4 0.407649 0.805528 0.017464
Si Si5 0.517934 0.294101 0.802251
Si Si6 0.714901 0.297292 0.947738
Si Si7 0.859518 0.805695 0.235679
O O1 0.596070 0.500000 0.422606
O O2 0.568250 0.237461 0.360331
O O3 0.551002 0.240966 0.536990
O O4 0.668058 0.244170 0.366994
O O5 0.511472 0.500000 0.354740
O O6 0.507911 0.236125 0.263571
O O7 0.250967 0.261663 0.830846
O O8 0.208075 0.271537 0.716300
O O9 0.256961 0.000000 0.730926
O O10 0.353607 0.776588 0.998929
O O11 0.388994 0.697031 0.115387
O O12 0.407375 0.000000 0.044874
O O13 0.472339 0.760851 0.917384
O O14 0.519419 0.500000 0.801320
O O15 0.587311 0.230477 0.754791
O O16 0.709452 0.500000 0.949860
O O17 0.750000 0.250000 0.000000
O O18 0.850974 0.000000 0.271233
#
# Coordination Sequence:
#
# PCOD9185112 Si02
#       7
#     8   8   8   8   8   8   8
#     4   9  17  33  55  77 102 132 169 212 262 317
#     4   8  17  33  53  78 102 128 170 219 261 312
#     4   9  19  34  51  73 102 135 169 209 259 311
#     4  11  22  34  50  76 109 141 173 214 265 312
#     4  10  19  34  56  76  99 138 182 221 263 310
#     4  10  21  36  52  75 108 141 177 216 255 308
#     4   9  19  36  54  73 101 140 182 217 256 315
#
# _framework density 20.443787
#
# number of rings (size 3 to 8) (size 9 to 14) (size 15 to 20)
#    0.000    2.571    0.000    3.857    2.000    5.143 
#    0.000    2.857    0.000    0.000    0.000    0.000 
#    0.000    0.000    0.000    0.000    0.000    0.000 
#
# Total GULP energy -156212.198597 kJ/mol
# GULP energy per Si atom -5579.007093 kJ/mol
# Density = 2.039726 g / cm^3
# Si number density = 20.443787 Si / 1000 Ang^3
#
#
#
# Elastic Constant Matrix: (Units=GPa)
#
#
# Indices 1 2 3 4 5 6 
#
# 1 77.7054 -4.8333 16.1779 0.0000 -24.2420 0.0000
# 2 -4.8333 34.0430 -4.5903 0.0000 -1.6908 0.0001
# 3 16.1779 -4.5903 27.2717 0.0000 -15.9287 0.0000
# 4 0.0000 0.0000 0.0000 14.9781 0.0000 -8.0028
# 5 -24.2420 -1.6908 -15.9287 0.0000 33.9375 0.0000
# 6 0.0000 0.0001 0.0000 -8.0028 0.0000 13.7883
#
#
#
# Elastic Compliance Matrix: (Units=1/GPa)
#
#
# Indices 1 2 3 4 5 6 
#
# 1 0.017084 0.002490 -0.003465 0.000000 0.010701 0.000000
# 2 0.002490 0.031137 0.007865 0.000000 0.007021 0.000000
# 3 -0.003465 0.007865 0.053496 0.000000 0.023025 0.000000
# 4 0.000000 0.000000 0.000000 0.096775 0.000000 0.056169
# 5 0.010701 0.007021 0.023025 0.000000 0.048266 0.000000
# 6 0.000000 0.000000 0.000000 0.056169 0.000000 0.105126
#
#
# Mechanical properties :
#
#
# Convention : Reuss Voigt Hill
#
# Bulk Modulus (GPa) = 8.65834 16.94762 12.80298
# Shear Modulus (GPa) = 13.27657 21.35851 17.31754
#
# Velocity S-wave (km/s) = 2.55113 3.23576 2.91362
# Velocity P-wave (km/s) = 3.59473 4.71890 4.19465
#
# Compressibility (1/GPa) = 0.11549558
#
# Stress axis : x y z
#
# Youngs Moduli (GPa) = 58.53509 32.11584 18.69307
#
# Poissons Ratio (x) = -0.07996 0.06477
# Poissons Ratio (y) = -0.14574 -0.14702
# Poissons Ratio (z) = 0.20283 -0.25258
#
# Static dielectric constant tensor:
#      x y z
#    x 1.758490 0.000000 0.001650 
#    y 0.000000 1.753760 0.000000 
#    z 0.001650 0.000000 1.696410 
# 
# From -- ./inp_files/238378.got.cif
#   From: 2010.05.17/outbox.cif.g08.bks.cpg/sg12_120_cif.got.tgz:238378.got - 2010.06.03 13:09:07.
