data_PCOD9185263
_publ_section_title
;
Structure prediction by ZEFSAII (Michael W. Deem and Ramdas Pophale) SiO2 
 PCOD9185263
Probable space group: C 2/M
;
_chemical_formula_sum "Si O2"
_cell_formula_units_Z 56
_cell_length_a 20.670092
_cell_length_b 8.190416
_cell_length_c 18.961495
_cell_angle_alpha 90.000000
_cell_angle_beta 131.431285
_cell_angle_gamma 90.000000
_cell_volume 2406.785253
_symmetry_space_group_name_H-M "C 2/M"
_symmetry_group_IT_number 12
_symmetry_cell_setting 'monoclinic'
loop_
_space_group_symop_operation_xyz
x,y,z
-x,y,-z
-x,-y,-z
x,-y,z
1/2+x,1/2+y,z
1/2-x,1/2+y,-z
1/2-x,1/2-y,-z
1/2+x,1/2-y,z
loop_
_atom_site_type_symbol
_atom_site_label
_atom_site_fract_x
_atom_site_fract_y
_atom_site_fract_z
Si Si1 0.741532 0.193907 0.573832
Si Si2 0.372673 0.685136 0.388681
Si Si3 0.786571 0.308971 0.100597
Si Si4 0.281886 0.682834 0.804386
Si Si5 0.546797 0.304968 0.692173
Si Si6 0.068282 0.798980 0.267166
Si Si7 0.979422 0.813116 0.910790
O O1 0.750000 0.250000 0.500000
O O2 0.658158 0.245050 0.558772
O O3 0.833159 0.255291 0.671085
O O4 0.744170 0.000000 0.578392
O O5 0.398706 0.500000 0.420665
O O6 0.283216 0.694806 0.279535
O O7 0.437965 0.759668 0.376793
O O8 0.806047 0.500000 0.108262
O O9 0.714255 0.287417 0.109328
O O10 0.870035 0.227118 0.197393
O O11 0.750000 0.250000 0.000000
O O12 0.243194 0.500000 0.766152
O O13 0.376100 0.676565 0.841138
O O14 0.538556 0.500000 0.678417
O O15 0.467716 0.245208 0.682942
O O16 0.007521 0.744021 0.158061
O O17 0.065891 0.000000 0.263848
O O18 0.015850 0.000000 0.939022
O O19 0.000000 0.729308 0.000000
#
# Coordination Sequence:
#
# PCOD9185263 Si02
#       7
#     8   8   8   8   8   8   8
#     4  11  22  39  63  89 113 143 185 229 278 335
#     4  10  19  34  56  82 112 143 176 221 277 332
#     4  10  20  31  47  72 106 147 192 237 280 329
#     4   9  17  31  50  73 100 140 188 230 268 317
#     4   9  19  35  56  80 107 145 187 230 281 331
#     4   9  18  34  57  82 111 145 188 238 277 326
#     4   9  16  26  48  79 105 136 184 234 273 313
#
# _framework density 23.267551000000001
#
# number of rings (size 3 to 8) (size 9 to 14) (size 15 to 20)
#    0.000    2.429    1.429    1.286    2.000    1.143 
#    0.000    2.143    0.000    4.714    0.000    0.000 
#    0.000    0.000    0.000    0.000    0.000    0.000 
#
# Total GULP energy -156041.444286 kJ/mol
# GULP energy per Si atom -5572.908724 kJ/mol
# Density = 2.321459 g / cm^3
# Si number density = 23.267551 Si / 1000 Ang^3
#
#
#
# Elastic Constant Matrix: (Units=GPa)
#
#
# Indices 1 2 3 4 5 6 
#
# 1 136.5153 14.3619 36.3983 0.0000 -42.4679 0.0000
# 2 14.3619 23.3880 8.1472 0.0000 -8.2660 0.0000
# 3 36.3983 8.1472 107.9494 0.0000 -41.3353 0.0000
# 4 0.0000 0.0000 0.0000 17.5617 0.0000 -5.3233
# 5 -42.4679 -8.2660 -41.3353 0.0000 45.2130 0.0000
# 6 0.0000 0.0000 0.0000 -5.3233 0.0000 7.5379
#
#
#
# Elastic Compliance Matrix: (Units=1/GPa)
#
#
# Indices 1 2 3 4 5 6 
#
# 1 0.010578 -0.003201 0.000393 0.000000 0.009709 0.000000
# 2 -0.003201 0.046689 -0.000503 0.000000 0.005069 0.000000
# 3 0.000393 -0.000503 0.014271 0.000000 0.013324 0.000000
# 4 0.000000 0.000000 0.000000 0.072451 0.000000 0.051165
# 5 0.009709 0.005069 0.013324 0.000000 0.044346 0.000000
# 6 0.000000 0.000000 0.000000 0.051165 0.000000 0.168796
#
#
# Mechanical properties :
#
#
# Convention : Reuss Voigt Hill
#
# Bulk Modulus (GPa) = 15.40459 42.85193 29.12826
# Shear Modulus (GPa) = 12.97379 27.99220 20.48300
#
# Velocity S-wave (km/s) = 2.36390 3.47227 2.97025
# Velocity P-wave (km/s) = 3.75309 5.87645 4.93043
#
# Compressibility (1/GPa) = 0.06491572
#
# Stress axis : x y z
#
# Youngs Moduli (GPa) = 94.53928 21.41813 70.07157
#
# Poissons Ratio (x) = 0.06855 -0.02753
# Poissons Ratio (y) = 0.30259 0.03528
# Poissons Ratio (z) = -0.03714 0.01078
#
# Static dielectric constant tensor:
#      x y z
#    x 1.958400 0.000000 -0.040160 
#    y 0.000000 1.853330 0.000000 
#    z -0.040160 0.000000 1.953290 
# 
# From -- ./inp_files/281755.got.cif
#   From: 2010.05.17/outbox.cif.g08.bks.cpg/sg12_141_cif.got.tgz:281755.got - 2010.06.03 13:09:07.
