data_PCOD9185658
_publ_section_title
;
Structure prediction by ZEFSAII (Michael W. Deem and Ramdas Pophale) SiO2 
 PCOD9185658
Probable space group: C 2/M
;
_chemical_formula_sum "Si O2"
_cell_formula_units_Z 36
_cell_length_a 9.707407
_cell_length_b 28.936102
_cell_length_c 7.719318
_cell_angle_alpha 90.000000
_cell_angle_beta 54.837255
_cell_angle_gamma 90.000000
_cell_volume 1772.639149
_symmetry_space_group_name_H-M "C 2/M"
_symmetry_group_IT_number 12
_symmetry_cell_setting 'monoclinic'
loop_
_space_group_symop_operation_xyz
x,y,z
-x,y,-z
-x,-y,-z
x,-y,z
1/2+x,1/2+y,z
1/2-x,1/2+y,-z
1/2-x,1/2-y,-z
1/2+x,1/2-y,z
loop_
_atom_site_type_symbol
_atom_site_label
_atom_site_fract_x
_atom_site_fract_y
_atom_site_fract_z
Si Si1 0.757465 0.136301 0.016521
Si Si2 0.636056 0.551388 0.249933
Si Si3 0.500000 0.084066 0.000000
Si Si4 0.302442 0.291950 0.679992
Si Si5 0.199524 0.311704 0.384979
O O1 0.777312 0.151722 0.197692
O O2 0.878507 0.094895 0.867640
O O3 0.572997 0.115230 0.103333
O O4 0.774025 0.180336 0.876691
O O5 0.500000 0.556165 0.500000
O O6 0.617450 0.500000 0.186833
O O7 0.831235 0.556347 0.173579
O O8 0.500000 0.288642 0.500000
O O9 0.232563 0.318372 0.563017
O O10 0.234427 0.239526 0.718433
O O11 0.000000 0.312147 0.500000
#
# Coordination Sequence:
#
# PCOD9185658 Si02
#       5
#     8   8   4   8   8
#     4  10  19  34  57  85 116 156 202 246 301 360
#     4   9  18  34  59  91 123 160 203 251 311 373
#     4   8  19  30  56  88 120 162 202 248 309 368
#     4  10  21  36  56  82 120 159 205 250 306 361
#     4  10  21  36  55  85 118 159 204 253 302 363
#
# _framework density 20.308702
#
# number of rings (size 3 to 8) (size 9 to 14) (size 15 to 20)
#    1.333    1.111    0.000    3.000    0.000    0.889 
#    0.000    6.667    0.000    2.000    0.000    4.667 
#    0.000    0.000    0.000    0.000    0.000    0.000 
#
# Total GULP energy -100274.036271 kJ/mol
# GULP energy per Si atom -5570.779793 kJ/mol
# Density = 2.026248 g / cm^3
# Si number density = 20.308702 Si / 1000 Ang^3
#
#
#
# Elastic Constant Matrix: (Units=GPa)
#
#
# Indices 1 2 3 4 5 6 
#
# 1 56.6692 -7.5662 18.3622 0.0000 -9.1914 0.0000
# 2 -7.5662 85.7792 40.8588 0.0000 -10.4228 0.0000
# 3 18.3622 40.8588 71.1451 0.0000 -5.7270 0.0000
# 4 0.0000 0.0000 0.0000 21.0732 0.0000 -25.4208
# 5 -9.1914 -10.4228 -5.7270 0.0000 28.4457 0.0000
# 6 0.0000 0.0000 0.0000 -25.4208 0.0000 23.2507
#
#
#
# Elastic Compliance Matrix: (Units=1/GPa)
#
#
# Indices 1 2 3 4 5 6 
#
# 1 0.023180 0.007693 -0.009729 0.000000 0.008350 0.000000
# 2 0.007693 0.019084 -0.012383 0.000000 0.006985 0.000000
# 3 -0.009729 -0.012383 0.023440 0.000000 -0.002962 0.000000
# 4 0.000000 0.000000 0.000000 -0.148803 0.000000 -0.162692
# 5 0.008350 0.006985 -0.002962 0.000000 0.039816 0.000000
# 6 0.000000 0.000000 0.000000 -0.162692 0.000000 -0.134867
#
#
# Mechanical properties :
#
#
# Convention : Reuss Voigt Hill
#
# Bulk Modulus (GPa) = 27.12482 35.21146 31.16814
# Shear Modulus (GPa) = -36.48972 25.34984 -5.56994
#
# Velocity S-wave (km/s) = -4.24341 3.53686 -1.65789
# Velocity P-wave (km/s) = 3.25936 5.83566 3.42282
#
# Compressibility (1/GPa) = 0.03686660
#
# Stress axis : x y z
#
# Youngs Moduli (GPa) = 43.14027 52.40121 42.66223
#
# Poissons Ratio (x) = -0.40314 0.41505
# Poissons Ratio (y) = -0.33189 0.52829
# Poissons Ratio (z) = 0.41970 0.64889
#
# Static dielectric constant tensor:
#      x y z
#    x 1.852520 0.000000 -0.016200 
#    y 0.000000 1.761270 0.000000 
#    z -0.016200 0.000000 1.717670 
# 
# From -- ./inp_files/8053.got.cif
#   From: 2010.05.17/outbox.cif.g08.bks.cpg/sg12_5_cif.got.tgz:8053.got - 2010.06.03 13:09:07.
