data_PCOD9185979
_publ_section_title
;
Structure prediction by ZEFSAII (Michael W. Deem and Ramdas Pophale) SiO2 
 PCOD9185979
Probable space group: C 2/M
;
_chemical_formula_sum "Si O2"
_cell_formula_units_Z 64
_cell_length_a 24.871227
_cell_length_b 8.763486
_cell_length_c 16.473695
_cell_angle_alpha 90.000000
_cell_angle_beta 91.263726
_cell_angle_gamma 90.000000
_cell_volume 3589.710987
_symmetry_space_group_name_H-M "C 2/M"
_symmetry_group_IT_number 12
_symmetry_cell_setting 'monoclinic'
loop_
_space_group_symop_operation_xyz
x,y,z
-x,y,-z
-x,-y,-z
x,-y,z
1/2+x,1/2+y,z
1/2-x,1/2+y,-z
1/2-x,1/2-y,-z
1/2+x,1/2-y,z
loop_
_atom_site_type_symbol
_atom_site_label
_atom_site_fract_x
_atom_site_fract_y
_atom_site_fract_z
Si Si1 0.867275 0.680690 0.117642
Si Si2 0.940453 0.682457 0.531775
Si Si3 0.044092 0.182375 0.770334
Si Si4 0.678390 0.817895 0.208279
Si Si5 0.806125 0.181652 0.969588
Si Si6 0.379425 0.682256 0.380274
Si Si7 0.073715 0.816904 0.290005
Si Si8 0.289097 0.817801 0.268039
O O1 0.866541 0.500000 0.101918
O O2 0.923643 0.732154 0.158160
O O3 0.822705 0.713363 0.186159
O O4 0.850712 0.771002 0.036948
O O5 0.936936 0.500000 0.540553
O O6 0.898056 0.740916 0.463938
O O7 0.931564 0.761540 0.617675
O O8 0.000000 0.720390 0.500000
O O9 0.075301 0.216102 0.686974
O O10 0.982004 0.224089 0.757264
O O11 0.048235 0.000000 0.783524
O O12 0.681316 0.751172 0.117565
O O13 0.624679 0.759599 0.249756
O O14 0.730860 0.755663 0.256758
O O15 0.679883 0.000000 0.205617
O O16 0.801397 0.000000 0.963136
O O17 0.750000 0.250000 0.000000
O O18 0.376203 0.500000 0.389330
O O19 0.324334 0.747804 0.341711
O O20 0.078960 0.000000 0.288191
O O21 0.285129 0.000000 0.276564
#
# Coordination Sequence:
#
# PCOD9185979 Si02
#       8
#     8   8   8   8   8   8   8   8
#     4  10  20  34  58  89 120 152 192 244 295 345
#     4  11  22  36  58  89 122 155 199 248 294 345
#     4   9  19  35  57  85 118 155 195 240 293 350
#     4  12  25  41  61  87 121 159 198 242 296 355
#     4  12  23  38  61  89 120 154 198 247 293 346
#     4  10  19  34  58  88 119 153 196 245 295 346
#     4  11  23  41  62  86 120 160 200 242 295 355
#     4  10  20  36  58  86 120 156 195 240 294 351
#
# _framework density 17.828733
#
# number of rings (size 3 to 8) (size 9 to 14) (size 15 to 20)
#    0.000    1.375    2.500    4.125    0.000    3.000 
#    0.000    1.250    0.000    3.750    0.000    0.000 
#    0.000    0.000    0.000    0.000    0.000    0.000 
#
# Total GULP energy -178871.008916 kJ/mol
# GULP energy per Si atom -5589.719029 kJ/mol
# Density = 1.778815 g / cm^3
# Si number density = 17.828733 Si / 1000 Ang^3
#
#
#
# Elastic Constant Matrix: (Units=GPa)
#
#
# Indices 1 2 3 4 5 6 
#
# 1 145.9695 63.4112 65.6204 0.0000 14.1646 0.0000
# 2 63.4112 83.5159 40.9832 0.0000 5.1388 0.0000
# 3 65.6204 40.9832 87.7538 0.0000 11.8228 0.0000
# 4 0.0000 0.0000 0.0000 32.9818 0.0000 3.5293
# 5 14.1646 5.1388 11.8228 0.0000 29.4094 0.0000
# 6 0.0000 0.0000 0.0000 3.5293 0.0000 29.8988
#
#
#
# Elastic Compliance Matrix: (Units=1/GPa)
#
#
# Indices 1 2 3 4 5 6 
#
# 1 0.012638 -0.006447 -0.006101 0.000000 -0.002507 0.000000
# 2 -0.006447 0.018824 -0.004171 0.000000 0.001493 0.000000
# 3 -0.006101 -0.004171 0.018409 0.000000 -0.003733 0.000000
# 4 0.000000 0.000000 0.000000 0.030708 0.000000 -0.003625
# 5 -0.002507 0.001493 -0.003733 0.000000 0.036450 0.000000
# 6 0.000000 0.000000 0.000000 -0.003625 0.000000 0.033874
#
#
# Mechanical properties :
#
#
# Convention : Reuss Voigt Hill
#
# Bulk Modulus (GPa) = 60.86069 73.02987 66.94528
# Shear Modulus (GPa) = 26.34083 28.27296 27.30689
#
# Velocity S-wave (km/s) = 3.84791 3.98654 3.91784
# Velocity P-wave (km/s) = 7.34522 7.88929 7.62211
#
# Compressibility (1/GPa) = 0.01643097
#
# Stress axis : x y z
#
# Youngs Moduli (GPa) = 79.12902 53.12379 54.32084
#
# Poissons Ratio (x) = 0.34249 0.33143
# Poissons Ratio (y) = 0.51014 0.22660
# Poissons Ratio (z) = 0.48280 0.22161
#
# Static dielectric constant tensor:
#      x y z
#    x 1.596670 0.000000 0.008640 
#    y 0.000000 1.590660 0.000000 
#    z 0.008640 0.000000 1.583170 
# 
# From -- ./inp_files/238754.got.cif
#   From: 2010.05.17/outbox.cif.g08.bks.cpg/sg12_120_cif.got.tgz:238754.got - 2010.06.03 13:09:07.
