data_PCOD9185442
_publ_section_title
;
Structure prediction by ZEFSAII (Michael W. Deem and Ramdas Pophale) SiO2 
 PCOD9185442
Probable space group: C 2/M
;
_chemical_formula_sum "Si O2"
_cell_formula_units_Z 48
_cell_length_a 19.016730
_cell_length_b 8.544517
_cell_length_c 18.528368
_cell_angle_alpha 90.000000
_cell_angle_beta 120.834795
_cell_angle_gamma 90.000000
_cell_volume 2585.092480
_symmetry_space_group_name_H-M "C 2/M"
_symmetry_group_IT_number 12
_symmetry_cell_setting 'monoclinic'
loop_
_space_group_symop_operation_xyz
x,y,z
-x,y,-z
-x,-y,-z
x,-y,z
1/2+x,1/2+y,z
1/2-x,1/2+y,-z
1/2-x,1/2-y,-z
1/2+x,1/2-y,z
loop_
_atom_site_type_symbol
_atom_site_label
_atom_site_fract_x
_atom_site_fract_y
_atom_site_fract_z
Si Si1 0.246280 0.814596 0.078547
Si Si2 0.411099 0.187046 0.922588
Si Si3 0.173170 0.187813 0.257038
Si Si4 0.495765 0.690914 0.581004
Si Si5 0.167246 0.187778 0.740483
Si Si6 0.333060 0.689259 0.579466
O O1 0.159190 0.768674 0.067418
O O2 0.312884 0.740486 0.167774
O O3 0.256165 0.000000 0.083663
O O4 0.250000 0.750000 0.000000
O O5 0.394575 0.240295 0.831993
O O6 0.400153 0.000000 0.921520
O O7 0.500000 0.227338 0.000000
O O8 0.260923 0.242503 0.271968
O O9 0.162972 0.236784 0.334552
O O10 0.168973 0.000000 0.250461
O O11 0.500000 0.741985 0.500000
O O12 0.494637 0.500000 0.580277
O O13 0.578208 0.738309 0.665994
O O14 0.413036 0.742757 0.577314
O O15 0.172438 0.000000 0.739070
O O16 0.331790 0.500000 0.576954
O O17 0.250000 0.750000 0.500000
#
# Coordination Sequence:
#
# PCOD9185442 Si02
#       6
#     8   8   8   8   8   8
#     4  11  22  37  57  81 112 146 183 226 273 325
#     4  10  21  37  57  82 111 143 183 227 272 326
#     4  10  20  34  53  78 109 142 177 220 270 325
#     4   9  18  33  54  79 106 138 177 219 262 314
#     4  10  19  34  57  80 105 141 182 222 267 317
#     4  10  21  36  54  79 107 137 177 220 266 320
#
# _framework density 18.568000999999999
#
# number of rings (size 3 to 8) (size 9 to 14) (size 15 to 20)
#    0.000    2.000    0.000    6.000    0.000    5.333 
#    0.000    3.333    0.000    4.500    0.000    0.000 
#    0.000    0.000    0.000    0.000    0.000    0.000 
#
# Total GULP energy -134040.232186 kJ/mol
# GULP energy per Si atom -5585.009674 kJ/mol
# Density = 1.852574 g / cm^3
# Si number density = 18.568001 Si / 1000 Ang^3
#
#
#
# Elastic Constant Matrix: (Units=GPa)
#
#
# Indices 1 2 3 4 5 6 
#
# 1 104.5358 9.4366 96.3961 0.0000 -0.9381 0.0000
# 2 9.4366 28.4933 12.1271 0.0000 1.2866 0.0000
# 3 96.3961 12.1271 173.2159 0.0000 -1.3592 0.0000
# 4 0.0000 0.0000 0.0000 27.0067 0.0000 0.6632
# 5 -0.9381 1.2866 -1.3592 0.0000 42.3841 0.0000
# 6 0.0000 0.0000 0.0000 0.6632 0.0000 23.0514
#
#
#
# Elastic Compliance Matrix: (Units=1/GPa)
#
#
# Indices 1 2 3 4 5 6 
#
# 1 0.019752 -0.001928 -0.010856 0.000000 0.000148 0.000000
# 2 -0.001928 0.036421 -0.001486 0.000000 -0.001196 0.000000
# 3 -0.010856 -0.001486 0.011920 0.000000 0.000187 0.000000
# 4 0.000000 0.000000 0.000000 0.037054 0.000000 -0.001066
# 5 0.000148 -0.001196 0.000187 0.000000 0.023639 0.000000
# 6 0.000000 0.000000 0.000000 -0.001066 0.000000 0.043412
#
#
# Mechanical properties :
#
#
# Convention : Reuss Voigt Hill
#
# Bulk Modulus (GPa) = 25.28272 60.24051 42.76162
# Shear Modulus (GPa) = 23.37278 31.04080 27.20679
#
# Velocity S-wave (km/s) = 3.55176 4.09312 3.83201
# Velocity P-wave (km/s) = 5.51959 7.40620 6.53137
#
# Compressibility (1/GPa) = 0.03955271
#
# Stress axis : x y z
#
# Youngs Moduli (GPa) = 50.62687 27.45666 83.89080
#
# Poissons Ratio (x) = 0.05293 0.91074
# Poissons Ratio (y) = 0.09760 0.12470
# Poissons Ratio (z) = 0.54962 0.04081
#
# Static dielectric constant tensor:
#      x y z
#    x 1.615600 0.000000 -0.004440 
#    y 0.000000 1.632520 0.000000 
#    z -0.004440 0.000000 1.631520 
# 
# From -- ./inp_files/274574.got.cif
#   From: 2010.05.17/outbox.cif.g08.bks.cpg/sg12_138_cif.got.tgz:274574.got - 2010.06.03 13:09:07.
