data_PCOD9185266
_publ_section_title
;
Structure prediction by ZEFSAII (Michael W. Deem and Ramdas Pophale) SiO2 
 PCOD9185266
Probable space group: C 2/M
;
_chemical_formula_sum "Si O2"
_cell_formula_units_Z 32
_cell_length_a 20.451337
_cell_length_b 9.225641
_cell_length_c 25.429984
_cell_angle_alpha 90.000000
_cell_angle_beta 157.095173
_cell_angle_gamma 90.000000
_cell_volume 1867.406691
_symmetry_space_group_name_H-M "C 2/M"
_symmetry_group_IT_number 12
_symmetry_cell_setting 'monoclinic'
loop_
_space_group_symop_operation_xyz
x,y,z
-x,y,-z
-x,-y,-z
x,-y,z
1/2+x,1/2+y,z
1/2-x,1/2+y,-z
1/2-x,1/2-y,-z
1/2+x,1/2-y,z
loop_
_atom_site_type_symbol
_atom_site_label
_atom_site_fract_x
_atom_site_fract_y
_atom_site_fract_z
Si Si1 0.302483 0.172947 0.344666
Si Si2 0.306397 0.172144 0.842156
Si Si3 0.018404 0.328426 0.691155
Si Si4 0.812012 0.828498 0.624484
O O1 0.500000 0.202525 0.500000
O O2 0.235147 0.260600 0.245379
O O3 0.207412 0.206939 0.328624
O O4 0.287329 0.000000 0.323350
O O5 0.182275 0.247846 0.791667
O O6 0.276152 0.000000 0.819420
O O7 0.500000 0.198458 0.000000
O O8 0.046745 0.500000 0.716085
O O9 0.947345 0.263440 0.692679
O O10 0.868587 0.304804 0.537532
O O11 0.848970 0.000000 0.646674
#
# Coordination Sequence:
#
# PCOD9185266 Si02
#       4
#     8   8   8   8
#     4  10  19  36  59  85 113 142 184 232 278 329
#     4  11  24  39  55  80 115 151 188 230 276 329
#     4  10  19  34  56  82 112 146 185 226 275 332
#     4   9  18  33  55  84 115 141 175 230 281 326
#
# _framework density 17.136064000000001
#
# number of rings (size 3 to 8) (size 9 to 14) (size 15 to 20)
#    0.000    2.000    2.500    1.500    0.000    4.500 
#    0.000    1.250    0.000    0.000    0.000    0.000 
#    0.000    0.000    0.000    0.000    0.000    0.000 
#
# Total GULP energy -89331.924855 kJ/mol
# GULP energy per Si atom -5583.245303 kJ/mol
# Density = 1.709706 g / cm^3
# Si number density = 17.136064 Si / 1000 Ang^3
#
#
#
# Elastic Constant Matrix: (Units=GPa)
#
#
# Indices 1 2 3 4 5 6 
#
# 1 152.3945 93.8803 82.1292 0.0039 22.9991 -0.0017
# 2 93.8803 97.7130 85.5126 -0.0026 17.8397 -0.0004
# 3 82.1292 85.5126 93.5378 -0.0192 14.3581 0.0042
# 4 0.0039 -0.0026 -0.0192 24.9632 -0.0029 1.0756
# 5 22.9991 17.8397 14.3581 -0.0029 22.7269 0.0018
# 6 -0.0017 -0.0004 0.0042 1.0756 0.0018 36.7527
#
#
#
# Elastic Compliance Matrix: (Units=1/GPa)
#
#
# Indices 1 2 3 4 5 6 
#
# 1 0.016549 -0.014716 -0.000309 -0.000005 -0.005000 0.000001
# 2 -0.014716 0.067273 -0.047352 -0.000028 -0.007999 0.000007
# 3 -0.000309 -0.047352 0.053707 0.000037 0.003553 -0.000008
# 4 -0.000005 -0.000028 0.000037 0.040110 0.000009 -0.001174
# 5 -0.005000 -0.007999 0.003553 0.000009 0.053095 -0.000004
# 6 0.000001 0.000007 -0.000008 -0.001174 -0.000004 0.027243
#
#
# Mechanical properties :
#
#
# Convention : Reuss Voigt Hill
#
# Bulk Modulus (GPa) = 78.28885 96.29885 87.29385
# Shear Modulus (GPa) = 12.92021 22.36345 17.64183
#
# Velocity S-wave (km/s) = 2.74884 3.61647 3.21209
# Velocity P-wave (km/s) = 7.47400 8.58819 8.05039
#
# Compressibility (1/GPa) = 0.01277321
#
# Stress axis : x y z
#
# Youngs Moduli (GPa) = 60.42682 14.86475 18.61954
#
# Poissons Ratio (x) = 0.21875 0.00576
# Poissons Ratio (y) = 0.88925 0.88168
# Poissons Ratio (z) = 0.01870 0.70388
#
# Static dielectric constant tensor:
#      x y z
#    x 1.570550 0.000000 0.003960 
#    y 0.000000 1.567200 0.000000 
#    z 0.003960 0.000000 1.553260 
# 
# From -- ./inp_files/81678.got.cif
#   From: 2010.05.17/outbox.cif.g08.bks.cpg/sg12_41_cif.got.tgz:81678.got - 2010.06.03 13:09:07.
