data_PCOD9185588
_publ_section_title
;
Structure prediction by ZEFSAII (Michael W. Deem and Ramdas Pophale) SiO2 
 PCOD9185588
Probable space group: C 2/M
;
_chemical_formula_sum "Si O2"
_cell_formula_units_Z 64
_cell_length_a 14.878322
_cell_length_b 7.752576
_cell_length_c 31.133492
_cell_angle_alpha 90.000000
_cell_angle_beta 133.770786
_cell_angle_gamma 90.000000
_cell_volume 2593.182076
_symmetry_space_group_name_H-M "C 2/M"
_symmetry_group_IT_number 12
_symmetry_cell_setting 'monoclinic'
loop_
_space_group_symop_operation_xyz
x,y,z
-x,y,-z
-x,-y,-z
x,-y,z
1/2+x,1/2+y,z
1/2-x,1/2+y,-z
1/2-x,1/2-y,-z
1/2+x,1/2-y,z
loop_
_atom_site_type_symbol
_atom_site_label
_atom_site_fract_x
_atom_site_fract_y
_atom_site_fract_z
Si Si1 0.606620 0.708281 0.396251
Si Si2 0.862988 0.297796 0.354551
Si Si3 0.749153 0.200248 0.865617
Si Si4 0.412640 0.210409 0.106110
Si Si5 0.369835 0.200891 0.762199
Si Si6 0.359383 0.788648 0.448130
Si Si7 0.025214 0.197781 0.733975
Si Si8 0.484864 0.196472 0.041891
O O1 0.608812 0.500000 0.396216
O O2 0.510099 0.765246 0.400213
O O3 0.749188 0.768698 0.443290
O O4 0.538564 0.769518 0.329851
O O5 0.842822 0.500000 0.345320
O O6 0.778547 0.218458 0.289019
O O7 0.820512 0.235523 0.387183
O O8 0.687512 0.260812 0.890639
O O9 0.645075 0.214011 0.794447
O O10 0.872138 0.304701 0.895303
O O11 0.782563 0.000000 0.881432
O O12 0.547257 0.261560 0.170506
O O13 0.405702 0.275030 0.054822
O O14 0.408759 0.000000 0.102512
O O15 0.423556 0.296472 0.738380
O O16 0.400747 0.000000 0.766899
O O17 0.500000 0.727510 0.500000
O O18 0.362668 0.000000 0.450347
O O19 0.059112 0.000000 0.736743
O O20 0.440032 0.000000 0.020282
O O21 0.500000 0.280418 0.000000
#
# Coordination Sequence:
#
# PCOD9185588 Si02
#       8
#     8   8   8   8   8   8   8   8
#     4  10  21  37  57  84 115 152 189 231 291 347
#     4  11  22  36  56  87 117 149 194 238 280 339
#     4  10  21  37  56  82 114 150 187 233 291 343
#     4   8  18  36  55  78 111 148 182 224 285 340
#     4  10  19  34  57  83 116 153 187 231 291 345
#     4   9  19  39  62  81 112 157 196 235 287 341
#     4  10  19  35  58  84 116 151 190 233 286 347
#     4  10  21  38  59  82 110 150 197 237 278 341
#
# _framework density 24.680104
#
# number of rings (size 3 to 8) (size 9 to 14) (size 15 to 20)
#    0.000    2.250    1.250    2.250    1.750    2.250 
#    0.000    3.125    0.000    2.625    0.000    0.000 
#    0.000    0.000    0.000    0.000    0.000    0.000 
#
# Total GULP energy -178753.022828 kJ/mol
# GULP energy per Si atom -5586.031963 kJ/mol
# Density = 2.462393 g / cm^3
# Si number density = 24.680104 Si / 1000 Ang^3
#
#
#
# Elastic Constant Matrix: (Units=GPa)
#
#
# Indices 1 2 3 4 5 6 
#
# 1 82.9728 -2.8031 6.6674 0.0000 8.0680 0.0000
# 2 -2.8031 51.2054 2.6672 0.0000 2.0271 0.0000
# 3 6.6674 2.6672 40.3964 0.0000 4.8948 0.0000
# 4 0.0000 0.0000 0.0000 9.4946 0.0000 6.4206
# 5 8.0680 2.0271 4.8948 0.0000 37.3803 0.0000
# 6 0.0000 0.0000 0.0000 6.4206 0.0000 19.3907
#
#
#
# Elastic Compliance Matrix: (Units=1/GPa)
#
#
# Indices 1 2 3 4 5 6 
#
# 1 0.012471 0.000876 -0.001813 0.000000 -0.002502 0.000000
# 2 0.000876 0.019688 -0.001313 0.000000 -0.001085 0.000000
# 3 -0.001813 -0.001313 0.025489 0.000000 -0.002875 0.000000
# 4 0.000000 0.000000 0.000000 0.135710 0.000000 -0.044936
# 5 -0.002502 -0.001085 -0.002875 0.000000 0.027727 0.000000
# 6 0.000000 0.000000 0.000000 -0.044936 0.000000 0.066450
#
#
# Mechanical properties :
#
#
# Convention : Reuss Voigt Hill
#
# Bulk Modulus (GPa) = 18.81530 20.84863 19.83197
# Shear Modulus (GPa) = 16.14194 24.45600 20.29897
#
# Velocity S-wave (km/s) = 2.56021 3.15130 2.87101
# Velocity P-wave (km/s) = 4.04719 4.65906 4.36386
#
# Compressibility (1/GPa) = 0.05314824
#
# Stress axis : x y z
#
# Youngs Moduli (GPa) = 80.18807 50.79111 39.23262
#
# Poissons Ratio (x) = -0.04450 0.07113
# Poissons Ratio (y) = -0.07026 0.05152
# Poissons Ratio (z) = 0.14538 0.06669
#
# Static dielectric constant tensor:
#      x y z
#    x 1.976380 0.000000 0.002250 
#    y 0.000000 1.903290 0.000000 
#    z 0.002250 0.000000 2.006920 
# 
# From -- ./inp_files/359934.got.cif
#   From: 2010.05.17/outbox.cif.g08.bks.cpg/sg12_180_cif.got.tgz:359934.got - 2010.06.03 13:09:07.
