data_PCOD9185415
_publ_section_title
;
Structure prediction by ZEFSAII (Michael W. Deem and Ramdas Pophale) SiO2 
 PCOD9185415
Probable space group: C 2/M
;
_chemical_formula_sum "Si O2"
_cell_formula_units_Z 56
_cell_length_a 16.676026
_cell_length_b 7.638521
_cell_length_c 23.303527
_cell_angle_alpha 90.000000
_cell_angle_beta 58.111505
_cell_angle_gamma 90.000000
_cell_volume 2520.408720
_symmetry_space_group_name_H-M "C 2/M"
_symmetry_group_IT_number 12
_symmetry_cell_setting 'monoclinic'
loop_
_space_group_symop_operation_xyz
x,y,z
-x,y,-z
-x,-y,-z
x,-y,z
1/2+x,1/2+y,z
1/2-x,1/2+y,-z
1/2-x,1/2-y,-z
1/2+x,1/2-y,z
loop_
_atom_site_type_symbol
_atom_site_label
_atom_site_fract_x
_atom_site_fract_y
_atom_site_fract_z
Si Si1 0.072235 0.294055 0.426169
Si Si2 0.289233 0.715114 0.348819
Si Si3 0.337310 0.210096 0.925874
Si Si4 0.630765 0.787233 0.214392
Si Si5 0.462131 0.702600 0.353314
Si Si6 0.013280 0.709498 0.930646
Si Si7 0.310985 0.710157 0.213794
O O1 0.082569 0.500000 0.434914
O O2 0.179723 0.226087 0.390549
O O3 0.000000 0.217039 0.500000
O O4 0.021484 0.281964 0.383470
O O5 0.290578 0.500000 0.349627
O O6 0.359679 0.774309 0.372832
O O7 0.329796 0.771259 0.271280
O O8 0.335140 0.272250 0.861209
O O9 0.431010 0.279386 0.921026
O O10 0.343152 0.000000 0.920033
O O11 0.250000 0.250000 0.000000
O O12 0.529525 0.719233 0.272234
O O13 0.708831 0.729186 0.230829
O O14 0.626534 0.000000 0.216698
O O15 0.449746 0.500000 0.372974
O O16 0.001395 0.500000 0.938431
O O17 0.112129 0.742662 0.862695
O O18 0.000000 0.778965 0.000000
O O19 0.307420 0.500000 0.217297
#
# Coordination Sequence:
#
# PCOD9185415 Si02
#       7
#     8   8   8   8   8   8   8
#     4  10  21  41  66  87 117 162 199 232 286 355
#     4   9  19  37  58  85 119 152 190 237 290 345
#     4  10  21  35  52  76 106 144 189 240 290 344
#     4  10  20  36  57  80 110 149 195 241 285 347
#     4  11  22  36  59  89 120 152 190 244 297 339
#     4  10  21  35  49  72 109 144 178 232 295 345
#     4  10  19  34  57  78 104 144 188 236 281 336
#
# _framework density 22.218617999999999
#
# number of rings (size 3 to 8) (size 9 to 14) (size 15 to 20)
#    0.000    2.000    1.429    2.143    0.000    2.857 
#    0.000    2.143    0.000    0.000    0.000    0.000 
#    0.000    0.000    0.000    0.000    0.000    0.000 
#
# Total GULP energy -156348.255283 kJ/mol
# GULP energy per Si atom -5583.866260 kJ/mol
# Density = 2.216805 g / cm^3
# Si number density = 22.218618 Si / 1000 Ang^3
#
#
#
# Elastic Constant Matrix: (Units=GPa)
#
#
# Indices 1 2 3 4 5 6 
#
# 1 144.6662 -5.8129 40.8530 0.0002 -16.5688 0.0003
# 2 -5.8129 35.1403 -12.4659 0.0003 -0.2227 0.0007
# 3 40.8530 -12.4659 112.4848 0.0000 -12.1540 0.0000
# 4 0.0002 0.0003 0.0000 4.8229 0.0001 1.3475
# 5 -16.5688 -0.2227 -12.1540 0.0001 25.2000 0.0001
# 6 0.0003 0.0007 0.0000 1.3475 0.0001 4.1335
#
#
#
# Elastic Compliance Matrix: (Units=1/GPa)
#
#
# Indices 1 2 3 4 5 6 
#
# 1 0.008096 0.000501 -0.002436 0.000000 0.004153 -0.000001
# 2 0.000501 0.029744 0.003353 0.000000 0.002210 -0.000005
# 3 -0.002436 0.003353 0.010525 0.000000 0.003504 0.000000
# 4 0.000000 0.000000 0.000000 0.228122 0.000000 -0.074368
# 5 0.004153 0.002210 0.003504 0.000000 0.044122 -0.000001
# 6 -0.000001 -0.000005 0.000000 -0.074368 -0.000001 0.266171
#
#
# Mechanical properties :
#
#
# Convention : Reuss Voigt Hill
#
# Bulk Modulus (GPa) = 19.53077 37.49330 28.51204
# Shear Modulus (GPa) = 8.31931 24.81242 16.56587
#
# Velocity S-wave (km/s) = 1.93712 3.34539 2.73350
# Velocity P-wave (km/s) = 3.71653 5.64212 4.77735
#
# Compressibility (1/GPa) = 0.05120126
#
# Stress axis : x y z
#
# Youngs Moduli (GPa) = 123.51506 33.62052 95.01125
#
# Poissons Ratio (x) = -0.01686 0.23146
# Poissons Ratio (y) = -0.06193 -0.31857
# Poissons Ratio (z) = 0.30090 -0.11273
#
# Static dielectric constant tensor:
#      x y z
#    x 1.825810 0.000000 0.002780 
#    y 0.000000 1.819710 0.000000 
#    z 0.002780 0.000000 1.824250 
# 
# From -- ./inp_files/308964.got.cif
#   From: 2010.05.17/outbox.cif.g08.bks.cpg/sg12_155_cif.got.tgz:308964.got - 2010.06.03 13:09:07.
