data_PCOD9185409
_publ_section_title
;
Structure prediction by ZEFSAII (Michael W. Deem and Ramdas Pophale) SiO2 
 PCOD9185409
Probable space group: C 2/M
;
_chemical_formula_sum "Si O2"
_cell_formula_units_Z 60
_cell_length_a 25.636312
_cell_length_b 7.584085
_cell_length_c 18.084993
_cell_angle_alpha 90.000000
_cell_angle_beta 64.044026
_cell_angle_gamma 90.000000
_cell_volume 3161.548695
_symmetry_space_group_name_H-M "C 2/M"
_symmetry_group_IT_number 12
_symmetry_cell_setting 'monoclinic'
loop_
_space_group_symop_operation_xyz
x,y,z
-x,y,-z
-x,-y,-z
x,-y,z
1/2+x,1/2+y,z
1/2-x,1/2+y,-z
1/2-x,1/2-y,-z
1/2+x,1/2-y,z
loop_
_atom_site_type_symbol
_atom_site_label
_atom_site_fract_x
_atom_site_fract_y
_atom_site_fract_z
Si Si1 0.508875 0.700443 0.108336
Si Si2 0.622943 0.702304 0.862926
Si Si3 0.407069 0.000000 0.014756
Si Si4 0.787510 0.714108 0.322299
Si Si5 0.342272 0.704440 0.596793
Si Si6 0.139726 0.287202 0.584710
Si Si7 0.961836 0.703724 0.590135
Si Si8 0.490068 0.213658 0.286009
O O1 0.521893 0.500000 0.076248
O O2 0.442264 0.740291 0.126975
O O3 0.550150 0.844967 0.046729
O O4 0.511480 0.711125 0.195391
O O5 0.625608 0.500000 0.885749
O O6 0.667793 0.727601 0.768070
O O7 0.632000 0.844897 0.920632
O O8 0.786874 0.500000 0.323781
O O9 0.722083 0.776302 0.349120
O O10 0.811360 0.771357 0.387731
O O11 0.343245 0.500000 0.617822
O O12 0.353094 0.717311 0.502193
O O13 0.395444 0.791330 0.606671
O O14 0.141265 0.500000 0.578493
O O15 0.076982 0.239565 0.656891
O O16 0.981610 0.500000 0.583465
O O17 0.000000 0.785169 0.500000
O O18 0.974651 0.775333 0.663598
O O19 0.493485 0.000000 0.276803
#
# Coordination Sequence:
#
# PCOD9185409 Si02
#       8
#     8   8   4   8   8   8   8   8
#     4  11  22  35  56  87 119 155 197 234 289 362
#     4  11  22  35  57  87 117 159 195 231 292 358
#     4  12  23  38  60  82 127 158 186 242 299 351
#     4  10  21  37  55  78 117 160 198 238 292 352
#     4  11  23  35  52  82 116 153 201 248 292 337
#     4  10  19  34  57  76 110 162 198 234 287 339
#     4  10  20  37  57  78 108 152 202 245 293 349
#     4  10  19  34  58  81 111 156 196 241 298 343
#
# _framework density 18.97804
#
# number of rings (size 3 to 8) (size 9 to 14) (size 15 to 20)
#    0.000    1.467    4.000    2.400    0.000    4.000 
#    0.000    0.000    0.000    0.000    0.000    0.933 
#    0.000    0.000    0.000    0.000    0.000    0.000 
#
# Total GULP energy -167100.768524 kJ/mol
# GULP energy per Si atom -5570.025617 kJ/mol
# Density = 1.893484 g / cm^3
# Si number density = 18.978040 Si / 1000 Ang^3
#
#
#
# Elastic Constant Matrix: (Units=GPa)
#
#
# Indices 1 2 3 4 5 6 
#
# 1 68.5624 1.3001 14.8311 -0.0007 7.4386 -0.0010
# 2 1.3001 66.5042 9.8231 -0.0006 4.9613 -0.0016
# 3 14.8311 9.8231 74.0755 -0.0004 5.1114 -0.0008
# 4 -0.0007 -0.0006 -0.0004 14.2123 0.0002 0.1715
# 5 7.4386 4.9613 5.1114 0.0002 10.5677 0.0003
# 6 -0.0010 -0.0016 -0.0008 0.1715 0.0003 7.7085
#
#
#
# Elastic Compliance Matrix: (Units=1/GPa)
#
#
# Indices 1 2 3 4 5 6 
#
# 1 0.016290 0.000862 -0.002645 0.000001 -0.010592 0.000002
# 2 0.000862 0.015817 -0.001775 0.000001 -0.007174 0.000004
# 3 -0.002645 -0.001775 0.014565 0.000000 -0.004350 0.000001
# 4 0.000001 0.000001 0.000000 0.070380 -0.000002 -0.001566
# 5 -0.010592 -0.007174 -0.004350 -0.000002 0.107555 -0.000007
# 6 0.000002 0.000004 0.000001 -0.001566 -0.000007 0.129761
#
#
# Mechanical properties :
#
#
# Convention : Reuss Voigt Hill
#
# Bulk Modulus (GPa) = 25.28009 29.00562 27.14285
# Shear Modulus (GPa) = 13.34507 18.71025 16.02766
#
# Velocity S-wave (km/s) = 2.65464 3.14329 2.90924
# Velocity P-wave (km/s) = 4.76925 5.33767 5.06145
#
# Compressibility (1/GPa) = 0.03955683
#
# Stress axis : x y z
#
# Youngs Moduli (GPa) = 61.38639 63.22231 68.65847
#
# Poissons Ratio (x) = -0.05453 0.18160
# Poissons Ratio (y) = -0.05294 0.12188
# Poissons Ratio (z) = 0.16237 0.11223
#
# Static dielectric constant tensor:
#      x y z
#    x 1.647880 0.000000 0.011690 
#    y 0.000000 1.698030 0.000000 
#    z 0.011690 0.000000 1.650910 
# 
# From -- ./inp_files/291880.got.cif
#   From: 2010.05.17/outbox.cif.g08.bks.cpg/sg12_146_cif.got.tgz:291880.got - 2010.06.03 13:09:07.
