data_PCOD9185419
_publ_section_title
;
Structure prediction by ZEFSAII (Michael W. Deem and Ramdas Pophale) SiO2 
 PCOD9185419
Probable space group: C 2/M
;
_chemical_formula_sum "Si O2"
_cell_formula_units_Z 56
_cell_length_a 18.449107
_cell_length_b 7.492512
_cell_length_c 29.742801
_cell_angle_alpha 90.000000
_cell_angle_beta 141.108894
_cell_angle_gamma 90.000000
_cell_volume 2581.280471
_symmetry_space_group_name_H-M "C 2/M"
_symmetry_group_IT_number 12
_symmetry_cell_setting 'monoclinic'
loop_
_space_group_symop_operation_xyz
x,y,z
-x,y,-z
-x,-y,-z
x,-y,z
1/2+x,1/2+y,z
1/2-x,1/2+y,-z
1/2-x,1/2-y,-z
1/2+x,1/2-y,z
loop_
_atom_site_type_symbol
_atom_site_label
_atom_site_fract_x
_atom_site_fract_y
_atom_site_fract_z
Si Si1 0.800742 0.213701 0.573585
Si Si2 0.921931 0.212565 0.002972
Si Si3 0.767369 0.712633 0.285019
Si Si4 0.654795 0.285334 0.855280
Si Si5 0.939079 0.785215 0.285928
Si Si6 0.631757 0.781288 0.571328
Si Si7 0.007386 0.780966 0.141307
O O1 0.750000 0.250000 0.500000
O O2 0.715020 0.278494 0.571215
O O3 0.931336 0.281796 0.642270
O O4 0.806045 0.000000 0.581196
O O5 0.787717 0.241592 0.928341
O O6 0.941713 0.000000 0.014018
O O7 0.959368 0.280434 0.069999
O O8 0.000000 0.284918 0.000000
O O9 0.756086 0.500000 0.285021
O O10 0.853700 0.743958 0.285561
O O11 0.819742 0.779774 0.357183
O O12 0.638793 0.779018 0.212404
O O13 0.645615 0.500000 0.850023
O O14 0.611002 0.219051 0.785746
O O15 0.574282 0.222538 0.857256
O O16 0.945304 0.000000 0.285955
O O17 0.500000 0.725080 0.500000
O O18 0.631466 0.000000 0.571199
O O19 0.006469 0.000000 0.140785
#
# Coordination Sequence:
#
# PCOD9185419 Si02
#       7
#     8   8   8   8   8   8   8
#     4  10  20  35  54  77 106 137 170 210 255 301
#     4  10  20  34  52  76 105 133 167 215 261 299
#     4  10  19  34  57  78  99 134 176 212 251 304
#     4  10  20  35  54  75 102 137 173 207 252 310
#     4  10  21  35  51  75 107 136 164 208 260 303
#     4   9  17  30  51  78 102 127 167 213 248 289
#     4   9  18  33  53  76 101 132 171 213 255 300
#
# _framework density 21.694658
#
# number of rings (size 3 to 8) (size 9 to 14) (size 15 to 20)
#    0.000    2.286    0.000    3.000    0.000    7.143 
#    0.000    2.143    0.000    4.286    0.000    0.000 
#    0.000    0.000    0.000    0.000    0.000    0.000 
#
# Total GULP energy -156532.574047 kJ/mol
# GULP energy per Si atom -5590.449073 kJ/mol
# Density = 2.164528 g / cm^3
# Si number density = 21.694658 Si / 1000 Ang^3
#
#
#
# Elastic Constant Matrix: (Units=GPa)
#
#
# Indices 1 2 3 4 5 6 
#
# 1 261.4764 -3.4049 164.5708 0.0000 -3.5040 0.0004
# 2 -3.4049 56.0524 -2.0547 0.0001 -3.1792 0.0007
# 3 164.5708 -2.0547 263.0885 0.0000 -5.9749 0.0001
# 4 0.0000 0.0001 0.0000 15.1862 0.0000 6.7923
# 5 -3.5040 -3.1792 -5.9749 0.0000 49.4886 0.0000
# 6 0.0004 0.0007 0.0001 6.7923 0.0000 19.9473
#
#
#
# Elastic Compliance Matrix: (Units=1/GPa)
#
#
# Indices 1 2 3 4 5 6 
#
# 1 0.006311 0.000238 -0.003946 0.000000 -0.000014 0.000000
# 2 0.000238 0.017922 0.000018 0.000000 0.001170 -0.000001
# 3 -0.003946 0.000018 0.006281 0.000000 0.000480 0.000000
# 4 0.000000 0.000000 0.000000 0.077680 0.000000 -0.026451
# 5 -0.000014 0.001170 0.000480 0.000000 0.020339 0.000000
# 6 0.000000 -0.000001 0.000000 -0.026451 0.000000 0.059139
#
#
# Mechanical properties :
#
#
# Convention : Reuss Voigt Hill
#
# Bulk Modulus (GPa) = 43.22960 99.87108 71.55034
# Shear Modulus (GPa) = 24.65932 45.02483 34.84207
#
# Velocity S-wave (km/s) = 3.37509 4.56058 4.01187
# Velocity P-wave (km/s) = 5.92941 8.59458 7.38325
#
# Compressibility (1/GPa) = 0.02313230
#
# Stress axis : x y z
#
# Youngs Moduli (GPa) = 158.45143 55.79760 159.22145
#
# Poissons Ratio (x) = -0.01327 0.62833
# Poissons Ratio (y) = -0.03769 -0.00282
# Poissons Ratio (z) = 0.62529 -0.00099
#
# Static dielectric constant tensor:
#      x y z
#    x 1.735730 0.000000 -0.006300 
#    y 0.000000 1.435660 0.000000 
#    z -0.006300 0.000000 1.743670 
# 
# From -- ./inp_files/275146.got.cif
#   From: 2010.05.17/outbox.cif.g08.bks.cpg/sg12_138_cif.got.tgz:275146.got - 2010.06.03 13:09:07.
