data_PCOD9185034
_publ_section_title
;
Structure prediction by ZEFSAII (Michael W. Deem and Ramdas Pophale) SiO2 
 PCOD9185034
Probable space group: C 2/M
;
_chemical_formula_sum "Si O2"
_cell_formula_units_Z 64
_cell_length_a 10.553148
_cell_length_b 15.349612
_cell_length_c 22.411475
_cell_angle_alpha 90.000000
_cell_angle_beta 123.604399
_cell_angle_gamma 90.000000
_cell_volume 3023.650939
_symmetry_space_group_name_H-M "C 2/M"
_symmetry_group_IT_number 12
_symmetry_cell_setting 'monoclinic'
loop_
_space_group_symop_operation_xyz
x,y,z
-x,y,-z
-x,-y,-z
x,-y,z
1/2+x,1/2+y,z
1/2-x,1/2+y,-z
1/2-x,1/2-y,-z
1/2+x,1/2-y,z
loop_
_atom_site_type_symbol
_atom_site_label
_atom_site_fract_x
_atom_site_fract_y
_atom_site_fract_z
Si Si1 0.399268 0.634970 0.528974
Si Si2 0.440366 0.843001 0.548292
Si Si3 0.160389 0.866266 0.150170
Si Si4 0.314980 0.643280 0.076401
Si Si5 0.985475 0.100677 0.308982
Si Si6 0.308044 0.841766 0.828517
Si Si7 0.271819 0.899933 0.308945
Si Si8 0.150346 0.644507 0.913736
O O1 0.500000 0.603259 0.500000
O O2 0.412132 0.740081 0.533203
O O3 0.220444 0.614352 0.476895
O O4 0.462444 0.605189 0.609190
O O5 0.500000 0.877105 0.500000
O O6 0.573870 0.854475 0.630681
O O7 0.168339 0.761122 0.155200
O O8 0.244079 0.897528 0.231438
O O9 0.242087 0.891523 0.110248
O O10 0.983907 0.891509 0.108157
O O11 0.252118 0.618839 0.124811
O O12 0.330243 0.749472 0.081418
O O13 0.204675 0.617835 0.993673
O O14 0.825266 0.146036 0.254140
O O15 0.122653 0.138105 0.303716
O O16 0.965080 0.000000 0.286136
O O17 0.474456 0.877164 0.856156
O O18 0.284690 0.000000 0.332532
#
# Coordination Sequence:
#
# PCOD9185034 Si02
#       8
#     8   8   8   8   8   8   8   8
#     4  10  22  39  62  90 115 142 180 235 288 331
#     4  10  20  39  63  87 114 143 186 231 274 334
#     4  10  19  34  55  82 113 145 189 237 280 329
#     4   9  16  31  53  82 114 143 186 233 286 338
#     4  11  23  39  58  81 116 156 190 227 275 337
#     4  10  19  34  56  82 113 149 187 232 283 336
#     4  11  23  38  59  83 113 155 196 229 267 332
#     4   9  18  29  53  85 111 143 183 242 289 323
#
# _framework density 21.166464999999999
#
# number of rings (size 3 to 8) (size 9 to 14) (size 15 to 20)
#    0.000    2.000    2.500    1.500    0.000    5.000 
#    0.000    1.875    0.000    4.500    0.000    0.000 
#    0.000    0.000    0.000    0.000    0.000    0.000 
#
# Total GULP energy -178780.334983 kJ/mol
# GULP energy per Si atom -5586.885468 kJ/mol
# Density = 2.111829 g / cm^3
# Si number density = 21.166465 Si / 1000 Ang^3
#
#
#
# Elastic Constant Matrix: (Units=GPa)
#
#
# Indices 1 2 3 4 5 6 
#
# 1 109.9958 16.1296 23.5698 0.0000 10.4098 0.0000
# 2 16.1296 28.7535 -4.9352 0.0000 3.5733 0.0000
# 3 23.5698 -4.9352 93.8466 0.0000 10.2214 0.0000
# 4 0.0000 0.0000 0.0000 -91.7794 0.0000 6.5467
# 5 10.4098 3.5733 10.2214 0.0000 42.6714 0.0000
# 6 0.0000 0.0000 0.0000 6.5467 0.0000 -6.4779
#
#
#
# Elastic Compliance Matrix: (Units=1/GPa)
#
#
# Indices 1 2 3 4 5 6 
#
# 1 0.010777 -0.006367 -0.002888 0.000000 -0.001404 0.000000
# 2 -0.006367 0.039364 0.003962 0.000000 -0.002692 0.000000
# 3 -0.002888 0.003962 0.011858 0.000000 -0.002468 0.000000
# 4 0.000000 0.000000 0.000000 -0.011742 0.000000 -0.011867
# 5 -0.001404 -0.002692 -0.002468 0.000000 0.024594 0.000000
# 6 0.000000 0.000000 0.000000 -0.011867 0.000000 -0.166363
#
#
# Mechanical properties :
#
#
# Convention : Reuss Voigt Hill
#
# Bulk Modulus (GPa) = 19.45002 33.56938 26.50970
# Shear Modulus (GPa) = -78.38357 2.07161 -38.15598
#
# Velocity S-wave (km/s) = -6.09199 0.99038 -4.25038
# Velocity P-wave (km/s) = 6.34619 4.14752 3.39648
#
# Compressibility (1/GPa) = 0.05141382
#
# Stress axis : x y z
#
# Youngs Moduli (GPa) = 92.79328 25.40365 84.32941
#
# Poissons Ratio (x) = 0.16173 0.24358
# Poissons Ratio (y) = 0.59078 -0.33414
# Poissons Ratio (z) = 0.26803 -0.10066
#
# Static dielectric constant tensor:
#      x y z
#    x 1.761600 0.000000 0.004370 
#    y 0.000000 1.819220 0.000000 
#    z 0.004370 0.000000 1.707240 
# 
# From -- ./inp_files/301767.got.cif
#   From: 2010.05.17/outbox.cif.g08.bks.cpg/sg12_151_cif.got.tgz:301767.got - 2010.06.03 13:09:07.
