data_PCOD9185168
_publ_section_title
;
Structure prediction by ZEFSAII (Michael W. Deem and Ramdas Pophale) SiO2 
 PCOD9185168
Probable space group: C 2/M
;
_chemical_formula_sum "Si O2"
_cell_formula_units_Z 56
_cell_length_a 27.711316
_cell_length_b 13.426651
_cell_length_c 8.361912
_cell_angle_alpha 90.000000
_cell_angle_beta 109.646278
_cell_angle_gamma 90.000000
_cell_volume 2930.102186
_symmetry_space_group_name_H-M "C 2/M"
_symmetry_group_IT_number 12
_symmetry_cell_setting 'monoclinic'
loop_
_space_group_symop_operation_xyz
x,y,z
-x,y,-z
-x,-y,-z
x,-y,z
1/2+x,1/2+y,z
1/2-x,1/2+y,-z
1/2-x,1/2-y,-z
1/2+x,1/2-y,z
loop_
_atom_site_type_symbol
_atom_site_label
_atom_site_fract_x
_atom_site_fract_y
_atom_site_fract_z
Si Si1 0.121275 0.806442 0.272563
Si Si2 0.570719 0.745955 0.888154
Si Si3 0.682577 0.785735 0.602372
Si Si4 0.658350 0.381851 0.819682
Si Si5 0.284655 0.388195 0.793025
Si Si6 0.913276 0.385522 0.369519
Si Si7 0.468756 0.703287 0.613494
O O1 0.156901 0.725994 0.401294
O O2 0.162194 0.881957 0.244765
O O3 0.080198 0.846015 0.356413
O O4 0.090299 0.759579 0.090012
O O5 0.605748 0.667120 0.826902
O O6 0.578785 0.849754 0.803928
O O7 0.511609 0.719991 0.795527
O O8 0.675165 0.680208 0.684153
O O9 0.741007 0.817760 0.675232
O O10 0.645939 0.863325 0.654432
O O11 0.653400 0.500000 0.789876
O O12 0.699630 0.363745 0.007255
O O13 0.264732 0.500000 0.765300
O O14 0.926779 0.500000 0.411016
O O15 0.946286 0.307114 0.513737
O O16 0.500000 0.655160 0.500000
#
# Coordination Sequence:
#
# PCOD9185168 Si02
#       7
#     8   8   8   8   8   8   8
#     4  10  20  34  52  76 107 142 175 214 264 318
#     4   9  18  33  53  78 110 141 172 217 266 311
#     4  10  19  34  56  79 110 143 176 217 263 311
#     4   9  19  35  56  81 105 137 182 222 258 311
#     4  10  20  35  55  78 107 142 178 218 266 314
#     4   9  18  33  55  81 108 141 181 218 257 310
#     4   9  18  33  55  76 101 138 177 217 263 308
#
# _framework density 19.111962999999999
#
# number of rings (size 3 to 8) (size 9 to 14) (size 15 to 20)
#    0.000    2.571    0.000    2.571    0.000    3.143 
#    0.000    4.286    0.000   26.571    0.000    0.000 
#    0.000    0.000    0.000    0.000    0.000    0.000 
#
# Total GULP energy -155996.794130 kJ/mol
# GULP energy per Si atom -5571.314076 kJ/mol
# Density = 1.906846 g / cm^3
# Si number density = 19.111963 Si / 1000 Ang^3
#
#
#
# Elastic Constant Matrix: (Units=GPa)
#
#
# Indices 1 2 3 4 5 6 
#
# 1 99.1872 13.5611 47.9438 0.0000 16.3588 0.0000
# 2 13.5611 43.0685 30.4405 0.0000 10.1385 0.0000
# 3 47.9438 30.4405 114.3470 0.0000 12.1145 0.0000
# 4 0.0000 0.0000 0.0000 11.5102 0.0000 3.7265
# 5 16.3588 10.1385 12.1145 0.0000 25.4642 0.0000
# 6 0.0000 0.0000 0.0000 3.7265 0.0000 5.0609
#
#
#
# Elastic Compliance Matrix: (Units=1/GPa)
#
#
# Indices 1 2 3 4 5 6 
#
# 1 0.013579 0.000999 -0.005258 0.000000 -0.006619 0.000000
# 2 0.000999 0.030387 -0.007538 0.000000 -0.009154 0.000000
# 3 -0.005258 -0.007538 0.012933 0.000000 0.000227 0.000000
# 4 0.000000 0.000000 0.000000 0.114073 0.000000 -0.083994
# 5 -0.006619 -0.009154 0.000227 0.000000 0.047060 0.000000
# 6 0.000000 0.000000 0.000000 -0.083994 0.000000 0.259438
#
#
# Mechanical properties :
#
#
# Convention : Reuss Voigt Hill
#
# Bulk Modulus (GPa) = 30.02663 48.94372 39.48517
# Shear Modulus (GPa) = 9.76246 19.38421 14.57334
#
# Velocity S-wave (km/s) = 2.26255 3.18818 2.76438
# Velocity P-wave (km/s) = 4.75084 6.26236 5.55822
#
# Compressibility (1/GPa) = 0.03330377
#
# Stress axis : x y z
#
# Youngs Moduli (GPa) = 73.64523 32.90846 77.32335
#
# Poissons Ratio (x) = -0.03287 0.40656
# Poissons Ratio (y) = -0.07357 0.58290
# Poissons Ratio (z) = 0.38722 0.24808
#
# Static dielectric constant tensor:
#      x y z
#    x 1.703120 0.000000 -0.018430 
#    y 0.000000 1.630820 0.000000 
#    z -0.018430 0.000000 1.698040 
# 
# From -- ./inp_files/104134.got.cif
#   From: 2010.05.17/outbox.cif.g08.bks.cpg/sg12_53_cif.got.tgz:104134.got - 2010.06.03 13:09:07.
