data_PCOD9185894
_publ_section_title
;
Structure prediction by ZEFSAII (Michael W. Deem and Ramdas Pophale) SiO2 
 PCOD9185894
Probable space group: C 2/M
;
_chemical_formula_sum "Si O2"
_cell_formula_units_Z 64
_cell_length_a 30.869233
_cell_length_b 7.815007
_cell_length_c 18.842914
_cell_angle_alpha 90.000000
_cell_angle_beta 140.646806
_cell_angle_gamma 90.000000
_cell_volume 2882.440641
_symmetry_space_group_name_H-M "C 2/M"
_symmetry_group_IT_number 12
_symmetry_cell_setting 'monoclinic'
loop_
_space_group_symop_operation_xyz
x,y,z
-x,y,-z
-x,-y,-z
x,-y,z
1/2+x,1/2+y,z
1/2-x,1/2+y,-z
1/2-x,1/2-y,-z
1/2+x,1/2-y,z
loop_
_atom_site_type_symbol
_atom_site_label
_atom_site_fract_x
_atom_site_fract_y
_atom_site_fract_z
Si Si1 0.356118 0.196045 0.497870
Si Si2 0.430776 0.799812 0.876591
Si Si3 0.287071 0.793204 0.754084
Si Si4 0.059557 0.802433 0.271429
Si Si5 0.930893 0.793697 0.451743
Si Si6 0.929430 0.801639 0.186939
Si Si7 0.801348 0.292590 0.937042
Si Si8 0.843470 0.208574 0.208384
O O1 0.281307 0.233348 0.371765
O O2 0.376387 0.296831 0.594373
O O3 0.410587 0.230817 0.503636
O O4 0.359946 0.000000 0.523161
O O5 0.358254 0.727784 0.811199
O O6 0.432991 0.786051 0.794604
O O7 0.429332 0.000000 0.895711
O O8 0.500000 0.726935 0.000000
O O9 0.288214 0.748758 0.838617
O O10 0.285302 0.000000 0.747633
O O11 0.996920 0.725316 0.237750
O O12 0.043020 0.000000 0.234232
O O13 0.871001 0.748321 0.321025
O O14 0.000000 0.735096 0.500000
O O15 0.935073 0.000000 0.462248
O O16 0.895722 0.725986 0.215250
O O17 0.946098 0.000000 0.225079
O O18 0.869303 0.790089 0.053358
O O19 0.807920 0.500000 0.950310
O O20 0.734639 0.235854 0.896506
O O21 0.843333 0.000000 0.203613
#
# Coordination Sequence:
#
# PCOD9185894 Si02
#       8
#     8   8   8   8   8   8   8   8
#     4  12  25  40  61  90 125 160 203 258 308 359
#     4  10  22  42  69  98 125 155 197 252 310 365
#     4  10  21  40  65  90 121 161 203 246 303 374
#     4  11  24  42  63  87 121 162 204 249 302 367
#     4  10  19  36  62  85 116 165 213 254 301 363
#     4  10  21  36  56  85 118 155 200 248 297 354
#     4  10  19  34  58  85 117 157 197 244 300 361
#     4   9  17  32  54  82 115 153 200 242 289 355
#
# _framework density 22.203406999999999
#
# number of rings (size 3 to 8) (size 9 to 14) (size 15 to 20)
#    0.000    1.750    1.250    3.375    0.000    6.000 
#    0.000    0.625    0.000    0.000    0.000    0.000 
#    0.000    0.000    0.000    0.000    0.000    0.000 
#
# Total GULP energy -178817.405829 kJ/mol
# GULP energy per Si atom -5588.043932 kJ/mol
# Density = 2.215287 g / cm^3
# Si number density = 22.203407 Si / 1000 Ang^3
#
#
#
# Elastic Constant Matrix: (Units=GPa)
#
#
# Indices 1 2 3 4 5 6 
#
# 1 122.4075 0.3068 28.1638 0.0000 0.5854 0.0000
# 2 0.3068 31.2189 -11.1707 0.0000 4.3222 0.0000
# 3 28.1638 -11.1707 76.6859 0.0000 -13.0658 0.0000
# 4 0.0000 0.0000 0.0000 13.9860 0.0000 -5.9660
# 5 0.5854 4.3222 -13.0658 0.0000 29.4562 0.0000
# 6 0.0000 0.0000 0.0000 -5.9660 0.0000 18.1680
#
#
#
# Elastic Compliance Matrix: (Units=1/GPa)
#
#
# Indices 1 2 3 4 5 6 
#
# 1 0.009052 -0.001211 -0.003787 0.000000 -0.001682 0.000000
# 2 -0.001211 0.034203 0.004950 0.000000 -0.002799 0.000000
# 3 -0.003787 0.004950 0.016271 0.000000 0.006566 0.000000
# 4 0.000000 0.000000 0.000000 0.083147 0.000000 0.027304
# 5 -0.001682 -0.002799 0.006566 0.000000 0.037305 0.000000
# 6 0.000000 0.000000 0.000000 0.027304 0.000000 0.064008
#
#
# Mechanical properties :
#
#
# Convention : Reuss Voigt Hill
#
# Bulk Modulus (GPa) = 16.82694 29.43466 23.13080
# Shear Modulus (GPa) = 18.94713 26.52286 22.73499
#
# Velocity S-wave (km/s) = 2.92437 3.45996 3.20338
# Velocity P-wave (km/s) = 4.35862 5.40808 4.91147
#
# Compressibility (1/GPa) = 0.05942850
#
# Stress axis : x y z
#
# Youngs Moduli (GPa) = 110.47343 29.23754 61.45880
#
# Poissons Ratio (x) = 0.03542 0.23277
# Poissons Ratio (y) = 0.13382 -0.30424
# Poissons Ratio (z) = 0.41842 -0.14473
#
# Static dielectric constant tensor:
#      x y z
#    x 1.819130 0.000000 0.024310 
#    y 0.000000 1.828030 0.000000 
#    z 0.024310 0.000000 1.797250 
# 
# From -- ./inp_files/295714.got.cif
#   From: 2010.05.17/outbox.cif.g08.bks.cpg/sg12_148_cif.got.tgz:295714.got - 2010.06.03 13:09:07.
