data_PCOD9185558
_publ_section_title
;
Structure prediction by ZEFSAII (Michael W. Deem and Ramdas Pophale) SiO2 
 PCOD9185558
Probable space group: C 2/M
;
_chemical_formula_sum "Si O2"
_cell_formula_units_Z 56
_cell_length_a 30.935859
_cell_length_b 7.497016
_cell_length_c 11.356081
_cell_angle_alpha 90.000000
_cell_angle_beta 67.318537
_cell_angle_gamma 90.000000
_cell_volume 2430.088858
_symmetry_space_group_name_H-M "C 2/M"
_symmetry_group_IT_number 12
_symmetry_cell_setting 'monoclinic'
loop_
_space_group_symop_operation_xyz
x,y,z
-x,y,-z
-x,-y,-z
x,-y,z
1/2+x,1/2+y,z
1/2-x,1/2+y,-z
1/2-x,1/2-y,-z
1/2+x,1/2-y,z
loop_
_atom_site_type_symbol
_atom_site_label
_atom_site_fract_x
_atom_site_fract_y
_atom_site_fract_z
Si Si1 0.973695 0.795957 0.678459
Si Si2 0.727003 0.214495 0.652349
Si Si3 0.042991 0.716500 0.039060
Si Si4 0.576724 0.715092 0.596825
Si Si5 0.123351 0.782728 0.318643
Si Si6 0.225036 0.785930 0.151704
Si Si7 0.377695 0.792329 0.207249
O O1 0.925348 0.714156 0.683693
O O2 0.025884 0.720643 0.603810
O O3 0.974056 0.000000 0.634826
O O4 0.967711 0.794707 0.824074
O O5 0.750000 0.250000 0.500000
O O6 0.751501 0.277373 0.749138
O O7 0.673408 0.283425 0.712307
O O8 0.726718 0.000000 0.659953
O O9 0.044278 0.500000 0.047046
O O10 0.091624 0.781864 0.931840
O O11 0.000000 0.762484 0.000000
O O12 0.573532 0.500000 0.606494
O O13 0.617951 0.760466 0.462390
O O14 0.589908 0.781946 0.711259
O O15 0.171265 0.719628 0.210497
O O16 0.123270 0.000000 0.308479
O O17 0.223907 0.000000 0.162122
O O18 0.250000 0.750000 0.000000
O O19 0.370398 0.000000 0.187029
#
# Coordination Sequence:
#
# PCOD9185558 Si02
#       7
#     8   8   8   8   8   8   8
#     4  10  20  33  54  82 109 139 181 225 266 321
#     4  10  22  40  62  87 115 148 191 241 289 339
#     4  10  20  35  53  74 108 150 181 215 269 326
#     4  10  19  34  57  83 110 142 180 222 270 327
#     4   9  19  36  56  79 110 144 176 221 279 327
#     4  10  22  40  60  83 114 150 191 237 286 339
#     4  10  21  36  55  80 112 146 180 222 274 327
#
# _framework density 23.044426000000001
#
# number of rings (size 3 to 8) (size 9 to 14) (size 15 to 20)
#    0.000    2.143    1.429    1.286    2.000    4.857 
#    0.000    1.429    0.000    1.714    0.000    0.000 
#    0.000    0.000    0.000    0.000    0.000    0.000 
#
# Total GULP energy -156308.308904 kJ/mol
# GULP energy per Si atom -5582.439604 kJ/mol
# Density = 2.299198 g / cm^3
# Si number density = 23.044426 Si / 1000 Ang^3
#
#
#
# Elastic Constant Matrix: (Units=GPa)
#
#
# Indices 1 2 3 4 5 6 
#
# 1 128.2041 5.5808 76.4093 0.0000 -23.9726 0.0000
# 2 5.5808 61.2600 8.7823 0.0000 -4.2769 0.0000
# 3 76.4093 8.7823 197.3952 0.0000 -31.3766 0.0000
# 4 0.0000 0.0000 0.0000 28.6654 0.0000 0.6118
# 5 -23.9726 -4.2769 -31.3766 0.0000 48.1881 0.0000
# 6 0.0000 0.0000 0.0000 0.6118 0.0000 6.4887
#
#
#
# Elastic Compliance Matrix: (Units=1/GPa)
#
#
# Indices 1 2 3 4 5 6 
#
# 1 0.010487 -0.000241 -0.003595 0.000000 0.002855 0.000000
# 2 -0.000241 0.016486 -0.000476 0.000000 0.001034 0.000000
# 3 -0.003595 -0.000476 0.006902 0.000000 0.002664 0.000000
# 4 0.000000 0.000000 0.000000 0.034956 0.000000 -0.003296
# 5 0.002855 0.001034 0.002664 0.000000 0.023998 0.000000
# 6 0.000000 0.000000 0.000000 -0.003296 0.000000 0.154425
#
#
# Mechanical properties :
#
#
# Convention : Reuss Voigt Hill
#
# Bulk Modulus (GPa) = 39.60080 63.15602 51.37841
# Shear Modulus (GPa) = 18.91826 36.40755 27.66290
#
# Velocity S-wave (km/s) = 2.86833 3.97909 3.46846
# Velocity P-wave (km/s) = 5.30957 6.96969 6.19549
#
# Compressibility (1/GPa) = 0.02525201
#
# Stress axis : x y z
#
# Youngs Moduli (GPa) = 95.35703 60.65683 144.88444
#
# Poissons Ratio (x) = 0.01460 0.52084
# Poissons Ratio (y) = 0.02295 0.06897
# Poissons Ratio (z) = 0.34279 0.02887
#
# Static dielectric constant tensor:
#      x y z
#    x 1.874050 0.000000 -0.018670 
#    y 0.000000 1.911570 0.000000 
#    z -0.018670 0.000000 1.836740 
# 
# From -- ./inp_files/187143.got.cif
#   From: 2010.05.17/outbox.cif.g08.bks.cpg/sg12_94_cif.got.tgz:187143.got - 2010.06.03 13:09:07.
