data_PCOD9185039
_publ_section_title
;
Structure prediction by ZEFSAII (Michael W. Deem and Ramdas Pophale) SiO2 
 PCOD9185039
Probable space group: C 2/M
;
_chemical_formula_sum "Si O2"
_cell_formula_units_Z 64
_cell_length_a 30.136904
_cell_length_b 9.191711
_cell_length_c 24.220940
_cell_angle_alpha 90.000000
_cell_angle_beta 150.433303
_cell_angle_gamma 90.000000
_cell_volume 3310.679701
_symmetry_space_group_name_H-M "C 2/M"
_symmetry_group_IT_number 12
_symmetry_cell_setting 'monoclinic'
loop_
_space_group_symop_operation_xyz
x,y,z
-x,y,-z
-x,-y,-z
x,-y,z
1/2+x,1/2+y,z
1/2-x,1/2+y,-z
1/2-x,1/2-y,-z
1/2+x,1/2-y,z
loop_
_atom_site_type_symbol
_atom_site_label
_atom_site_fract_x
_atom_site_fract_y
_atom_site_fract_z
Si Si1 0.003727 0.671522 0.642696
Si Si2 0.143599 0.675159 0.020776
Si Si3 0.479939 0.176359 0.212050
Si Si4 0.171130 0.671070 0.743661
Si Si5 0.319183 0.839215 0.732243
Si Si6 0.368486 0.672553 0.412055
Si Si7 0.004804 0.162576 0.070857
Si Si8 0.324146 0.837503 0.611548
O O1 0.977499 0.500000 0.615187
O O2 0.014368 0.722417 0.717779
O O3 0.099064 0.682014 0.714880
O O4 0.932828 0.758975 0.528379
O O5 0.152453 0.500000 0.032086
O O6 0.236927 0.749688 0.138987
O O7 0.103738 0.720879 0.917360
O O8 0.067178 0.728405 0.980759
O O9 0.573853 0.219755 0.284171
O O10 0.475467 0.000000 0.207259
O O11 0.188003 0.500000 0.750614
O O12 0.127786 0.745782 0.642516
O O13 0.234370 0.810220 0.678661
O O14 0.394948 0.718946 0.812616
O O15 0.291208 0.846668 0.638443
O O16 0.356941 0.000000 0.787990
O O17 0.386686 0.500000 0.425659
O O18 0.989464 0.000000 0.076521
O O19 0.000000 0.158512 0.000000
O O20 0.250000 0.750000 0.500000
O O21 0.328017 0.000000 0.592127
#
# Coordination Sequence:
#
# PCOD9185039 Si02
#       8
#     8   8   8   8   8   8   8   8
#     4  10  22  41  64  88 119 160 202 251 311 365
#     4  11  22  40  64  88 120 161 203 250 303 362
#     4   9  19  38  62  86 118 160 201 243 299 363
#     4  11  24  41  61  88 121 158 204 256 309 364
#     4  10  21  37  56  83 117 153 191 233 288 347
#     4  11  23  39  62  92 124 157 202 255 304 362
#     4  11  23  37  56  85 119 155 197 241 288 349
#     4  10  19  34  55  82 115 150 189 233 282 344
#
# _framework density 19.331378999999998
#
# number of rings (size 3 to 8) (size 9 to 14) (size 15 to 20)
#    0.000    1.625    1.250    3.375    0.000    7.500 
#    0.000    1.250    0.000    0.000    0.000    0.000 
#    0.000    0.000    0.000    0.000    0.000    0.000 
#
# Total GULP energy -178553.136794 kJ/mol
# GULP energy per Si atom -5579.785525 kJ/mol
# Density = 1.928738 g / cm^3
# Si number density = 19.331379 Si / 1000 Ang^3
#
#
#
# Elastic Constant Matrix: (Units=GPa)
#
#
# Indices 1 2 3 4 5 6 
#
# 1 69.8548 13.8693 -2.7918 0.0000 -12.7167 0.0000
# 2 13.8693 69.8547 29.5935 0.0000 -1.3576 0.0000
# 3 -2.7918 29.5935 75.5635 0.0000 -11.1757 0.0000
# 4 0.0000 0.0000 0.0000 28.2748 0.0000 -4.2428
# 5 -12.7167 -1.3576 -11.1757 0.0000 28.0919 0.0000
# 6 0.0000 0.0000 0.0000 -4.2428 0.0000 20.7268
#
#
#
# Elastic Compliance Matrix: (Units=1/GPa)
#
#
# Indices 1 2 3 4 5 6 
#
# 1 0.017079 -0.004854 0.003868 0.000000 0.009036 0.000000
# 2 -0.004854 0.018645 -0.008153 0.000000 -0.004540 0.000000
# 3 0.003868 -0.008153 0.017819 0.000000 0.008446 0.000000
# 4 0.000000 0.000000 0.000000 0.036488 0.000000 0.007469
# 5 0.009036 -0.004540 0.008446 0.000000 0.042828 0.000000
# 6 0.000000 0.000000 0.000000 0.007469 0.000000 0.049776
#
#
# Mechanical properties :
#
#
# Convention : Reuss Voigt Hill
#
# Bulk Modulus (GPa) = 28.35639 32.95721 30.65680
# Shear Modulus (GPa) = 23.51098 27.05883 25.28491
#
# Velocity S-wave (km/s) = 3.49120 3.74536 3.62051
# Velocity P-wave (km/s) = 5.56343 5.98241 5.77672
#
# Compressibility (1/GPa) = 0.03526542
#
# Stress axis : x y z
#
# Youngs Moduli (GPa) = 58.55272 53.63414 56.12012
#
# Poissons Ratio (x) = 0.26034 -0.21709
# Poissons Ratio (y) = 0.28422 0.45754
# Poissons Ratio (z) = -0.22650 0.43727
#
# Static dielectric constant tensor:
#      x y z
#    x 1.641890 0.000000 0.013110 
#    y 0.000000 1.700970 0.000000 
#    z 0.013110 0.000000 1.646690 
# 
# From -- ./inp_files/353486.got.cif
#   From: 2010.05.17/outbox.cif.g08.bks.cpg/sg12_177_cif.got.tgz:353486.got - 2010.06.03 13:09:07.
