data_PCOD9185040
_publ_section_title
;
Structure prediction by ZEFSAII (Michael W. Deem and Ramdas Pophale) SiO2 
 PCOD9185040
Probable space group: C 2/M
;
_chemical_formula_sum "Si O2"
_cell_formula_units_Z 42
_cell_length_a 19.440863
_cell_length_b 7.840285
_cell_length_c 15.641574
_cell_angle_alpha 90.000000
_cell_angle_beta 138.887660
_cell_angle_gamma 90.000000
_cell_volume 1567.647406
_symmetry_space_group_name_H-M "C 2/M"
_symmetry_group_IT_number 12
_symmetry_cell_setting 'monoclinic'
loop_
_space_group_symop_operation_xyz
x,y,z
-x,y,-z
-x,-y,-z
x,-y,z
1/2+x,1/2+y,z
1/2-x,1/2+y,-z
1/2-x,1/2-y,-z
1/2+x,1/2-y,z
loop_
_atom_site_type_symbol
_atom_site_label
_atom_site_fract_x
_atom_site_fract_y
_atom_site_fract_z
Si Si1 0.640758 0.810201 0.937401
Si Si2 0.984035 0.197471 0.388464
Si Si3 0.433052 0.699703 0.799352
Si Si4 0.707006 0.799737 0.573597
Si Si5 0.000000 0.500000 0.000000
Si Si6 0.763292 0.306393 0.195997
O O1 0.678182 0.811126 0.072158
O O2 0.614351 0.000000 0.887683
O O3 0.750000 0.750000 0.000000
O O4 0.536144 0.700720 0.835919
O O5 0.096748 0.212576 0.451085
O O6 0.000000 0.267073 0.500000
O O7 0.877788 0.286530 0.260099
O O8 0.955044 0.000000 0.367566
O O9 0.421067 0.500000 0.818692
O O10 0.322845 0.746399 0.649528
O O11 0.456805 0.845974 0.891797
O O12 0.723868 0.771643 0.692038
O O13 0.690363 0.000000 0.543479
O O14 0.727772 0.500000 0.149949
#
# Coordination Sequence:
#
# PCOD9185040 Si02
#       6
#     8   8   8   8   2   8
#     4  12  25  42  61  83 115 160 210 253 300 356
#     4   9  17  29  49  79 115 150 189 235 290 356
#     4  11  23  39  58  89 123 157 201 250 304 364
#     4   9  19  33  55  83 119 153 185 239 299 359
#     4  12  22  36  60  90 122 160 194 246 306 364
#     4  10  19  34  55  82 115 153 195 240 295 355
#
# _framework density 26.791737999999999
#
# number of rings (size 3 to 8) (size 9 to 14) (size 15 to 20)
#    0.000    1.714    0.952    4.286    1.333    4.571 
#    0.000    0.000    0.000    1.143    0.000    0.000 
#    0.000    0.000    0.000    0.000    0.000    0.000 
#
# Total GULP energy -117187.539726 kJ/mol
# GULP energy per Si atom -5580.359035 kJ/mol
# Density = 2.673076 g / cm^3
# Si number density = 26.791738 Si / 1000 Ang^3
#
#
#
# Elastic Constant Matrix: (Units=GPa)
#
#
# Indices 1 2 3 4 5 6 
#
# 1 108.3699 10.3602 24.6080 0.0000 38.3011 0.0000
# 2 10.3602 120.0506 42.9527 0.0000 5.5324 0.0000
# 3 24.6080 42.9527 161.7312 0.0000 34.9865 0.0000
# 4 0.0000 0.0000 0.0000 34.3251 0.0000 3.0644
# 5 38.3011 5.5324 34.9865 0.0000 54.1154 0.0000
# 6 0.0000 0.0000 0.0000 3.0644 0.0000 18.3196
#
#
#
# Elastic Compliance Matrix: (Units=1/GPa)
#
#
# Indices 1 2 3 4 5 6 
#
# 1 0.012365 -0.000741 0.000223 0.000000 -0.008820 0.000000
# 2 -0.000741 0.009275 -0.002626 0.000000 0.001274 0.000000
# 3 0.000223 -0.002626 0.007932 0.000000 -0.005018 0.000000
# 4 0.000000 0.000000 0.000000 0.029575 0.000000 -0.004947
# 5 -0.008820 0.001274 -0.005018 0.000000 0.027836 0.000000
# 6 0.000000 0.000000 0.000000 -0.004947 0.000000 0.055414
#
#
# Mechanical properties :
#
#
# Convention : Reuss Voigt Hill
#
# Bulk Modulus (GPa) = 42.94563 60.66594 51.80578
# Shear Modulus (GPa) = 31.96031 42.16742 37.06387
#
# Velocity S-wave (km/s) = 3.45761 3.97154 3.72345
# Velocity P-wave (km/s) = 5.65724 6.61238 6.15337
#
# Compressibility (1/GPa) = 0.02328526
#
# Stress axis : x y z
#
# Youngs Moduli (GPa) = 80.87291 107.82149 126.07140
#
# Poissons Ratio (x) = 0.07984 -0.02816
# Poissons Ratio (y) = 0.05989 0.33107
# Poissons Ratio (z) = -0.01806 0.28314
#
# Static dielectric constant tensor:
#      x y z
#    x 2.374020 0.000000 -0.021860 
#    y 0.000000 1.934740 0.000000 
#    z -0.021860 0.000000 2.075790 
# 
# From -- ./inp_files/348671.got.cif
#   From: 2010.05.17/outbox.cif.g08.bks.cpg/sg12_175_cif.got.tgz:348671.got - 2010.06.03 13:09:07.
