data_PCOD9185738
_publ_section_title
;
Structure prediction by ZEFSAII (Michael W. Deem and Ramdas Pophale) SiO2 
 PCOD9185738
Probable space group: C 2/M
;
_chemical_formula_sum "Si O2"
_cell_formula_units_Z 40
_cell_length_a 13.084141
_cell_length_b 22.013291
_cell_length_c 21.080579
_cell_angle_alpha 90.000000
_cell_angle_beta 159.128224
_cell_angle_gamma 90.000000
_cell_volume 2163.223763
_symmetry_space_group_name_H-M "C 2/M"
_symmetry_group_IT_number 12
_symmetry_cell_setting 'monoclinic'
loop_
_space_group_symop_operation_xyz
x,y,z
-x,y,-z
-x,-y,-z
x,-y,z
1/2+x,1/2+y,z
1/2-x,1/2+y,-z
1/2-x,1/2-y,-z
1/2+x,1/2-y,z
loop_
_atom_site_type_symbol
_atom_site_label
_atom_site_fract_x
_atom_site_fract_y
_atom_site_fract_z
Si Si1 0.808884 0.293861 0.656485
Si Si2 0.257967 0.854955 0.189993
Si Si3 0.875680 0.430394 0.498696
Si Si4 0.969197 0.178081 0.266463
Si Si5 0.557384 0.775724 0.124636
O O1 0.500000 0.316606 0.500000
O O2 0.972910 0.285370 0.818499
O O3 0.993735 0.333096 0.714703
O O4 0.787190 0.227225 0.611036
O O5 0.399730 0.897933 0.324073
O O6 0.118320 0.794237 0.140562
O O7 0.000000 0.883876 0.000000
O O8 0.822736 0.500000 0.486770
O O9 0.593399 0.388606 0.334292
O O10 0.000000 0.429683 0.500000
O O11 0.840704 0.191014 0.261184
O O12 0.708491 0.195411 0.067998
#
# Coordination Sequence:
#
# PCOD9185738 Si02
#       5
#     8   8   8   8   8
#     4  11  20  31  58  92 123 152 184 242 310 354
#     4  11  22  39  59  90 123 155 191 243 299 351
#     4  11  25  41  60  82 114 162 206 240 281 344
#     4  10  19  35  56  85 119 153 193 240 288 351
#     4  10  19  34  57  94 120 151 186 239 308 362
#
# _framework density 18.490921
#
# number of rings (size 3 to 8) (size 9 to 14) (size 15 to 20)
#    0.000    1.400    4.000    4.800    2.800    3.600 
#    0.000    2.000    0.000    5.400    0.000    0.000 
#    0.000    0.000    0.000    0.000    0.000    0.000 
#
# Total GULP energy -111694.867933 kJ/mol
# GULP energy per Si atom -5584.743397 kJ/mol
# Density = 1.844884 g / cm^3
# Si number density = 18.490921 Si / 1000 Ang^3
#
#
#
# Elastic Constant Matrix: (Units=GPa)
#
#
# Indices 1 2 3 4 5 6 
#
# 1 111.6880 48.9358 42.4053 -0.0014 -6.7771 0.0157
# 2 48.9358 125.8394 54.6483 -0.0130 -6.1969 -0.0064
# 3 42.4053 54.6483 105.2232 0.0115 -6.6114 0.0131
# 4 -0.0014 -0.0130 0.0115 17.7256 0.0053 0.5770
# 5 -6.7771 -6.1969 -6.6114 0.0053 34.8421 0.0231
# 6 0.0157 -0.0064 0.0131 0.5770 0.0231 18.9396
#
#
#
# Elastic Compliance Matrix: (Units=1/GPa)
#
#
# Indices 1 2 3 4 5 6 
#
# 1 0.011515 -0.003148 -0.002935 0.000000 0.001123 -0.000010
# 2 -0.003148 0.011145 -0.004487 0.000010 0.000518 0.000009
# 3 -0.002935 -0.004487 0.013087 -0.000012 0.001114 -0.000009
# 4 0.000000 0.000010 -0.000012 0.056471 -0.000008 -0.001720
# 5 0.001123 0.000518 0.001114 -0.000008 0.029223 -0.000037
# 6 -0.000010 0.000009 -0.000009 -0.001720 -0.000037 0.052852
#
#
# Mechanical properties :
#
#
# Convention : Reuss Voigt Hill
#
# Bulk Modulus (GPa) = 68.46158 70.52551 69.49354
# Shear Modulus (GPa) = 24.96222 27.41890 26.19056
#
# Velocity S-wave (km/s) = 3.67818 3.85493 3.76759
# Velocity P-wave (km/s) = 7.42587 7.61823 7.52266
#
# Compressibility (1/GPa) = 0.01460673
#
# Stress axis : x y z
#
# Youngs Moduli (GPa) = 86.84014 89.72707 76.41270
#
# Poissons Ratio (x) = 0.28247 0.22429
# Poissons Ratio (y) = 0.27338 0.34286
# Poissons Ratio (z) = 0.25489 0.40260
#
# Static dielectric constant tensor:
#      x y z
#    x 1.671100 0.000000 -0.007290 
#    y 0.000000 1.595740 -0.000030 
#    z -0.007290 -0.000030 1.737050 
# 
# From -- ./inp_files/340699.got.cif
#   From: 2010.05.17/outbox.cif.g08.bks.cpg/sg12_171_cif.got.tgz:340699.got - 2010.06.03 13:09:07.
