data_PCOD9185318
_publ_section_title
;
Structure prediction by ZEFSAII (Michael W. Deem and Ramdas Pophale) SiO2 
 PCOD9185318
Probable space group: C 2/M
;
_chemical_formula_sum "Si O2"
_cell_formula_units_Z 64
_cell_length_a 13.587411
_cell_length_b 23.912816
_cell_length_c 8.927459
_cell_angle_alpha 90.000000
_cell_angle_beta 105.645882
_cell_angle_gamma 90.000000
_cell_volume 2793.171759
_symmetry_space_group_name_H-M "C 2/M"
_symmetry_group_IT_number 12
_symmetry_cell_setting 'monoclinic'
loop_
_space_group_symop_operation_xyz
x,y,z
-x,y,-z
-x,-y,-z
x,-y,z
1/2+x,1/2+y,z
1/2-x,1/2+y,-z
1/2-x,1/2-y,-z
1/2+x,1/2-y,z
loop_
_atom_site_type_symbol
_atom_site_label
_atom_site_fract_x
_atom_site_fract_y
_atom_site_fract_z
Si Si1 0.158494 0.794195 0.976638
Si Si2 0.422309 0.563038 0.845117
Si Si3 0.804758 0.068692 0.511115
Si Si4 0.085012 0.291486 0.157044
Si Si5 0.552602 0.243238 0.655687
Si Si6 0.116221 0.629667 0.599285
Si Si7 0.806238 0.440221 0.111732
Si Si8 0.253538 0.616271 0.178516
O O1 0.091721 0.779834 0.805058
O O2 0.192502 0.855468 0.945710
O O3 0.250000 0.750000 0.000000
O O4 0.111541 0.772174 0.112562
O O5 0.464492 0.500000 0.837176
O O6 0.394589 0.585381 0.667027
O O7 0.309812 0.557644 0.871606
O O8 0.500000 0.589782 0.000000
O O9 0.700670 0.097636 0.533474
O O10 0.814216 0.092155 0.345133
O O11 0.797997 0.000000 0.509147
O O12 0.179554 0.333350 0.197501
O O13 0.035186 0.292124 0.297710
O O14 0.000000 0.309994 0.000000
O O15 0.500000 0.275609 0.500000
O O16 0.630642 0.196972 0.624290
O O17 0.133882 0.606923 0.774227
O O18 0.000000 0.618517 0.500000
O O19 0.853140 0.500000 0.170996
O O20 0.806604 0.431899 0.933595
#
# Coordination Sequence:
#
# PCOD9185318 Si02
#       8
#     8   8   8   8   8   8   8   8
#     4   9  19  35  54  75 103 142 186 230 279 335
#     4   8  16  35  57  73  96 139 193 240 285 334
#     4  10  21  35  54  83 118 155 195 239 286 339
#     4   9  18  35  57  78 107 147 187 225 279 349
#     4  10  19  35  58  83 109 140 182 231 284 344
#     4  10  19  34  56  83 116 155 191 228 284 349
#     4  10  20  33  53  80 110 147 192 238 281 338
#     4  11  20  35  54  79 114 151 189 236 294 345
#
# _framework density 22.913019999999999
#
# number of rings (size 3 to 8) (size 9 to 14) (size 15 to 20)
#    0.000    2.375    0.000    5.250    0.000    1.000 
#    0.000   11.875    0.000    6.000    0.000    0.000 
#    0.000    0.000    0.000    0.000    0.000    0.375 
#
# Total GULP energy -178137.571304 kJ/mol
# GULP energy per Si atom -5566.799103 kJ/mol
# Density = 2.286087 g / cm^3
# Si number density = 22.913020 Si / 1000 Ang^3
#
#
#
# Elastic Constant Matrix: (Units=GPa)
#
#
# Indices 1 2 3 4 5 6 
#
# 1 37.2209 5.7535 10.9993 0.0000 11.6794 0.0000
# 2 5.7535 57.4864 15.8566 0.0000 -8.7841 0.0000
# 3 10.9993 15.8566 154.7719 0.0000 14.8093 0.0000
# 4 0.0000 0.0000 0.0000 15.2356 0.0000 2.9810
# 5 11.6794 -8.7841 14.8093 0.0000 26.4592 0.0000
# 6 0.0000 0.0000 0.0000 2.9810 0.0000 12.0395
#
#
#
# Elastic Compliance Matrix: (Units=1/GPa)
#
#
# Indices 1 2 3 4 5 6 
#
# 1 0.032937 -0.005741 -0.000189 0.000000 -0.016339 0.000000
# 2 -0.005741 0.020371 -0.002714 0.000000 0.010816 0.000000
# 3 -0.000189 -0.002714 0.007217 0.000000 -0.004857 0.000000
# 4 0.000000 0.000000 0.000000 0.068977 0.000000 -0.017079
# 5 -0.016339 0.010816 -0.004857 0.000000 0.051315 0.000000
# 6 0.000000 0.000000 0.000000 -0.017079 0.000000 0.087289
#
#
# Mechanical properties :
#
#
# Convention : Reuss Voigt Hill
#
# Bulk Modulus (GPa) = 23.12818 34.96643 29.04731
# Shear Modulus (GPa) = 16.67735 25.20485 20.94110
#
# Velocity S-wave (km/s) = 2.70081 3.32026 3.02642
# Velocity P-wave (km/s) = 4.45439 5.47654 4.99170
#
# Compressibility (1/GPa) = 0.04323729
#
# Stress axis : x y z
#
# Youngs Moduli (GPa) = 30.36115 49.08850 138.55465
#
# Poissons Ratio (x) = 0.28181 0.02622
# Poissons Ratio (y) = 0.17430 0.37604
# Poissons Ratio (z) = 0.00574 0.13323
#
# Static dielectric constant tensor:
#      x y z
#    x 1.972100 0.000000 0.030290 
#    y 0.000000 1.988220 0.000000 
#    z 0.030290 0.000000 1.858000 
# 
# From -- ./inp_files/67030.got.cif
#   From: 2010.05.17/outbox.cif.g08.bks.cpg/sg12_34_cif.got.tgz:67030.got - 2010.06.03 13:09:07.
