data_PCOD9185795
_publ_section_title
;
Structure prediction by ZEFSAII (Michael W. Deem and Ramdas Pophale) SiO2 
 PCOD9185795
Probable space group: C 2/M
;
_chemical_formula_sum "Si O2"
_cell_formula_units_Z 48
_cell_length_a 21.095158
_cell_length_b 8.522093
_cell_length_c 15.243111
_cell_angle_alpha 90.000000
_cell_angle_beta 71.240924
_cell_angle_gamma 90.000000
_cell_volume 2594.760275
_symmetry_space_group_name_H-M "C 2/M"
_symmetry_group_IT_number 12
_symmetry_cell_setting 'monoclinic'
loop_
_space_group_symop_operation_xyz
x,y,z
-x,y,-z
-x,-y,-z
x,-y,z
1/2+x,1/2+y,z
1/2-x,1/2+y,-z
1/2-x,1/2-y,-z
1/2+x,1/2-y,z
loop_
_atom_site_type_symbol
_atom_site_label
_atom_site_fract_x
_atom_site_fract_y
_atom_site_fract_z
Si Si1 0.344938 0.691221 0.111305
Si Si2 0.609715 0.689874 0.101947
Si Si3 0.955287 0.189576 0.203264
Si Si4 0.195551 0.687863 0.226779
Si Si5 0.037169 0.314865 0.609371
Si Si6 0.901377 0.814721 0.588140
O O1 0.345592 0.500000 0.110065
O O2 0.402651 0.741143 0.153000
O O3 0.271537 0.740715 0.175398
O O4 0.361026 0.740880 0.004918
O O5 0.614450 0.500000 0.105856
O O6 0.531396 0.731567 0.143892
O O7 0.650759 0.762477 0.163615
O O8 0.940381 0.260117 0.305071
O O9 0.952325 0.000000 0.210566
O O10 0.194588 0.500000 0.235184
O O11 0.162148 0.760474 0.327962
O O12 0.024856 0.500000 0.613479
O O13 0.088491 0.269723 0.509458
O O14 0.967487 0.229563 0.615316
O O15 0.900617 0.000000 0.574746
#
# Coordination Sequence:
#
# PCOD9185795 Si02
#       6
#     8   8   8   8   8   8
#     4   9  20  36  55  81 114 154 191 228 273 328
#     4  10  19  34  58  83 109 148 196 234 272 325
#     4  10  19  35  58  83 113 149 191 229 270 328
#     4  11  21  35  55  82 117 149 185 232 282 326
#     4  11  21  35  57  86 115 140 176 228 286 331
#     4  11  21  36  58  83 109 143 188 228 272 330
#
# _framework density 18.498818
#
# number of rings (size 3 to 8) (size 9 to 14) (size 15 to 20)
#    0.000    1.667    1.667    5.500    0.000    2.000 
#    0.000    4.167    0.000    2.000    0.000    0.000 
#    0.000    0.000    0.000    0.000    0.000    0.000 
#
# Total GULP energy -134097.006839 kJ/mol
# GULP energy per Si atom -5587.375285 kJ/mol
# Density = 1.845671 g / cm^3
# Si number density = 18.498818 Si / 1000 Ang^3
#
#
#
# Elastic Constant Matrix: (Units=GPa)
#
#
# Indices 1 2 3 4 5 6 
#
# 1 75.2758 5.1986 18.1723 0.0000 -25.0409 0.0000
# 2 5.1986 21.5620 -3.5179 0.0000 -3.1662 0.0000
# 3 18.1723 -3.5179 98.4984 0.0000 -23.9688 0.0000
# 4 0.0000 0.0000 0.0000 -129.7582 0.0000 -53.9453
# 5 -25.0409 -3.1662 -23.9688 0.0000 15.1395 0.0000
# 6 0.0000 0.0000 0.0000 -53.9453 0.0000 -1.9595
#
#
#
# Elastic Compliance Matrix: (Units=1/GPa)
#
#
# Indices 1 2 3 4 5 6 
#
# 1 0.038809 0.006036 0.014613 0.000000 0.088589 0.000000
# 2 0.006036 0.051705 0.009425 0.000000 0.035718 0.000000
# 3 0.014613 0.009425 0.023025 0.000000 0.062594 0.000000
# 4 0.000000 0.000000 0.000000 0.000738 0.000000 -0.020312
# 5 0.088589 0.035718 0.062594 0.000000 0.319147 0.000000
# 6 0.000000 0.000000 0.000000 -0.020312 0.000000 0.048858
#
#
# Mechanical properties :
#
#
# Convention : Reuss Voigt Hill
#
# Bulk Modulus (GPa) = 5.75752 26.11581 15.93666
# Shear Modulus (GPa) = 10.41599 -11.61677 -0.60039
#
# Velocity S-wave (km/s) = 2.37547 -2.50866 -0.57032
# Velocity P-wave (km/s) = 3.26235 2.39938 2.86356
#
# Compressibility (1/GPa) = 0.17368589
#
# Stress axis : x y z
#
# Youngs Moduli (GPa) = 25.76689 19.34040 43.43160
#
# Poissons Ratio (x) = -0.11673 -0.63466
# Poissons Ratio (y) = -0.15552 -0.40933
# Poissons Ratio (z) = -0.37653 -0.18228
#
# Static dielectric constant tensor:
#      x y z
#    x 1.614220 0.000000 -0.013270 
#    y 0.000000 1.626310 0.000000 
#    z -0.013270 0.000000 1.628850 
# 
# From -- ./inp_files/229845.got.cif
#   From: 2010.05.17/outbox.cif.g08.bks.cpg/sg12_115_cif.got.tgz:229845.got - 2010.06.03 13:09:07.
