data_PCOD9185864
_publ_section_title
;
Structure prediction by ZEFSAII (Michael W. Deem and Ramdas Pophale) SiO2 
 PCOD9185864
Probable space group: C 2/M
;
_chemical_formula_sum "Si O2"
_cell_formula_units_Z 56
_cell_length_a 30.583803
_cell_length_b 8.816829
_cell_length_c 19.262000
_cell_angle_alpha 90.000000
_cell_angle_beta 141.801414
_cell_angle_gamma 90.000000
_cell_volume 3211.937163
_symmetry_space_group_name_H-M "C 2/M"
_symmetry_group_IT_number 12
_symmetry_cell_setting 'monoclinic'
loop_
_space_group_symop_operation_xyz
x,y,z
-x,y,-z
-x,-y,-z
x,-y,z
1/2+x,1/2+y,z
1/2-x,1/2+y,-z
1/2-x,1/2-y,-z
1/2+x,1/2-y,z
loop_
_atom_site_type_symbol
_atom_site_label
_atom_site_fract_x
_atom_site_fract_y
_atom_site_fract_z
Si Si1 0.806389 0.679975 0.018317
Si Si2 0.463815 0.179563 0.205622
Si Si3 0.614799 0.181732 0.248675
Si Si4 0.754581 0.181223 0.340042
Si Si5 0.468344 0.321368 0.060490
Si Si6 0.688173 0.682209 0.128555
Si Si7 0.618197 0.819866 0.416780
O O1 0.795785 0.500000 0.999846
O O2 0.887683 0.705464 0.144604
O O3 0.750000 0.750000 0.000000
O O4 0.801397 0.751663 0.935314
O O5 0.466640 0.282178 0.140556
O O6 0.536565 0.207112 0.336872
O O7 0.466105 0.000000 0.186973
O O8 0.685824 0.231415 0.298771
O O9 0.541487 0.247430 0.127198
O O10 0.621684 0.221336 0.339168
O O11 0.609851 0.000000 0.238718
O O12 0.745556 0.257062 0.253865
O O13 0.824650 0.231654 0.467444
O O14 0.752445 0.000000 0.330910
O O15 0.472859 0.500000 0.053752
O O16 0.389974 0.267352 0.941178
O O17 0.688202 0.500000 0.125431
O O18 0.632394 0.000000 0.439755
#
# Coordination Sequence:
#
# PCOD9185864 Si02
#       7
#     8   8   8   8   8   8   8
#     4  10  19  34  58  85 108 129 156 195 242 298
#     4   8  16  31  51  74 101 131 161 195 243 296
#     4   9  19  33  48  68  97 133 173 212 254 299
#     4  11  22  33  47  70  99 135 174 212 252 294
#     4   9  17  29  48  71  95 125 166 212 251 288
#     4  10  21  36  51  72 102 134 166 203 251 303
#     4   9  17  32  51  70  96 133 173 210 245 287
#
# _framework density 17.43496
#
# number of rings (size 3 to 8) (size 9 to 14) (size 15 to 20)
#    0.000    2.571    0.000    3.000    0.000    6.286 
#    0.000    2.857    0.000    0.857    0.000    6.000 
#    0.000    0.000    0.000    0.000    0.000    0.000 
#
# Total GULP energy -156094.965522 kJ/mol
# GULP energy per Si atom -5574.820197 kJ/mol
# Density = 1.739528 g / cm^3
# Si number density = 17.434960 Si / 1000 Ang^3
#
#
#
# Elastic Constant Matrix: (Units=GPa)
#
#
# Indices 1 2 3 4 5 6 
#
# 1 107.4691 34.5867 49.9398 0.0000 15.1407 0.0000
# 2 34.5867 38.9123 36.0088 0.0000 4.2607 0.0000
# 3 49.9398 36.0088 109.4558 0.0000 7.1810 0.0000
# 4 0.0000 0.0000 0.0000 22.8982 0.0000 7.3346
# 5 15.1407 4.2607 7.1810 0.0000 17.3696 0.0000
# 6 0.0000 0.0000 0.0000 7.3346 0.0000 23.8044
#
#
#
# Elastic Compliance Matrix: (Units=1/GPa)
#
#
# Indices 1 2 3 4 5 6 
#
# 1 0.015195 -0.009520 -0.003171 0.000000 -0.009599 0.000000
# 2 -0.009520 0.043205 -0.009990 0.000000 0.001831 0.000000
# 3 -0.003171 -0.009990 0.013904 0.000000 -0.000534 0.000000
# 4 0.000000 0.000000 0.000000 0.048454 0.000000 -0.014929
# 5 -0.009599 0.001831 -0.000534 0.000000 0.065710 0.000000
# 6 0.000000 0.000000 0.000000 -0.014929 0.000000 0.046609
#
#
# Mechanical properties :
#
#
# Convention : Reuss Voigt Hill
#
# Bulk Modulus (GPa) = 37.11736 55.21198 46.16467
# Shear Modulus (GPa) = 17.39614 21.83456 19.61535
#
# Velocity S-wave (km/s) = 3.16218 3.54269 3.35783
# Velocity P-wave (km/s) = 5.88794 6.96206 6.44741
#
# Compressibility (1/GPa) = 0.02694157
#
# Stress axis : x y z
#
# Youngs Moduli (GPa) = 65.81235 23.14556 71.91969
#
# Poissons Ratio (x) = 0.22035 0.22805
# Poissons Ratio (y) = 0.62655 0.71847
# Poissons Ratio (z) = 0.20869 0.23122
#
# Static dielectric constant tensor:
#      x y z
#    x 1.595740 0.000000 0.024250 
#    y 0.000000 1.583510 0.000000 
#    z 0.024250 0.000000 1.596210 
# 
# From -- ./inp_files/281730.got.cif
#   From: 2010.05.17/outbox.cif.g08.bks.cpg/sg12_141_cif.got.tgz:281730.got - 2010.06.03 13:09:07.
