data_PCOD9185830
_publ_section_title
;
Structure prediction by ZEFSAII (Michael W. Deem and Ramdas Pophale) SiO2 
 PCOD9185830
Probable space group: C 2/M
;
_chemical_formula_sum "Si O2"
_cell_formula_units_Z 48
_cell_length_a 30.334499
_cell_length_b 7.778334
_cell_length_c 15.120298
_cell_angle_alpha 90.000000
_cell_angle_beta 141.060910
_cell_angle_gamma 90.000000
_cell_volume 2242.254009
_symmetry_space_group_name_H-M "C 2/M"
_symmetry_group_IT_number 12
_symmetry_cell_setting 'monoclinic'
loop_
_space_group_symop_operation_xyz
x,y,z
-x,y,-z
-x,-y,-z
x,-y,z
1/2+x,1/2+y,z
1/2-x,1/2+y,-z
1/2-x,1/2-y,-z
1/2+x,1/2-y,z
loop_
_atom_site_type_symbol
_atom_site_label
_atom_site_fract_x
_atom_site_fract_y
_atom_site_fract_z
Si Si1 0.844416 0.790171 0.900728
Si Si2 0.500434 0.707806 0.102552
Si Si3 0.819896 0.795821 0.056170
Si Si4 0.475889 0.793104 0.365269
Si Si5 0.090045 0.299811 0.402372
Si Si6 0.759095 0.707766 0.411180
O O1 0.803723 0.731616 0.750002
O O2 0.842256 0.000000 0.895509
O O3 0.925547 0.741826 0.025028
O O4 0.814083 0.728480 0.946532
O O5 0.507887 0.500000 0.117299
O O6 0.559709 0.785776 0.256309
O O7 0.500000 0.759517 0.000000
O O8 0.894860 0.744804 0.215373
O O9 0.822360 0.000000 0.054085
O O10 0.750000 0.750000 0.000000
O O11 0.500000 0.731623 0.500000
O O12 0.531420 0.726668 0.378025
O O13 0.480871 0.000000 0.373259
O O14 0.097900 0.500000 0.439112
O O15 0.168089 0.225241 0.517439
O O16 0.760863 0.500000 0.409713
O O17 0.750000 0.750000 0.500000
#
# Coordination Sequence:
#
# PCOD9185830 Si02
#       6
#     8   8   8   8   8   8
#     4   9  19  36  58  82 113 151 189 233 285 343
#     4  10  19  34  58  84 110 147 190 231 282 344
#     4  11  23  40  63  89 119 155 196 244 295 351
#     4  10  22  40  63  89 118 155 196 240 297 359
#     4  10  21  36  57  85 116 148 187 239 289 341
#     4  10  21  38  58  83 115 153 195 235 284 341
#
# _framework density 21.407031
#
# number of rings (size 3 to 8) (size 9 to 14) (size 15 to 20)
#    0.000    2.000    1.667    1.500    2.333    2.667 
#    0.000    2.500    0.000    0.000    0.000    0.000 
#    0.000    0.000    0.000    0.000    0.000    0.000 
#
# Total GULP energy -133997.713667 kJ/mol
# GULP energy per Si atom -5583.238069 kJ/mol
# Density = 2.135831 g / cm^3
# Si number density = 21.407031 Si / 1000 Ang^3
#
#
#
# Elastic Constant Matrix: (Units=GPa)
#
#
# Indices 1 2 3 4 5 6 
#
# 1 83.6159 4.1248 -4.6215 0.0000 -4.0691 0.0000
# 2 4.1248 30.8441 0.6919 0.0000 0.9305 0.0000
# 3 -4.6215 0.6919 84.5910 0.0000 -2.9436 0.0000
# 4 0.0000 0.0000 0.0000 15.7443 0.0000 0.6007
# 5 -4.0691 0.9305 -2.9436 0.0000 39.6809 0.0000
# 6 0.0000 0.0000 0.0000 0.6007 0.0000 20.9905
#
#
#
# Elastic Compliance Matrix: (Units=1/GPa)
#
#
# Indices 1 2 3 4 5 6 
#
# 1 0.012148 -0.001681 0.000724 0.000000 0.001339 0.000000
# 2 -0.001681 0.032684 -0.000393 0.000000 -0.000968 0.000000
# 3 0.000724 -0.000393 0.011898 0.000000 0.000966 0.000000
# 4 0.000000 0.000000 0.000000 0.063584 0.000000 -0.001820
# 5 0.001339 -0.000968 0.000966 0.000000 0.025433 0.000000
# 6 0.000000 0.000000 0.000000 -0.001820 0.000000 0.047693
#
#
# Mechanical properties :
#
#
# Convention : Reuss Voigt Hill
#
# Bulk Modulus (GPa) = 18.50840 22.16013 20.33426
# Shear Modulus (GPa) = 23.34824 28.54020 25.94422
#
# Velocity S-wave (km/s) = 3.30613 3.65528 3.48508
# Velocity P-wave (km/s) = 4.82065 5.30934 5.07089
#
# Compressibility (1/GPa) = 0.05402954
#
# Stress axis : x y z
#
# Youngs Moduli (GPa) = 82.32113 30.59608 84.04792
#
# Poissons Ratio (x) = 0.05144 -0.06085
# Poissons Ratio (y) = 0.13839 0.03302
# Poissons Ratio (z) = -0.05960 0.01202
#
# Static dielectric constant tensor:
#      x y z
#    x 1.175650 0.000000 0.030700 
#    y 0.000000 1.809560 0.000000 
#    z 0.030700 0.000000 1.784320 
# 
# From -- ./inp_files/244869.got.cif
#   From: 2010.05.17/outbox.cif.g08.bks.cpg/sg12_123_cif.got.tgz:244869.got - 2010.06.03 13:09:07.
