data_PCOD9185076
_publ_section_title
;
Structure prediction by ZEFSAII (Michael W. Deem and Ramdas Pophale) SiO2 
 PCOD9185076
Probable space group: C 2/M
;
_chemical_formula_sum "Si O2"
_cell_formula_units_Z 64
_cell_length_a 11.658010
_cell_length_b 20.019890
_cell_length_c 26.215185
_cell_angle_alpha 90.000000
_cell_angle_beta 149.879285
_cell_angle_gamma 90.000000
_cell_volume 3070.365154
_symmetry_space_group_name_H-M "C 2/M"
_symmetry_group_IT_number 12
_symmetry_cell_setting 'monoclinic'
loop_
_space_group_symop_operation_xyz
x,y,z
-x,y,-z
-x,-y,-z
x,-y,z
1/2+x,1/2+y,z
1/2-x,1/2+y,-z
1/2-x,1/2-y,-z
1/2+x,1/2-y,z
loop_
_atom_site_type_symbol
_atom_site_label
_atom_site_fract_x
_atom_site_fract_y
_atom_site_fract_z
Si Si1 0.445776 0.155037 0.576398
Si Si2 0.792976 0.919025 0.073683
Si Si3 0.032792 0.073278 0.452410
Si Si4 0.247311 0.250172 0.414605
Si Si5 0.157406 0.421252 0.161067
Si Si6 0.565413 0.918865 0.239110
Si Si7 0.095369 0.080931 0.091215
Si Si8 0.050506 0.152079 0.262974
O O1 0.276452 0.099169 0.530881
O O2 0.331875 0.188398 0.482553
O O3 0.420615 0.208305 0.613132
O O4 0.697100 0.129981 0.658576
O O5 0.945678 0.904015 0.082498
O O6 0.889386 0.868348 0.153221
O O7 0.818338 0.000000 0.096159
O O8 0.531309 0.908873 0.955287
O O9 0.000000 0.068362 0.500000
O O10 0.809435 0.111384 0.346942
O O11 0.017455 0.000000 0.422956
O O12 0.500000 0.282835 0.500000
O O13 0.118543 0.223469 0.314642
O O14 0.205129 0.500000 0.178812
O O15 0.034650 0.406177 0.167482
O O16 0.398160 0.384008 0.247786
O O17 0.356909 0.894932 0.193396
O O18 0.567371 0.000000 0.246669
O O19 0.095326 0.000000 0.088609
O O20 0.000000 0.104547 0.000000
#
# Coordination Sequence:
#
# PCOD9185076 Si02
#       8
#     8   8   8   8   8   8   8   8
#     4  10  21  39  61  81 108 149 200 241 292 352
#     4  10  20  33  54  87 129 167 196 233 287 349
#     4  10  21  33  49  82 125 156 183 232 298 355
#     4   9  20  41  63  81 104 143 199 256 293 345
#     4  10  19  34  55  84 125 168 198 226 280 354
#     4   9  17  30  49  74 112 162 203 231 271 333
#     4   9  15  28  50  76 111 160 210 241 264 321
#     4  11  22  34  58  89 114 144 193 250 296 344
#
# _framework density 20.844425999999999
#
# number of rings (size 3 to 8) (size 9 to 14) (size 15 to 20)
#    0.000    2.250    1.250    1.875    1.750    2.000 
#    0.000    0.625    0.000   10.875    0.000    0.000 
#    0.000    0.000    0.000    0.000    0.000    0.000 
#
# Total GULP energy -178148.767106 kJ/mol
# GULP energy per Si atom -5567.148972 kJ/mol
# Density = 2.079698 g / cm^3
# Si number density = 20.844426 Si / 1000 Ang^3
#
#
#
# Elastic Constant Matrix: (Units=GPa)
#
#
# Indices 1 2 3 4 5 6 
#
# 1 103.9378 17.4484 31.5662 -0.0004 30.7674 -0.0001
# 2 17.4484 31.9549 31.1026 -0.0014 5.1508 -0.0002
# 3 31.5662 31.1026 99.9462 -0.0034 12.5613 -0.0005
# 4 -0.0004 -0.0014 -0.0034 18.9335 -0.0006 -10.4200
# 5 30.7674 5.1508 12.5613 -0.0006 49.6222 -0.0002
# 6 -0.0001 -0.0002 -0.0005 -10.4200 -0.0002 6.7642
#
#
#
# Elastic Compliance Matrix: (Units=1/GPa)
#
#
# Indices 1 2 3 4 5 6 
#
# 1 0.013011 -0.004055 -0.001948 -0.000005 -0.007153 -0.000007
# 2 -0.004055 0.046220 -0.013237 0.000007 0.001067 0.000011
# 3 -0.001948 -0.013237 0.014889 0.000013 -0.001187 0.000021
# 4 -0.000005 0.000007 0.000013 0.346970 0.000005 0.534491
# 5 -0.007153 0.001067 -0.001187 0.000005 0.024777 0.000009
# 6 -0.000007 0.000011 0.000021 0.534491 0.000009 0.971195
#
#
# Mechanical properties :
#
#
# Convention : Reuss Voigt Hill
#
# Bulk Modulus (GPa) = 28.05858 44.00816 36.03337
# Shear Modulus (GPa) = 3.40733 25.44544 14.42639
#
# Velocity S-wave (km/s) = 1.27992 3.49769 2.63363
# Velocity P-wave (km/s) = 3.95910 6.12130 5.15484
#
# Compressibility (1/GPa) = 0.03563972
#
# Stress axis : x y z
#
# Youngs Moduli (GPa) = 76.85774 21.63571 67.16318
#
# Poissons Ratio (x) = 0.08773 0.13086
# Poissons Ratio (y) = 0.31166 0.88902
# Poissons Ratio (z) = 0.14975 0.28639
#
# Static dielectric constant tensor:
#      x y z
#    x 1.801630 0.000000 -0.013000 
#    y 0.000000 1.773980 0.000000 
#    z -0.013000 0.000000 1.788720 
# 
# From -- ./inp_files/359031.got.cif
#   From: 2010.05.17/outbox.cif.g08.bks.cpg/sg12_180_cif.got.tgz:359031.got - 2010.06.03 13:09:07.
