data_PCOD9185621
_publ_section_title
;
Structure prediction by ZEFSAII (Michael W. Deem and Ramdas Pophale) SiO2 
 PCOD9185621
Probable space group: C 2/M
;
_chemical_formula_sum "Si O2"
_cell_formula_units_Z 56
_cell_length_a 18.012701
_cell_length_b 13.986381
_cell_length_c 11.103213
_cell_angle_alpha 90.000000
_cell_angle_beta 127.928764
_cell_angle_gamma 90.000000
_cell_volume 2206.410586
_symmetry_space_group_name_H-M "C 2/M"
_symmetry_group_IT_number 12
_symmetry_cell_setting 'monoclinic'
loop_
_space_group_symop_operation_xyz
x,y,z
-x,y,-z
-x,-y,-z
x,-y,z
1/2+x,1/2+y,z
1/2-x,1/2+y,-z
1/2-x,1/2-y,-z
1/2+x,1/2-y,z
loop_
_atom_site_type_symbol
_atom_site_label
_atom_site_fract_x
_atom_site_fract_y
_atom_site_fract_z
Si Si1 0.848682 0.395014 0.442011
Si Si2 0.534116 0.796731 0.846522
Si Si3 0.106860 0.886063 0.815296
Si Si4 0.364631 0.319518 0.424490
Si Si5 0.647398 0.603588 0.331516
Si Si6 0.306968 0.106705 0.125783
Si Si7 0.140056 0.700159 0.199497
O O1 0.897891 0.500000 0.499913
O O2 0.896206 0.290050 0.484837
O O3 0.762370 0.393411 0.449501
O O4 0.797232 0.395970 0.259380
O O5 0.541907 0.683140 0.830154
O O6 0.596667 0.839132 0.803086
O O7 0.431292 0.841039 0.769592
O O8 0.593864 0.819956 0.025716
O O9 0.099127 0.859481 0.666119
O O10 0.095143 0.000000 0.820848
O O11 0.212586 0.858399 0.966553
O O12 0.384943 0.380997 0.563252
O O13 0.250170 0.319882 0.304125
O O14 0.617861 0.500000 0.257663
O O15 0.627367 0.688650 0.220127
O O16 0.320743 0.000000 0.092596
#
# Coordination Sequence:
#
# PCOD9185621 Si02
#       7
#     8   8   8   8   8   8   8
#     4   9  17  30  55  83 105 140 189 238 282 328
#     4  11  21  38  57  88 123 155 185 242 303 360
#     4  11  21  33  57  88 115 153 199 242 289 347
#     4  11  19  37  60  82 116 155 199 242 285 338
#     4  10  21  37  58  86 115 152 202 243 281 344
#     4  10  19  34  57  84 115 151 193 243 292 346
#     4  10  22  36  60  83 119 159 193 235 300 351
#
# _framework density 25.380587999999999
#
# number of rings (size 3 to 8) (size 9 to 14) (size 15 to 20)
#    0.000    1.714    2.857    4.286    0.000    2.286 
#    0.000    5.000    0.000    2.571    0.000    5.000 
#    0.000    0.000    0.000    0.000    0.000    0.000 
#
# Total GULP energy -156494.682604 kJ/mol
# GULP energy per Si atom -5589.095807 kJ/mol
# Density = 2.532282 g / cm^3
# Si number density = 25.380588 Si / 1000 Ang^3
#
#
#
# Elastic Constant Matrix: (Units=GPa)
#
#
# Indices 1 2 3 4 5 6 
#
# 1 119.3245 -2.2638 13.6408 0.0000 6.7126 0.0000
# 2 -2.2638 51.9814 -18.4216 0.0000 11.1393 0.0000
# 3 13.6408 -18.4216 65.0205 0.0000 6.0865 0.0000
# 4 0.0000 0.0000 0.0000 23.7531 0.0000 -3.9108
# 5 6.7126 11.1393 6.0865 0.0000 43.0168 0.0000
# 6 0.0000 0.0000 0.0000 -3.9108 0.0000 10.4969
#
#
#
# Elastic Compliance Matrix: (Units=1/GPa)
#
#
# Indices 1 2 3 4 5 6 
#
# 1 0.008638 0.000009 -0.001706 0.000000 -0.001109 0.000000
# 2 0.000009 0.023330 0.007270 0.000000 -0.007071 0.000000
# 3 -0.001706 0.007270 0.018190 0.000000 -0.004190 0.000000
# 4 0.000000 0.000000 0.000000 0.044851 0.000000 0.016710
# 5 -0.001109 -0.007071 -0.004190 0.000000 0.025844 0.000000
# 6 0.000000 0.000000 0.000000 0.016710 0.000000 0.101492
#
#
# Mechanical properties :
#
#
# Convention : Reuss Voigt Hill
#
# Bulk Modulus (GPa) = 16.31213 24.69302 20.50257
# Shear Modulus (GPa) = 21.58597 31.67810 26.63203
#
# Velocity S-wave (km/s) = 2.91948 3.53671 3.24282
# Velocity P-wave (km/s) = 4.21965 5.14082 4.70284
#
# Compressibility (1/GPa) = 0.06130409
#
# Stress axis : x y z
#
# Youngs Moduli (GPa) = 115.76662 42.86375 54.97675
#
# Poissons Ratio (x) = -0.00040 0.09378
# Poissons Ratio (y) = -0.00108 -0.39967
# Poissons Ratio (z) = 0.19747 -0.31161
#
# Static dielectric constant tensor:
#      x y z
#    x 2.055280 0.000000 0.079680 
#    y 0.000000 2.056690 0.000000 
#    z 0.079680 0.000000 1.996190 
# 
# From -- ./inp_files/156745.got.cif
#   From: 2010.05.17/outbox.cif.g08.bks.cpg/sg12_79_cif.got.tgz:156745.got - 2010.06.03 13:09:07.
