data_PCOD9185592
_publ_section_title
;
Structure prediction by ZEFSAII (Michael W. Deem and Ramdas Pophale) SiO2 
 PCOD9185592
Probable space group: C 2/M
;
_chemical_formula_sum "Si O2"
_cell_formula_units_Z 56
_cell_length_a 24.343785
_cell_length_b 8.588906
_cell_length_c 16.142121
_cell_angle_alpha 90.000000
_cell_angle_beta 55.782337
_cell_angle_gamma 90.000000
_cell_volume 2790.894086
_symmetry_space_group_name_H-M "C 2/M"
_symmetry_group_IT_number 12
_symmetry_cell_setting 'monoclinic'
loop_
_space_group_symop_operation_xyz
x,y,z
-x,y,-z
-x,-y,-z
x,-y,z
1/2+x,1/2+y,z
1/2-x,1/2+y,-z
1/2-x,1/2-y,-z
1/2+x,1/2-y,z
loop_
_atom_site_type_symbol
_atom_site_label
_atom_site_fract_x
_atom_site_fract_y
_atom_site_fract_z
Si Si1 0.294251 0.813888 0.887823
Si Si2 0.069282 0.812007 0.672781
Si Si3 0.930999 0.809854 0.517498
Si Si4 0.668460 0.315226 0.729096
Si Si5 0.578586 0.184176 0.950234
Si Si6 0.292329 0.314415 0.710635
Si Si7 0.929167 0.312233 0.854835
O O1 0.273087 0.752190 0.816460
O O2 0.370394 0.765822 0.842596
O O3 0.291105 0.000000 0.891170
O O4 0.250000 0.750000 0.000000
O O5 0.073974 0.759875 0.573799
O O6 0.129662 0.759070 0.680132
O O7 0.999694 0.756812 0.769972
O O8 0.069686 0.000000 0.673193
O O9 0.865868 0.759155 0.622745
O O10 0.000000 0.757883 0.500000
O O11 0.931320 0.000000 0.517905
O O12 0.677880 0.500000 0.715570
O O13 0.620699 0.276163 0.847236
O O14 0.738470 0.236200 0.688700
O O15 0.594969 0.000000 0.928437
O O16 0.500000 0.201315 0.000000
O O17 0.590486 0.233682 0.034863
O O18 0.293053 0.500000 0.715707
O O19 0.934825 0.500000 0.850220
#
# Coordination Sequence:
#
# PCOD9185592 Si02
#       7
#     8   8   8   8   8   8   8
#     4  11  23  39  60  88 122 157 196 241 292 351
#     4  10  21  37  59  87 116 150 196 246 294 351
#     4   9  19  38  63  88 113 147 196 248 298 354
#     4  11  23  37  56  86 123 156 195 247 301 356
#     4  10  19  34  57  83 117 157 197 236 282 350
#     4  11  23  40  63  86 115 158 202 244 296 354
#     4  10  21  36  56  85 117 151 191 239 292 348
#
# _framework density 20.065255000000001
#
# number of rings (size 3 to 8) (size 9 to 14) (size 15 to 20)
#    0.000    1.714    1.429    3.000    0.000    5.429 
#    0.000    1.429    0.000    3.857    0.000    0.000 
#    0.000    0.000    0.000    0.000    0.000    0.000 
#
# Total GULP energy -156513.998849 kJ/mol
# GULP energy per Si atom -5589.785673 kJ/mol
# Density = 2.001959 g / cm^3
# Si number density = 20.065255 Si / 1000 Ang^3
#
#
#
# Elastic Constant Matrix: (Units=GPa)
#
#
# Indices 1 2 3 4 5 6 
#
# 1 153.5700 28.1058 58.5170 0.0000 7.4851 0.0000
# 2 28.1058 25.4290 15.0860 -0.0001 0.3282 0.0000
# 3 58.5170 15.0860 109.1294 0.0000 8.6820 0.0000
# 4 0.0000 -0.0001 0.0000 11.3600 0.0000 -4.9183
# 5 7.4851 0.3282 8.6820 0.0000 35.3701 0.0000
# 6 0.0000 0.0000 0.0000 -4.9183 0.0000 27.0339
#
#
#
# Elastic Compliance Matrix: (Units=1/GPa)
#
#
# Indices 1 2 3 4 5 6 
#
# 1 0.009555 -0.008230 -0.003907 0.000000 -0.000987 0.000000
# 2 -0.008230 0.049967 -0.002648 0.000000 0.001928 0.000000
# 3 -0.003907 -0.002648 0.011787 0.000000 -0.002042 0.000000
# 4 0.000000 0.000000 0.000000 0.095554 0.000000 0.017384
# 5 -0.000987 0.001928 -0.002042 0.000000 0.028965 0.000000
# 6 0.000000 0.000000 0.000000 0.017384 0.000000 0.040153
#
#
# Mechanical properties :
#
#
# Convention : Reuss Voigt Hill
#
# Bulk Modulus (GPa) = 23.95827 54.61620 39.28724
# Shear Modulus (GPa) = 17.89136 27.18077 22.53606
#
# Velocity S-wave (km/s) = 2.98930 3.68451 3.35496
# Velocity P-wave (km/s) = 4.88679 6.73641 5.88472
#
# Compressibility (1/GPa) = 0.04173924
#
# Stress axis : x y z
#
# Youngs Moduli (GPa) = 104.65929 20.01309 84.83878
#
# Poissons Ratio (x) = 0.16470 0.33149
# Poissons Ratio (y) = 0.86133 0.22464
# Poissons Ratio (z) = 0.40893 0.05299
#
# Static dielectric constant tensor:
#      x y z
#    x 1.718380 0.000000 0.006670 
#    y 0.000000 1.684730 0.000000 
#    z 0.006670 0.000000 1.678600 
# 
# From -- ./inp_files/238296.got.cif
#   From: 2010.05.17/outbox.cif.g08.bks.cpg/sg12_120_cif.got.tgz:238296.got - 2010.06.03 13:09:07.
