data_PCOD9185110
_publ_section_title
;
Structure prediction by ZEFSAII (Michael W. Deem and Ramdas Pophale) SiO2 
 PCOD9185110
Probable space group: C 2/M
;
_chemical_formula_sum "Si O2"
_cell_formula_units_Z 64
_cell_length_a 20.945857
_cell_length_b 7.463340
_cell_length_c 20.920230
_cell_angle_alpha 90.000000
_cell_angle_beta 106.450342
_cell_angle_gamma 90.000000
_cell_volume 3136.505821
_symmetry_space_group_name_H-M "C 2/M"
_symmetry_group_IT_number 12
_symmetry_cell_setting 'monoclinic'
loop_
_space_group_symop_operation_xyz
x,y,z
-x,y,-z
-x,-y,-z
x,-y,z
1/2+x,1/2+y,z
1/2-x,1/2+y,-z
1/2-x,1/2-y,-z
1/2+x,1/2-y,z
loop_
_atom_site_type_symbol
_atom_site_label
_atom_site_fract_x
_atom_site_fract_y
_atom_site_fract_z
Si Si1 0.036950 0.283390 0.357442
Si Si2 0.612534 0.780855 0.647041
Si Si3 0.966216 0.790757 0.786295
Si Si4 0.390022 0.795120 0.130118
Si Si5 0.856180 0.783899 0.854673
Si Si6 0.293382 0.780153 0.212559
Si Si7 0.071113 0.288107 0.995981
Si Si8 0.578127 0.210532 0.502099
O O1 0.037220 0.500000 0.359775
O O2 0.058545 0.228141 0.293198
O O3 0.079507 0.216913 0.430392
O O4 0.960060 0.226873 0.346606
O O5 0.669473 0.724168 0.712033
O O6 0.617049 0.717410 0.574771
O O7 0.612075 0.000000 0.645395
O O8 0.913146 0.718942 0.822150
O O9 0.038279 0.702982 0.814946
O O10 0.976593 0.000000 0.802877
O O11 0.336603 0.717090 0.164012
O O12 0.367890 0.000000 0.112958
O O13 0.402964 0.712818 0.063982
O O14 0.782694 0.722386 0.815075
O O15 0.877047 0.734088 0.932142
O O16 0.855854 0.000000 0.850682
O O17 0.294813 0.000000 0.212867
O O18 0.059921 0.500000 0.981299
O O19 0.000000 0.213760 0.000000
O O20 0.500000 0.220834 0.500000
O O21 0.595063 0.000000 0.502532
#
# Coordination Sequence:
#
# PCOD9185110 Si02
#       8
#     8   8   8   8   8   8   8   8
#     4   9  15  26  47  73  97 124 160 205 245 278
#     4   8  12  22  46  74  96 121 156 203 244 275
#     4  11  21  31  46  71 101 130 162 198 239 288
#     4  10  19  34  56  76  93 122 164 204 241 284
#     4  10  22  36  50  71 100 132 163 196 238 292
#     4   9  17  31  51  74  98 127 164 200 238 284
#     4  10  20  34  54  77  99 123 157 201 247 292
#     4   7  11  19  37  71 101 116 149 204 247 273
#
# _framework density 20.404872000000001
#
# number of rings (size 3 to 8) (size 9 to 14) (size 15 to 20)
#    0.000    2.750    2.500    1.875    0.000    1.750 
#    0.000    0.625    0.000    4.125    0.000    0.000 
#    0.000    0.000    0.000    0.000    0.000    0.125 
#
# Total GULP energy -178463.766986 kJ/mol
# GULP energy per Si atom -5576.992718 kJ/mol
# Density = 2.035843 g / cm^3
# Si number density = 20.404872 Si / 1000 Ang^3
#
#
#
# Elastic Constant Matrix: (Units=GPa)
#
#
# Indices 1 2 3 4 5 6 
#
# 1 48.1696 -5.3785 12.0681 0.0000 6.0251 0.0000
# 2 -5.3785 57.9380 -11.0403 0.0000 -0.6269 0.0000
# 3 12.0681 -11.0403 143.6102 0.0000 1.2497 0.0000
# 4 0.0000 0.0000 0.0000 22.4109 0.0000 -1.1278
# 5 6.0251 -0.6269 1.2497 0.0000 25.9927 0.0000
# 6 0.0000 0.0000 0.0000 -1.1278 0.0000 -1.2435
#
#
#
# Elastic Compliance Matrix: (Units=1/GPa)
#
#
# Indices 1 2 3 4 5 6 
#
# 1 0.021989 0.001668 -0.001676 0.000000 -0.004976 0.000000
# 2 0.001668 0.017646 0.001217 0.000000 -0.000020 0.000000
# 3 -0.001676 0.001217 0.007197 0.000000 0.000072 0.000000
# 4 0.000000 0.000000 0.000000 0.042673 0.000000 -0.038703
# 5 -0.004976 -0.000020 0.000072 0.000000 0.039622 0.000000
# 6 0.000000 0.000000 0.000000 -0.038703 0.000000 -0.769049
#
#
# Mechanical properties :
#
#
# Convention : Reuss Voigt Hill
#
# Bulk Modulus (GPa) = 20.30516 26.77963 23.54239
# Shear Modulus (GPa) = -7.98821 26.36990 9.19084
#
# Velocity S-wave (km/s) = -1.98075 3.59880 2.12462
# Velocity P-wave (km/s) = 2.17752 5.51554 4.19301
#
# Compressibility (1/GPa) = 0.04924856
#
# Stress axis : x y z
#
# Youngs Moduli (GPa) = 45.47815 56.66912 138.94566
#
# Poissons Ratio (x) = -0.09452 0.23291
# Poissons Ratio (y) = -0.07586 -0.16904
# Poissons Ratio (z) = 0.07623 -0.06894
#
# Static dielectric constant tensor:
#      x y z
#    x 1.682280 0.000000 -0.015960 
#    y 0.000000 1.776700 0.000000 
#    z -0.015960 0.000000 1.749850 
# 
# From -- ./inp_files/319228.got.cif
#   From: 2010.05.17/outbox.cif.g08.bks.cpg/sg12_160_cif.got.tgz:319228.got - 2010.06.03 13:09:07.
