data_PCOD9185639
_publ_section_title
;
Structure prediction by ZEFSAII (Michael W. Deem and Ramdas Pophale) SiO2 
 PCOD9185639
Probable space group: C 2/M
;
_chemical_formula_sum "Si O2"
_cell_formula_units_Z 58
_cell_length_a 12.421970
_cell_length_b 13.932202
_cell_length_c 19.461275
_cell_angle_alpha 90.000000
_cell_angle_beta 125.208622
_cell_angle_gamma 90.000000
_cell_volume 2751.911686
_symmetry_space_group_name_H-M "C 2/M"
_symmetry_group_IT_number 12
_symmetry_cell_setting 'monoclinic'
loop_
_space_group_symop_operation_xyz
x,y,z
-x,y,-z
-x,-y,-z
x,-y,z
1/2+x,1/2+y,z
1/2-x,1/2+y,-z
1/2-x,1/2-y,-z
1/2+x,1/2-y,z
loop_
_atom_site_type_symbol
_atom_site_label
_atom_site_fract_x
_atom_site_fract_y
_atom_site_fract_z
Si Si1 0.159095 0.658172 0.478067
Si Si2 0.040625 0.603849 0.828075
Si Si3 0.292456 0.171400 0.913969
Si Si4 0.151214 0.311490 0.625775
Si Si5 0.435837 0.702054 0.075802
Si Si6 0.269396 0.897688 0.642988
Si Si7 0.500000 0.000000 0.000000
Si Si8 0.229485 0.164937 0.186077
O O1 0.250000 0.750000 0.500000
O O2 0.180895 0.631393 0.565948
O O3 0.197239 0.598068 0.425604
O O4 0.003986 0.681015 0.416822
O O5 0.044346 0.500000 0.867743
O O6 0.040685 0.696259 0.876384
O O7 0.168524 0.610691 0.826116
O O8 0.908805 0.608347 0.734308
O O9 0.168703 0.146088 0.916050
O O10 0.390020 0.084491 0.943132
O O11 0.250884 0.222292 0.827944
O O12 0.363783 0.260217 0.980893
O O13 0.189204 0.199440 0.628195
O O14 0.229421 0.349056 0.720313
O O15 0.573602 0.647683 0.120481
O O16 0.205852 0.000000 0.639771
#
# Coordination Sequence:
#
# PCOD9185639 Si02
#       8
#     8   8   8   8   8   8   2   8
#     4   9  19  35  55  80 111 149 190 227 282 344
#     4  10  21  33  56  86 112 146 193 239 281 333
#     4  10  23  35  59  83 115 147 188 233 285 339
#     4  10  19  34  57  85 107 154 193 232 282 350
#     4  10  20  39  57  81 112 151 191 228 286 345
#     4  10  19  35  55  85 114 142 192 240 278 331
#     4  12  20  40  56  88 116 146 192 242 278 332
#     4  11  19  37  59  82 117 151 189 237 290 341
#
# _framework density 21.076257999999999
#
# number of rings (size 3 to 8) (size 9 to 14) (size 15 to 20)
#    0.000    1.931    4.138    0.000    0.966    0.000 
#    2.483    7.586    0.000    2.483   10.759    0.000 
#    0.000    0.000    0.000    0.000    0.000    0.000 
#
# Total GULP energy -161560.181147 kJ/mol
# GULP energy per Si atom -5571.040729 kJ/mol
# Density = 2.102829 g / cm^3
# Si number density = 21.076258 Si / 1000 Ang^3
#
#
#
# Elastic Constant Matrix: (Units=GPa)
#
#
# Indices 1 2 3 4 5 6 
#
# 1 67.3036 -9.9322 -5.9357 0.0000 -0.8574 0.0000
# 2 -9.9322 63.7022 -8.1033 0.0000 1.0727 0.0000
# 3 -5.9357 -8.1033 82.8199 0.0000 -9.2375 0.0000
# 4 0.0000 0.0000 0.0000 0.2966 0.0000 3.9817
# 5 -0.8574 1.0727 -9.2375 0.0000 22.5269 0.0000
# 6 0.0000 0.0000 0.0000 3.9817 0.0000 13.7239
#
#
#
# Elastic Compliance Matrix: (Units=1/GPa)
#
#
# Indices 1 2 3 4 5 6 
#
# 1 0.015380 0.002567 0.001473 0.000000 0.001067 0.000000
# 2 0.002567 0.016325 0.001787 0.000000 0.000053 0.000000
# 3 0.001473 0.001787 0.012944 0.000000 0.005279 0.000000
# 4 0.000000 0.000000 0.000000 -1.164617 0.000000 0.337890
# 5 0.001067 0.000053 0.005279 0.000000 0.046594 0.000000
# 6 0.000000 0.000000 0.000000 0.337890 0.000000 -0.025167
#
#
# Mechanical properties :
#
#
# Convention : Reuss Voigt Hill
#
# Bulk Modulus (GPa) = 17.76105 18.43147 18.09626
# Shear Modulus (GPa) = -4.58116 23.16261 9.29073
#
# Velocity S-wave (km/s) = -1.47592 3.31870 2.10184
# Velocity P-wave (km/s) = 2.35391 4.84243 3.80723
#
# Compressibility (1/GPa) = 0.05630298
#
# Stress axis : x y z
#
# Youngs Moduli (GPa) = 65.01791 61.25651 77.25851
#
# Poissons Ratio (x) = -0.15727 -0.11376
# Poissons Ratio (y) = -0.16693 -0.13808
# Poissons Ratio (z) = -0.09574 -0.10948
#
# Static dielectric constant tensor:
#      x y z
#    x 1.764000 0.000000 -0.029560 
#    y 0.000000 1.722220 0.000000 
#    z -0.029560 0.000000 1.785240 
# 
# From -- ./inp_files/305490.got.cif
#   From: 2010.05.17/outbox.cif.g08.bks.cpg/sg12_153_cif.got.tgz:305490.got - 2010.06.03 13:09:07.
