data_PCOD9185903
_publ_section_title
;
Structure prediction by ZEFSAII (Michael W. Deem and Ramdas Pophale) SiO2 
 PCOD9185903
Probable space group: C 2/M
;
_chemical_formula_sum "Si O2"
_cell_formula_units_Z 56
_cell_length_a 20.190538
_cell_length_b 11.374224
_cell_length_c 15.247791
_cell_angle_alpha 90.000000
_cell_angle_beta 69.097000
_cell_angle_gamma 90.000000
_cell_volume 3271.220789
_symmetry_space_group_name_H-M "C 2/M"
_symmetry_group_IT_number 12
_symmetry_cell_setting 'monoclinic'
loop_
_space_group_symop_operation_xyz
x,y,z
-x,y,-z
-x,-y,-z
x,-y,z
1/2+x,1/2+y,z
1/2-x,1/2+y,-z
1/2-x,1/2-y,-z
1/2+x,1/2-y,z
loop_
_atom_site_type_symbol
_atom_site_label
_atom_site_fract_x
_atom_site_fract_y
_atom_site_fract_z
Si Si1 0.411269 0.000000 0.439221
Si Si2 0.419910 0.361271 0.793157
Si Si3 0.304983 0.358105 0.992352
Si Si4 0.341595 0.765444 0.682356
Si Si5 0.190491 0.861470 0.803092
Si Si6 0.079054 0.140529 0.711963
Si Si7 0.573084 0.000000 0.356943
Si Si8 0.333837 0.758406 0.478671
O O1 0.491473 0.000000 0.365199
O O2 0.422891 0.000000 0.538891
O O3 0.365475 0.885846 0.439315
O O4 0.428397 0.500000 0.795522
O O5 0.372131 0.328707 0.899262
O O6 0.376092 0.332534 0.726600
O O7 0.499276 0.309778 0.750719
O O8 0.284940 0.500000 0.985092
O O9 0.250000 0.250000 0.000000
O O10 0.322409 0.352854 0.087300
O O11 0.260116 0.789437 0.743915
O O12 0.384746 0.883259 0.688339
O O13 0.347599 0.741746 0.575862
O O14 0.125196 0.821110 0.774014
O O15 0.204396 0.000000 0.776280
O O16 0.122216 0.171742 0.604020
O O17 0.074899 0.000000 0.719033
O O18 0.250000 0.750000 0.500000
#
# Coordination Sequence:
#
# PCOD9185903 Si02
#       8
#     4   8   8   8   8   8   4   8
#     4   9  20  34  48  76 107 136 184 236 277 313
#     4  10  22  38  55  83 116 146 179 229 285 340
#     4  10  20  36  61  90 115 145 190 238 288 340
#     4  11  19  33  57  79 109 143 189 225 277 329
#     4  10  19  34  58  86 106 141 190 235 275 327
#     4  10  22  38  57  80 114 148 186 230 279 330
#     4   9  18  32  54  76 101 134 184 242 273 311
#     4  11  22  34  54  79 110 149 189 227 272 332
#
# _framework density 17.118991000000001
#
# number of rings (size 3 to 8) (size 9 to 14) (size 15 to 20)
#    0.000    1.857    3.571    0.857    1.000    2.857 
#    0.000    4.286    1.571    0.000    0.000    1.000 
#    0.000    0.000    0.000    0.000    0.000    0.000 
#
# Total GULP energy -155968.351460 kJ/mol
# GULP energy per Si atom -5570.298266 kJ/mol
# Density = 1.708003 g / cm^3
# Si number density = 17.118991 Si / 1000 Ang^3
#
#
#
# Elastic Constant Matrix: (Units=GPa)
#
#
# Indices 1 2 3 4 5 6 
#
# 1 140.8627 35.2732 67.8043 0.0000 -17.3977 0.0000
# 2 35.2732 28.6519 20.0040 0.0000 -10.7310 0.0000
# 3 67.8043 20.0040 113.6782 0.0000 -4.4127 0.0000
# 4 0.0000 0.0000 0.0000 27.9942 0.0000 -1.0970
# 5 -17.3977 -10.7310 -4.4127 0.0000 28.0870 0.0000
# 6 0.0000 0.0000 0.0000 -1.0970 0.0000 23.9615
#
#
#
# Elastic Compliance Matrix: (Units=1/GPa)
#
#
# Indices 1 2 3 4 5 6 
#
# 1 0.012908 -0.010811 -0.005681 0.000000 0.002972 0.000000
# 2 -0.010811 0.055390 -0.002754 0.000000 0.014033 0.000000
# 3 -0.005681 -0.002754 0.012569 0.000000 -0.002597 0.000000
# 4 0.000000 0.000000 0.000000 0.035786 0.000000 0.001638
# 5 0.002972 0.014033 -0.002597 0.000000 0.042398 0.000000
# 6 0.000000 0.000000 0.000000 0.001638 0.000000 0.041809
#
#
# Mechanical properties :
#
#
# Convention : Reuss Voigt Hill
#
# Bulk Modulus (GPa) = 23.59922 58.81732 41.20827
# Shear Modulus (GPa) = 19.72562 26.68263 23.20413
#
# Velocity S-wave (km/s) = 3.39819 3.95227 3.68565
# Velocity P-wave (km/s) = 5.40483 7.43369 6.49892
#
# Compressibility (1/GPa) = 0.04237428
#
# Stress axis : x y z
#
# Youngs Moduli (GPa) = 77.47015 18.05392 79.55943
#
# Poissons Ratio (x) = 0.19519 0.45200
# Poissons Ratio (y) = 0.83756 0.21908
# Poissons Ratio (z) = 0.44013 0.04972
#
# Static dielectric constant tensor:
#      x y z
#    x 1.583420 0.000000 -0.020200 
#    y 0.000000 1.612350 0.000000 
#    z -0.020200 0.000000 1.573930 
# 
# From -- ./inp_files/223771.got.cif
#   From: 2010.05.17/outbox.cif.g08.bks.cpg/sg12_112_cif.got.tgz:223771.got - 2010.06.03 13:09:07.
