data_PCOD9185294
_publ_section_title
;
Structure prediction by ZEFSAII (Michael W. Deem and Ramdas Pophale) SiO2 
 PCOD9185294
Probable space group: C 2/M
;
_chemical_formula_sum "Si O2"
_cell_formula_units_Z 64
_cell_length_a 20.274420
_cell_length_b 19.475554
_cell_length_c 9.878045
_cell_angle_alpha 90.000000
_cell_angle_beta 76.551588
_cell_angle_gamma 90.000000
_cell_volume 3793.450901
_symmetry_space_group_name_H-M "C 2/M"
_symmetry_group_IT_number 12
_symmetry_cell_setting 'monoclinic'
loop_
_space_group_symop_operation_xyz
x,y,z
-x,y,-z
-x,-y,-z
x,-y,z
1/2+x,1/2+y,z
1/2-x,1/2+y,-z
1/2-x,1/2-y,-z
1/2+x,1/2-y,z
loop_
_atom_site_type_symbol
_atom_site_label
_atom_site_fract_x
_atom_site_fract_y
_atom_site_fract_z
Si Si1 0.689729 0.080468 0.319621
Si Si2 0.429111 0.815840 0.587836
Si Si3 0.060033 0.823134 0.867287
Si Si4 0.259102 0.637895 0.547076
Si Si5 0.149517 0.248479 0.628149
Si Si6 0.336485 0.420671 0.759048
Si Si7 0.532266 0.328061 0.337271
Si Si8 0.179570 0.081303 0.922192
O O1 0.624418 0.129090 0.331746
O O2 0.717318 0.093766 0.458531
O O3 0.752695 0.100449 0.192701
O O4 0.674623 0.000000 0.306879
O O5 0.500000 0.846548 0.500000
O O6 0.393663 0.779160 0.475351
O O7 0.448281 0.753022 0.678729
O O8 0.105053 0.761965 0.782894
O O9 0.113612 0.876147 0.906506
O O10 0.020567 0.849556 0.752853
O O11 0.000000 0.805193 0.000000
O O12 0.211732 0.700119 0.620688
O O13 0.320201 0.675764 0.437314
O O14 0.285552 0.596077 0.661887
O O15 0.357300 0.500000 0.741381
O O16 0.400488 0.371774 0.709633
O O17 0.308692 0.408520 0.923465
O O18 0.500000 0.338222 0.500000
O O19 0.167529 0.000000 0.904071
#
# Coordination Sequence:
#
# PCOD9185294 Si02
#       8
#     8   8   8   8   8   8   8   8
#     4  10  21  37  59  84 106 142 187 226 274 331
#     4  10  19  36  60  80 112 139 173 228 288 322
#     4  12  21  35  55  80 111 146 185 224 267 331
#     4  10  19  35  60  79 106 140 185 232 267 323
#     4  10  19  34  56  83 108 139 178 228 286 310
#     4  11  22  37  53  78 112 149 188 226 266 319
#     4  11  21  36  54  80 110 144 183 226 274 321
#     4  10  23  39  53  75 114 152 183 224 273 320
#
# _framework density 16.871182000000001
#
# number of rings (size 3 to 8) (size 9 to 14) (size 15 to 20)
#    0.000    1.500    6.250    0.375    0.000    1.250 
#    2.250    1.250    0.000    0.000    0.000    0.000 
#    0.000   10.000    0.000    0.000    0.000    0.000 
#
# Total GULP energy -178436.428300 kJ/mol
# GULP energy per Si atom -5576.138384 kJ/mol
# Density = 1.683278 g / cm^3
# Si number density = 16.871182 Si / 1000 Ang^3
#
#
#
# Elastic Constant Matrix: (Units=GPa)
#
#
# Indices 1 2 3 4 5 6 
#
# 1 81.7747 30.5557 29.8437 0.0000 -17.7589 0.0000
# 2 30.5557 57.9487 30.4432 0.0000 -15.9970 0.0000
# 3 29.8437 30.4432 85.2441 0.0000 -17.0436 0.0000
# 4 0.0000 0.0000 0.0000 17.4179 0.0000 -7.4071
# 5 -17.7589 -15.9970 -17.0436 0.0000 31.7830 0.0000
# 6 0.0000 0.0000 0.0000 -7.4071 0.0000 13.6193
#
#
#
# Elastic Compliance Matrix: (Units=1/GPa)
#
#
# Indices 1 2 3 4 5 6 
#
# 1 0.016470 -0.005958 -0.002686 0.000000 0.004763 0.000000
# 2 -0.005958 0.025083 -0.005616 0.000000 0.006284 0.000000
# 3 -0.002686 -0.005616 0.015470 0.000000 0.003969 0.000000
# 4 0.000000 0.000000 0.000000 0.074686 0.000000 0.040619
# 5 0.004763 0.006284 0.003969 0.000000 0.039416 0.000000
# 6 0.000000 0.000000 0.000000 0.040619 0.000000 0.095517
#
#
# Mechanical properties :
#
#
# Convention : Reuss Voigt Hill
#
# Bulk Modulus (GPa) = 35.08270 45.18364 40.13317
# Shear Modulus (GPa) = 16.41158 21.50570 18.95864
#
# Velocity S-wave (km/s) = 3.12229 3.57417 3.35584
# Velocity P-wave (km/s) = 5.81703 6.62364 6.23340
#
# Compressibility (1/GPa) = 0.02850408
#
# Stress axis : x y z
#
# Youngs Moduli (GPa) = 60.71739 39.86700 64.64006
#
# Poissons Ratio (x) = 0.23755 0.17360
# Poissons Ratio (y) = 0.36178 0.36299
# Poissons Ratio (z) = 0.16307 0.22387
#
# Static dielectric constant tensor:
#      x y z
#    x 1.584510 0.000000 -0.006100 
#    y 0.000000 1.567380 0.000000 
#    z -0.006100 0.000000 1.577870 
# 
# From -- ./inp_files/89123.got.cif
#   From: 2010.05.17/outbox.cif.g08.bks.cpg/sg12_45_cif.got.tgz:89123.got - 2010.06.03 13:09:07.
