data_PCOD9185583
_publ_section_title
;
Structure prediction by ZEFSAII (Michael W. Deem and Ramdas Pophale) SiO2 
 PCOD9185583
Probable space group: C 2/M
;
_chemical_formula_sum "Si O2"
_cell_formula_units_Z 64
_cell_length_a 19.916596
_cell_length_b 9.156001
_cell_length_c 23.909775
_cell_angle_alpha 90.000000
_cell_angle_beta 130.084420
_cell_angle_gamma 90.000000
_cell_volume 3335.897237
_symmetry_space_group_name_H-M "C 2/M"
_symmetry_group_IT_number 12
_symmetry_cell_setting 'monoclinic'
loop_
_space_group_symop_operation_xyz
x,y,z
-x,y,-z
-x,-y,-z
x,-y,z
1/2+x,1/2+y,z
1/2-x,1/2+y,-z
1/2-x,1/2-y,-z
1/2+x,1/2-y,z
loop_
_atom_site_type_symbol
_atom_site_label
_atom_site_fract_x
_atom_site_fract_y
_atom_site_fract_z
Si Si1 0.680299 0.824573 0.422522
Si Si2 0.984745 0.675621 0.306774
Si Si3 0.806504 0.327494 0.270993
Si Si4 0.359478 0.326922 0.901393
Si Si5 0.929215 0.831972 0.166357
Si Si6 0.728797 0.831520 0.046155
Si Si7 0.800803 0.673632 0.696210
Si Si8 0.467762 0.173720 0.866906
O O1 0.750000 0.750000 0.500000
O O2 0.579195 0.791095 0.383697
O O3 0.692087 0.777763 0.364053
O O4 0.690631 0.000000 0.430336
O O5 0.980315 0.500000 0.295159
O O6 0.900469 0.719945 0.297689
O O7 0.977180 0.753063 0.243018
O O8 0.811095 0.500000 0.284166
O O9 0.729104 0.306732 0.183664
O O10 0.776932 0.247156 0.311016
O O11 0.374698 0.500000 0.916266
O O12 0.337902 0.249857 0.948417
O O13 0.436781 0.251691 0.907140
O O14 0.826197 0.831402 0.125621
O O15 0.949900 0.745367 0.120325
O O16 0.957299 0.000000 0.174452
O O17 0.702734 0.000000 0.023149
O O18 0.750000 0.750000 0.000000
O O19 0.789016 0.500000 0.689487
O O20 0.888677 0.700909 0.779761
O O21 0.477317 0.000000 0.879760
#
# Coordination Sequence:
#
# PCOD9185583 Si02
#       8
#     8   8   8   8   8   8   8   8
#     4  10  21  37  55  78 109 148 187 227 276 332
#     4  10  19  36  57  80 110 145 186 229 277 331
#     4   9  18  31  54  83 108 138 180 226 273 325
#     4  10  19  34  57  85 115 146 184 230 279 335
#     4  11  22  35  56  87 115 142 187 237 277 325
#     4  11  24  40  58  83 116 153 189 229 280 336
#     4   9  18  33  53  77 109 144 179 222 275 327
#     4  10  19  34  57  83 114 148 183 230 281 332
#
# _framework density 19.185244999999998
#
# number of rings (size 3 to 8) (size 9 to 14) (size 15 to 20)
#    0.000    2.000    2.500    1.500    0.000    4.000 
#    0.000    1.250    0.000    7.500    0.000    0.000 
#    0.000    0.000    0.000    0.000    0.000    0.000 
#
# Total GULP energy -178708.357372 kJ/mol
# GULP energy per Si atom -5584.636168 kJ/mol
# Density = 1.914158 g / cm^3
# Si number density = 19.185245 Si / 1000 Ang^3
#
#
#
# Elastic Constant Matrix: (Units=GPa)
#
#
# Indices 1 2 3 4 5 6 
#
# 1 139.9245 47.4709 20.1254 0.0000 -9.3392 0.0000
# 2 47.4709 55.9925 18.8233 0.0000 -6.8061 0.0000
# 3 20.1254 18.8233 60.3721 0.0000 0.2761 0.0000
# 4 0.0000 0.0000 0.0000 25.1708 0.0000 -7.4036
# 5 -9.3392 -6.8061 0.2761 0.0000 26.6846 0.0000
# 6 0.0000 0.0000 0.0000 -7.4036 0.0000 36.3185
#
#
#
# Elastic Compliance Matrix: (Units=1/GPa)
#
#
# Indices 1 2 3 4 5 6 
#
# 1 0.010121 -0.008115 -0.000851 0.000000 0.001481 0.000000
# 2 -0.008115 0.027191 -0.005792 0.000000 0.004155 0.000000
# 3 -0.000851 -0.005792 0.018662 0.000000 -0.001968 0.000000
# 4 0.000000 0.000000 0.000000 0.042263 0.000000 0.008615
# 5 0.001481 0.004155 -0.001968 0.000000 0.039073 0.000000
# 6 0.000000 0.000000 0.000000 0.008615 0.000000 0.029290
#
#
# Mechanical properties :
#
#
# Convention : Reuss Voigt Hill
#
# Bulk Modulus (GPa) = 37.79230 47.68091 42.73660
# Shear Modulus (GPa) = 24.39796 28.95941 26.67869
#
# Velocity S-wave (km/s) = 3.56996 3.88940 3.73310
# Velocity P-wave (km/s) = 6.06088 6.71392 6.39574
#
# Compressibility (1/GPa) = 0.02646042
#
# Stress axis : x y z
#
# Youngs Moduli (GPa) = 98.80581 36.77649 53.58379
#
# Poissons Ratio (x) = 0.29842 0.04558
# Poissons Ratio (y) = 0.80176 0.31035
# Poissons Ratio (z) = 0.08404 0.21301
#
# Static dielectric constant tensor:
#      x y z
#    x 1.673180 0.000000 0.026700 
#    y 0.000000 1.643370 0.000000 
#    z 0.026700 0.000000 1.673110 
# 
# From -- ./inp_files/346231.got.cif
#   From: 2010.05.17/outbox.cif.g08.bks.cpg/sg12_174_cif.got.tgz:346231.got - 2010.06.03 13:09:07.
