data_PCOD9185414
_publ_section_title
;
Structure prediction by ZEFSAII (Michael W. Deem and Ramdas Pophale) SiO2 
 PCOD9185414
Probable space group: C 2/M
;
_chemical_formula_sum "Si O2"
_cell_formula_units_Z 56
_cell_length_a 20.658627
_cell_length_b 7.436993
_cell_length_c 19.845614
_cell_angle_alpha 90.000000
_cell_angle_beta 57.961945
_cell_angle_gamma 90.000000
_cell_volume 2584.660303
_symmetry_space_group_name_H-M "C 2/M"
_symmetry_group_IT_number 12
_symmetry_cell_setting 'monoclinic'
loop_
_space_group_symop_operation_xyz
x,y,z
-x,y,-z
-x,-y,-z
x,-y,z
1/2+x,1/2+y,z
1/2-x,1/2+y,-z
1/2-x,1/2-y,-z
1/2+x,1/2-y,z
loop_
_atom_site_type_symbol
_atom_site_label
_atom_site_fract_x
_atom_site_fract_y
_atom_site_fract_z
Si Si1 0.836727 0.714782 0.431741
Si Si2 0.918030 0.210096 0.023258
Si Si3 0.040332 0.717020 0.146331
Si Si4 0.275755 0.710382 0.184732
Si Si5 0.394808 0.780018 0.745048
Si Si6 0.518528 0.219804 0.565340
Si Si7 0.868226 0.717466 0.262939
O O1 0.846560 0.500000 0.423297
O O2 0.750000 0.750000 0.500000
O O3 0.899670 0.779703 0.450456
O O4 0.853926 0.781709 0.346799
O O5 0.844230 0.288529 0.101322
O O6 0.920299 0.000000 0.041747
O O7 0.914911 0.222813 0.944533
O O8 0.000000 0.289464 0.000000
O O9 0.040272 0.500000 0.146119
O O10 0.075756 0.775609 0.197644
O O11 0.951970 0.776922 0.191921
O O12 0.269593 0.500000 0.170110
O O13 0.191134 0.783959 0.220830
O O14 0.304152 0.724667 0.245690
O O15 0.453612 0.724777 0.654390
O O16 0.395681 0.000000 0.743775
O O17 0.500000 0.279811 0.500000
O O18 0.518907 0.000000 0.563752
O O19 0.868646 0.500000 0.263353
#
# Coordination Sequence:
#
# PCOD9185414 Si02
#       7
#     8   8   8   8   8   8   8
#     4  10  21  36  55  82 111 138 173 219 266 312
#     4  10  20  34  50  77 114 141 170 218 270 316
#     4  10  19  34  57  78 101 139 181 220 262 312
#     4  10  21  35  55  80 106 140 180 220 261 313
#     4   9  18  34  53  77 106 136 178 224 261 304
#     4   9  17  31  53  80 106 134 173 221 263 302
#     4  10  20  35  54  77 109 141 173 218 265 310
#
# _framework density 21.66629
#
# number of rings (size 3 to 8) (size 9 to 14) (size 15 to 20)
#    0.000    2.286    2.857    0.000    2.000    2.000 
#    0.000    0.714    0.000    1.286    0.000    0.000 
#    0.000    0.000    0.000    0.000    0.000    0.000 
#
# Total GULP energy -156438.641728 kJ/mol
# GULP energy per Si atom -5587.094347 kJ/mol
# Density = 2.161698 g / cm^3
# Si number density = 21.666290 Si / 1000 Ang^3
#
#
#
# Elastic Constant Matrix: (Units=GPa)
#
#
# Indices 1 2 3 4 5 6 
#
# 1 184.7769 -2.8752 82.9601 0.0002 -5.6811 0.0001
# 2 -2.8752 64.4684 -4.7162 0.0032 -7.7171 0.0004
# 3 82.9601 -4.7162 147.2359 -0.0003 7.8580 -0.0002
# 4 0.0002 0.0032 -0.0003 25.3678 -0.0012 10.4202
# 5 -5.6811 -7.7171 7.8580 -0.0012 37.4444 0.0006
# 6 0.0001 0.0004 -0.0002 10.4202 0.0006 13.8397
#
#
#
# Elastic Compliance Matrix: (Units=1/GPa)
#
#
# Indices 1 2 3 4 5 6 
#
# 1 0.007397 0.000266 -0.004270 0.000000 0.002073 0.000000
# 2 0.000266 0.015930 0.000185 -0.000002 0.003285 0.000001
# 3 -0.004270 0.000185 0.009341 0.000000 -0.002570 0.000000
# 4 0.000000 -0.000002 0.000000 0.057070 0.000002 -0.042969
# 5 0.002073 0.003285 -0.002570 0.000002 0.028237 -0.000003
# 6 0.000000 0.000001 0.000000 -0.042969 -0.000003 0.104608
#
#
# Mechanical properties :
#
#
# Convention : Reuss Voigt Hill
#
# Bulk Modulus (GPa) = 39.95236 60.80206 50.37721
# Shear Modulus (GPa) = 20.95877 36.73790 28.84834
#
# Velocity S-wave (km/s) = 3.11359 4.12226 3.65291
# Velocity P-wave (km/s) = 5.60409 7.12610 6.41043
#
# Compressibility (1/GPa) = 0.02502981
#
# Stress axis : x y z
#
# Youngs Moduli (GPa) = 135.19211 62.77448 107.05728
#
# Poissons Ratio (x) = -0.01668 0.45712
# Poissons Ratio (y) = -0.03592 -0.01984
# Poissons Ratio (z) = 0.57726 -0.01163
#
# Static dielectric constant tensor:
#      x y z
#    x 1.760740 0.000000 -0.010960 
#    y 0.000000 1.809540 0.000000 
#    z -0.010960 0.000000 1.754400 
# 
# From -- ./inp_files/275663.got.cif
#   From: 2010.05.17/outbox.cif.g08.bks.cpg/sg12_138_cif.got.tgz:275663.got - 2010.06.03 13:09:07.
