data_PCOD9185570
_publ_section_title
;
Structure prediction by ZEFSAII (Michael W. Deem and Ramdas Pophale) SiO2 
 PCOD9185570
Probable space group: C 2/M
;
_chemical_formula_sum "Si O2"
_cell_formula_units_Z 56
_cell_length_a 26.123684
_cell_length_b 8.723950
_cell_length_c 14.897362
_cell_angle_alpha 90.000000
_cell_angle_beta 124.425826
_cell_angle_gamma 90.000000
_cell_volume 2800.506272
_symmetry_space_group_name_H-M "C 2/M"
_symmetry_group_IT_number 12
_symmetry_cell_setting 'monoclinic'
loop_
_space_group_symop_operation_xyz
x,y,z
-x,y,-z
-x,-y,-z
x,-y,z
1/2+x,1/2+y,z
1/2-x,1/2+y,-z
1/2-x,1/2-y,-z
1/2+x,1/2-y,z
loop_
_atom_site_type_symbol
_atom_site_label
_atom_site_fract_x
_atom_site_fract_y
_atom_site_fract_z
Si Si1 0.888113 0.681404 0.612658
Si Si2 0.885441 0.180161 0.161531
Si Si3 0.778173 0.316235 0.171349
Si Si4 0.137317 0.182864 0.229258
Si Si5 0.010071 0.319227 0.613032
Si Si6 0.218873 0.314455 0.623612
Si Si7 0.139728 0.681833 0.043971
O O1 0.879580 0.500000 0.622681
O O2 0.897305 0.766697 0.715423
O O3 0.827558 0.741666 0.498961
O O4 0.946305 0.696723 0.604427
O O5 0.820738 0.239348 0.139079
O O6 0.937422 0.223895 0.285122
O O7 0.882370 0.000000 0.142783
O O8 0.898284 0.265263 0.080494
O O9 0.779831 0.500000 0.163149
O O10 0.801923 0.275560 0.295570
O O11 0.707476 0.259450 0.099038
O O12 0.209541 0.233556 0.314902
O O13 0.114877 0.259200 0.114870
O O14 0.136803 0.000000 0.217825
O O15 0.028251 0.500000 0.632001
O O16 0.000000 0.274597 0.500000
O O17 0.217934 0.500000 0.618241
O O18 0.146270 0.500000 0.051883
#
# Coordination Sequence:
#
# PCOD9185570 Si02
#       7
#     8   8   8   8   8   8   8
#     4  10  19  34  57  83 111 148 193 233 277 333
#     4  12  24  38  57  83 115 151 191 235 285 338
#     4  10  19  35  58  86 119 152 188 231 283 339
#     4  10  20  35  55  83 118 151 185 229 283 337
#     4  10  22  41  63  85 112 150 193 236 281 331
#     4   8  16  31  54  83 114 149 186 226 273 331
#     4  11  22  38  59  84 114 148 189 235 283 337
#
# _framework density 19.996385
#
# number of rings (size 3 to 8) (size 9 to 14) (size 15 to 20)
#    0.000    1.857    0.000    6.000    0.000    3.143 
#    0.000    5.714    0.000    4.286    0.000    0.000 
#    0.000    0.000    0.000    0.000    0.000    0.000 
#
# Total GULP energy -156478.508920 kJ/mol
# GULP energy per Si atom -5588.518176 kJ/mol
# Density = 1.995087 g / cm^3
# Si number density = 19.996385 Si / 1000 Ang^3
#
#
#
# Elastic Constant Matrix: (Units=GPa)
#
#
# Indices 1 2 3 4 5 6 
#
# 1 34.3282 18.5043 24.6752 0.0000 -26.6475 0.0000
# 2 18.5043 57.0219 27.8215 0.0000 -10.5204 0.0000
# 3 24.6752 27.8215 105.1442 0.0000 -33.5953 0.0000
# 4 0.0000 0.0000 0.0000 27.8479 0.0000 -3.0492
# 5 -26.6475 -10.5204 -33.5953 0.0000 31.8585 0.0000
# 6 0.0000 0.0000 0.0000 -3.0492 0.0000 23.0766
#
#
#
# Elastic Compliance Matrix: (Units=1/GPa)
#
#
# Indices 1 2 3 4 5 6 
#
# 1 0.103798 -0.022058 0.010392 0.000000 0.090494 0.000000
# 2 -0.022058 0.024876 -0.007052 0.000000 -0.017672 0.000000
# 3 0.010392 -0.007052 0.016546 0.000000 0.023812 0.000000
# 4 0.000000 0.000000 0.000000 0.036437 0.000000 0.004815
# 5 0.090494 -0.017672 0.023812 0.000000 0.126355 0.000000
# 6 0.000000 0.000000 0.000000 0.004815 0.000000 0.043970
#
#
# Mechanical properties :
#
#
# Convention : Reuss Voigt Hill
#
# Bulk Modulus (GPa) = 9.27793 37.61070 23.44432
# Shear Modulus (GPa) = 11.75516 24.92281 18.33899
#
# Velocity S-wave (km/s) = 2.42722 3.53422 3.03168
# Velocity P-wave (km/s) = 3.53625 5.95851 4.89944
#
# Compressibility (1/GPa) = 0.10778268
#
# Stress axis : x y z
#
# Youngs Moduli (GPa) = 9.63414 40.20018 60.43679
#
# Poissons Ratio (x) = 0.88673 -0.62805
# Poissons Ratio (y) = 0.21251 0.42621
# Poissons Ratio (z) = -0.10012 0.28350
#
# Static dielectric constant tensor:
#      x y z
#    x 1.698630 0.000000 -0.001550 
#    y 0.000000 1.674260 0.000000 
#    z -0.001550 0.000000 1.731700 
# 
# From -- ./inp_files/244340.got.cif
#   From: 2010.05.17/outbox.cif.g08.bks.cpg/sg12_123_cif.got.tgz:244340.got - 2010.06.03 13:09:07.
