data_PCOD9185872
_publ_section_title
;
Structure prediction by ZEFSAII (Michael W. Deem and Ramdas Pophale) SiO2 
 PCOD9185872
Probable space group: C 2/M
;
_chemical_formula_sum "Si O2"
_cell_formula_units_Z 40
_cell_length_a 30.406727
_cell_length_b 7.491470
_cell_length_c 8.187881
_cell_angle_alpha 90.000000
_cell_angle_beta 105.672108
_cell_angle_gamma 90.000000
_cell_volume 1795.787158
_symmetry_space_group_name_H-M "C 2/M"
_symmetry_group_IT_number 12
_symmetry_cell_setting 'monoclinic'
loop_
_space_group_symop_operation_xyz
x,y,z
-x,y,-z
-x,-y,-z
x,-y,z
1/2+x,1/2+y,z
1/2-x,1/2+y,-z
1/2-x,1/2-y,-z
1/2+x,1/2-y,z
loop_
_atom_site_type_symbol
_atom_site_label
_atom_site_fract_x
_atom_site_fract_y
_atom_site_fract_z
Si Si1 0.696510 0.786209 0.937628
Si Si2 0.549687 0.292532 0.001474
Si Si3 0.643249 0.218845 0.564477
Si Si4 0.648116 0.205140 0.212216
Si Si5 0.951725 0.716058 0.380230
O O1 0.674448 0.720903 0.746551
O O2 0.688959 0.000000 0.928456
O O3 0.750000 0.750000 0.000000
O O4 0.671456 0.714105 0.074753
O O5 0.550380 0.500000 0.050426
O O6 0.554734 0.276528 0.811951
O O7 0.500000 0.218005 0.000000
O O8 0.593610 0.206229 0.129050
O O9 0.657675 0.283677 0.400061
O O10 0.591343 0.271489 0.554440
O O11 0.643941 0.000000 0.560495
O O12 0.663934 0.000000 0.234622
O O13 0.952227 0.500000 0.377743
O O14 0.000000 0.777828 0.500000
#
# Coordination Sequence:
#
# PCOD9185872 Si02
#       5
#     8   8   8   8   8
#     4  10  21  38  59  85 116 149 190 238 289 340
#     4  11  23  36  52  81 122 157 188 232 287 343
#     4   9  18  35  58  86 114 143 188 243 283 328
#     4  10  20  38  63  84 110 150 194 240 284 332
#     4  10  19  34  58  85 112 149 197 238 278 336
#
# _framework density 22.274353000000001
#
# number of rings (size 3 to 8) (size 9 to 14) (size 15 to 20)
#    0.000    2.000    2.000    1.800    0.000    5.200 
#    0.000    2.000    0.000    0.000    0.000    0.000 
#    0.000    0.000    0.000    0.000    0.000    0.000 
#
# Total GULP energy -111785.150091 kJ/mol
# GULP energy per Si atom -5589.257505 kJ/mol
# Density = 2.222366 g / cm^3
# Si number density = 22.274353 Si / 1000 Ang^3
#
#
#
# Elastic Constant Matrix: (Units=GPa)
#
#
# Indices 1 2 3 4 5 6 
#
# 1 126.5739 -3.1835 91.2503 0.0000 -5.8655 0.0000
# 2 -3.1835 62.9356 0.6842 0.0000 -3.4021 0.0000
# 3 91.2503 0.6842 204.1492 0.0000 -20.6704 0.0000
# 4 0.0000 0.0000 0.0000 -17.9466 0.0000 14.3888
# 5 -5.8655 -3.4021 -20.6704 0.0000 41.4465 0.0000
# 6 0.0000 0.0000 0.0000 14.3888 0.0000 11.3045
#
#
#
# Elastic Compliance Matrix: (Units=1/GPa)
#
#
# Indices 1 2 3 4 5 6 
#
# 1 0.011719 0.000599 -0.005337 0.000000 -0.000954 0.000000
# 2 0.000599 0.015992 -0.000189 0.000000 0.001303 0.000000
# 3 -0.005337 -0.000189 0.007590 0.000000 0.003014 0.000000
# 4 0.000000 0.000000 0.000000 -0.027578 0.000000 0.035102
# 5 -0.000954 0.001303 0.003014 0.000000 0.025603 0.000000
# 6 0.000000 0.000000 0.000000 0.035102 0.000000 0.043781
#
#
# Mechanical properties :
#
#
# Convention : Reuss Voigt Hill
#
# Bulk Modulus (GPa) = 39.29807 63.46229 51.38018
# Shear Modulus (GPa) = 52.38746 27.28805 39.83775
#
# Velocity S-wave (km/s) = 4.85492 3.50392 4.23366
# Velocity P-wave (km/s) = 7.00771 6.70246 6.85679
#
# Compressibility (1/GPa) = 0.02544654
#
# Stress axis : x y z
#
# Youngs Moduli (GPa) = 85.33398 62.53104 131.76004
#
# Poissons Ratio (x) = -0.03747 0.70315
# Poissons Ratio (y) = -0.05113 0.02497
# Poissons Ratio (z) = 0.45539 0.01185
#
# Static dielectric constant tensor:
#      x y z
#    x 1.787330 0.000000 -0.022970 
#    y 0.000000 1.828230 0.000000 
#    z -0.022970 0.000000 1.795780 
# 
# From -- ./inp_files/101002.got.cif
#   From: 2010.05.17/outbox.cif.g08.bks.cpg/sg12_51_cif.got.tgz:101002.got - 2010.06.03 13:09:07.
