data_PCOD9185909
_publ_section_title
;
Structure prediction by ZEFSAII (Michael W. Deem and Ramdas Pophale) SiO2 
 PCOD9185909
Probable space group: C 2/M
;
_chemical_formula_sum "Si O2"
_cell_formula_units_Z 56
_cell_length_a 32.129287
_cell_length_b 8.382786
_cell_length_c 20.564943
_cell_angle_alpha 90.000000
_cell_angle_beta 149.124031
_cell_angle_gamma 90.000000
_cell_volume 2842.417149
_symmetry_space_group_name_H-M "C 2/M"
_symmetry_group_IT_number 12
_symmetry_cell_setting 'monoclinic'
loop_
_space_group_symop_operation_xyz
x,y,z
-x,y,-z
-x,-y,-z
x,-y,z
1/2+x,1/2+y,z
1/2-x,1/2+y,-z
1/2-x,1/2-y,-z
1/2+x,1/2-y,z
loop_
_atom_site_type_symbol
_atom_site_label
_atom_site_fract_x
_atom_site_fract_y
_atom_site_fract_z
Si Si1 0.980974 0.317498 0.044831
Si Si2 0.472275 0.692731 0.658881
Si Si3 0.943982 0.805644 0.365010
Si Si4 0.313405 0.812328 0.502104
Si Si5 0.736401 0.309336 0.908040
Si Si6 0.101958 0.189679 0.942459
Si Si7 0.640809 0.318020 0.299935
O O1 0.954864 0.500000 0.000454
O O2 0.069176 0.305252 0.195309
O O3 0.920692 0.235641 0.014455
O O4 0.000000 0.242494 0.000000
O O5 0.465034 0.500000 0.651721
O O6 0.515439 0.736630 0.649468
O O7 0.383312 0.767785 0.545660
O O8 0.529740 0.743558 0.796394
O O9 0.850205 0.751611 0.236564
O O10 0.000000 0.749976 0.500000
O O11 0.942552 0.000000 0.366375
O O12 0.330246 0.702605 0.587263
O O13 0.218697 0.787527 0.358848
O O14 0.319760 0.000000 0.527713
O O15 0.732733 0.500000 0.905681
O O16 0.750000 0.250000 0.000000
O O17 0.813112 0.258701 0.968024
O O18 0.105683 0.000000 0.941577
O O19 0.611752 0.500000 0.251753
#
# Coordination Sequence:
#
# PCOD9185909 Si02
#       7
#     8   8   8   8   8   8   8
#     4  11  24  41  60  84 114 152 202 253 302 359
#     4  10  19  34  58  86 113 148 195 241 293 354
#     4   9  19  38  61  85 117 155 195 242 295 352
#     4  10  20  33  54  83 113 145 187 238 286 338
#     4  11  21  37  63  93 125 159 205 254 303 361
#     4  11  22  38  61  90 119 153 200 249 305 364
#     4  10  20  35  55  80 112 149 187 232 291 347
#
# _framework density 19.701540999999999
#
# number of rings (size 3 to 8) (size 9 to 14) (size 15 to 20)
#    0.000    1.714    2.857    2.143    0.000    3.429 
#    2.571    0.000    0.000    3.000    0.000    0.000 
#    0.000    0.000    0.000    0.000    0.000    0.000 
#
# Total GULP energy -156210.348798 kJ/mol
# GULP energy per Si atom -5578.941028 kJ/mol
# Density = 1.965670 g / cm^3
# Si number density = 19.701541 Si / 1000 Ang^3
#
#
#
# Elastic Constant Matrix: (Units=GPa)
#
#
# Indices 1 2 3 4 5 6 
#
# 1 138.2442 24.0887 57.6284 0.0000 20.9257 0.0000
# 2 24.0887 38.0563 16.5805 0.0000 8.5329 0.0000
# 3 57.6284 16.5805 76.5956 0.0000 19.2195 0.0000
# 4 0.0000 0.0000 0.0000 15.5521 0.0000 0.3380
# 5 20.9257 8.5329 19.2195 0.0000 40.0461 0.0000
# 6 0.0000 0.0000 0.0000 0.3380 0.0000 22.8798
#
#
#
# Elastic Compliance Matrix: (Units=1/GPa)
#
#
# Indices 1 2 3 4 5 6 
#
# 1 0.011080 -0.003531 -0.007171 0.000000 -0.001595 0.000000
# 2 -0.003531 0.030603 -0.003177 0.000000 -0.003151 0.000000
# 3 -0.007171 -0.003177 0.020497 0.000000 -0.005413 0.000000
# 4 0.000000 0.000000 0.000000 0.064321 0.000000 -0.000950
# 5 -0.001595 -0.003151 -0.005413 0.000000 0.029074 0.000000
# 6 0.000000 0.000000 0.000000 -0.000950 0.000000 0.043721
#
#
# Mechanical properties :
#
#
# Convention : Reuss Voigt Hill
#
# Bulk Modulus (GPa) = 29.05273 49.94347 39.49810
# Shear Modulus (GPa) = 20.96189 26.00218 23.48203
#
# Velocity S-wave (km/s) = 3.26540 3.63685 3.45612
# Velocity P-wave (km/s) = 5.38475 6.56054 6.00151
#
# Compressibility (1/GPa) = 0.03442018
#
# Stress axis : x y z
#
# Youngs Moduli (GPa) = 90.25397 32.67687 48.78724
#
# Poissons Ratio (x) = 0.11538 0.34988
# Poissons Ratio (y) = 0.31869 0.15501
# Poissons Ratio (z) = 0.64725 0.10382
#
# Static dielectric constant tensor:
#      x y z
#    x 1.701050 0.000000 -0.005720 
#    y 0.000000 1.680010 0.000000 
#    z -0.005720 0.000000 1.735810 
# 
# From -- ./inp_files/329670.got.cif
#   From: 2010.05.17/outbox.cif.g08.bks.cpg/sg12_165_cif.got.tgz:329670.got - 2010.06.03 13:09:07.
