data_PCOD9185677
_publ_section_title
;
Structure prediction by ZEFSAII (Michael W. Deem and Ramdas Pophale) SiO2 
 PCOD9185677
Probable space group: C 2/M
;
_chemical_formula_sum "Si O2"
_cell_formula_units_Z 64
_cell_length_a 12.597490
_cell_length_b 13.301767
_cell_length_c 24.577136
_cell_angle_alpha 90.000000
_cell_angle_beta 138.893237
_cell_angle_gamma 90.000000
_cell_volume 2707.676239
_symmetry_space_group_name_H-M "C 2/M"
_symmetry_group_IT_number 12
_symmetry_cell_setting 'monoclinic'
loop_
_space_group_symop_operation_xyz
x,y,z
-x,y,-z
-x,-y,-z
x,-y,z
1/2+x,1/2+y,z
1/2-x,1/2+y,-z
1/2-x,1/2-y,-z
1/2+x,1/2-y,z
loop_
_atom_site_type_symbol
_atom_site_label
_atom_site_fract_x
_atom_site_fract_y
_atom_site_fract_z
Si Si1 0.017465 0.379256 0.605186
Si Si2 0.843042 0.385768 0.814860
Si Si3 0.870998 0.818533 0.176056
Si Si4 0.679301 0.619682 0.338226
Si Si5 0.848454 0.877290 0.549313
Si Si6 0.190037 0.878386 0.641918
Si Si7 0.116402 0.285496 0.993746
Si Si8 0.469737 0.880869 0.267761
O O1 0.006663 0.500000 0.592854
O O2 0.833852 0.343296 0.532658
O O3 0.144031 0.341409 0.609440
O O4 0.087028 0.364897 0.692541
O O5 0.896992 0.500000 0.827575
O O6 0.691255 0.378714 0.795865
O O7 0.777903 0.348703 0.732272
O O8 0.982747 0.329735 0.901548
O O9 0.743481 0.845507 0.080572
O O10 0.880017 0.698745 0.193790
O O11 0.055281 0.850845 0.242935
O O12 0.688712 0.500000 0.343482
O O13 0.623555 0.650297 0.376722
O O14 0.002618 0.846783 0.572537
O O15 0.845010 0.000000 0.544290
O O16 0.336672 0.857511 0.657184
O O17 0.178653 0.000000 0.636264
O O18 0.250000 0.250000 0.000000
O O19 0.000000 0.239898 0.000000
O O20 0.449915 0.000000 0.245978
#
# Coordination Sequence:
#
# PCOD9185677 Si02
#       8
#     8   8   8   8   8   8   8   8
#     4   9  19  34  55  81 114 156 194 243 301 351
#     4  10  20  38  65  96 125 153 196 249 303 359
#     4  11  22  37  63  88 117 158 194 248 299 355
#     4  10  19  34  57  86 116 146 190 242 303 362
#     4   9  16  31  57  84 111 149 196 243 298 354
#     4   9  17  32  58  83 112 155 198 240 288 353
#     4  10  23  40  62  92 126 163 203 249 304 366
#     4  10  22  38  54  79 113 158 206 242 289 348
#
# _framework density 23.636505
#
# number of rings (size 3 to 8) (size 9 to 14) (size 15 to 20)
#    0.000    2.250    1.250    1.500    0.000    7.750 
#    0.000    3.125    2.750    6.750    0.000    0.000 
#    0.000    0.000    0.000    0.000    0.000    0.000 
#
# Total GULP energy -178293.657410 kJ/mol
# GULP energy per Si atom -5571.676794 kJ/mol
# Density = 2.358271 g / cm^3
# Si number density = 23.636505 Si / 1000 Ang^3
#
#
#
# Elastic Constant Matrix: (Units=GPa)
#
#
# Indices 1 2 3 4 5 6 
#
# 1 111.7843 5.8040 4.4760 0.0000 21.9359 0.0000
# 2 5.8040 66.3781 -10.9237 0.0000 17.9344 0.0000
# 3 4.4760 -10.9237 78.2460 0.0000 27.0841 0.0000
# 4 0.0000 0.0000 0.0000 20.5079 0.0000 6.3150
# 5 21.9359 17.9344 27.0841 0.0000 30.9948 0.0000
# 6 0.0000 0.0000 0.0000 6.3150 0.0000 18.3915
#
#
#
# Elastic Compliance Matrix: (Units=1/GPa)
#
#
# Indices 1 2 3 4 5 6 
#
# 1 0.011400 0.003721 0.004882 0.000000 -0.014487 0.000000
# 2 0.003721 0.024448 0.012914 0.000000 -0.028064 0.000000
# 3 0.004882 0.012914 0.025929 0.000000 -0.033585 0.000000
# 4 0.000000 0.000000 0.000000 0.054527 0.000000 -0.018722
# 5 -0.014487 -0.028064 -0.033585 0.000000 0.088102 0.000000
# 6 0.000000 0.000000 0.000000 -0.018722 0.000000 0.060801
#
#
# Mechanical properties :
#
#
# Convention : Reuss Voigt Hill
#
# Bulk Modulus (GPa) = 9.54107 28.34678 18.94393
# Shear Modulus (GPa) = 19.44692 31.11565 25.28129
#
# Velocity S-wave (km/s) = 2.87147 3.63219 3.27400
# Velocity P-wave (km/s) = 3.87804 5.44144 4.72485
#
# Compressibility (1/GPa) = 0.10481000
#
# Stress axis : x y z
#
# Youngs Moduli (GPa) = 87.71992 40.90370 38.56692
#
# Poissons Ratio (x) = -0.15219 -0.18827
# Poissons Ratio (y) = -0.32638 -0.49807
# Poissons Ratio (z) = -0.42822 -0.52824
#
# Static dielectric constant tensor:
#      x y z
#    x 1.967110 0.000000 0.020220 
#    y 0.000000 2.005460 0.000000 
#    z 0.020220 0.000000 1.886440 
# 
# From -- ./inp_files/358472.got.cif
#   From: 2010.05.17/outbox.cif.g08.bks.cpg/sg12_180_cif.got.tgz:358472.got - 2010.06.03 13:09:07.
