data_PCOD9185509
_publ_section_title
;
Structure prediction by ZEFSAII (Michael W. Deem and Ramdas Pophale) SiO2 
 PCOD9185509
Probable space group: C 2/M
;
_chemical_formula_sum "Si O2"
_cell_formula_units_Z 40
_cell_length_a 15.321506
_cell_length_b 16.945665
_cell_length_c 7.932288
_cell_angle_alpha 90.000000
_cell_angle_beta 68.677503
_cell_angle_gamma 90.000000
_cell_volume 1918.509832
_symmetry_space_group_name_H-M "C 2/M"
_symmetry_group_IT_number 12
_symmetry_cell_setting 'monoclinic'
loop_
_space_group_symop_operation_xyz
x,y,z
-x,y,-z
-x,-y,-z
x,-y,z
1/2+x,1/2+y,z
1/2-x,1/2+y,-z
1/2-x,1/2-y,-z
1/2+x,1/2-y,z
loop_
_atom_site_type_symbol
_atom_site_label
_atom_site_fract_x
_atom_site_fract_y
_atom_site_fract_z
Si Si1 0.221948 0.815243 0.157917
Si Si2 0.607691 0.594785 0.976265
Si Si3 0.364539 0.094845 0.265002
Si Si4 0.949042 0.410855 0.719622
Si Si5 0.219823 0.665125 0.336069
O O1 0.307859 0.871071 0.148772
O O2 0.204814 0.759362 0.333447
O O3 0.250000 0.750000 0.000000
O O4 0.138686 0.866010 0.133154
O O5 0.623448 0.500000 0.969059
O O6 0.677794 0.635812 0.792496
O O7 0.500000 0.608767 0.000000
O O8 0.471900 0.122867 0.212290
O O9 0.310550 0.125032 0.469199
O O10 0.366002 0.000000 0.263752
O O11 0.928288 0.500000 0.787693
O O12 0.853721 0.367368 0.750204
O O13 0.000000 0.413716 0.500000
#
# Coordination Sequence:
#
# PCOD9185509 Si02
#       5
#     8   8   8   8   8
#     4  10  22  36  53  79 112 145 177 221 276 323
#     4  10  21  38  56  74 105 150 192 226 264 315
#     4  10  19  35  59  83 108 139 179 224 269 323
#     4   8  15  29  53  83 108 131 164 213 271 323
#     4  10  19  34  57  82 109 140 178 225 272 320
#
# _framework density 20.849516000000001
#
# number of rings (size 3 to 8) (size 9 to 14) (size 15 to 20)
#    0.000    2.400    0.000    4.200    0.000    3.200 
#    0.000    6.000    0.000   14.400    0.000    0.000 
#    0.000    0.000    0.000    0.000    0.000    0.000 
#
# Total GULP energy -111567.728719 kJ/mol
# GULP energy per Si atom -5578.386436 kJ/mol
# Density = 2.080206 g / cm^3
# Si number density = 20.849516 Si / 1000 Ang^3
#
#
#
# Elastic Constant Matrix: (Units=GPa)
#
#
# Indices 1 2 3 4 5 6 
#
# 1 186.0839 61.1109 26.7192 0.0000 19.8480 0.0000
# 2 61.1109 83.3539 14.3369 0.0000 16.5840 0.0000
# 3 26.7192 14.3369 74.3032 0.0000 12.4161 0.0000
# 4 0.0000 0.0000 0.0000 23.2328 0.0000 17.5166
# 5 19.8480 16.5840 12.4161 0.0000 32.5384 0.0000
# 6 0.0000 0.0000 0.0000 17.5166 0.0000 156.4143
#
#
#
# Elastic Compliance Matrix: (Units=1/GPa)
#
#
# Indices 1 2 3 4 5 6 
#
# 1 0.007324 -0.004831 -0.001460 0.000000 -0.001449 0.000000
# 2 -0.004831 0.016703 -0.000593 0.000000 -0.005340 0.000000
# 3 -0.001460 -0.000593 0.014845 0.000000 -0.004472 0.000000
# 4 0.000000 0.000000 0.000000 0.047012 0.000000 -0.005265
# 5 -0.001449 -0.005340 -0.004472 0.000000 0.036045 0.000000
# 6 0.000000 0.000000 0.000000 -0.005265 0.000000 0.006983
#
#
# Mechanical properties :
#
#
# Convention : Reuss Voigt Hill
#
# Bulk Modulus (GPa) = 39.83262 60.89721 50.36491
# Shear Modulus (GPa) = 33.10202 58.54203 45.82202
#
# Velocity S-wave (km/s) = 3.98887 5.30465 4.69310
# Velocity P-wave (km/s) = 6.35304 8.17254 7.31955
#
# Compressibility (1/GPa) = 0.02510505
#
# Stress axis : x y z
#
# Youngs Moduli (GPa) = 136.52938 59.86901 67.36266
#
# Poissons Ratio (x) = 0.28920 0.09833
# Poissons Ratio (y) = 0.65952 0.03998
# Poissons Ratio (z) = 0.19929 0.03553
#
# Static dielectric constant tensor:
#      x y z
#    x 1.738350 0.000000 0.022540 
#    y 0.000000 1.843010 0.000000 
#    z 0.022540 0.000000 1.849150 
# 
# From -- ./inp_files/47155.got.cif
#   From: 2010.05.17/outbox.cif.g08.bks.cpg/sg12_24_cif.got.tgz:47155.got - 2010.06.03 13:09:07.
