data_PCOD9185779
_publ_section_title
;
Structure prediction by ZEFSAII (Michael W. Deem and Ramdas Pophale) SiO2 
 PCOD9185779
Probable space group: C 2/M
;
_chemical_formula_sum "Si O2"
_cell_formula_units_Z 56
_cell_length_a 21.056963
_cell_length_b 7.903153
_cell_length_c 28.749458
_cell_angle_alpha 90.000000
_cell_angle_beta 145.287929
_cell_angle_gamma 90.000000
_cell_volume 2724.478946
_symmetry_space_group_name_H-M "C 2/M"
_symmetry_group_IT_number 12
_symmetry_cell_setting 'monoclinic'
loop_
_space_group_symop_operation_xyz
x,y,z
-x,y,-z
-x,-y,-z
x,-y,z
1/2+x,1/2+y,z
1/2-x,1/2+y,-z
1/2-x,1/2-y,-z
1/2+x,1/2-y,z
loop_
_atom_site_type_symbol
_atom_site_label
_atom_site_fract_x
_atom_site_fract_y
_atom_site_fract_z
Si Si1 0.165030 0.205040 0.715816
Si Si2 0.961605 0.299381 0.527350
Si Si3 0.100210 0.293012 0.187522
Si Si4 0.541608 0.204222 0.255632
Si Si5 0.186910 0.203954 0.835680
Si Si6 0.766980 0.697329 0.563228
Si Si7 0.565843 0.793327 0.993024
O O1 0.278948 0.259580 0.758903
O O2 0.167119 0.263060 0.770662
O O3 0.057805 0.264780 0.622865
O O4 0.163393 0.000000 0.714976
O O5 0.945861 0.500000 0.513668
O O6 0.845112 0.226333 0.474964
O O7 0.000000 0.232368 0.500000
O O8 0.100618 0.500000 0.187627
O O9 0.076022 0.234848 0.225160
O O10 0.003952 0.238163 0.093835
O O11 0.416455 0.247056 0.194662
O O12 0.627609 0.274225 0.346050
O O13 0.550409 0.000000 0.259582
O O14 0.192432 0.000000 0.837056
O O15 0.306556 0.264295 0.926496
O O16 0.789175 0.500000 0.574356
O O17 0.750000 0.750000 0.500000
O O18 0.566628 0.000000 0.992889
O O19 0.500000 0.743300 0.000000
#
# Coordination Sequence:
#
# PCOD9185779 Si02
#       7
#     8   8   8   8   8   8   8
#     4  10  19  34  58  83 105 138 188 236 275 322
#     4  11  24  39  56  82 115 148 185 234 288 338
#     4   9  17  32  55  80 109 144 183 225 270 322
#     4  10  22  37  53  78 112 147 178 219 276 332
#     4  10  20  33  55  85 110 138 180 228 270 318
#     4  11  23  40  61  83 111 150 193 235 283 338
#     4   9  15  29  54  84 111 136 177 229 270 309
#
# _framework density 20.554389
#
# number of rings (size 3 to 8) (size 9 to 14) (size 15 to 20)
#    0.000    2.000    1.429    2.571    0.000    6.857 
#    0.000    0.714    0.000    1.286    0.000    0.000 
#    0.000    0.000    0.000    0.000    0.000    0.000 
#
# Total GULP energy -156446.145832 kJ/mol
# GULP energy per Si atom -5587.362351 kJ/mol
# Density = 2.050761 g / cm^3
# Si number density = 20.554389 Si / 1000 Ang^3
#
#
#
# Elastic Constant Matrix: (Units=GPa)
#
#
# Indices 1 2 3 4 5 6 
#
# 1 83.7029 -6.2764 1.5388 0.0001 0.7590 0.0002
# 2 -6.2764 12.7586 -7.4257 0.0009 -12.5718 0.0019
# 3 1.5388 -7.4257 95.7205 -0.0001 4.7135 -0.0002
# 4 0.0001 0.0009 -0.0001 6.1845 -0.0001 -1.6634
# 5 0.7590 -12.5718 4.7135 -0.0001 27.2692 -0.0001
# 6 0.0002 0.0019 -0.0002 -1.6634 -0.0001 21.7856
#
#
#
# Elastic Compliance Matrix: (Units=1/GPa)
#
#
# Indices 1 2 3 4 5 6 
#
# 1 0.012733 0.011162 0.000429 -0.000002 0.004717 -0.000001
# 2 0.011162 0.159666 0.008671 -0.000027 0.071800 -0.000016
# 3 0.000429 0.008671 0.011010 -0.000001 0.002083 -0.000001
# 4 -0.000002 -0.000027 -0.000001 0.165086 -0.000011 0.012605
# 5 0.004717 0.071800 0.002083 -0.000011 0.069282 -0.000007
# 6 -0.000001 -0.000016 -0.000001 0.012605 -0.000007 0.046864
#
#
# Mechanical properties :
#
#
# Convention : Reuss Voigt Hill
#
# Bulk Modulus (GPa) = 4.46560 18.65058 11.55809
# Shear Modulus (GPa) = 10.02483 24.67087 17.34785
#
# Velocity S-wave (km/s) = 2.21084 3.46825 2.90832
# Velocity P-wave (km/s) = 2.94862 5.01317 4.11256
#
# Compressibility (1/GPa) = 0.22393396
#
# Stress axis : x y z
#
# Youngs Moduli (GPa) = 78.53403 6.26308 90.82380
#
# Poissons Ratio (x) = -0.06991 -0.03896
# Poissons Ratio (y) = -0.87659 -0.78757
# Poissons Ratio (z) = -0.03368 -0.05431
#
# Static dielectric constant tensor:
#      x y z
#    x 1.691750 0.000000 -0.009120 
#    y 0.000000 1.755920 0.000000 
#    z -0.009120 0.000000 1.701890 
# 
# From -- ./inp_files/363244.got.cif
#   From: 2010.05.17/outbox.cif.g08.bks.cpg/sg12_182_cif.got.tgz:363244.got - 2010.06.03 13:09:07.
