data_PCOD9185486
_publ_section_title
;
Structure prediction by ZEFSAII (Michael W. Deem and Ramdas Pophale) SiO2 
 PCOD9185486
Probable space group: C 2/M
;
_chemical_formula_sum "Si O2"
_cell_formula_units_Z 56
_cell_length_a 17.566030
_cell_length_b 12.431262
_cell_length_c 18.483693
_cell_angle_alpha 90.000000
_cell_angle_beta 44.544144
_cell_angle_gamma 90.000000
_cell_volume 2831.259143
_symmetry_space_group_name_H-M "C 2/M"
_symmetry_group_IT_number 12
_symmetry_cell_setting 'monoclinic'
loop_
_space_group_symop_operation_xyz
x,y,z
-x,y,-z
-x,-y,-z
x,-y,z
1/2+x,1/2+y,z
1/2-x,1/2+y,-z
1/2-x,1/2-y,-z
1/2+x,1/2-y,z
loop_
_atom_site_type_symbol
_atom_site_label
_atom_site_fract_x
_atom_site_fract_y
_atom_site_fract_z
Si Si1 0.893146 0.622064 0.616158
Si Si2 0.442792 0.874113 0.157362
Si Si3 0.091193 0.294710 0.660784
Si Si4 0.854605 0.785444 0.976383
Si Si5 0.588991 0.381290 0.204568
Si Si6 0.758082 0.734662 0.182273
Si Si7 0.226962 0.615190 0.449378
O O1 0.914983 0.500000 0.629187
O O2 0.835392 0.701256 0.711397
O O3 0.806455 0.611743 0.610679
O O4 0.000000 0.661340 0.500000
O O5 0.414902 0.862269 0.261519
O O6 0.555581 0.808214 0.073549
O O7 0.348694 0.816545 0.173672
O O8 0.453101 0.000000 0.131217
O O9 0.121353 0.363689 0.570418
O O10 0.188558 0.210009 0.600917
O O11 0.986915 0.219246 0.724204
O O12 0.902864 0.873032 0.888470
O O13 0.750000 0.750000 0.000000
O O14 0.813918 0.812004 0.084334
O O15 0.549559 0.500000 0.251050
O O16 0.700172 0.357372 0.172658
O O17 0.273850 0.500000 0.440030
#
# Coordination Sequence:
#
# PCOD9185486 Si02
#       7
#     8   8   8   8   8   8   8
#     4  10  21  37  59  86 119 161 203 248 305 359
#     4  11  22  38  63  93 124 160 198 246 307 365
#     4  10  20  36  57  85 117 153 200 254 285 356
#     4   9  22  39  58  86 118 153 198 246 290 360
#     4  10  21  38  59  82 116 158 195 242 306 360
#     4  11  21  39  60  91 125 154 200 253 302 363
#     4  10  19  34  57  81 112 156 201 245 297 347
#
# _framework density 19.779185999999999
#
# number of rings (size 3 to 8) (size 9 to 14) (size 15 to 20)
#    0.000    1.857    1.429    2.571    0.000    4.000 
#    0.000    7.143    0.000    4.286    0.000    0.000 
#    0.000    0.000    0.000    0.000    0.000    0.000 
#
# Total GULP energy -155986.197778 kJ/mol
# GULP energy per Si atom -5570.935635 kJ/mol
# Density = 1.973417 g / cm^3
# Si number density = 19.779186 Si / 1000 Ang^3
#
#
#
# Elastic Constant Matrix: (Units=GPa)
#
#
# Indices 1 2 3 4 5 6 
#
# 1 102.1953 35.9769 31.9571 0.0000 -0.0853 0.0000
# 2 35.9769 85.3183 35.2305 0.0000 -0.0771 0.0000
# 3 31.9571 35.2305 114.6642 0.0000 9.0501 0.0000
# 4 0.0000 0.0000 0.0000 -1.1815 0.0000 3.8651
# 5 -0.0853 -0.0771 9.0501 0.0000 33.1248 0.0000
# 6 0.0000 0.0000 0.0000 3.8651 0.0000 14.3950
#
#
#
# Elastic Compliance Matrix: (Units=1/GPa)
#
#
# Indices 1 2 3 4 5 6 
#
# 1 0.011901 -0.004156 -0.002087 0.000000 0.000591 0.000000
# 2 -0.004156 0.014921 -0.003504 0.000000 0.000981 0.000000
# 3 -0.002087 -0.003504 0.010609 0.000000 -0.002912 0.000000
# 4 0.000000 0.000000 0.000000 -0.450598 0.000000 0.120987
# 5 0.000591 0.000981 -0.002912 0.000000 0.030988 0.000000
# 6 0.000000 0.000000 0.000000 0.120987 0.000000 0.036984
#
#
# Mechanical properties :
#
#
# Convention : Reuss Voigt Hill
#
# Bulk Modulus (GPa) = 55.74626 56.50074 56.12350
# Shear Modulus (GPa) = -15.63860 22.53521 3.44831
#
# Velocity S-wave (km/s) = -2.81492 3.37907 1.32181
# Velocity P-wave (km/s) = 4.20482 6.62208 5.54673
#
# Compressibility (1/GPa) = 0.01793842
#
# Stress axis : x y z
#
# Youngs Moduli (GPa) = 84.02388 67.01915 94.26018
#
# Poissons Ratio (x) = 0.27856 0.19668
# Poissons Ratio (y) = 0.34924 0.33025
# Poissons Ratio (z) = 0.17532 0.23480
#
# Static dielectric constant tensor:
#      x y z
#    x 1.697120 0.000000 -0.017230 
#    y 0.000000 1.701020 0.000000 
#    z -0.017230 0.000000 1.750250 
# 
# From -- ./inp_files/223127.got.cif
#   From: 2010.05.17/outbox.cif.g08.bks.cpg/sg12_112_cif.got.tgz:223127.got - 2010.06.03 13:09:07.
