data_PCOD9185975
_publ_section_title
;
Structure prediction by ZEFSAII (Michael W. Deem and Ramdas Pophale) SiO2 
 PCOD9185975
Probable space group: C 2/M
;
_chemical_formula_sum "Si O2"
_cell_formula_units_Z 40
_cell_length_a 14.961732
_cell_length_b 11.506156
_cell_length_c 18.881118
_cell_angle_alpha 90.000000
_cell_angle_beta 41.298648
_cell_angle_gamma 90.000000
_cell_volume 2145.226748
_symmetry_space_group_name_H-M "C 2/M"
_symmetry_group_IT_number 12
_symmetry_cell_setting 'monoclinic'
loop_
_space_group_symop_operation_xyz
x,y,z
-x,y,-z
-x,-y,-z
x,-y,z
1/2+x,1/2+y,z
1/2-x,1/2+y,-z
1/2-x,1/2-y,-z
1/2+x,1/2-y,z
loop_
_atom_site_type_symbol
_atom_site_label
_atom_site_fract_x
_atom_site_fract_y
_atom_site_fract_z
Si Si1 0.385324 0.364345 0.016200
Si Si2 0.169410 0.631296 0.527145
Si Si3 0.214206 0.365580 0.340503
Si Si4 0.885557 0.300983 0.744473
Si Si5 0.468243 0.363411 0.816983
O O1 0.421907 0.500000 0.985685
O O2 0.240491 0.357809 0.139567
O O3 0.500000 0.312629 0.000000
O O4 0.394237 0.315297 0.931498
O O5 0.232567 0.500000 0.498488
O O6 0.250000 0.750000 0.500000
O O7 0.142242 0.643049 0.459138
O O8 0.027559 0.632186 0.652806
O O9 0.200466 0.500000 0.323427
O O10 0.163593 0.285245 0.307126
O O11 0.372129 0.344987 0.263725
O O12 0.921597 0.192032 0.771720
O O13 0.444451 0.500000 0.825463
#
# Coordination Sequence:
#
# PCOD9185975 Si02
#       5
#     8   8   8   8   8
#     4  10  19  34  58  88 116 148 197 249 294 350
#     4  11  23  39  61  91 123 158 201 254 303 358
#     4  10  20  38  60  85 114 152 200 245 291 349
#     4  12  21  35  63  89 114 155 204 247 293 352
#     4  10  21  37  58  85 121 157 192 243 305 359
#
# _framework density 18.646048
#
# number of rings (size 3 to 8) (size 9 to 14) (size 15 to 20)
#    0.000    1.400    4.000    3.000    0.000    1.600 
#    0.000    1.000    0.000    3.000    0.000    0.000 
#    0.000    0.000    0.000    0.000    0.000    0.000 
#
# Total GULP energy -111409.954584 kJ/mol
# GULP energy per Si atom -5570.497729 kJ/mol
# Density = 1.860361 g / cm^3
# Si number density = 18.646048 Si / 1000 Ang^3
#
#
#
# Elastic Constant Matrix: (Units=GPa)
#
#
# Indices 1 2 3 4 5 6 
#
# 1 115.4163 66.7232 33.6223 0.0000 19.6247 0.0000
# 2 66.7232 78.0727 28.6692 0.0000 11.5618 0.0000
# 3 33.6223 28.6692 125.2804 0.0000 10.8201 0.0000
# 4 0.0000 0.0000 0.0000 23.8586 0.0000 6.5803
# 5 19.6247 11.5618 10.8201 0.0000 27.1458 0.0000
# 6 0.0000 0.0000 0.0000 6.5803 0.0000 23.6154
#
#
#
# Elastic Compliance Matrix: (Units=1/GPa)
#
#
# Indices 1 2 3 4 5 6 
#
# 1 0.018425 -0.014347 -0.001076 0.000000 -0.006780 0.000000
# 2 -0.014347 0.025800 -0.002072 0.000000 0.000209 0.000000
# 3 -0.001076 -0.002072 0.008908 0.000000 -0.001891 0.000000
# 4 0.000000 0.000000 0.000000 0.045403 0.000000 -0.012651
# 5 -0.006780 0.000209 -0.001891 0.000000 0.042404 0.000000
# 6 0.000000 0.000000 0.000000 -0.012651 0.000000 0.045871
#
#
# Mechanical properties :
#
#
# Convention : Reuss Voigt Hill
#
# Bulk Modulus (GPa) = 55.11695 64.08876 59.60286
# Shear Modulus (GPa) = 21.94442 27.57426 24.75934
#
# Velocity S-wave (km/s) = 3.43431 3.84972 3.64793
# Velocity P-wave (km/s) = 6.73422 7.36249 7.05536
#
# Compressibility (1/GPa) = 0.01814324
#
# Stress axis : x y z
#
# Youngs Moduli (GPa) = 54.27437 38.75988 112.25578
#
# Poissons Ratio (x) = 0.55610 0.12078
# Poissons Ratio (y) = 0.77869 0.23256
# Poissons Ratio (z) = 0.05840 0.08030
#
# Static dielectric constant tensor:
#      x y z
#    x 1.660570 0.000000 -0.004980 
#    y 0.000000 1.645360 0.000000 
#    z -0.004980 0.000000 1.712610 
# 
# From -- ./inp_files/140306.got.cif
#   From: 2010.05.17/outbox.cif.g08.bks.cpg/sg12_71_cif.got.tgz:140306.got - 2010.06.03 13:09:07.
