data_PCOD9185691
_publ_section_title
;
Structure prediction by ZEFSAII (Michael W. Deem and Ramdas Pophale) SiO2 
 PCOD9185691
Probable space group: C 2/M
;
_chemical_formula_sum "Si O2"
_cell_formula_units_Z 64
_cell_length_a 12.309077
_cell_length_b 19.950506
_cell_length_c 17.546118
_cell_angle_alpha 90.000000
_cell_angle_beta 49.518295
_cell_angle_gamma 90.000000
_cell_volume 3277.361630
_symmetry_space_group_name_H-M "C 2/M"
_symmetry_group_IT_number 12
_symmetry_cell_setting 'monoclinic'
loop_
_space_group_symop_operation_xyz
x,y,z
-x,y,-z
-x,-y,-z
x,-y,z
1/2+x,1/2+y,z
1/2-x,1/2+y,-z
1/2-x,1/2-y,-z
1/2+x,1/2-y,z
loop_
_atom_site_type_symbol
_atom_site_label
_atom_site_fract_x
_atom_site_fract_y
_atom_site_fract_z
Si Si1 0.434643 0.158433 0.307598
Si Si2 0.198098 0.209506 0.598151
Si Si3 0.361564 0.577977 0.885954
Si Si4 0.156553 0.922004 0.406066
Si Si5 0.897976 0.868820 0.112767
Si Si6 0.338711 0.795582 0.684375
Si Si7 0.085565 0.146364 0.293475
Si Si8 0.844983 0.423749 0.883235
O O1 0.393957 0.235440 0.312485
O O2 0.288628 0.117610 0.381149
O O3 0.531733 0.161462 0.338914
O O4 0.530915 0.126476 0.197963
O O5 0.250000 0.250000 0.500000
O O6 0.319502 0.192269 0.603382
O O7 0.087835 0.150705 0.628401
O O8 0.363014 0.500000 0.860701
O O9 0.499559 0.591290 0.876500
O O10 0.366515 0.628869 0.813426
O O11 0.225115 0.588666 0.002722
O O12 0.153663 0.909234 0.317080
O O13 0.000000 0.895042 0.500000
O O14 0.165007 0.000000 0.421693
O O15 0.802492 0.818348 0.205529
O O16 0.784342 0.914183 0.118405
O O17 0.000000 0.838559 0.000000
O O18 0.368390 0.717978 0.691849
O O19 0.897710 0.500000 0.855300
#
# Coordination Sequence:
#
# PCOD9185691 Si02
#       8
#     8   8   8   8   8   8   8   8
#     4  10  21  38  60  85 117 153 196 241 293 350
#     4  11  22  39  63  87 117 155 200 253 305 355
#     4  10  19  34  57  86 119 155 196 244 294 353
#     4  11  23  40  61  84 115 157 201 241 291 356
#     4   9  17  34  56  87 118 154 194 239 297 352
#     4  10  21  38  58  90 118 153 195 247 302 351
#     4  11  22  36  58  85 121 153 200 245 301 352
#     4   9  18  34  58  86 117 156 199 237 290 359
#
# _framework density 19.527902999999998
#
# number of rings (size 3 to 8) (size 9 to 14) (size 15 to 20)
#    0.000    1.875    2.500    1.875    0.000    3.000 
#    2.250    3.125    0.000    2.250    0.000    4.375 
#    0.000    0.000    0.000    0.000    0.000    0.000 
#
# Total GULP energy -178464.624992 kJ/mol
# GULP energy per Si atom -5577.019531 kJ/mol
# Density = 1.948346 g / cm^3
# Si number density = 19.527903 Si / 1000 Ang^3
#
#
#
# Elastic Constant Matrix: (Units=GPa)
#
#
# Indices 1 2 3 4 5 6 
#
# 1 97.8598 22.3889 39.9712 0.0001 0.2204 -0.0001
# 2 22.3889 26.0978 15.1887 0.0000 -4.1404 0.0000
# 3 39.9712 15.1887 76.8371 0.0000 2.5434 0.0000
# 4 0.0001 0.0000 0.0000 29.9965 0.0000 -2.5672
# 5 0.2204 -4.1404 2.5434 0.0000 35.7676 0.0000
# 6 -0.0001 0.0000 0.0000 -2.5672 0.0000 20.8286
#
#
#
# Elastic Compliance Matrix: (Units=1/GPa)
#
#
# Indices 1 2 3 4 5 6 
#
# 1 0.014731 -0.009395 -0.005781 0.000000 -0.000767 0.000000
# 2 -0.009395 0.050454 -0.005294 0.000000 0.006275 0.000000
# 3 -0.005781 -0.005294 0.017128 0.000000 -0.001795 0.000000
# 4 0.000000 0.000000 0.000000 0.033693 0.000000 0.004153
# 5 -0.000767 0.006275 -0.001795 0.000000 0.028817 0.000000
# 6 0.000000 0.000000 0.000000 0.004153 0.000000 0.048523
#
#
# Mechanical properties :
#
#
# Convention : Reuss Voigt Hill
#
# Bulk Modulus (GPa) = 24.17006 39.54357 31.85682
# Shear Modulus (GPa) = 20.15526 25.53493 22.84510
#
# Velocity S-wave (km/s) = 3.21616 3.62002 3.42405
# Velocity P-wave (km/s) = 5.11817 6.14544 5.65518
#
# Compressibility (1/GPa) = 0.04137349
#
# Stress axis : x y z
#
# Youngs Moduli (GPa) = 67.88425 19.82019 58.38559
#
# Poissons Ratio (x) = 0.18621 0.33750
# Poissons Ratio (y) = 0.63777 0.30908
# Poissons Ratio (z) = 0.39241 0.10492
#
# Static dielectric constant tensor:
#      x y z
#    x 1.725140 0.000000 -0.009690 
#    y 0.000000 1.663700 0.000000 
#    z -0.009690 0.000000 1.710350 
# 
# From -- ./inp_files/265071.got.cif
#   From: 2010.05.17/outbox.cif.g08.bks.cpg/sg12_133_cif.got.tgz:265071.got - 2010.06.03 13:09:07.
