data_PCOD9185264
_publ_section_title
;
Structure prediction by ZEFSAII (Michael W. Deem and Ramdas Pophale) SiO2 
 PCOD9185264
Probable space group: C 2/M
;
_chemical_formula_sum "Si O2"
_cell_formula_units_Z 64
_cell_length_a 20.495659
_cell_length_b 8.963034
_cell_length_c 20.568848
_cell_angle_alpha 90.000000
_cell_angle_beta 102.237487
_cell_angle_gamma 90.000000
_cell_volume 3692.706277
_symmetry_space_group_name_H-M "C 2/M"
_symmetry_group_IT_number 12
_symmetry_cell_setting 'monoclinic'
loop_
_space_group_symop_operation_xyz
x,y,z
-x,y,-z
-x,-y,-z
x,-y,z
1/2+x,1/2+y,z
1/2-x,1/2+y,-z
1/2-x,1/2-y,-z
1/2+x,1/2-y,z
loop_
_atom_site_type_symbol
_atom_site_label
_atom_site_fract_x
_atom_site_fract_y
_atom_site_fract_z
Si Si1 0.026005 0.677829 0.687230
Si Si2 0.497429 0.679546 0.923833
Si Si3 0.652954 0.678088 0.654106
Si Si4 0.406583 0.822203 0.159481
Si Si5 0.138755 0.820681 0.178404
Si Si6 0.750335 0.678715 0.429062
Si Si7 0.386159 0.321367 0.676285
Si Si8 0.220330 0.177557 0.807948
O O1 0.028344 0.500000 0.679343
O O2 0.079699 0.755703 0.651758
O O3 0.050376 0.712711 0.766214
O O4 0.951655 0.739532 0.664024
O O5 0.504557 0.500000 0.920225
O O6 0.555059 0.755077 0.893652
O O7 0.426038 0.719593 0.877319
O O8 0.500000 0.720660 0.000000
O O9 0.649937 0.500000 0.645419
O O10 0.690733 0.753599 0.602338
O O11 0.695132 0.710760 0.728935
O O12 0.334200 0.751212 0.156487
O O13 0.401175 0.000000 0.153317
O O14 0.125677 0.779163 0.250872
O O15 0.206176 0.743586 0.168803
O O16 0.147357 0.000000 0.177795
O O17 0.757007 0.500000 0.434049
O O18 0.750000 0.750000 0.500000
O O19 0.680282 0.712799 0.378276
O O20 0.397304 0.500000 0.676662
O O21 0.220234 0.000000 0.816156
#
# Coordination Sequence:
#
# PCOD9185264 Si02
#       8
#     8   8   8   8   8   8   8   8
#     4  10  20  33  55  85 114 143 182 231 276 323
#     4  10  21  37  57  81 112 149 185 224 275 332
#     4  10  20  35  56  82 113 147 183 226 277 327
#     4  10  20  34  54  81 113 147 183 226 277 328
#     4  10  19  34  56  82 112 143 182 230 276 323
#     4  11  23  39  58  82 114 149 185 224 274 331
#     4  10  20  35  57  83 111 145 184 228 274 324
#     4  10  20  33  55  84 112 142 183 232 276 324
#
# _framework density 17.331461000000001
#
# number of rings (size 3 to 8) (size 9 to 14) (size 15 to 20)
#    0.000    1.875    2.500    1.875    0.000    4.250 
#    0.000    1.250    0.000    3.750    0.000    0.000 
#    0.000    0.000    0.000    0.000    0.000    0.000 
#
# Total GULP energy -178714.359965 kJ/mol
# GULP energy per Si atom -5584.823749 kJ/mol
# Density = 1.729201 g / cm^3
# Si number density = 17.331461 Si / 1000 Ang^3
#
#
#
# Elastic Constant Matrix: (Units=GPa)
#
#
# Indices 1 2 3 4 5 6 
#
# 1 160.0881 63.8389 81.0131 0.0000 -27.4335 0.0000
# 2 63.8389 46.4886 56.1937 0.0000 -13.4894 0.0000
# 3 81.0131 56.1937 121.1766 0.0000 -16.6657 0.0000
# 4 0.0000 0.0000 0.0000 24.0027 0.0000 -6.7375
# 5 -27.4335 -13.4894 -16.6657 0.0000 28.9722 0.0000
# 6 0.0000 0.0000 0.0000 -6.7375 0.0000 37.2442
#
#
#
# Elastic Compliance Matrix: (Units=1/GPa)
#
#
# Indices 1 2 3 4 5 6 
#
# 1 0.014494 -0.017188 -0.001012 0.000000 0.005139 0.000000
# 2 -0.017188 0.072506 -0.021423 0.000000 0.005160 0.000000
# 3 -0.001012 -0.021423 0.018851 0.000000 -0.000089 0.000000
# 4 0.000000 0.000000 0.000000 0.043891 0.000000 0.007940
# 5 0.005139 0.005160 -0.000089 0.000000 0.041733 0.000000
# 6 0.000000 0.000000 0.000000 0.007940 0.000000 0.028286
#
#
# Mechanical properties :
#
#
# Convention : Reuss Voigt Hill
#
# Bulk Modulus (GPa) = 37.58703 81.09386 59.34044
# Shear Modulus (GPa) = 16.24031 26.49097 21.36564
#
# Velocity S-wave (km/s) = 3.06443 3.91383 3.51489
# Velocity P-wave (km/s) = 5.85280 8.20461 7.12639
#
# Compressibility (1/GPa) = 0.02660492
#
# Stress axis : x y z
#
# Youngs Moduli (GPa) = 68.99560 13.79191 53.04669
#
# Poissons Ratio (x) = 0.23706 0.05370
# Poissons Ratio (y) = 1.18592 1.13640
# Poissons Ratio (z) = 0.06984 0.29546
#
# Static dielectric constant tensor:
#      x y z
#    x 1.562170 0.000000 0.007920 
#    y 0.000000 1.574000 0.000000 
#    z 0.007920 0.000000 1.571190 
# 
# From -- ./inp_files/314032.got.cif
#   From: 2010.05.17/outbox.cif.g08.bks.cpg/sg12_158_cif.got.tgz:314032.got - 2010.06.03 13:09:07.
