data_PCOD9185125
_publ_section_title
;
Structure prediction by ZEFSAII (Michael W. Deem and Ramdas Pophale) SiO2 
 PCOD9185125
Probable space group: C 2/M
;
_chemical_formula_sum "Si O2"
_cell_formula_units_Z 32
_cell_length_a 15.711531
_cell_length_b 19.847586
_cell_length_c 16.394462
_cell_angle_alpha 90.000000
_cell_angle_beta 17.920382
_cell_angle_gamma 90.000000
_cell_volume 1573.055210
_symmetry_space_group_name_H-M "C 2/M"
_symmetry_group_IT_number 12
_symmetry_cell_setting 'monoclinic'
loop_
_space_group_symop_operation_xyz
x,y,z
-x,y,-z
-x,-y,-z
x,-y,z
1/2+x,1/2+y,z
1/2-x,1/2+y,-z
1/2-x,1/2-y,-z
1/2+x,1/2-y,z
loop_
_atom_site_type_symbol
_atom_site_label
_atom_site_fract_x
_atom_site_fract_y
_atom_site_fract_z
Si Si1 0.808850 0.000000 0.754347
Si Si2 0.194577 0.000000 0.742667
Si Si3 0.226173 0.723575 0.113553
Si Si4 0.808513 0.143963 0.753144
Si Si5 0.297072 0.147033 0.605803
O O1 0.853410 0.928198 0.756696
O O2 0.000000 0.000000 0.500000
O O3 0.500000 0.000000 0.000000
O O4 0.500000 0.000000 0.500000
O O5 0.179735 0.929381 0.708293
O O6 0.000000 0.000000 0.000000
O O7 0.147353 0.790191 0.235111
O O8 0.987766 0.669925 0.355638
O O9 0.250000 0.750000 0.000000
O O10 0.527815 0.694041 0.861622
O O11 0.000000 0.146166 0.500000
O O12 0.500000 0.145113 0.000000
O O13 0.500000 0.152183 0.500000
#
# Coordination Sequence:
#
# PCOD9185125 Si02
#       5
#     4   4   8   8   8
#     4   8  16  30  50  76 100 128 177 232 269 312
#     4  10  20  36  62  92 116 146 201 260 297 344
#     4  12  24  37  56  87 123 156 191 241 297 353
#     4  10  19  34  56  78 103 141 187 230 276 335
#     4  11  22  40  63  87 115 156 202 245 294 354
#
# _framework density 20.342579000000001
#
# number of rings (size 3 to 8) (size 9 to 14) (size 15 to 20)
#    0.000    1.500    0.000    8.250    0.000    0.000 
#    0.000    2.500    0.000    3.000    0.000    0.000 
#    0.000    0.000    0.000    0.000    0.000    0.000 
#
# Total GULP energy -89233.408972 kJ/mol
# GULP energy per Si atom -5577.088061 kJ/mol
# Density = 2.029628 g / cm^3
# Si number density = 20.342579 Si / 1000 Ang^3
#
#
#
# Elastic Constant Matrix: (Units=GPa)
#
#
# Indices 1 2 3 4 5 6 
#
# 1 34.9344 45.2454 21.4842 0.4128 15.3489 -0.5905
# 2 45.2454 191.7006 53.5102 -0.0977 18.1949 0.0416
# 3 21.4842 53.5102 173.4965 -0.0287 12.0435 -0.3473
# 4 0.4128 -0.0977 -0.0287 38.6644 -0.0470 5.1150
# 5 15.3489 18.1949 12.0435 -0.0470 27.7480 0.4322
# 6 -0.5905 0.0416 -0.3473 5.1150 0.4322 -1.5009
#
#
#
# Elastic Compliance Matrix: (Units=1/GPa)
#
#
# Indices 1 2 3 4 5 6 
#
# 1 0.050909 -0.009487 -0.001974 0.001945 -0.020781 -0.019193
# 2 -0.009487 0.007741 -0.001252 -0.000321 0.000663 0.003336
# 3 -0.001974 -0.001252 0.006454 0.000107 -0.000878 -0.000642
# 4 0.001945 -0.000321 0.000107 0.017931 -0.001813 0.059786
# 5 -0.020781 0.000663 -0.000878 -0.001813 0.047231 0.015821
# 6 -0.019193 0.003336 -0.000642 0.059786 0.015821 -0.450169
#
#
# Mechanical properties :
#
#
# Convention : Reuss Voigt Hill
#
# Bulk Modulus (GPa) = 25.20252 71.17901 48.19077
# Shear Modulus (GPa) = -17.77772 31.64173 6.93201
#
# Velocity S-wave (km/s) = -2.95942 3.94819 1.84798
# Velocity P-wave (km/s) = 0.85932 7.47331 5.31925
#
# Compressibility (1/GPa) = 0.03967856
#
# Stress axis : x y z
#
# Youngs Moduli (GPa) = 19.64286 129.17577 154.94011
#
# Poissons Ratio (x) = 1.22552 0.30579
# Poissons Ratio (y) = 0.18636 0.19401
# Poissons Ratio (z) = 0.03877 0.16175
#
# Static dielectric constant tensor:
#      x y z
#    x 1.679940 -0.000040 -0.003330 
#    y -0.000040 1.836490 0.000400 
#    z -0.003330 0.000400 1.686710 
# 
# From -- ./inp_files/20088.got.cif
#   From: 2010.05.17/outbox.cif.g08.bks.cpg/sg12_11_cif.got.tgz:20088.got - 2010.06.03 13:09:07.
