data_PCOD9185683
_publ_section_title
;
Structure prediction by ZEFSAII (Michael W. Deem and Ramdas Pophale) SiO2 
 PCOD9185683
Probable space group: C 2/M
;
_chemical_formula_sum "Si O2"
_cell_formula_units_Z 56
_cell_length_a 30.718403
_cell_length_b 8.634271
_cell_length_c 11.774154
_cell_angle_alpha 90.000000
_cell_angle_beta 65.527988
_cell_angle_gamma 90.000000
_cell_volume 2842.323772
_symmetry_space_group_name_H-M "C 2/M"
_symmetry_group_IT_number 12
_symmetry_cell_setting 'monoclinic'
loop_
_space_group_symop_operation_xyz
x,y,z
-x,y,-z
-x,-y,-z
x,-y,z
1/2+x,1/2+y,z
1/2-x,1/2+y,-z
1/2-x,1/2-y,-z
1/2+x,1/2-y,z
loop_
_atom_site_type_symbol
_atom_site_label
_atom_site_fract_x
_atom_site_fract_y
_atom_site_fract_z
Si Si1 0.349397 0.814903 0.631960
Si Si2 0.236750 0.183079 0.136393
Si Si3 0.544732 0.811135 0.526651
Si Si4 0.303491 0.684771 0.453949
Si Si5 0.674489 0.314940 0.824598
Si Si6 0.430900 0.314391 0.014760
Si Si7 0.977452 0.685588 0.192368
O O1 0.313389 0.746813 0.763189
O O2 0.404324 0.761557 0.578759
O O3 0.329520 0.764744 0.530563
O O4 0.348100 0.000000 0.641581
O O5 0.279121 0.232694 0.175809
O O6 0.234127 0.000000 0.133416
O O7 0.250000 0.250000 0.000000
O O8 0.500000 0.757974 0.500000
O O9 0.539190 0.765534 0.664475
O O10 0.544296 0.000000 0.526455
O O11 0.301738 0.500000 0.474583
O O12 0.250000 0.750000 0.500000
O O13 0.329000 0.715140 0.306184
O O14 0.681080 0.500000 0.831590
O O15 0.624625 0.269972 0.937101
O O16 0.435016 0.500000 0.999664
O O17 0.448284 0.265899 0.122175
O O18 0.467421 0.232333 0.889620
O O19 0.972471 0.500000 0.187009
#
# Coordination Sequence:
#
# PCOD9185683 Si02
#       7
#     8   8   8   8   8   8   8
#     4  11  22  39  63  90 122 157 199 252 304 357
#     4  12  26  43  63  85 117 157 198 243 293 356
#     4   9  20  38  60  86 117 155 199 246 295 347
#     4  11  21  35  59  89 122 158 197 246 300 359
#     4  10  22  39  59  86 120 156 199 244 295 358
#     4  10  20  35  57  84 118 156 190 240 301 352
#     4  10  19  34  57  86 117 152 198 247 292 352
#
# _framework density 19.702189000000001
#
# number of rings (size 3 to 8) (size 9 to 14) (size 15 to 20)
#    0.000    1.571    1.429    4.714    0.000    2.857 
#    0.000    3.571    0.000    6.000    0.000    0.000 
#    0.000    0.000    0.000    0.000    0.000    0.000 
#
# Total GULP energy -156509.944305 kJ/mol
# GULP energy per Si atom -5589.640868 kJ/mol
# Density = 1.965735 g / cm^3
# Si number density = 19.702189 Si / 1000 Ang^3
#
#
#
# Elastic Constant Matrix: (Units=GPa)
#
#
# Indices 1 2 3 4 5 6 
#
# 1 115.8667 21.0950 57.5365 0.0000 -30.7934 0.0000
# 2 21.0950 44.2438 36.0839 0.0000 -7.8343 0.0000
# 3 57.5365 36.0839 127.3809 0.0000 -21.5672 0.0000
# 4 0.0000 0.0000 0.0000 23.7865 0.0000 6.4921
# 5 -30.7934 -7.8343 -21.5672 0.0000 33.0642 0.0000
# 6 0.0000 0.0000 0.0000 6.4921 0.0000 18.6316
#
#
#
# Elastic Compliance Matrix: (Units=1/GPa)
#
#
# Indices 1 2 3 4 5 6 
#
# 1 0.013434 -0.001411 -0.004054 0.000000 0.009533 0.000000
# 2 -0.001411 0.029628 -0.007633 0.000000 0.000728 0.000000
# 3 -0.004054 -0.007633 0.012252 0.000000 0.002407 0.000000
# 4 0.000000 0.000000 0.000000 0.046459 0.000000 -0.016189
# 5 0.009533 0.000728 0.002407 0.000000 0.040865 0.000000
# 6 0.000000 0.000000 0.000000 -0.016189 0.000000 0.059313
#
#
# Mechanical properties :
#
#
# Convention : Reuss Voigt Hill
#
# Bulk Modulus (GPa) = 34.34218 57.43581 45.88900
# Shear Modulus (GPa) = 21.02139 26.61484 23.81811
#
# Velocity S-wave (km/s) = 3.26997 3.67939 3.48071
# Velocity P-wave (km/s) = 5.63254 6.87501 6.28456
#
# Compressibility (1/GPa) = 0.02911871
#
# Stress axis : x y z
#
# Youngs Moduli (GPa) = 74.43661 33.75131 81.62264
#
# Poissons Ratio (x) = 0.04761 0.33094
# Poissons Ratio (y) = 0.10500 0.62300
# Poissons Ratio (z) = 0.30180 0.25761
#
# Static dielectric constant tensor:
#      x y z
#    x 1.680150 0.000000 -0.015260 
#    y 0.000000 1.659660 0.000000 
#    z -0.015260 0.000000 1.685650 
# 
# From -- ./inp_files/186476.got.cif
#   From: 2010.05.17/outbox.cif.g08.bks.cpg/sg12_94_cif.got.tgz:186476.got - 2010.06.03 13:09:07.
