data_PCOD9185490
_publ_section_title
;
Structure prediction by ZEFSAII (Michael W. Deem and Ramdas Pophale) SiO2 
 PCOD9185490
Probable space group: C 2/M
;
_chemical_formula_sum "Si O2"
_cell_formula_units_Z 48
_cell_length_a 15.809223
_cell_length_b 16.174625
_cell_length_c 16.168826
_cell_angle_alpha 90.000000
_cell_angle_beta 146.316347
_cell_angle_gamma 90.000000
_cell_volume 2293.024063
_symmetry_space_group_name_H-M "C 2/M"
_symmetry_group_IT_number 12
_symmetry_cell_setting 'monoclinic'
loop_
_space_group_symop_operation_xyz
x,y,z
-x,y,-z
-x,-y,-z
x,-y,z
1/2+x,1/2+y,z
1/2-x,1/2+y,-z
1/2-x,1/2-y,-z
1/2+x,1/2-y,z
loop_
_atom_site_type_symbol
_atom_site_label
_atom_site_fract_x
_atom_site_fract_y
_atom_site_fract_z
Si Si1 0.035830 0.261211 0.666229
Si Si2 0.488924 0.592960 0.892171
Si Si3 0.157605 0.089941 0.800224
Si Si4 0.703189 0.843142 0.937779
Si Si5 0.244146 0.761912 0.314385
Si Si6 0.371518 0.091041 0.824862
O O1 0.049927 0.169430 0.717205
O O2 0.171635 0.267519 0.707446
O O3 0.877736 0.267046 0.490048
O O4 0.067870 0.329602 0.762564
O O5 0.442996 0.500000 0.831499
O O6 0.654924 0.614063 0.992169
O O7 0.371004 0.662743 0.769280
O O8 0.500000 0.597062 0.000000
O O9 0.300036 0.107786 0.978436
O O10 0.218187 0.087143 0.756220
O O11 0.092373 0.000000 0.767548
O O12 0.750000 0.750000 0.000000
O O13 0.151516 0.675347 0.244173
O O14 0.388667 0.000000 0.798737
O O15 0.500000 0.100647 0.000000
#
# Coordination Sequence:
#
# PCOD9185490 Si02
#       6
#     8   8   8   8   8   8
#     4   9  19  34  53  84 111 145 189 225 293 343
#     4  11  22  37  59  85 110 150 201 240 278 332
#     4   9  18  33  54  79 109 145 185 229 279 341
#     4  10  20  36  57  80 107 147 190 234 280 336
#     4  10  19  34  57  81 118 147 178 243 288 336
#     4   9  18  31  55  86 111 143 187 232 281 339
#
# _framework density 20.933055
#
# number of rings (size 3 to 8) (size 9 to 14) (size 15 to 20)
#    0.000    2.333    1.667    1.000    4.667    0.667 
#    0.000   10.000    0.000    0.000    0.000    0.000 
#    0.000    0.000    0.000    0.000    0.000    0.000 
#
# Total GULP energy -133850.196405 kJ/mol
# GULP energy per Si atom -5577.091517 kJ/mol
# Density = 2.088541 g / cm^3
# Si number density = 20.933055 Si / 1000 Ang^3
#
#
#
# Elastic Constant Matrix: (Units=GPa)
#
#
# Indices 1 2 3 4 5 6 
#
# 1 51.0906 27.5158 4.6181 -0.0004 -8.7327 -0.0005
# 2 27.5158 173.5989 68.5852 -0.0005 7.9119 -0.0005
# 3 4.6181 68.5852 89.6957 -0.0005 -2.6214 -0.0005
# 4 -0.0004 -0.0005 -0.0005 10.1415 -0.0004 9.5266
# 5 -8.7327 7.9119 -2.6214 -0.0004 22.9809 -0.0004
# 6 -0.0005 -0.0005 -0.0005 9.5266 -0.0004 15.8084
#
#
#
# Elastic Compliance Matrix: (Units=1/GPa)
#
#
# Indices 1 2 3 4 5 6 
#
# 1 0.024357 -0.005775 0.003502 0.000001 0.011643 0.000001
# 2 -0.005775 0.009926 -0.007482 0.000000 -0.006465 0.000000
# 3 0.003502 -0.007482 0.016860 0.000001 0.005830 0.000000
# 4 0.000001 0.000000 0.000001 0.227249 0.000001 -0.136947
# 5 0.011643 -0.006465 0.005830 0.000001 0.050830 0.000001
# 6 0.000001 0.000000 0.000000 -0.136947 0.000001 0.145786
#
#
# Mechanical properties :
#
#
# Convention : Reuss Voigt Hill
#
# Bulk Modulus (GPa) = 31.61198 57.31372 44.46285
# Shear Modulus (GPa) = 9.89979 24.03055 16.96517
#
# Velocity S-wave (km/s) = 2.17705 3.39185 2.84993
# Velocity P-wave (km/s) = 4.63181 6.54053 5.66710
#
# Compressibility (1/GPa) = 0.03163357
#
# Stress axis : x y z
#
# Youngs Moduli (GPa) = 41.05641 100.74327 59.31306
#
# Poissons Ratio (x) = 0.58177 -0.20771
# Poissons Ratio (y) = 0.23709 0.44376
# Poissons Ratio (z) = -0.14377 0.75373
#
# Static dielectric constant tensor:
#      x y z
#    x 1.850650 0.000000 -0.004580 
#    y 0.000000 1.759720 0.000000 
#    z -0.004580 0.000000 1.742380 
# 
# From -- ./inp_files/284085.got.cif
#   From: 2010.05.17/outbox.cif.g08.bks.cpg/sg12_143_cif.got.tgz:284085.got - 2010.06.03 13:09:07.
