data_PCOD9185303
_publ_section_title
;
Structure prediction by ZEFSAII (Michael W. Deem and Ramdas Pophale) SiO2 
 PCOD9185303
Probable space group: C 2/M
;
_chemical_formula_sum "Si O2"
_cell_formula_units_Z 50
_cell_length_a 14.528604
_cell_length_b 7.267019
_cell_length_c 18.307478
_cell_angle_alpha 90.000000
_cell_angle_beta 108.589858
_cell_angle_gamma 90.000000
_cell_volume 1832.047781
_symmetry_space_group_name_H-M "C 2/M"
_symmetry_group_IT_number 12
_symmetry_cell_setting 'monoclinic'
loop_
_space_group_symop_operation_xyz
x,y,z
-x,y,-z
-x,-y,-z
x,-y,z
1/2+x,1/2+y,z
1/2-x,1/2+y,-z
1/2-x,1/2-y,-z
1/2+x,1/2-y,z
loop_
_atom_site_type_symbol
_atom_site_label
_atom_site_fract_x
_atom_site_fract_y
_atom_site_fract_z
Si Si1 0.359133 0.778955 0.656164
Si Si2 0.804435 0.224666 0.132396
Si Si3 0.083981 0.789938 0.696606
Si Si4 0.876483 0.721301 0.824104
Si Si5 0.561906 0.292193 0.950735
Si Si6 0.500000 0.000000 0.500000
Si Si7 0.154974 0.222169 0.555561
O O1 0.467966 0.713814 0.669872
O O2 0.337365 0.724125 0.734942
O O3 0.268563 0.723286 0.582776
O O4 0.360307 0.000000 0.655634
O O5 0.696497 0.274636 0.129615
O O6 0.870818 0.287699 0.217668
O O7 0.845842 0.293174 0.065920
O O8 0.809056 0.000000 0.129712
O O9 0.120619 0.714209 0.628921
O O10 0.119379 0.000000 0.703900
O O11 0.883606 0.500000 0.826211
O O12 0.982235 0.798977 0.865781
O O13 0.585102 0.500000 0.979773
O O14 0.500000 0.202199 0.000000
O O15 0.422163 0.160707 0.508737
O O16 0.144365 0.000000 0.545207
#
# Coordination Sequence:
#
# PCOD9185303 Si02
#       7
#     8   8   8   8   8   2   8
#     4  10  20  35  60  91 121 149 198 260 310 348
#     4   9  17  33  55  81 113 156 196 243 307 362
#     4  10  19  35  63  90 117 155 203 251 306 352
#     4  10  19  34  56  83 112 153 199 248 302 361
#     4  10  21  36  52  77 116 159 200 249 306 363
#     4  12  26  44  72  94 128 170 210 232 308 382
#     4  10  23  44  66  92 129 166 201 254 307 368
#
# _framework density 27.291867
#
# number of rings (size 3 to 8) (size 9 to 14) (size 15 to 20)
#    0.000    2.080    3.200    0.240    2.240    0.960 
#    0.000    2.400    0.000    0.000    0.000    0.000 
#    0.000    0.000    0.000    0.000    0.000    0.000 
#
# Total GULP energy -139718.857290 kJ/mol
# GULP energy per Si atom -5588.754292 kJ/mol
# Density = 2.722975 g / cm^3
# Si number density = 27.291867 Si / 1000 Ang^3
#
#
#
# Elastic Constant Matrix: (Units=GPa)
#
#
# Indices 1 2 3 4 5 6 
#
# 1 146.9722 4.8127 16.3381 0.0000 6.3980 0.0000
# 2 4.8127 147.6814 5.6515 0.0000 10.9157 0.0000
# 3 16.3381 5.6515 92.2381 0.0000 -2.7920 0.0000
# 4 0.0000 0.0000 0.0000 -11.2663 0.0000 14.6451
# 5 6.3980 10.9157 -2.7920 0.0000 59.9039 0.0000
# 6 0.0000 0.0000 0.0000 14.6451 0.0000 18.4924
#
#
#
# Elastic Compliance Matrix: (Units=1/GPa)
#
#
# Indices 1 2 3 4 5 6 
#
# 1 0.006981 -0.000122 -0.001253 0.000000 -0.000782 0.000000
# 2 -0.000122 0.006885 -0.000439 0.000000 -0.001262 0.000000
# 3 -0.001253 -0.000439 0.011112 0.000000 0.000732 0.000000
# 4 0.000000 0.000000 0.000000 -0.043736 0.000000 0.034637
# 5 -0.000782 -0.001262 0.000732 0.000000 0.017041 0.000000
# 6 0.000000 0.000000 0.000000 0.034637 0.000000 0.026646
#
#
# Mechanical properties :
#
#
# Convention : Reuss Voigt Hill
#
# Bulk Modulus (GPa) = 46.83198 48.94403 47.88800
# Shear Modulus (GPa) = 140.15969 37.43196 88.79583
#
# Velocity S-wave (km/s) = 7.17407 3.70745 5.71019
# Velocity P-wave (km/s) = 9.26391 6.02490 7.81407
#
# Compressibility (1/GPa) = 0.02135293
#
# Stress axis : x y z
#
# Youngs Moduli (GPa) = 143.23986 145.23552 89.98935
#
# Poissons Ratio (x) = 0.01769 0.11274
# Poissons Ratio (y) = 0.01744 0.03946
# Poissons Ratio (z) = 0.17945 0.06369
#
# Static dielectric constant tensor:
#      x y z
#    x 2.099520 0.000000 -0.022410 
#    y 0.000000 2.133570 0.000000 
#    z -0.022410 0.000000 2.279610 
# 
# From -- ./inp_files/308523.got.cif
#   From: 2010.05.17/outbox.cif.g08.bks.cpg/sg12_155_cif.got.tgz:308523.got - 2010.06.03 13:09:07.
