data_PCOD9185337
_publ_section_title
;
Structure prediction by ZEFSAII (Michael W. Deem and Ramdas Pophale) SiO2 
 PCOD9185337
Probable space group: C 2/M
;
_chemical_formula_sum "Si O2"
_cell_formula_units_Z 40
_cell_length_a 29.310020
_cell_length_b 8.764557
_cell_length_c 24.640062
_cell_angle_alpha 90.000000
_cell_angle_beta 163.571557
_cell_angle_gamma 90.000000
_cell_volume 1790.170466
_symmetry_space_group_name_H-M "C 2/M"
_symmetry_group_IT_number 12
_symmetry_cell_setting 'monoclinic'
loop_
_space_group_symop_operation_xyz
x,y,z
-x,y,-z
-x,-y,-z
x,-y,z
1/2+x,1/2+y,z
1/2-x,1/2+y,-z
1/2-x,1/2-y,-z
1/2+x,1/2-y,z
loop_
_atom_site_type_symbol
_atom_site_label
_atom_site_fract_x
_atom_site_fract_y
_atom_site_fract_z
Si Si1 0.142955 0.819122 0.205601
Si Si2 0.486914 0.815385 0.548589
Si Si3 0.354643 0.322304 0.169482
Si Si4 0.945133 0.171564 0.779540
Si Si5 0.066058 0.667190 0.337033
O O1 0.311270 0.766490 0.371714
O O2 0.069048 0.756954 0.177289
O O3 0.170010 0.000000 0.249219
O O4 0.000000 0.807542 0.000000
O O5 0.500000 0.769212 0.500000
O O6 0.622784 0.754323 0.745576
O O7 0.494034 0.000000 0.557782
O O8 0.322981 0.500000 0.139074
O O9 0.528683 0.291988 0.339479
O O10 0.250000 0.250000 0.000000
O O11 0.010936 0.280901 0.807813
O O12 0.757102 0.152762 0.549505
O O13 0.019067 0.000000 0.863476
O O14 0.008116 0.500000 0.289070
#
# Coordination Sequence:
#
# PCOD9185337 Si02
#       5
#     8   8   8   8   8
#     4   9  17  32  56  86 119 156 201 250 299 362
#     4  10  21  40  64  91 125 167 213 260 313 377
#     4  12  25  41  63  89 122 163 212 263 321 380
#     4   9  17  31  54  83 116 150 190 238 296 358
#     4  10  19  34  56  84 116 148 192 245 303 363
#
# _framework density 22.344239999999999
#
# number of rings (size 3 to 8) (size 9 to 14) (size 15 to 20)
#    0.000    2.000    2.000    2.400    0.000    2.800 
#    0.000    4.000    0.000    2.400    0.000    0.000 
#    0.000    0.000    0.000    0.000    0.000    0.000 
#
# Total GULP energy -111417.037015 kJ/mol
# GULP energy per Si atom -5570.851851 kJ/mol
# Density = 2.229338 g / cm^3
# Si number density = 22.344240 Si / 1000 Ang^3
#
#
#
# Elastic Constant Matrix: (Units=GPa)
#
#
# Indices 1 2 3 4 5 6 
#
# 1 150.8519 28.2879 40.2504 -0.0003 -55.2146 -0.0002
# 2 28.2879 56.6286 21.3945 0.0000 -17.2102 -0.0001
# 3 40.2504 21.3945 78.1950 -0.0008 -24.7367 -0.0009
# 4 -0.0003 0.0000 -0.0008 20.6679 -0.0003 -8.1504
# 5 -55.2146 -17.2102 -24.7367 -0.0003 35.5354 -0.0003
# 6 -0.0002 -0.0001 -0.0009 -8.1504 -0.0003 20.5673
#
#
#
# Elastic Compliance Matrix: (Units=1/GPa)
#
#
# Indices 1 2 3 4 5 6 
#
# 1 0.015391 -0.000416 -0.000394 0.000001 0.023439 0.000001
# 2 -0.000416 0.021361 -0.003286 0.000000 0.007411 0.000000
# 3 -0.000394 -0.003286 0.016919 0.000001 0.009574 0.000001
# 4 0.000001 0.000000 0.000001 0.057346 0.000003 0.022725
# 5 0.023439 0.007411 0.009574 0.000003 0.074815 0.000003
# 6 0.000001 0.000000 0.000001 0.022725 0.000003 0.057626
#
#
# Mechanical properties :
#
#
# Convention : Reuss Voigt Hill
#
# Bulk Modulus (GPa) = 21.98779 51.72678 36.85729
# Shear Modulus (GPa) = 18.73999 28.40363 23.57181
#
# Velocity S-wave (km/s) = 2.89916 3.56923 3.25151
# Velocity P-wave (km/s) = 4.59007 6.33925 5.53420
#
# Compressibility (1/GPa) = 0.04547978
#
# Stress axis : x y z
#
# Youngs Moduli (GPa) = 64.97142 46.81535 59.10504
#
# Poissons Ratio (x) = 0.01949 0.02328
# Poissons Ratio (y) = 0.02704 0.19419
# Poissons Ratio (z) = 0.02559 0.15381
#
# Static dielectric constant tensor:
#      x y z
#    x 1.918140 0.000000 0.061040 
#    y 0.000000 1.821340 0.000000 
#    z 0.061040 0.000000 1.935800 
# 
# From -- ./inp_files/353119.got.cif
#   From: 2010.05.17/outbox.cif.g08.bks.cpg/sg12_177_cif.got.tgz:353119.got - 2010.06.03 13:09:07.
