data_PCOD9185074
_publ_section_title
;
Structure prediction by ZEFSAII (Michael W. Deem and Ramdas Pophale) SiO2 
 PCOD9185074
Probable space group: C 2/M
;
_chemical_formula_sum "Si O2"
_cell_formula_units_Z 64
_cell_length_a 29.426839
_cell_length_b 8.606756
_cell_length_c 15.586731
_cell_angle_alpha 90.000000
_cell_angle_beta 127.116149
_cell_angle_gamma 90.000000
_cell_volume 3147.907308
_symmetry_space_group_name_H-M "C 2/M"
_symmetry_group_IT_number 12
_symmetry_cell_setting 'monoclinic'
loop_
_space_group_symop_operation_xyz
x,y,z
-x,y,-z
-x,-y,-z
x,-y,z
1/2+x,1/2+y,z
1/2-x,1/2+y,-z
1/2-x,1/2-y,-z
1/2+x,1/2-y,z
loop_
_atom_site_type_symbol
_atom_site_label
_atom_site_fract_x
_atom_site_fract_y
_atom_site_fract_z
Si Si1 0.829276 0.689339 0.817497
Si Si2 0.927978 0.183454 0.167647
Si Si3 0.206457 0.185388 0.742393
Si Si4 0.954303 0.687891 0.020121
Si Si5 0.001727 0.685045 0.403656
Si Si6 0.367735 0.815319 0.496111
Si Si7 0.188441 0.683836 0.903888
Si Si8 0.809771 0.312891 0.601250
O O1 0.829507 0.500000 0.818504
O O2 0.772393 0.735455 0.803916
O O3 0.822906 0.742351 0.711820
O O4 0.890357 0.739659 0.922090
O O5 0.962304 0.253125 0.125907
O O6 0.863837 0.250059 0.100439
O O7 0.959100 0.230899 0.290988
O O8 0.925270 0.000000 0.156082
O O9 0.171723 0.227078 0.617076
O O10 0.180209 0.269044 0.795044
O O11 0.205236 0.000000 0.754883
O O12 0.955750 0.500000 0.023180
O O13 0.000000 0.738128 0.000000
O O14 0.988540 0.500000 0.386625
O O15 0.066269 0.708395 0.447144
O O16 0.000000 0.737950 0.500000
O O17 0.354211 0.768928 0.578143
O O18 0.355424 0.000000 0.472901
O O19 0.189037 0.500000 0.914637
O O20 0.250000 0.750000 0.000000
O O21 0.807427 0.500000 0.602652
O O22 0.750000 0.250000 0.500000
#
# Coordination Sequence:
#
# PCOD9185074 Si02
#       8
#     8   8   8   8   8   8   8   8
#     4   9  19  35  57  87 122 160 207 260 309 368
#     4  12  26  44  66  95 132 170 211 263 322 384
#     4  11  21  36  60  89 126 164 202 252 315 380
#     4  10  22  41  68  93 121 169 224 272 320 375
#     4  10  22  41  65  92 124 165 212 265 320 379
#     4  10  21  35  58  88 121 160 208 259 311 373
#     4  12  25  43  67  94 125 159 205 256 313 376
#     4  10  19  34  55  84 121 160 205 257 311 371
#
# _framework density 20.330969
#
# number of rings (size 3 to 8) (size 9 to 14) (size 15 to 20)
#    0.000    1.500    1.250    4.125    1.750    3.000 
#    0.000    1.250    0.000    0.000    0.000    0.000 
#    0.000    0.000    0.000    0.000    0.000    0.000 
#
# Total GULP energy -178899.200908 kJ/mol
# GULP energy per Si atom -5590.600028 kJ/mol
# Density = 2.028469 g / cm^3
# Si number density = 20.330969 Si / 1000 Ang^3
#
#
#
# Elastic Constant Matrix: (Units=GPa)
#
#
# Indices 1 2 3 4 5 6 
#
# 1 122.0285 38.5067 26.4730 0.0000 -23.6918 0.0000
# 2 38.5067 49.2346 19.1931 0.0000 3.6927 0.0000
# 3 26.4730 19.1931 76.2864 0.0000 -8.4256 0.0000
# 4 0.0000 0.0000 0.0000 32.7163 0.0000 -0.4351
# 5 -23.6918 3.6927 -8.4256 0.0000 31.4127 0.0000
# 6 0.0000 0.0000 0.0000 -0.4351 0.0000 20.1381
#
#
#
# Elastic Compliance Matrix: (Units=1/GPa)
#
#
# Indices 1 2 3 4 5 6 
#
# 1 0.014476 -0.011971 -0.000670 0.000000 0.012145 0.000000
# 2 -0.011971 0.032996 -0.005743 0.000000 -0.014448 0.000000
# 3 -0.000670 -0.005743 0.015257 0.000000 0.004262 0.000000
# 4 0.000000 0.000000 0.000000 0.030575 0.000000 0.000661
# 5 0.012145 -0.014448 0.004262 0.000000 0.043836 0.000000
# 6 0.000000 0.000000 0.000000 0.000661 0.000000 0.049671
#
#
# Mechanical properties :
#
#
# Convention : Reuss Voigt Hill
#
# Bulk Modulus (GPa) = 38.52121 46.21058 42.36589
# Shear Modulus (GPa) = 21.53011 27.74521 24.63766
#
# Velocity S-wave (km/s) = 3.25773 3.69816 3.48491
# Velocity P-wave (km/s) = 5.75661 6.40419 6.08902
#
# Compressibility (1/GPa) = 0.02595973
#
# Stress axis : x y z
#
# Youngs Moduli (GPa) = 69.08083 30.30647 65.54516
#
# Poissons Ratio (x) = 0.36281 0.04392
# Poissons Ratio (y) = 0.82699 0.37643
# Poissons Ratio (z) = 0.04629 0.17405
#
# Static dielectric constant tensor:
#      x y z
#    x 1.739080 0.000000 -0.023400 
#    y 0.000000 1.695810 0.000000 
#    z -0.023400 0.000000 1.714340 
# 
# From -- ./inp_files/250119.got.cif
#   From: 2010.05.17/outbox.cif.g08.bks.cpg/sg12_126_cif.got.tgz:250119.got - 2010.06.03 13:09:07.
