data_PCOD9185165
_publ_section_title
;
Structure prediction by ZEFSAII (Michael W. Deem and Ramdas Pophale) SiO2 
 PCOD9185165
Probable space group: C 2/M
;
_chemical_formula_sum "Si O2"
_cell_formula_units_Z 58
_cell_length_a 15.102926
_cell_length_b 7.433028
_cell_length_c 23.499391
_cell_angle_alpha 90.000000
_cell_angle_beta 81.472475
_cell_angle_gamma 90.000000
_cell_volume 2608.888366
_symmetry_space_group_name_H-M "C 2/M"
_symmetry_group_IT_number 12
_symmetry_cell_setting 'monoclinic'
loop_
_space_group_symop_operation_xyz
x,y,z
-x,y,-z
-x,-y,-z
x,-y,z
1/2+x,1/2+y,z
1/2-x,1/2+y,-z
1/2-x,1/2-y,-z
1/2+x,1/2-y,z
loop_
_atom_site_type_symbol
_atom_site_label
_atom_site_fract_x
_atom_site_fract_y
_atom_site_fract_z
Si Si1 0.940041 0.708878 0.231346
Si Si2 0.131412 0.717511 0.641618
Si Si3 0.178527 0.719810 0.861959
Si Si4 0.328562 0.719506 0.657438
Si Si5 0.856694 0.216788 0.784730
Si Si6 0.510618 0.708882 0.436203
Si Si7 0.852671 0.799554 0.006650
Si Si8 0.000000 0.500000 0.000000
O O1 0.912623 0.500000 0.237503
O O2 0.918964 0.782537 0.296169
O O3 0.882374 0.781826 0.184920
O O4 0.044496 0.722019 0.209270
O O5 0.127382 0.500000 0.639906
O O6 0.234338 0.771295 0.638810
O O7 0.080511 0.783082 0.590869
O O8 0.171916 0.500000 0.867675
O O9 0.279530 0.769832 0.835690
O O10 0.148011 0.795263 0.924573
O O11 0.330557 0.500000 0.659181
O O12 0.334793 0.778763 0.722460
O O13 0.411792 0.784848 0.611955
O O14 0.856727 0.000000 0.783457
O O15 0.500000 0.788795 0.500000
O O16 0.535952 0.500000 0.442071
O O17 0.871655 0.000000 0.982906
O O18 0.750000 0.750000 0.000000
O O19 0.928932 0.656828 0.983828
#
# Coordination Sequence:
#
# PCOD9185165 Si02
#       8
#     8   8   8   8   8   8   8   2
#     4  10  20  34  56  87 125 160 201 258 326 389
#     4  10  19  34  56  79 108 153 197 245 309 382
#     4  10  21  41  64  96 139 172 218 281 336 407
#     4   9  17  33  55  78 108 155 197 239 313 390
#     4  10  19  34  60  86 119 168 207 249 322 397
#     4  10  21  36  54  77 107 146 196 254 313 377
#     4  12  26  50  81 112 150 201 254 307 370 437
#     4  12  26  52  84 112 152 204 254 312 368 428
#
# _framework density 22.23169
#
# number of rings (size 3 to 8) (size 9 to 14) (size 15 to 20)
#    0.000    1.793    4.138    0.207    0.000    3.034 
#    0.000    2.759    0.000    0.000    0.000    0.000 
#    0.000    0.000    0.000    0.000    0.000    0.000 
#
# Total GULP energy -161825.304020 kJ/mol
# GULP energy per Si atom -5580.182897 kJ/mol
# Density = 2.218109 g / cm^3
# Si number density = 22.231690 Si / 1000 Ang^3
#
#
#
# Elastic Constant Matrix: (Units=GPa)
#
#
# Indices 1 2 3 4 5 6 
#
# 1 85.3903 12.3113 -25.1747 0.0000 6.4533 0.0000
# 2 12.3113 102.9444 -0.2597 0.0000 2.2947 0.0000
# 3 -25.1747 -0.2597 38.2598 0.0000 4.5996 0.0000
# 4 0.0000 0.0000 0.0000 32.3810 0.0000 7.8570
# 5 6.4533 2.2947 4.5996 0.0000 24.3363 0.0000
# 6 0.0000 0.0000 0.0000 7.8570 0.0000 22.6677
#
#
#
# Elastic Compliance Matrix: (Units=1/GPa)
#
#
# Indices 1 2 3 4 5 6 
#
# 1 0.015668 -0.001710 0.011029 0.000000 -0.006078 0.000000
# 2 -0.001710 0.009922 -0.001023 0.000000 -0.000289 0.000000
# 3 0.011029 -0.001023 0.034511 0.000000 -0.009351 0.000000
# 4 0.000000 0.000000 0.000000 0.033718 0.000000 -0.011687
# 5 -0.006078 -0.000289 -0.009351 0.000000 0.044497 0.000000
# 6 0.000000 0.000000 0.000000 -0.011687 0.000000 0.048167
#
#
# Mechanical properties :
#
#
# Convention : Reuss Voigt Hill
#
# Bulk Modulus (GPa) = 13.03920 22.26091 17.65005
# Shear Modulus (GPa) = 25.58091 31.85817 28.71954
#
# Velocity S-wave (km/s) = 3.39580 3.78961 3.59810
# Velocity P-wave (km/s) = 4.61012 5.40214 5.02177
#
# Compressibility (1/GPa) = 0.07669182
#
# Stress axis : x y z
#
# Youngs Moduli (GPa) = 63.82270 100.78217 28.97605
#
# Poissons Ratio (x) = 0.17239 -0.31957
# Poissons Ratio (y) = 0.10917 0.02966
# Poissons Ratio (z) = -0.70389 0.10315
#
# Static dielectric constant tensor:
#      x y z
#    x 1.779370 0.000000 -0.013400 
#    y 0.000000 1.852650 0.000000 
#    z -0.013400 0.000000 1.818710 
# 
# From -- ./inp_files/337948.got.cif
#   From: 2010.05.17/outbox.cif.g08.bks.cpg/sg12_169_cif.got.tgz:337948.got - 2010.06.03 13:09:07.
