data_PCOD9185322
_publ_section_title
;
Structure prediction by ZEFSAII (Michael W. Deem and Ramdas Pophale) SiO2 
 PCOD9185322
Probable space group: C 2/M
;
_chemical_formula_sum "Si O2"
_cell_formula_units_Z 40
_cell_length_a 8.319150
_cell_length_b 29.029233
_cell_length_c 16.567471
_cell_angle_alpha 90.000000
_cell_angle_beta 149.124083
_cell_angle_gamma 90.000000
_cell_volume 2053.245659
_symmetry_space_group_name_H-M "C 2/M"
_symmetry_group_IT_number 12
_symmetry_cell_setting 'monoclinic'
loop_
_space_group_symop_operation_xyz
x,y,z
-x,y,-z
-x,-y,-z
x,-y,z
1/2+x,1/2+y,z
1/2-x,1/2+y,-z
1/2-x,1/2-y,-z
1/2+x,1/2-y,z
loop_
_atom_site_type_symbol
_atom_site_label
_atom_site_fract_x
_atom_site_fract_y
_atom_site_fract_z
Si Si1 0.410973 0.500000 0.269994
Si Si2 0.569564 0.589526 0.623555
Si Si3 0.000000 0.245562 0.500000
Si Si4 0.961271 0.811595 0.331991
Si Si5 0.855217 0.000000 0.062061
Si Si6 0.000000 0.653880 0.000000
Si Si7 0.793956 0.099550 0.981812
O O1 0.523916 0.545369 0.364521
O O2 0.487413 0.500000 0.209161
O O3 0.027369 0.500000 0.104597
O O4 0.500000 0.583080 0.500000
O O5 0.429174 0.637010 0.597073
O O6 0.943504 0.594832 0.796327
O O7 0.147214 0.212814 0.632192
O O8 0.264236 0.279104 0.580215
O O9 0.702164 0.817336 0.150995
O O10 0.940619 0.048960 0.060344
O O11 0.767786 0.623390 0.957256
O O12 0.000000 0.123006 0.000000
#
# Coordination Sequence:
#
# PCOD9185322 Si02
#       7
#     4   8   4   8   4   4   8
#     4   9  17  30  55  81 114 157 190 231 287 342
#     4  10  19  34  56  83 119 153 190 236 289 346
#     4  10  22  40  64  84 112 154 198 238 302 356
#     4  10  21  40  61  87 116 152 194 244 293 352
#     4   9  15  30  51  76 112 152 197 240 275 332
#     4  10  22  39  58  88 120 146 194 245 292 350
#     4  10  20  34  56  85 114 155 198 238 286 340
#
# _framework density 19.481352000000001
#
# number of rings (size 3 to 8) (size 9 to 14) (size 15 to 20)
#    0.000    2.200    1.000    4.200    0.000    2.400 
#    3.600    0.000    0.000    1.800    0.000    0.000 
#    0.000    0.000    0.000    0.000    0.000    0.000 
#
# Total GULP energy -111489.039886 kJ/mol
# GULP energy per Si atom -5574.451994 kJ/mol
# Density = 1.943701 g / cm^3
# Si number density = 19.481352 Si / 1000 Ang^3
#
#
#
# Elastic Constant Matrix: (Units=GPa)
#
#
# Indices 1 2 3 4 5 6 
#
# 1 118.6329 56.3471 34.3751 0.0000 -33.5641 0.0000
# 2 56.3471 138.2252 41.3254 0.0000 -26.3891 0.0000
# 3 34.3751 41.3254 66.3585 0.0000 -47.4282 0.0000
# 4 0.0000 0.0000 0.0000 20.8514 0.0000 -10.6613
# 5 -33.5641 -26.3891 -47.4282 0.0000 41.0605 0.0000
# 6 0.0000 0.0000 0.0000 -10.6613 0.0000 13.5741
#
#
#
# Elastic Compliance Matrix: (Units=1/GPa)
#
#
# Indices 1 2 3 4 5 6 
#
# 1 0.013173 -0.004611 0.009320 0.000000 0.018570 0.000000
# 2 -0.004611 0.010614 -0.011694 0.000000 -0.010455 0.000000
# 3 0.009320 -0.011694 0.100886 0.000000 0.116635 0.000001
# 4 0.000000 0.000000 0.000000 0.080142 0.000001 0.062945
# 5 0.018570 -0.010455 0.116635 0.000001 0.167537 0.000001
# 6 0.000000 0.000000 0.000001 0.062945 0.000001 0.123108
#
#
# Mechanical properties :
#
#
# Convention : Reuss Voigt Hill
#
# Bulk Modulus (GPa) = 9.03315 65.25687 37.14501
# Shear Modulus (GPa) = 9.15196 27.84180 18.49688
#
# Velocity S-wave (km/s) = 2.16979 3.78451 3.08468
# Velocity P-wave (km/s) = 3.30518 7.25717 5.63874
#
# Compressibility (1/GPa) = 0.11070332
#
# Stress axis : x y z
#
# Youngs Moduli (GPa) = 75.91430 94.21111 9.91217
#
# Poissons Ratio (x) = 0.43441 -0.09239
# Poissons Ratio (y) = 0.35005 0.11592
# Poissons Ratio (z) = -0.70755 1.10174
#
# Static dielectric constant tensor:
#      x y z
#    x 1.730140 0.000000 -0.001710 
#    y 0.000000 1.695250 0.000000 
#    z -0.001710 0.000000 1.650520 
# 
# From -- ./inp_files/122230.got.cif
#   From: 2010.05.17/outbox.cif.g08.bks.cpg/sg12_62_cif.got.tgz:122230.got - 2010.06.03 13:09:07.
