data_PCOD9185689
_publ_section_title
;
Structure prediction by ZEFSAII (Michael W. Deem and Ramdas Pophale) SiO2 
 PCOD9185689
Probable space group: C 2/M
;
_chemical_formula_sum "Si O2"
_cell_formula_units_Z 64
_cell_length_a 20.705474
_cell_length_b 8.848484
_cell_length_c 22.267866
_cell_angle_alpha 90.000000
_cell_angle_beta 62.142307
_cell_angle_gamma 90.000000
_cell_volume 3606.943957
_symmetry_space_group_name_H-M "C 2/M"
_symmetry_group_IT_number 12
_symmetry_cell_setting 'monoclinic'
loop_
_space_group_symop_operation_xyz
x,y,z
-x,y,-z
-x,-y,-z
x,-y,z
1/2+x,1/2+y,z
1/2-x,1/2+y,-z
1/2-x,1/2-y,-z
1/2+x,1/2-y,z
loop_
_atom_site_type_symbol
_atom_site_label
_atom_site_fract_x
_atom_site_fract_y
_atom_site_fract_z
Si Si1 0.913700 0.179804 0.535901
Si Si2 0.803481 0.679728 0.673758
Si Si3 0.576321 0.819429 0.821918
Si Si4 0.330721 0.180346 0.459237
Si Si5 0.351333 0.319511 0.323676
Si Si6 0.769474 0.680747 0.181290
Si Si7 0.795376 0.318456 0.034977
Si Si8 0.455927 0.679319 0.957260
O O1 0.871474 0.239008 0.613057
O O2 0.877916 0.262147 0.494558
O O3 0.000000 0.209763 0.500000
O O4 0.902357 0.000000 0.535304
O O5 0.814211 0.500000 0.669216
O O6 0.731009 0.712402 0.664921
O O7 0.783902 0.737799 0.748737
O O8 0.594852 0.746138 0.749935
O O9 0.647589 0.787038 0.832538
O O10 0.505640 0.748306 0.883244
O O11 0.569501 0.000000 0.819992
O O12 0.250000 0.250000 0.500000
O O13 0.361844 0.240524 0.382790
O O14 0.326065 0.000000 0.461667
O O15 0.358726 0.500000 0.325658
O O16 0.758899 0.500000 0.190842
O O17 0.763529 0.725585 0.114340
O O18 0.794924 0.500000 0.032261
O O19 0.750000 0.250000 0.000000
O O20 0.877986 0.259031 0.995265
O O21 0.446325 0.500000 0.952937
O O22 0.500000 0.703666 0.000000
#
# Coordination Sequence:
#
# PCOD9185689 Si02
#       8
#     8   8   8   8   8   8   8   8
#     4  11  24  41  61  86 119 158 198 242 294 350
#     4  10  20  34  58  87 116 151 192 240 290 348
#     4  10  19  34  57  86 118 153 194 242 296 348
#     4  12  23  37  60  88 118 153 194 242 291 344
#     4  10  20  35  56  87 121 153 192 241 296 348
#     4   9  19  35  57  83 115 152 192 238 290 350
#     4  11  23  40  60  86 119 157 199 243 295 352
#     4  11  22  36  58  87 118 152 193 242 293 346
#
# _framework density 17.743554
#
# number of rings (size 3 to 8) (size 9 to 14) (size 15 to 20)
#    0.000    1.500    2.500    3.375    0.000    4.000 
#    0.000    1.250    0.000    4.500    0.000    0.000 
#    0.000    0.000    0.000    0.000    0.000    0.000 
#
# Total GULP energy -178817.207442 kJ/mol
# GULP energy per Si atom -5588.037733 kJ/mol
# Density = 1.770317 g / cm^3
# Si number density = 17.743554 Si / 1000 Ang^3
#
#
#
# Elastic Constant Matrix: (Units=GPa)
#
#
# Indices 1 2 3 4 5 6 
#
# 1 76.6519 63.1393 67.9050 0.0000 6.1903 0.0000
# 2 63.1393 94.4963 80.0831 0.0001 -0.8642 0.0000
# 3 67.9050 80.0831 178.0393 0.0000 1.1284 0.0000
# 4 0.0000 0.0001 0.0000 34.7378 0.0000 0.6419
# 5 6.1903 -0.8642 1.1284 0.0000 27.1492 0.0000
# 6 0.0000 0.0000 0.0000 0.6419 0.0000 27.2911
#
#
#
# Elastic Compliance Matrix: (Units=1/GPa)
#
#
# Indices 1 2 3 4 5 6 
#
# 1 0.032245 -0.018156 -0.004082 0.000000 -0.007760 0.000000
# 2 -0.018156 0.027345 -0.005408 0.000000 0.005235 0.000000
# 3 -0.004082 -0.005408 0.009604 0.000000 0.000359 0.000000
# 4 0.000000 0.000000 0.000000 0.028800 0.000000 -0.000677
# 5 -0.007760 0.005235 0.000359 0.000000 0.038755 0.000000
# 6 0.000000 0.000000 0.000000 -0.000677 0.000000 0.036658
#
#
# Mechanical properties :
#
#
# Convention : Reuss Voigt Hill
#
# Bulk Modulus (GPa) = 71.94078 85.71582 78.82830
# Shear Modulus (GPa) = 21.42861 27.03963 24.23412
#
# Velocity S-wave (km/s) = 3.47895 3.90797 3.69968
# Velocity P-wave (km/s) = 7.53460 8.29313 7.92295
#
# Compressibility (1/GPa) = 0.01390032
#
# Stress axis : x y z
#
# Youngs Moduli (GPa) = 31.01286 36.56979 104.12140
#
# Poissons Ratio (x) = 0.66396 0.42506
# Poissons Ratio (y) = 0.56307 0.56312
# Poissons Ratio (z) = 0.12661 0.19778
#
# Static dielectric constant tensor:
#      x y z
#    x 1.579250 0.000000 0.005570 
#    y 0.000000 1.586080 0.000000 
#    z 0.005570 0.000000 1.602380 
# 
# From -- ./inp_files/319883.got.cif
#   From: 2010.05.17/outbox.cif.g08.bks.cpg/sg12_160_cif.got.tgz:319883.got - 2010.06.03 13:09:07.
