data_PCOD9185104
_publ_section_title
;
Structure prediction by ZEFSAII (Michael W. Deem and Ramdas Pophale) SiO2 
 PCOD9185104
Probable space group: C 2/M
;
_chemical_formula_sum "Si O2"
_cell_formula_units_Z 60
_cell_length_a 13.798441
_cell_length_b 13.573586
_cell_length_c 24.218635
_cell_angle_alpha 90.000000
_cell_angle_beta 48.932649
_cell_angle_gamma 90.000000
_cell_volume 3419.871882
_symmetry_space_group_name_H-M "C 2/M"
_symmetry_group_IT_number 12
_symmetry_cell_setting 'monoclinic'
loop_
_space_group_symop_operation_xyz
x,y,z
-x,y,-z
-x,-y,-z
x,-y,z
1/2+x,1/2+y,z
1/2-x,1/2+y,-z
1/2-x,1/2-y,-z
1/2+x,1/2-y,z
loop_
_atom_site_type_symbol
_atom_site_label
_atom_site_fract_x
_atom_site_fract_y
_atom_site_fract_z
Si Si1 0.500000 0.242477 0.500000
Si Si2 0.254431 0.382454 0.388980
Si Si3 0.099902 0.697372 0.012182
Si Si4 0.052598 0.387016 0.828200
Si Si5 0.975520 0.802489 0.228204
Si Si6 0.871541 0.884969 0.927569
Si Si7 0.346333 0.612557 0.750955
Si Si8 0.055990 0.885607 0.579918
O O1 0.379697 0.174552 0.562057
O O2 0.547088 0.312027 0.532384
O O3 0.237676 0.500000 0.390166
O O4 0.349556 0.344291 0.305367
O O5 0.330123 0.364645 0.418687
O O6 0.115506 0.811144 0.025285
O O7 0.044875 0.641881 0.086677
O O8 0.238221 0.649513 0.948632
O O9 0.000000 0.687210 0.000000
O O10 0.035216 0.500000 0.818283
O O11 0.196340 0.374580 0.798031
O O12 0.038068 0.310269 0.784340
O O13 0.014723 0.861262 0.158154
O O14 0.090711 0.816345 0.228343
O O15 0.867383 0.000000 0.942705
O O16 0.370930 0.500000 0.761351
O O17 0.424810 0.622899 0.664698
O O18 0.068710 0.000000 0.557434
#
# Coordination Sequence:
#
# PCOD9185104 Si02
#       8
#     4   8   8   8   8   8   8   8
#     4  12  20  32  54  78 104 134 166 208 256 298
#     4  10  21  36  53  75 102 133 168 208 253 302
#     4  10  21  34  50  76 107 136 167 207 253 297
#     4  10  20  33  52  78 105 132 167 211 255 295
#     4  10  19  34  56  75  98 132 172 210 248 298
#     4  10  20  34  53  76 100 132 173 210 248 297
#     4   9  17  32  54  76  99 133 172 207 246 297
#     4   9  19  34  52  76 104 134 170 206 246 299
#
# _framework density 17.544516999999999
#
# number of rings (size 3 to 8) (size 9 to 14) (size 15 to 20)
#    0.000    2.133    0.000    4.800    0.000    2.400 
#    0.000    0.667    0.000   19.200    0.000    0.000 
#    0.000    0.000    0.000    0.000    0.000    0.000 
#
# Total GULP energy -167429.379225 kJ/mol
# GULP energy per Si atom -5580.979308 kJ/mol
# Density = 1.750458 g / cm^3
# Si number density = 17.544517 Si / 1000 Ang^3
#
#
#
# Elastic Constant Matrix: (Units=GPa)
#
#
# Indices 1 2 3 4 5 6 
#
# 1 57.6612 48.0330 36.0195 0.0000 -6.5599 0.0000
# 2 48.0330 142.3221 51.4939 0.0000 1.3461 0.0000
# 3 36.0195 51.4939 78.1267 0.0000 -11.7701 0.0000
# 4 0.0000 0.0000 0.0000 16.9854 0.0000 -0.6334
# 5 -6.5599 1.3461 -11.7701 0.0000 24.2007 0.0000
# 6 0.0000 0.0000 0.0000 -0.6334 0.0000 28.5881
#
#
#
# Elastic Compliance Matrix: (Units=1/GPa)
#
#
# Indices 1 2 3 4 5 6 
#
# 1 0.028454 -0.006728 -0.008056 0.000000 0.004169 0.000000
# 2 -0.006728 0.011143 -0.004975 0.000000 -0.004863 0.000000
# 3 -0.008056 -0.004975 0.021048 0.000000 0.008330 0.000000
# 4 0.000000 0.000000 0.000000 0.058923 0.000000 0.001305
# 5 0.004169 -0.004863 0.008330 0.000000 0.046773 0.000000
# 6 0.000000 0.000000 0.000000 0.001305 0.000000 0.035009
#
#
# Mechanical properties :
#
#
# Convention : Reuss Voigt Hill
#
# Bulk Modulus (GPa) = 47.33344 61.02254 54.17799
# Shear Modulus (GPa) = 20.16870 23.45909 21.81390
#
# Velocity S-wave (km/s) = 3.39421 3.66063 3.52994
# Velocity P-wave (km/s) = 6.51142 7.26113 6.89647
#
# Compressibility (1/GPa) = 0.02112671
#
# Stress axis : x y z
#
# Youngs Moduli (GPa) = 35.14502 89.74232 47.51027
#
# Poissons Ratio (x) = 0.60375 0.38274
# Poissons Ratio (y) = 0.23644 0.23638
# Poissons Ratio (z) = 0.28313 0.44650
#
# Static dielectric constant tensor:
#      x y z
#    x 1.581260 0.000000 -0.006300 
#    y 0.000000 1.586770 0.000000 
#    z -0.006300 0.000000 1.603360 
# 
# From -- ./inp_files/339558.got.cif
#   From: 2010.05.17/outbox.cif.g08.bks.cpg/sg12_170_cif.got.tgz:339558.got - 2010.06.03 13:09:07.
