data_PCOD9185939
_publ_section_title
;
Structure prediction by ZEFSAII (Michael W. Deem and Ramdas Pophale) SiO2 
 PCOD9185939
Probable space group: C 2/M
;
_chemical_formula_sum "Si O2"
_cell_formula_units_Z 48
_cell_length_a 10.841274
_cell_length_b 21.876337
_cell_length_c 14.649544
_cell_angle_alpha 90.000000
_cell_angle_beta 42.061420
_cell_angle_gamma 90.000000
_cell_volume 2327.589677
_symmetry_space_group_name_H-M "C 2/M"
_symmetry_group_IT_number 12
_symmetry_cell_setting 'monoclinic'
loop_
_space_group_symop_operation_xyz
x,y,z
-x,y,-z
-x,-y,-z
x,-y,z
1/2+x,1/2+y,z
1/2-x,1/2+y,-z
1/2-x,1/2-y,-z
1/2+x,1/2-y,z
loop_
_atom_site_type_symbol
_atom_site_label
_atom_site_fract_x
_atom_site_fract_y
_atom_site_fract_z
Si Si1 0.732927 0.821286 0.780626
Si Si2 0.797261 0.726800 0.616417
Si Si3 0.179900 0.680057 0.023170
Si Si4 0.787419 0.930135 0.090419
Si Si5 0.533008 0.070436 0.590820
Si Si6 0.867937 0.841866 0.444669
O O1 0.771389 0.750266 0.732850
O O2 0.538396 0.830039 0.837982
O O3 0.919453 0.857576 0.652435
O O4 0.704738 0.830299 0.902222
O O5 0.814470 0.787887 0.544321
O O6 0.644388 0.686793 0.651307
O O7 0.000000 0.698093 0.500000
O O8 0.272894 0.625947 0.028313
O O9 0.250000 0.750000 0.000000
O O10 0.652388 0.915532 0.250090
O O11 0.737459 0.000000 0.085389
O O12 0.000000 0.933069 0.000000
O O13 0.500000 0.074629 0.500000
O O14 0.706586 0.109163 0.531010
O O15 0.577279 0.000000 0.584922
#
# Coordination Sequence:
#
# PCOD9185939 Si02
#       6
#     8   8   8   8   8   8
#     4  10  22  37  56  90 129 165 216 261 333 396
#     4   9  18  33  53  83 118 160 203 254 310 384
#     4  11  24  40  61  92 129 177 219 274 327 399
#     4  10  24  46  70  94 128 177 225 277 337 397
#     4  10  22  39  63  95 125 160 217 274 321 385
#     4  10  19  34  58  86 121 165 201 264 319 380
#
# _framework density 20.62219
#
# number of rings (size 3 to 8) (size 9 to 14) (size 15 to 20)
#    0.000    2.000    0.000    2.500    4.667    4.000 
#    0.000    2.500    0.000    7.500    0.000    0.000 
#    0.000    0.000    0.000    0.000    0.000    0.000 
#
# Total GULP energy -133742.400134 kJ/mol
# GULP energy per Si atom -5572.600006 kJ/mol
# Density = 2.057525 g / cm^3
# Si number density = 20.622190 Si / 1000 Ang^3
#
#
#
# Elastic Constant Matrix: (Units=GPa)
#
#
# Indices 1 2 3 4 5 6 
#
# 1 102.4530 54.9463 38.1048 -0.0002 -25.6981 0.0001
# 2 54.9463 112.2248 36.3963 0.0000 -6.8703 0.0000
# 3 38.1048 36.3963 96.3103 -0.0005 -14.3935 0.0004
# 4 -0.0002 0.0000 -0.0005 13.5525 0.0003 -4.3566
# 5 -25.6981 -6.8703 -14.3935 0.0003 47.4413 -0.0002
# 6 0.0001 0.0000 0.0004 -4.3566 -0.0002 32.8043
#
#
#
# Elastic Compliance Matrix: (Units=1/GPa)
#
#
# Indices 1 2 3 4 5 6 
#
# 1 0.016037 -0.006503 -0.002859 0.000000 0.006878 0.000000
# 2 -0.006503 0.012797 -0.002632 0.000000 -0.002468 0.000000
# 3 -0.002859 -0.002632 0.012801 0.000000 0.001954 0.000000
# 4 0.000000 0.000000 0.000000 0.077078 0.000000 0.010236
# 5 0.006878 -0.002468 0.001954 0.000000 0.025039 0.000000
# 6 0.000000 0.000000 0.000000 0.010236 0.000000 0.031843
#
#
# Mechanical properties :
#
#
# Convention : Reuss Voigt Hill
#
# Bulk Modulus (GPa) = 56.67116 63.32032 59.99574
# Shear Modulus (GPa) = 24.33475 30.86234 27.59854
#
# Velocity S-wave (km/s) = 3.43888 3.87274 3.66224
# Velocity P-wave (km/s) = 6.58090 7.12524 6.85847
#
# Compressibility (1/GPa) = 0.01764566
#
# Stress axis : x y z
#
# Youngs Moduli (GPa) = 62.35570 78.14119 78.11858
#
# Poissons Ratio (x) = 0.50819 0.22337
# Poissons Ratio (y) = 0.40553 0.20561
# Poissons Ratio (z) = 0.17830 0.20567
#
# Static dielectric constant tensor:
#      x y z
#    x 1.779210 0.000000 -0.003940 
#    y 0.000000 1.763070 0.000000 
#    z -0.003940 0.000000 1.843510 
# 
# From -- ./inp_files/207936.got.cif
#   From: 2010.05.17/outbox.cif.g08.bks.cpg/sg12_104_cif.got.tgz:207936.got - 2010.06.03 13:09:07.
