data_PCOD9185770
_publ_section_title
;
Structure prediction by ZEFSAII (Michael W. Deem and Ramdas Pophale) SiO2 
 PCOD9185770
Probable space group: C 2/M
;
_chemical_formula_sum "Si O2"
_cell_formula_units_Z 64
_cell_length_a 21.228391
_cell_length_b 26.524966
_cell_length_c 10.454401
_cell_angle_alpha 90.000000
_cell_angle_beta 36.801977
_cell_angle_gamma 90.000000
_cell_volume 3526.428078
_symmetry_space_group_name_H-M "C 2/M"
_symmetry_group_IT_number 12
_symmetry_cell_setting 'monoclinic'
loop_
_space_group_symop_operation_xyz
x,y,z
-x,y,-z
-x,-y,-z
x,-y,z
1/2+x,1/2+y,z
1/2-x,1/2+y,-z
1/2-x,1/2-y,-z
1/2+x,1/2-y,z
loop_
_atom_site_type_symbol
_atom_site_label
_atom_site_fract_x
_atom_site_fract_y
_atom_site_fract_z
Si Si1 0.600670 0.116705 0.660538
Si Si2 0.183755 0.843694 0.074696
Si Si3 0.746827 0.443654 0.077395
Si Si4 0.689353 0.229589 0.474479
Si Si5 0.145321 0.390483 0.866928
Si Si6 0.302839 0.786953 0.094816
Si Si7 0.118063 0.395717 0.347880
Si Si8 0.514031 0.268909 0.324215
O O1 0.642332 0.174079 0.574317
O O2 0.653490 0.096508 0.704510
O O3 0.619238 0.089952 0.494653
O O4 0.476580 0.113479 0.892420
O O5 0.168299 0.898659 0.164052
O O6 0.290790 0.853611 0.820292
O O7 0.219517 0.803638 0.124037
O O8 0.077872 0.820411 0.192065
O O9 0.705530 0.500000 0.142843
O O10 0.841064 0.437271 0.819440
O O11 0.795361 0.428112 0.134633
O O12 0.750000 0.250000 0.500000
O O13 0.770837 0.237828 0.225844
O O14 0.592471 0.263963 0.582789
O O15 0.187799 0.334259 0.825668
O O16 0.411381 0.776065 0.846830
O O17 0.000000 0.379760 0.500000
O O18 0.500000 0.264584 0.500000
#
# Coordination Sequence:
#
# PCOD9185770 Si02
#       8
#     8   8   8   8   8   8   8   8
#     4  11  20  35  48  78 115 155 186 224 292 340
#     4   9  21  36  56  84 115 147 190 247 295 337
#     4   9  20  38  61  84 111 144 188 248 305 353
#     4  12  25  34  56  81 120 165 202 234 276 341
#     4  10  20  34  54  73 116 154 184 236 287 347
#     4  11  20  37  52  85 113 152 206 233 276 341
#     4  10  19  34  58  82 110 149 185 241 297 353
#     4  12  24  35  57  83 118 157 198 246 281 339
#
# _framework density 18.148675000000001
#
# number of rings (size 3 to 8) (size 9 to 14) (size 15 to 20)
#    0.750    0.750    5.000    1.125    1.750    0.750 
#    0.000    1.875    0.000    0.375    0.000    0.000 
#    0.000    1.000    0.000    0.000    0.000    0.000 
#
# Total GULP energy -178192.963289 kJ/mol
# GULP energy per Si atom -5568.530103 kJ/mol
# Density = 1.810737 g / cm^3
# Si number density = 18.148675 Si / 1000 Ang^3
#
#
#
# Elastic Constant Matrix: (Units=GPa)
#
#
# Indices 1 2 3 4 5 6 
#
# 1 105.9572 27.7713 35.5848 0.0000 6.4264 0.0000
# 2 27.7713 59.0665 4.3402 0.0000 3.7890 0.0000
# 3 35.5848 4.3402 58.4706 -0.0001 12.5366 0.0001
# 4 0.0000 0.0000 -0.0001 9.2650 0.0000 -3.0677
# 5 6.4264 3.7890 12.5366 0.0000 34.0159 0.0000
# 6 0.0000 0.0000 0.0001 -3.0677 0.0000 9.6821
#
#
#
# Elastic Compliance Matrix: (Units=1/GPa)
#
#
# Indices 1 2 3 4 5 6 
#
# 1 0.013631 -0.005883 -0.008086 0.000000 0.001060 0.000000
# 2 -0.005883 0.019638 0.002555 0.000000 -0.002018 0.000000
# 3 -0.008086 0.002555 0.023418 0.000000 -0.007388 0.000000
# 4 0.000000 0.000000 0.000000 0.120583 0.000000 0.038205
# 5 0.001060 -0.002018 -0.007388 0.000000 0.032145 0.000000
# 6 0.000000 0.000000 0.000000 0.038205 0.000000 0.115389
#
#
# Mechanical properties :
#
#
# Convention : Reuss Voigt Hill
#
# Bulk Modulus (GPa) = 29.53435 39.87634 34.70534
# Shear Modulus (GPa) = 13.93076 20.97913 17.45494
#
# Velocity S-wave (km/s) = 2.77355 3.40363 3.10461
# Velocity P-wave (km/s) = 5.15419 6.12095 5.65825
#
# Compressibility (1/GPa) = 0.03385888
#
# Stress axis : x y z
#
# Youngs Moduli (GPa) = 73.36170 50.92265 42.70161
#
# Poissons Ratio (x) = 0.29956 0.34531
# Poissons Ratio (y) = 0.43157 -0.10911
# Poissons Ratio (z) = 0.59324 -0.13011
#
# Static dielectric constant tensor:
#      x y z
#    x 1.648260 0.000000 0.015200 
#    y 0.000000 1.633780 0.000000 
#    z 0.015200 0.000000 1.671720 
# 
# From -- ./inp_files/178517.got.cif
#   From: 2010.05.17/outbox.cif.g08.bks.cpg/sg12_90_cif.got.tgz:178517.got - 2010.06.03 13:09:07.
