data_PCOD9185915
_publ_section_title
;
Structure prediction by ZEFSAII (Michael W. Deem and Ramdas Pophale) SiO2 
 PCOD9185915
Probable space group: C 2/M
;
_chemical_formula_sum "Si O2"
_cell_formula_units_Z 56
_cell_length_a 24.865817
_cell_length_b 8.569380
_cell_length_c 14.479205
_cell_angle_alpha 90.000000
_cell_angle_beta 83.549456
_cell_angle_gamma 90.000000
_cell_volume 3065.763716
_symmetry_space_group_name_H-M "C 2/M"
_symmetry_group_IT_number 12
_symmetry_cell_setting 'monoclinic'
loop_
_space_group_symop_operation_xyz
x,y,z
-x,y,-z
-x,-y,-z
x,-y,z
1/2+x,1/2+y,z
1/2-x,1/2+y,-z
1/2-x,1/2-y,-z
1/2+x,1/2-y,z
loop_
_atom_site_type_symbol
_atom_site_label
_atom_site_fract_x
_atom_site_fract_y
_atom_site_fract_z
Si Si1 0.707345 0.184484 0.689055
Si Si2 0.619637 0.686806 0.836832
Si Si3 0.865829 0.813441 0.460333
Si Si4 0.172594 0.313745 0.338036
Si Si5 0.461834 0.312599 0.311605
Si Si6 0.939811 0.311327 0.978332
Si Si7 0.074315 0.312127 0.230234
O O1 0.673556 0.236424 0.785479
O O2 0.678856 0.271010 0.608275
O O3 0.769540 0.232866 0.683521
O O4 0.702219 0.000000 0.676110
O O5 0.624927 0.500000 0.832122
O O6 0.571548 0.732637 0.774451
O O7 0.602587 0.742418 0.940948
O O8 0.851781 0.728831 0.557529
O O9 0.923559 0.766604 0.404608
O O10 0.865801 0.000000 0.474168
O O11 0.179845 0.500000 0.329831
O O12 0.129098 0.261329 0.269960
O O13 0.465684 0.500000 0.311745
O O14 0.521284 0.243202 0.295179
O O15 0.936857 0.500000 0.982013
O O16 0.930219 0.259014 0.875128
O O17 0.000000 0.265354 0.000000
O O18 0.073908 0.500000 0.229579
#
# Coordination Sequence:
#
# PCOD9185915 Si02
#       7
#     8   8   8   8   8   8   8
#     4  11  22  38  61  85 110 145 188 234 280 329
#     4  10  20  35  57  87 116 145 183 232 282 330
#     4  10  21  38  59  85 113 146 188 232 279 330
#     4  11  23  39  56  79 113 152 190 231 278 331
#     4   9  19  34  54  81 113 145 181 227 278 332
#     4  10  19  34  58  86 114 146 187 232 277 331
#     4  10  22  37  55  81 115 151 187 229 279 333
#
# _framework density 18.266248000000001
#
# number of rings (size 3 to 8) (size 9 to 14) (size 15 to 20)
#    0.000    1.857    1.429    3.857    0.000    5.429 
#    0.000    3.571    0.000    0.000    0.000    0.000 
#    0.000    0.000    0.000    0.000    0.000    0.000 
#
# Total GULP energy -156401.771881 kJ/mol
# GULP energy per Si atom -5585.777567 kJ/mol
# Density = 1.822467 g / cm^3
# Si number density = 18.266248 Si / 1000 Ang^3
#
#
#
# Elastic Constant Matrix: (Units=GPa)
#
#
# Indices 1 2 3 4 5 6 
#
# 1 -32.8962 -26.4037 34.2851 0.0000 8.5778 0.0000
# 2 -26.4037 9.1530 -3.6179 0.0000 0.6408 0.0000
# 3 34.2851 -3.6179 85.4523 0.0000 -7.0413 0.0000
# 4 0.0000 0.0000 0.0000 19.1121 0.0000 -6.6375
# 5 8.5778 0.6408 -7.0413 0.0000 18.1885 0.0000
# 6 0.0000 0.0000 0.0000 -6.6375 0.0000 29.6624
#
#
#
# Elastic Compliance Matrix: (Units=1/GPa)
#
#
# Indices 1 2 3 4 5 6 
#
# 1 -0.008032 -0.022483 0.002735 0.000000 0.005639 0.000000
# 2 -0.022483 0.048260 0.012186 0.000000 0.013620 0.000000
# 3 0.002735 0.012186 0.011341 0.000000 0.002671 0.000000
# 4 0.000000 0.000000 0.000000 0.056732 0.000000 0.012695
# 5 0.005639 0.013620 0.002671 0.000000 0.052875 0.000000
# 6 0.000000 0.000000 0.000000 0.012695 0.000000 0.036553
#
#
# Mechanical properties :
#
#
# Convention : Reuss Voigt Hill
#
# Bulk Modulus (GPa) = 27.43790 7.80399 17.62095
# Shear Modulus (GPa) = 22.22213 17.22231 19.72222
#
# Velocity S-wave (km/s) = 3.49172 3.07392 3.28946
# Velocity P-wave (km/s) = 5.59552 4.10856 4.90867
#
# Compressibility (1/GPa) = 0.03644594
#
# Stress axis : x y z
#
# Youngs Moduli (GPa) = -124.50544 20.72109 88.17533
#
# Poissons Ratio (x) = 0.46587 -0.24118
# Poissons Ratio (y) = -2.79927 -1.07452
# Poissons Ratio (z) = 0.34055 -0.25251
#
# Static dielectric constant tensor:
#      x y z
#    x 1.610680 0.000000 0.003390 
#    y 0.000000 1.615980 0.000000 
#    z 0.003390 0.000000 1.616600 
# 
# From -- ./inp_files/230886.got.cif
#   From: 2010.05.17/outbox.cif.g08.bks.cpg/sg12_116_cif.got.tgz:230886.got - 2010.06.03 13:09:07.
