data_PCOD9185724
_publ_section_title
;
Structure prediction by ZEFSAII (Michael W. Deem and Ramdas Pophale) SiO2 
 PCOD9185724
Probable space group: C 2/M
;
_chemical_formula_sum "Si O2"
_cell_formula_units_Z 48
_cell_length_a 17.652825
_cell_length_b 28.260802
_cell_length_c 8.861358
_cell_angle_alpha 90.000000
_cell_angle_beta 146.192511
_cell_angle_gamma 90.000000
_cell_volume 2459.741119
_symmetry_space_group_name_H-M "C 2/M"
_symmetry_group_IT_number 12
_symmetry_cell_setting 'monoclinic'
loop_
_space_group_symop_operation_xyz
x,y,z
-x,y,-z
-x,-y,-z
x,-y,z
1/2+x,1/2+y,z
1/2-x,1/2+y,-z
1/2-x,1/2-y,-z
1/2+x,1/2-y,z
loop_
_atom_site_type_symbol
_atom_site_label
_atom_site_fract_x
_atom_site_fract_y
_atom_site_fract_z
Si Si1 0.852777 0.000000 0.831976
Si Si2 0.847533 0.000000 0.183761
Si Si3 0.727364 0.301039 0.763725
Si Si4 0.348707 0.396216 0.823574
Si Si5 0.629466 0.167832 0.299399
Si Si6 0.654003 0.394770 0.817281
Si Si7 0.007888 0.268101 0.674560
O O1 0.795214 0.949145 0.696256
O O2 0.000000 0.000000 0.000000
O O3 0.862482 0.000000 0.028308
O O4 0.787292 0.052168 0.123038
O O5 0.000000 0.000000 0.500000
O O6 0.785355 0.308917 0.693574
O O7 0.725665 0.350119 0.855048
O O8 0.578141 0.279212 0.497256
O O9 0.835311 0.264874 0.017757
O O10 0.237254 0.362625 0.568287
O O11 0.500000 0.390111 0.000000
O O12 0.353136 0.390029 0.012493
O O13 0.565283 0.204327 0.311859
O O14 0.500000 0.143921 0.000000
O O15 0.500000 0.394610 0.500000
O O16 0.000000 0.294433 0.500000
#
# Coordination Sequence:
#
# PCOD9185724 Si02
#       7
#     4   4   8   8   8   8   8
#     4   8  16  30  51  82 114 145 186 232 281 333
#     4   8  16  30  52  82 119 149 179 228 286 337
#     4  11  23  39  58  83 115 150 190 235 283 338
#     4  10  19  34  58  85 115 151 190 236 284 335
#     4  10  23  40  56  80 114 152 190 233 284 337
#     4  10  19  34  57  89 119 149 188 235 286 340
#     4  11  23  39  58  80 110 149 191 236 282 335
#
# _framework density 19.514247999999998
#
# number of rings (size 3 to 8) (size 9 to 14) (size 15 to 20)
#    0.000    2.000    0.000    3.500    0.000    4.000 
#    0.000    0.417    0.000    3.000    0.000   15.167 
#    0.000    1.333    0.000    0.000    0.000    0.000 
#
# Total GULP energy -133695.258966 kJ/mol
# GULP energy per Si atom -5570.635790 kJ/mol
# Density = 1.946983 g / cm^3
# Si number density = 19.514248 Si / 1000 Ang^3
#
#
#
# Elastic Constant Matrix: (Units=GPa)
#
#
# Indices 1 2 3 4 5 6 
#
# 1 124.5239 50.3158 23.4378 0.0000 -8.1974 0.0000
# 2 50.3158 99.5081 50.2961 0.0000 3.9167 0.0000
# 3 23.4378 50.2961 79.8736 0.0000 -15.4468 0.0000
# 4 0.0000 0.0000 0.0000 36.1724 0.0000 12.3072
# 5 -8.1974 3.9167 -15.4468 0.0000 23.2996 0.0000
# 6 0.0000 0.0000 0.0000 12.3072 0.0000 20.4508
#
#
#
# Elastic Compliance Matrix: (Units=1/GPa)
#
#
# Indices 1 2 3 4 5 6 
#
# 1 0.010828 -0.007017 0.002530 0.000000 0.006667 0.000000
# 2 -0.007017 0.021590 -0.014586 0.000000 -0.015768 0.000000
# 3 0.002530 -0.014586 0.024786 0.000000 0.019774 0.000000
# 4 0.000000 0.000000 0.000000 0.034763 0.000000 -0.020921
# 5 0.006667 -0.015768 0.019774 0.000000 0.061025 0.000000
# 6 0.000000 0.000000 0.000000 -0.020921 0.000000 0.061488
#
#
# Mechanical properties :
#
#
# Convention : Reuss Voigt Hill
#
# Bulk Modulus (GPa) = 52.46481 61.33391 56.89936
# Shear Modulus (GPa) = 19.30659 27.97494 23.64076
#
# Velocity S-wave (km/s) = 3.14882 3.79035 3.48438
# Velocity P-wave (km/s) = 6.33749 7.11718 6.73862
#
# Compressibility (1/GPa) = 0.01906040
#
# Stress axis : x y z
#
# Youngs Moduli (GPa) = 92.34993 46.31710 40.34510
#
# Poissons Ratio (x) = 0.32499 -0.10208
# Poissons Ratio (y) = 0.64798 0.58846
# Poissons Ratio (z) = -0.23366 0.67557
#
# Static dielectric constant tensor:
#      x y z
#    x 4.703950 0.000000 0.094350 
#    y 0.000000 1.756130 0.000000 
#    z 0.094350 0.000000 1.670930 
# 
# From -- ./inp_files/80885.got.cif
#   From: 2010.05.17/outbox.cif.g08.bks.cpg/sg12_41_cif.got.tgz:80885.got - 2010.06.03 13:09:07.
