data_PCOD9185058
_publ_section_title
;
Structure prediction by ZEFSAII (Michael W. Deem and Ramdas Pophale) SiO2 
 PCOD9185058
Probable space group: C 2/M
;
_chemical_formula_sum "Si O2"
_cell_formula_units_Z 48
_cell_length_a 18.399713
_cell_length_b 14.055688
_cell_length_c 24.721354
_cell_angle_alpha 90.000000
_cell_angle_beta 18.822378
_cell_angle_gamma 90.000000
_cell_volume 2062.753973
_symmetry_space_group_name_H-M "C 2/M"
_symmetry_group_IT_number 12
_symmetry_cell_setting 'monoclinic'
loop_
_space_group_symop_operation_xyz
x,y,z
-x,y,-z
-x,-y,-z
x,-y,z
1/2+x,1/2+y,z
1/2-x,1/2+y,-z
1/2-x,1/2-y,-z
1/2+x,1/2-y,z
loop_
_atom_site_type_symbol
_atom_site_label
_atom_site_fract_x
_atom_site_fract_y
_atom_site_fract_z
Si Si1 0.457462 0.887751 0.397471
Si Si2 0.117947 0.138241 0.969838
Si Si3 0.892156 0.304318 0.260501
Si Si4 0.234075 0.771319 0.256674
Si Si5 0.880397 0.104678 0.907911
Si Si6 0.106631 0.886820 0.561039
O O1 0.571202 0.821622 0.362954
O O2 0.216918 0.861035 0.541137
O O3 0.461904 0.000000 0.407923
O O4 0.624326 0.868550 0.228662
O O5 0.078256 0.097170 0.056620
O O6 0.989880 0.238688 0.065207
O O7 0.000000 0.095213 0.000000
O O8 0.742215 0.306451 0.312034
O O9 0.758433 0.346845 0.404946
O O10 0.971352 0.194959 0.214688
O O11 0.119807 0.363660 0.087888
O O12 0.135737 0.843611 0.282148
O O13 0.923136 0.000000 0.853460
O O14 0.106100 0.000000 0.558938
#
# Coordination Sequence:
#
# PCOD9185058 Si02
#       6
#     8   8   8   8   8   8
#     4  10  20  37  64  90 113 150 196 243 290 339
#     4   9  18  32  56  86 114 144 189 237 282 332
#     4  10  21  34  55  86 117 154 195 236 288 343
#     4  10  22  35  54  89 122 149 185 243 291 339
#     4  10  19  34  55  83 117 151 193 241 289 340
#     4  11  22  39  62  86 116 154 197 239 286 347
#
# _framework density 23.269863000000001
#
# number of rings (size 3 to 8) (size 9 to 14) (size 15 to 20)
#    0.000    2.000    1.667    2.000    0.000   11.333 
#    0.000    0.833    0.000   10.500    0.000    0.000 
#    0.000    0.000    0.000    0.000    0.000    0.000 
#
# Total GULP energy -133959.486033 kJ/mol
# GULP energy per Si atom -5581.645251 kJ/mol
# Density = 2.321690 g / cm^3
# Si number density = 23.269863 Si / 1000 Ang^3
#
#
#
# Elastic Constant Matrix: (Units=GPa)
#
#
# Indices 1 2 3 4 5 6 
#
# 1 119.1807 29.3121 14.0698 -0.0248 -17.9899 0.0716
# 2 29.3121 119.2705 16.1218 -0.0862 -15.0664 0.0306
# 3 14.0698 16.1218 40.2285 -0.3575 -2.7075 0.3246
# 4 -0.0248 -0.0862 -0.3575 82.5189 0.0157 -55.5248
# 5 -17.9899 -15.0664 -2.7075 0.0157 25.0030 -0.0317
# 6 0.0716 0.0306 0.3246 -55.5248 -0.0317 53.2855
#
#
#
# Elastic Compliance Matrix: (Units=1/GPa)
#
#
# Indices 1 2 3 4 5 6 
#
# 1 0.009933 -0.001332 -0.002532 -0.000021 0.006070 -0.000015
# 2 -0.001332 0.009709 -0.003118 0.000025 0.004554 0.000044
# 3 -0.002532 -0.003118 0.026942 0.000019 -0.000784 -0.000140
# 4 -0.000021 0.000025 0.000019 0.040551 0.000030 0.042255
# 5 0.006070 0.004554 -0.000784 0.000030 0.047022 0.000053
# 6 -0.000015 0.000044 -0.000140 0.042255 0.000053 0.062798
#
#
# Mechanical properties :
#
#
# Convention : Reuss Voigt Hill
#
# Bulk Modulus (GPa) = 30.65718 44.18744 37.42231
# Shear Modulus (GPa) = 22.54358 46.77322 34.65840
#
# Velocity S-wave (km/s) = 3.11591 4.48820 3.86348
# Velocity P-wave (km/s) = 5.11356 6.77414 6.00156
#
# Compressibility (1/GPa) = 0.03261878
#
# Stress axis : x y z
#
# Youngs Moduli (GPa) = 100.66973 103.00244 37.11707
#
# Poissons Ratio (x) = 0.13722 0.09397
# Poissons Ratio (y) = 0.13412 0.11575
# Poissons Ratio (z) = 0.25488 0.32121
#
# Static dielectric constant tensor:
#      x y z
#    x 1.869050 -0.000010 -0.014830 
#    y -0.000010 1.911950 0.000060 
#    z -0.014830 0.000060 1.972900 
# 
# From -- ./inp_files/381252.got.cif
#   From: 2010.05.17/outbox.cif.g08.bks.cpg/sg12_191_cif.got.tgz:381252.got - 2010.06.03 13:09:07.
