data_PCOD9185734
_publ_section_title
;
Structure prediction by ZEFSAII (Michael W. Deem and Ramdas Pophale) SiO2 
 PCOD9185734
Probable space group: C 2/M
;
_chemical_formula_sum "Si O2"
_cell_formula_units_Z 52
_cell_length_a 11.122698
_cell_length_b 17.986775
_cell_length_c 14.800541
_cell_angle_alpha 90.000000
_cell_angle_beta 61.226512
_cell_angle_gamma 90.000000
_cell_volume 2595.419582
_symmetry_space_group_name_H-M "C 2/M"
_symmetry_group_IT_number 12
_symmetry_cell_setting 'monoclinic'
loop_
_space_group_symop_operation_xyz
x,y,z
-x,y,-z
-x,-y,-z
x,-y,z
1/2+x,1/2+y,z
1/2-x,1/2+y,-z
1/2-x,1/2-y,-z
1/2+x,1/2-y,z
loop_
_atom_site_type_symbol
_atom_site_label
_atom_site_fract_x
_atom_site_fract_y
_atom_site_fract_z
Si Si1 0.894856 0.630390 0.848995
Si Si2 0.389988 0.584044 0.114970
Si Si3 0.000000 0.346335 0.000000
Si Si4 0.159733 0.689479 0.668439
Si Si5 0.225801 0.784831 0.177979
Si Si6 0.048766 0.150446 0.720231
Si Si7 0.360637 0.584249 0.492900
O O1 0.764695 0.583341 0.866054
O O2 0.837156 0.714245 0.851597
O O3 0.936673 0.612819 0.936435
O O4 0.037589 0.633384 0.742542
O O5 0.431686 0.500000 0.124938
O O6 0.389286 0.634416 0.204235
O O7 0.500000 0.610285 0.000000
O O8 0.874936 0.298647 0.083810
O O9 0.250780 0.713566 0.722502
O O10 0.088614 0.767510 0.668141
O O11 0.252916 0.646511 0.563436
O O12 0.114487 0.849821 0.204789
O O13 0.100577 0.094492 0.625777
O O14 0.500000 0.594344 0.500000
O O15 0.310521 0.500000 0.527651
#
# Coordination Sequence:
#
# PCOD9185734 Si02
#       7
#     8   8   4   8   8   8   8
#     4  10  21  36  57  86 123 162 203 254 314 358
#     4  11  24  40  60  89 130 172 207 249 303 370
#     4  10  20  32  57  90 121 158 202 260 310 352
#     4  10  21  39  61  93 122 157 201 264 316 354
#     4  10  19  34  57  90 122 154 204 256 312 355
#     4  11  21  40  65  90 124 163 213 257 305 371
#     4  11  23  40  64  90 121 162 207 260 316 373
#
# _framework density 20.035295000000001
#
# number of rings (size 3 to 8) (size 9 to 14) (size 15 to 20)
#    0.000    1.538    3.077    2.308    1.077    0.615 
#    0.000    1.154    0.000    1.846    0.000    0.000 
#    0.000    0.000    0.000    0.000    0.000    0.000 
#
# Total GULP energy -144945.676859 kJ/mol
# GULP energy per Si atom -5574.833725 kJ/mol
# Density = 1.998969 g / cm^3
# Si number density = 20.035295 Si / 1000 Ang^3
#
#
#
# Elastic Constant Matrix: (Units=GPa)
#
#
# Indices 1 2 3 4 5 6 
#
# 1 101.9555 6.3460 35.7108 0.0000 -2.6863 0.0000
# 2 6.3460 59.7082 39.6980 0.0000 -8.9589 0.0000
# 3 35.7108 39.6980 109.3843 0.0000 3.7501 0.0000
# 4 0.0000 0.0000 0.0000 9.5331 0.0000 1.8046
# 5 -2.6863 -8.9589 3.7501 0.0000 19.6871 0.0000
# 6 0.0000 0.0000 0.0000 1.8046 0.0000 2.0855
#
#
#
# Elastic Compliance Matrix: (Units=1/GPa)
#
#
# Indices 1 2 3 4 5 6 
#
# 1 0.011412 0.002485 -0.004751 0.000000 0.003593 0.000000
# 2 0.002485 0.025632 -0.010594 0.000000 0.014021 0.000000
# 3 -0.004751 -0.010594 0.014822 0.000000 -0.008293 0.000000
# 4 0.000000 0.000000 0.000000 0.125446 0.000000 -0.108549
# 5 0.003593 0.014021 -0.008293 0.000000 0.059245 0.000000
# 6 0.000000 0.000000 0.000000 -0.108549 0.000000 0.573419
#
#
# Mechanical properties :
#
#
# Convention : Reuss Voigt Hill
#
# Bulk Modulus (GPa) = 38.24715 48.28417 43.26566
# Shear Modulus (GPa) = 5.92128 18.88069 12.40099
#
# Velocity S-wave (km/s) = 1.72100 3.07314 2.49058
# Velocity P-wave (km/s) = 4.80421 6.06169 5.46921
#
# Compressibility (1/GPa) = 0.02614574
#
# Stress axis : x y z
#
# Youngs Moduli (GPa) = 87.62559 39.01439 67.46627
#
# Poissons Ratio (x) = -0.09694 0.32051
# Poissons Ratio (y) = -0.21773 0.71475
# Poissons Ratio (z) = 0.41628 0.41333
#
# Static dielectric constant tensor:
#      x y z
#    x 1.729640 0.000000 0.001190 
#    y 0.000000 1.723490 0.000000 
#    z 0.001190 0.000000 1.703660 
# 
# From -- ./inp_files/207608.got.cif
#   From: 2010.05.17/outbox.cif.g08.bks.cpg/sg12_104_cif.got.tgz:207608.got - 2010.06.03 13:09:07.
