data_PCOD9185806
_publ_section_title
;
Structure prediction by ZEFSAII (Michael W. Deem and Ramdas Pophale) SiO2 
 PCOD9185806
Probable space group: C 2/M
;
_chemical_formula_sum "Si O2"
_cell_formula_units_Z 64
_cell_length_a 13.597754
_cell_length_b 14.458385
_cell_length_c 15.472613
_cell_angle_alpha 90.000000
_cell_angle_beta 80.655135
_cell_angle_gamma 90.000000
_cell_volume 3001.569915
_symmetry_space_group_name_H-M "C 2/M"
_symmetry_group_IT_number 12
_symmetry_cell_setting 'monoclinic'
loop_
_space_group_symop_operation_xyz
x,y,z
-x,y,-z
-x,-y,-z
x,-y,z
1/2+x,1/2+y,z
1/2-x,1/2+y,-z
1/2-x,1/2-y,-z
1/2+x,1/2-y,z
loop_
_atom_site_type_symbol
_atom_site_label
_atom_site_fract_x
_atom_site_fract_y
_atom_site_fract_z
Si Si1 0.164022 0.334686 0.271308
Si Si2 0.222853 0.889054 0.414222
Si Si3 0.872924 0.395907 0.250978
Si Si4 0.110007 0.222626 0.004401
Si Si5 0.026560 0.225517 0.398517
Si Si6 0.260271 0.683628 0.862531
Si Si7 0.331142 0.610773 0.383854
Si Si8 0.065172 0.603483 0.127981
O O1 0.179557 0.238913 0.218198
O O2 0.256815 0.361957 0.317393
O O3 0.144415 0.401663 0.194072
O O4 0.066997 0.315764 0.343646
O O5 0.316924 0.856134 0.343135
O O6 0.225072 0.869996 0.516425
O O7 0.121857 0.842676 0.394439
O O8 0.217206 0.000000 0.403578
O O9 0.903750 0.500000 0.269388
O O10 0.793808 0.395130 0.183570
O O11 0.969005 0.353641 0.190751
O O12 0.169827 0.162235 0.066053
O O13 0.096953 0.324206 0.050858
O O14 0.178429 0.244338 0.912466
O O15 0.000000 0.187510 0.000000
O O16 0.933709 0.169354 0.371242
O O17 0.000000 0.251441 0.500000
O O18 0.351928 0.500000 0.378569
O O19 0.044631 0.500000 0.097864
#
# Coordination Sequence:
#
# PCOD9185806 Si02
#       8
#     8   8   8   8   8   8   8   8
#     4  11  23  36  57  83 120 151 185 239 286 338
#     4   9  18  35  56  82 115 152 194 237 276 325
#     4  10  19  34  58  83 113 146 185 231 275 331
#     4  10  20  36  59  79 108 141 176 231 281 338
#     4  10  21  34  56  85 111 149 197 244 276 325
#     4  10  21  36  54  84 109 142 183 225 288 336
#     4  10  22  39  59  81 115 161 198 232 283 339
#     4  10  22  37  57  85 113 146 186 229 280 341
#
# _framework density 21.322175000000001
#
# number of rings (size 3 to 8) (size 9 to 14) (size 15 to 20)
#    0.000    2.000    2.500    0.750    1.750    5.250 
#    0.000    0.000    0.000    4.125    0.000    0.000 
#    0.000    0.000    0.000    0.000    0.000    0.000 
#
# Total GULP energy -178466.271736 kJ/mol
# GULP energy per Si atom -5577.070992 kJ/mol
# Density = 2.127365 g / cm^3
# Si number density = 21.322175 Si / 1000 Ang^3
#
#
#
# Elastic Constant Matrix: (Units=GPa)
#
#
# Indices 1 2 3 4 5 6 
#
# 1 69.0303 -15.6170 14.2661 0.0000 5.5220 0.0000
# 2 -15.6170 29.8003 -10.2882 0.0000 1.6928 0.0000
# 3 14.2661 -10.2882 65.8431 0.0000 -0.7484 0.0000
# 4 0.0000 0.0000 0.0000 9.1952 0.0000 3.7811
# 5 5.5220 1.6928 -0.7484 0.0000 48.3757 0.0000
# 6 0.0000 0.0000 0.0000 3.7811 0.0000 19.1122
#
#
#
# Elastic Compliance Matrix: (Units=1/GPa)
#
#
# Indices 1 2 3 4 5 6 
#
# 1 0.017029 0.008213 -0.002432 0.000000 -0.002269 0.000000
# 2 0.008213 0.039496 0.004366 0.000000 -0.002252 0.000000
# 3 -0.002432 0.004366 0.016401 0.000000 0.000379 0.000000
# 4 0.000000 0.000000 0.000000 0.118383 0.000000 -0.023421
# 5 -0.002269 -0.002252 0.000379 0.000000 0.021015 0.000000
# 6 0.000000 0.000000 0.000000 -0.023421 0.000000 0.056956
#
#
# Mechanical properties :
#
#
# Convention : Reuss Voigt Hill
#
# Bulk Modulus (GPa) = 10.72724 15.71063 13.21894
# Shear Modulus (GPa) = 17.85339 27.09080 22.47209
#
# Velocity S-wave (km/s) = 2.89678 3.56834 3.24995
# Velocity P-wave (km/s) = 4.02870 4.93575 4.50511
#
# Compressibility (1/GPa) = 0.09322058
#
# Stress axis : x y z
#
# Youngs Moduli (GPa) = 58.72474 25.31894 60.97156
#
# Poissons Ratio (x) = -0.20795 0.14828
# Poissons Ratio (y) = -0.48232 -0.26622
# Poissons Ratio (z) = 0.14282 -0.11055
#
# Static dielectric constant tensor:
#      x y z
#    x 1.812990 0.000000 0.016970 
#    y 0.000000 1.796840 0.000000 
#    z 0.016970 0.000000 1.791100 
# 
# From -- ./inp_files/206694.got.cif
#   From: 2010.05.17/outbox.cif.g08.bks.cpg/sg12_104_cif.got.tgz:206694.got - 2010.06.03 13:09:07.
