data_PCOD9185284
_publ_section_title
;
Structure prediction by ZEFSAII (Michael W. Deem and Ramdas Pophale) SiO2 
 PCOD9185284
Probable space group: C 2/M
;
_chemical_formula_sum "Si O2"
_cell_formula_units_Z 56
_cell_length_a 30.828204
_cell_length_b 8.745796
_cell_length_c 18.728968
_cell_angle_alpha 90.000000
_cell_angle_beta 38.294622
_cell_angle_gamma 90.000000
_cell_volume 3129.296196
_symmetry_space_group_name_H-M "C 2/M"
_symmetry_group_IT_number 12
_symmetry_cell_setting 'monoclinic'
loop_
_space_group_symop_operation_xyz
x,y,z
-x,y,-z
-x,-y,-z
x,-y,z
1/2+x,1/2+y,z
1/2-x,1/2+y,-z
1/2-x,1/2-y,-z
1/2+x,1/2-y,z
loop_
_atom_site_type_symbol
_atom_site_label
_atom_site_fract_x
_atom_site_fract_y
_atom_site_fract_z
Si Si1 0.165335 0.682229 0.329055
Si Si2 0.200463 0.317986 0.780488
Si Si3 0.061171 0.317020 0.748012
Si Si4 0.952249 0.182960 0.991964
Si Si5 0.940141 0.824042 0.638801
Si Si6 0.297403 0.682116 0.376060
Si Si7 0.449999 0.183351 0.403620
O O1 0.174736 0.500000 0.319678
O O2 0.238897 0.765254 0.244132
O O3 0.124129 0.729955 0.310813
O O4 0.114274 0.727929 0.461367
O O5 0.194407 0.500000 0.786229
O O6 0.125664 0.244405 0.895457
O O7 0.221679 0.254684 0.675152
O O8 0.070734 0.500000 0.743056
O O9 0.123367 0.229817 0.708035
O O10 0.063248 0.277631 0.661498
O O11 0.989522 0.264504 0.877310
O O12 0.951329 0.000000 0.983734
O O13 0.000000 0.216766 0.000000
O O14 0.000000 0.818268 0.500000
O O15 0.979144 0.756453 0.657104
O O16 0.920320 0.000000 0.675201
O O17 0.289989 0.500000 0.382068
O O18 0.250000 0.750000 0.500000
O O19 0.456369 0.000000 0.400703
#
# Coordination Sequence:
#
# PCOD9185284 Si02
#       7
#     8   8   8   8   8   8   8
#     4  10  19  34  56  82 116 151 184 225 276 334
#     4  12  24  38  58  82 110 145 187 234 280 331
#     4  11  22  37  58  83 111 145 187 234 279 330
#     4  11  23  40  60  80 106 145 192 236 278 332
#     4   9  17  30  51  80 113 147 185 226 269 324
#     4  12  24  38  55  80 113 148 183 224 278 334
#     4   9  19  34  54  82 114 148 183 222 275 333
#
# _framework density 17.895399000000001
#
# number of rings (size 3 to 8) (size 9 to 14) (size 15 to 20)
#    0.000    1.429    1.429    5.143    0.000    5.143 
#    0.000    0.000    0.000    0.857    0.000    0.000 
#    0.000    0.000    0.000    0.000    0.000    0.000 
#
# Total GULP energy -156461.389813 kJ/mol
# GULP energy per Si atom -5587.906779 kJ/mol
# Density = 1.785467 g / cm^3
# Si number density = 17.895399 Si / 1000 Ang^3
#
#
#
# Elastic Constant Matrix: (Units=GPa)
#
#
# Indices 1 2 3 4 5 6 
#
# 1 67.7378 20.2117 -1.8677 0.0042 -20.5883 -0.0020
# 2 20.2117 63.5627 4.6708 -0.0004 -8.6355 -0.0014
# 3 -1.8677 4.6708 51.7278 -0.0094 -18.0992 -0.0006
# 4 0.0042 -0.0004 -0.0094 27.5279 0.0005 -5.2373
# 5 -20.5883 -8.6355 -18.0992 0.0005 22.8121 0.0024
# 6 -0.0020 -0.0014 -0.0006 -5.2373 0.0024 30.6321
#
#
#
# Elastic Compliance Matrix: (Units=1/GPa)
#
#
# Indices 1 2 3 4 5 6 
#
# 1 0.026215 -0.004948 0.012481 -0.000001 0.031688 -0.000001
# 2 -0.004948 0.017554 -0.001386 0.000001 0.001080 0.000000
# 3 0.012481 -0.001386 0.032760 0.000009 0.036731 0.000000
# 4 -0.000001 0.000001 0.000009 0.037548 0.000005 0.006420
# 5 0.031688 0.001080 0.036731 0.000005 0.101987 -0.000004
# 6 -0.000001 0.000000 0.000000 0.006420 -0.000004 0.033743
#
#
# Mechanical properties :
#
#
# Convention : Reuss Voigt Hill
#
# Bulk Modulus (GPa) = 11.25830 25.45087 18.35458
# Shear Modulus (GPa) = 18.71819 26.86200 22.79009
#
# Velocity S-wave (km/s) = 3.23767 3.87855 3.57251
# Velocity P-wave (km/s) = 4.50350 5.85751 5.22455
#
# Compressibility (1/GPa) = 0.08882337
#
# Stress axis : x y z
#
# Youngs Moduli (GPa) = 38.14662 56.96579 30.52538
#
# Poissons Ratio (x) = 0.28185 -0.38098
# Poissons Ratio (y) = 0.18874 0.04230
# Poissons Ratio (z) = -0.47610 0.07894
#
# Static dielectric constant tensor:
#      x y z
#    x 1.603660 0.000000 -0.005380 
#    y 0.000000 1.595030 0.000000 
#    z -0.005380 0.000000 1.614770 
# 
# From -- ./inp_files/281605.got.cif
#   From: 2010.05.17/outbox.cif.g08.bks.cpg/sg12_141_cif.got.tgz:281605.got - 2010.06.03 13:09:07.
