data_PCOD9185278
_publ_section_title
;
Structure prediction by ZEFSAII (Michael W. Deem and Ramdas Pophale) SiO2 
 PCOD9185278
Probable space group: C 2/M
;
_chemical_formula_sum "Si O2"
_cell_formula_units_Z 40
_cell_length_a 16.003049
_cell_length_b 9.038974
_cell_length_c 19.849853
_cell_angle_alpha 90.000000
_cell_angle_beta 36.072079
_cell_angle_gamma 90.000000
_cell_volume 1690.631063
_symmetry_space_group_name_H-M "C 2/M"
_symmetry_group_IT_number 12
_symmetry_cell_setting 'monoclinic'
loop_
_space_group_symop_operation_xyz
x,y,z
-x,y,-z
-x,-y,-z
x,-y,z
1/2+x,1/2+y,z
1/2-x,1/2+y,-z
1/2-x,1/2-y,-z
1/2+x,1/2-y,z
loop_
_atom_site_type_symbol
_atom_site_label
_atom_site_fract_x
_atom_site_fract_y
_atom_site_fract_z
Si Si1 0.200052 0.157460 0.944645
Si Si2 0.770785 0.668451 0.339774
Si Si3 0.032262 0.174677 0.242575
Si Si4 0.385222 0.821920 0.451956
Si Si5 0.407163 0.240613 0.117858
O O1 0.311016 0.286347 0.886167
O O2 0.178439 0.156400 0.877453
O O3 0.257074 0.000000 0.930767
O O4 0.037111 0.180269 0.072338
O O5 0.745913 0.500000 0.377680
O O6 0.646908 0.770675 0.450888
O O7 0.803383 0.671014 0.239165
O O8 0.915407 0.732351 0.278046
O O9 0.014092 0.240948 0.330079
O O10 0.004274 0.000000 0.259550
O O11 0.250000 0.750000 0.500000
O O12 0.390035 0.000000 0.442957
O O13 0.500000 0.152986 0.000000
#
# Coordination Sequence:
#
# PCOD9185278 Si02
#       5
#     8   8   8   8   8
#     4   9  19  38  61  82 112 150 188 232 283 333
#     4  11  21  36  60  86 115 149 189 232 279 336
#     4  11  22  36  57  86 118 148 187 234 281 332
#     4  10  19  34  56  82 114 147 185 230 282 336
#     4   8  21  39  59  84 109 151 185 235 278 337
#
# _framework density 23.659804999999999
#
# number of rings (size 3 to 8) (size 9 to 14) (size 15 to 20)
#    1.200    0.800    0.000    7.800    0.000    6.000 
#    0.000    1.000    0.000    4.800    0.000    0.000 
#    0.000    0.000    0.000    0.000    0.000    0.000 
#
# Total GULP energy -111345.364386 kJ/mol
# GULP energy per Si atom -5567.268219 kJ/mol
# Density = 2.360595 g / cm^3
# Si number density = 23.659805 Si / 1000 Ang^3
#
#
#
# Elastic Constant Matrix: (Units=GPa)
#
#
# Indices 1 2 3 4 5 6 
#
# 1 45.2641 -0.1103 -2.2438 0.0000 -7.3832 0.0000
# 2 -0.1103 160.0674 5.3263 0.0000 6.7015 0.0000
# 3 -2.2438 5.3263 99.2952 0.0000 28.3527 0.0000
# 4 0.0000 0.0000 0.0000 78.3861 0.0000 -41.5048
# 5 -7.3832 6.7015 28.3527 0.0000 34.0820 0.0000
# 6 0.0000 0.0000 0.0000 -41.5048 0.0000 40.2570
#
#
#
# Elastic Compliance Matrix: (Units=1/GPa)
#
#
# Indices 1 2 3 4 5 6 
#
# 1 0.023014 -0.000196 -0.001186 0.000000 0.006010 0.000000
# 2 -0.000196 0.006301 0.000031 0.000000 -0.001307 0.000000
# 3 -0.001186 0.000031 0.013270 0.000000 -0.011302 0.000000
# 4 0.000000 0.000000 0.000000 0.028094 0.000000 0.028965
# 5 0.006010 -0.001307 -0.011302 0.000000 0.040302 0.000000
# 6 0.000000 0.000000 0.000000 0.028965 0.000000 0.054703
#
#
# Mechanical properties :
#
#
# Convention : Reuss Voigt Hill
#
# Bulk Modulus (GPa) = 25.07397 34.50789 29.79093
# Shear Modulus (GPa) = 27.52100 50.65533 39.08816
#
# Velocity S-wave (km/s) = 3.41427 4.63210 4.06900
# Velocity P-wave (km/s) = 5.11504 6.57458 5.89020
#
# Compressibility (1/GPa) = 0.03988200
#
# Stress axis : x y z
#
# Youngs Moduli (GPa) = 43.45240 158.70670 75.35992
#
# Poissons Ratio (x) = 0.03116 0.08935
# Poissons Ratio (y) = 0.00853 -0.00232
# Poissons Ratio (z) = 0.05152 -0.00489
#
# Static dielectric constant tensor:
#      x y z
#    x 1.971740 0.000000 0.071250 
#    y 0.000000 1.854650 0.000000 
#    z 0.071250 0.000000 2.033900 
# 
# From -- ./inp_files/318957.got.cif
#   From: 2010.05.17/outbox.cif.g08.bks.cpg/sg12_160_cif.got.tgz:318957.got - 2010.06.03 13:09:07.
