data_PCOD9185574
_publ_section_title
;
Structure prediction by ZEFSAII (Michael W. Deem and Ramdas Pophale) SiO2 
 PCOD9185574
Probable space group: C 2/M
;
_chemical_formula_sum "Si O2"
_cell_formula_units_Z 64
_cell_length_a 20.097707
_cell_length_b 7.781572
_cell_length_c 31.860947
_cell_angle_alpha 90.000000
_cell_angle_beta 141.882160
_cell_angle_gamma 90.000000
_cell_volume 3075.780571
_symmetry_space_group_name_H-M "C 2/M"
_symmetry_group_IT_number 12
_symmetry_cell_setting 'monoclinic'
loop_
_space_group_symop_operation_xyz
x,y,z
-x,y,-z
-x,-y,-z
x,-y,z
1/2+x,1/2+y,z
1/2-x,1/2+y,-z
1/2-x,1/2-y,-z
1/2+x,1/2-y,z
loop_
_atom_site_type_symbol
_atom_site_label
_atom_site_fract_x
_atom_site_fract_y
_atom_site_fract_z
Si Si1 0.500269 0.305085 0.546484
Si Si2 0.241068 0.293732 0.947156
Si Si3 0.774872 0.301229 0.464978
Si Si4 0.366722 0.706476 0.812420
Si Si5 0.009217 0.707691 0.802742
Si Si6 0.527187 0.289498 0.966342
Si Si7 0.043402 0.291192 0.317726
Si Si8 0.620598 0.795988 0.690715
O O1 0.500000 0.221946 0.500000
O O2 0.540894 0.500000 0.561731
O O3 0.376152 0.303500 0.498798
O O4 0.568805 0.228950 0.618939
O O5 0.239399 0.500000 0.940820
O O6 0.127599 0.226928 0.874104
O O7 0.250000 0.250000 0.000000
O O8 0.351418 0.229642 0.981872
O O9 0.806997 0.500000 0.479116
O O10 0.750000 0.250000 0.500000
O O11 0.664078 0.270681 0.386009
O O12 0.361697 0.500000 0.813892
O O13 0.423256 0.743297 0.795828
O O14 0.444028 0.768739 0.888811
O O15 0.243377 0.772319 0.753569
O O16 0.011279 0.500000 0.803346
O O17 0.986579 0.764040 0.744081
O O18 0.526182 0.500000 0.964284
O O19 0.500000 0.238184 0.000000
O O20 0.043866 0.500000 0.319529
O O21 0.960830 0.230095 0.313302
O O22 0.627755 0.000000 0.701465
#
# Coordination Sequence:
#
# PCOD9185574 Si02
#       8
#     8   8   8   8   8   8   8   8
#     4  11  25  43  64  90 121 158 199 244 297 355
#     4  10  19  34  57  83 112 149 193 241 291 346
#     4  12  24  41  66  92 120 155 199 249 299 354
#     4  10  21  37  57  85 117 152 196 244 293 346
#     4  10  22  37  57  84 117 156 195 238 294 354
#     4   9  18  32  55  84 113 147 192 243 289 340
#     4  10  22  40  60  86 119 157 198 242 294 352
#     4  10  22  39  60  85 117 155 196 244 294 349
#
# _framework density 20.807728000000001
#
# number of rings (size 3 to 8) (size 9 to 14) (size 15 to 20)
#    0.000    1.750    2.500    1.500    3.500    2.000 
#    0.000    0.000    0.000    1.500    0.000    0.000 
#    0.000    0.000    0.000    0.000    0.000    0.000 
#
# Total GULP energy -178683.559276 kJ/mol
# GULP energy per Si atom -5583.861227 kJ/mol
# Density = 2.076037 g / cm^3
# Si number density = 20.807728 Si / 1000 Ang^3
#
#
#
# Elastic Constant Matrix: (Units=GPa)
#
#
# Indices 1 2 3 4 5 6 
#
# 1 126.9953 -10.0631 48.9183 0.0001 -1.5151 0.0002
# 2 -10.0631 35.0929 -2.7943 0.0001 -0.0884 0.0006
# 3 48.9183 -2.7943 142.5650 0.0000 0.2843 0.0000
# 4 0.0001 0.0001 0.0000 13.9094 0.0000 -3.6281
# 5 -1.5151 -0.0884 0.2843 0.0000 43.1762 0.0000
# 6 0.0002 0.0006 0.0000 -3.6281 0.0000 19.9472
#
#
#
# Elastic Compliance Matrix: (Units=1/GPa)
#
#
# Indices 1 2 3 4 5 6 
#
# 1 0.009278 0.002412 -0.003137 0.000000 0.000351 0.000000
# 2 0.002412 0.029167 -0.000256 0.000000 0.000146 -0.000001
# 3 -0.003137 -0.000256 0.008086 0.000000 -0.000164 0.000000
# 4 0.000000 0.000000 0.000000 0.075475 0.000000 0.013728
# 5 0.000351 0.000146 -0.000164 0.000000 0.023175 0.000000
# 6 0.000000 -0.000001 0.000000 0.013728 0.000000 0.052629
#
#
# Mechanical properties :
#
#
# Convention : Reuss Voigt Hill
#
# Bulk Modulus (GPa) = 22.43743 41.86388 32.15065
# Shear Modulus (GPa) = 23.29603 33.31271 28.30437
#
# Velocity S-wave (km/s) = 3.34965 4.00556 3.69220
# Velocity P-wave (km/s) = 5.07611 6.44638 5.80184
#
# Compressibility (1/GPa) = 0.04456839
#
# Stress axis : x y z
#
# Youngs Moduli (GPa) = 107.78244 34.28496 123.66993
#
# Poissons Ratio (x) = -0.08268 0.38795
# Poissons Ratio (y) = -0.25993 0.03167
# Poissons Ratio (z) = 0.33811 0.00878
#
# Static dielectric constant tensor:
#      x y z
#    x 0.848280 -0.000010 -0.100980 
#    y -0.000010 1.783620 0.000000 
#    z -0.100980 0.000000 1.701990 
# 
# From -- ./inp_files/378537.got.cif
#   From: 2010.05.17/outbox.cif.g08.bks.cpg/sg12_190_cif.got.tgz:378537.got - 2010.06.03 13:09:07.
