data_PCOD9185935
_publ_section_title
;
Structure prediction by ZEFSAII (Michael W. Deem and Ramdas Pophale) SiO2 
 PCOD9185935
Probable space group: C 2/M
;
_chemical_formula_sum "Si O2"
_cell_formula_units_Z 32
_cell_length_a 14.194309
_cell_length_b 11.427076
_cell_length_c 9.005759
_cell_angle_alpha 90.000000
_cell_angle_beta 108.849428
_cell_angle_gamma 90.000000
_cell_volume 1382.391540
_symmetry_space_group_name_H-M "C 2/M"
_symmetry_group_IT_number 12
_symmetry_cell_setting 'monoclinic'
loop_
_space_group_symop_operation_xyz
x,y,z
-x,y,-z
-x,-y,-z
x,-y,z
1/2+x,1/2+y,z
1/2-x,1/2+y,-z
1/2-x,1/2-y,-z
1/2+x,1/2-y,z
loop_
_atom_site_type_symbol
_atom_site_label
_atom_site_fract_x
_atom_site_fract_y
_atom_site_fract_z
Si Si1 0.407467 0.740412 0.552364
Si Si2 0.264776 0.370982 0.695204
Si Si3 0.033552 0.629734 0.843866
Si Si4 0.102686 0.128792 0.956144
O O1 0.500000 0.702497 0.500000
O O2 0.360805 0.645749 0.638305
O O3 0.318486 0.782504 0.401913
O O4 0.445189 0.844505 0.681701
O O5 0.223925 0.500000 0.653120
O O6 0.307538 0.358936 0.881661
O O7 0.076222 0.500000 0.835843
O O8 0.096366 0.749898 0.863919
O O9 0.000000 0.627147 0.000000
O O10 0.111490 0.000000 0.886172
O O11 0.000000 0.124496 0.000000
#
# Coordination Sequence:
#
# PCOD9185935 Si02
#       4
#     8   8   8   8
#     4  11  23  39  61  92 124 158 205 258 307 363
#     4  10  21  39  63  87 120 166 206 247 308 372
#     4  10  19  34  58  86 119 158 199 249 308 359
#     4   9  16  33  60  84 112 159 206 241 296 367
#
# _framework density 23.148291
#
# number of rings (size 3 to 8) (size 9 to 14) (size 15 to 20)
#    0.000    2.000    5.000    0.750    0.000    2.500 
#    0.000    1.250    0.000    0.000    0.000    0.000 
#    0.000    0.000    0.000    0.000    0.000    0.000 
#
# Total GULP energy -89281.292982 kJ/mol
# GULP energy per Si atom -5580.080811 kJ/mol
# Density = 2.309560 g / cm^3
# Si number density = 23.148291 Si / 1000 Ang^3
#
#
#
# Elastic Constant Matrix: (Units=GPa)
#
#
# Indices 1 2 3 4 5 6 
#
# 1 99.0803 7.0492 19.8688 0.0000 -12.9862 0.0000
# 2 7.0492 171.3673 30.3702 0.0000 7.3459 0.0000
# 3 19.8688 30.3702 86.7393 0.0000 11.2300 0.0000
# 4 0.0000 0.0000 0.0000 2.4563 0.0000 4.8386
# 5 -12.9862 7.3459 11.2300 0.0000 38.5038 0.0000
# 6 0.0000 0.0000 0.0000 4.8386 0.0000 -18.8443
#
#
#
# Elastic Compliance Matrix: (Units=1/GPa)
#
#
# Indices 1 2 3 4 5 6 
#
# 1 0.011366 -0.000108 -0.003185 0.000000 0.004783 0.000000
# 2 -0.000108 0.006235 -0.002078 0.000000 -0.000620 0.000000
# 3 -0.003185 -0.002078 0.013587 0.000000 -0.004640 0.000000
# 4 0.000000 0.000000 0.000000 0.270366 0.000000 0.069421
# 5 0.004783 -0.000620 -0.004640 0.000000 0.029056 0.000000
# 6 0.000000 0.000000 0.000000 0.069421 0.000000 -0.035242
#
#
# Mechanical properties :
#
#
# Convention : Reuss Voigt Hill
#
# Bulk Modulus (GPa) = 48.91061 52.41814 50.66437
# Shear Modulus (GPa) = 15.97826 24.41643 20.19734
#
# Velocity S-wave (km/s) = 2.63012 3.25127 2.95705
# Velocity P-wave (km/s) = 5.51349 6.06531 5.79597
#
# Compressibility (1/GPa) = 0.02044546
#
# Stress axis : x y z
#
# Youngs Moduli (GPa) = 87.98090 160.39271 73.60143
#
# Poissons Ratio (x) = 0.01734 0.23442
# Poissons Ratio (y) = 0.00951 0.15294
# Poissons Ratio (z) = 0.28021 0.33329
#
# Static dielectric constant tensor:
#      x y z
#    x 1.890460 0.000000 0.005860 
#    y 0.000000 1.860050 0.000000 
#    z 0.005860 0.000000 1.856450 
# 
# From -- ./inp_files/56992.got.cif
#   From: 2010.05.17/outbox.cif.g08.bks.cpg/sg12_29_cif.got.tgz:56992.got - 2010.06.03 13:09:07.
