data_PCOD9185923
_publ_section_title
;
Structure prediction by ZEFSAII (Michael W. Deem and Ramdas Pophale) SiO2 
 PCOD9185923
Probable space group: C 2/M
;
_chemical_formula_sum "Si O2"
_cell_formula_units_Z 40
_cell_length_a 14.716764
_cell_length_b 16.325951
_cell_length_c 20.812939
_cell_angle_alpha 90.000000
_cell_angle_beta 157.786643
_cell_angle_gamma 90.000000
_cell_volume 1890.519109
_symmetry_space_group_name_H-M "C 2/M"
_symmetry_group_IT_number 12
_symmetry_cell_setting 'monoclinic'
loop_
_space_group_symop_operation_xyz
x,y,z
-x,y,-z
-x,-y,-z
x,-y,z
1/2+x,1/2+y,z
1/2-x,1/2+y,-z
1/2-x,1/2-y,-z
1/2+x,1/2-y,z
loop_
_atom_site_type_symbol
_atom_site_label
_atom_site_fract_x
_atom_site_fract_y
_atom_site_fract_z
Si Si1 0.300546 0.408401 0.321673
Si Si2 0.518441 0.793034 0.819869
Si Si3 0.377996 0.162845 0.484474
Si Si4 0.566900 0.408762 0.738076
Si Si5 0.781556 0.722621 0.177078
O O1 0.500000 0.375407 0.500000
O O2 0.239763 0.500000 0.302274
O O3 0.071019 0.354000 0.183856
O O4 0.414843 0.411919 0.326818
O O5 0.301413 0.731903 0.660967
O O6 0.600002 0.828123 0.804123
O O7 0.750000 0.750000 0.000000
O O8 0.500000 0.126790 0.500000
O O9 0.567834 0.202397 0.659481
O O10 0.198001 0.103224 0.405621
O O11 0.662283 0.500000 0.822077
O O12 0.690068 0.318542 0.826214
O O13 0.500000 0.705086 0.000000
#
# Coordination Sequence:
#
# PCOD9185923 Si02
#       5
#     8   8   8   8   8
#     4  10  19  34  58  86 116 147 184 235 290 339
#     4  11  21  36  59  87 117 151 191 234 285 343
#     4  11  22  38  59  83 115 154 195 235 278 336
#     4  10  21  36  56  84 116 149 186 234 288 339
#     4  11  22  38  61  87 115 149 193 238 281 338
#
# _framework density 21.158208999999999
#
# number of rings (size 3 to 8) (size 9 to 14) (size 15 to 20)
#    0.000    1.400    0.000    9.000    0.000    0.800 
#    0.000    6.000    0.000    4.800    0.000    0.000 
#    0.000    0.000    0.000    0.000    0.000    0.000 
#
# Total GULP energy -111466.063672 kJ/mol
# GULP energy per Si atom -5573.303184 kJ/mol
# Density = 2.111005 g / cm^3
# Si number density = 21.158209 Si / 1000 Ang^3
#
#
#
# Elastic Constant Matrix: (Units=GPa)
#
#
# Indices 1 2 3 4 5 6 
#
# 1 162.1481 29.1400 42.0240 0.0120 17.1587 0.0172
# 2 29.1400 66.9380 20.0607 0.0628 7.3840 0.0249
# 3 42.0240 20.0607 107.1692 0.0126 -5.6240 0.0180
# 4 0.0120 0.0628 0.0126 -12.7717 0.0114 -44.0630
# 5 17.1587 7.3840 -5.6240 0.0114 40.7585 -0.0063
# 6 0.0172 0.0249 0.0180 -44.0630 -0.0063 -51.4893
#
#
#
# Elastic Compliance Matrix: (Units=1/GPa)
#
#
# Indices 1 2 3 4 5 6 
#
# 1 0.007601 -0.002133 -0.002749 0.000006 -0.003193 -0.000004
# 2 -0.002133 0.016879 -0.002454 -0.000027 -0.002499 0.000030
# 3 -0.002749 -0.002454 0.011032 0.000003 0.003124 -0.000001
# 4 0.000006 -0.000027 0.000003 0.040103 -0.000014 -0.034319
# 5 -0.003193 -0.002499 0.003124 -0.000014 0.026763 0.000007
# 6 -0.000004 0.000030 -0.000001 -0.034319 0.000007 0.009947
#
#
# Mechanical properties :
#
#
# Convention : Reuss Voigt Hill
#
# Bulk Modulus (GPa) = 47.98450 57.63386 52.80918
# Shear Modulus (GPa) = 37.32936 11.63487 24.48211
#
# Velocity S-wave (km/s) = 4.20491 2.34754 3.40530
# Velocity P-wave (km/s) = 6.80464 5.88613 6.36198
#
# Compressibility (1/GPa) = 0.02084006
#
# Stress axis : x y z
#
# Youngs Moduli (GPa) = 131.56583 59.24578 90.64330
#
# Poissons Ratio (x) = 0.12636 0.24916
# Poissons Ratio (y) = 0.28061 0.22246
# Poissons Ratio (z) = 0.36164 0.14540
#
# Static dielectric constant tensor:
#      x y z
#    x 2.098140 -0.000380 0.424360 
#    y -0.000380 1.813130 -0.000620 
#    z 0.424360 -0.000620 2.463020 
# 
# From -- ./inp_files/311798.got.cif
#   From: 2010.05.17/outbox.cif.g08.bks.cpg/sg12_156_cif.got.tgz:311798.got - 2010.06.03 13:09:07.
