data_PCOD9185025
_publ_section_title
;
Structure prediction by ZEFSAII (Michael W. Deem and Ramdas Pophale) SiO2 
 PCOD9185025
Probable space group: C 2/M
;
_chemical_formula_sum "Si O2"
_cell_formula_units_Z 64
_cell_length_a 22.936065
_cell_length_b 17.658974
_cell_length_c 24.344304
_cell_angle_alpha 90.000000
_cell_angle_beta 158.326028
_cell_angle_gamma 90.000000
_cell_volume 3641.581394
_symmetry_space_group_name_H-M "C 2/M"
_symmetry_group_IT_number 12
_symmetry_cell_setting 'monoclinic'
loop_
_space_group_symop_operation_xyz
x,y,z
-x,y,-z
-x,-y,-z
x,-y,z
1/2+x,1/2+y,z
1/2-x,1/2+y,-z
1/2-x,1/2-y,-z
1/2+x,1/2-y,z
loop_
_atom_site_type_symbol
_atom_site_label
_atom_site_fract_x
_atom_site_fract_y
_atom_site_fract_z
Si Si1 0.653402 0.915231 0.540071
Si Si2 0.661171 0.311390 0.961503
Si Si3 0.886728 0.815928 0.548189
Si Si4 0.925162 0.914110 0.686815
Si Si5 0.368949 0.819061 0.246658
Si Si6 0.814751 0.283670 0.829169
Si Si7 0.168861 0.770467 0.277391
Si Si8 0.930700 0.087633 0.377941
O O1 0.485340 0.882800 0.372902
O O2 0.740555 0.850599 0.651710
O O3 0.777030 0.918902 0.598029
O O4 0.639739 0.000000 0.551527
O O5 0.573887 0.374627 0.847644
O O6 0.515322 0.277554 0.869614
O O7 0.750000 0.250000 0.000000
O O8 0.778361 0.341757 0.111618
O O9 0.742473 0.771207 0.394744
O O10 0.868492 0.860069 0.588442
O O11 0.020478 0.752178 0.672354
O O12 0.943551 0.877417 0.553728
O O13 0.964735 0.000000 0.703824
O O14 0.256733 0.784538 0.196310
O O15 0.793400 0.272184 0.745522
O O16 0.722311 0.359960 0.763194
O O17 0.000000 0.288848 0.000000
O O18 0.000000 0.094813 0.500000
O O19 0.898871 0.000000 0.339058
#
# Coordination Sequence:
#
# PCOD9185025 Si02
#       8
#     8   8   8   8   8   8   8   8
#     4   9  21  38  57  81 109 141 180 230 285 325
#     4  11  21  35  56  84 111 143 185 224 273 324
#     4  10  19  34  55  82 109 145 186 226 262 322
#     4  10  21  36  56  79 112 150 182 225 278 330
#     4  10  21  34  59  83 109 141 183 230 267 328
#     4  11  21  38  57  82 112 146 185 223 277 330
#     4  10  21  36  59  82 110 144 185 228 271 329
#     4  10  20  34  55  81 111 145 182 225 269 315
#
# _framework density 17.574781999999999
#
# number of rings (size 3 to 8) (size 9 to 14) (size 15 to 20)
#    0.000    1.875    3.750    0.375    1.750    2.250 
#    0.000    1.250    0.000    1.500    0.000    0.000 
#    0.000    0.000    0.000    0.000    0.000    0.000 
#
# Total GULP energy -178317.755610 kJ/mol
# GULP energy per Si atom -5572.429863 kJ/mol
# Density = 1.753478 g / cm^3
# Si number density = 17.574782 Si / 1000 Ang^3
#
#
#
# Elastic Constant Matrix: (Units=GPa)
#
#
# Indices 1 2 3 4 5 6 
#
# 1 15.9316 2.9666 2.8887 0.0040 -9.1373 0.0001
# 2 2.9666 88.7802 22.1879 -0.0115 2.4967 -0.0031
# 3 2.8887 22.1879 80.6837 -0.0027 7.1276 0.0000
# 4 0.0040 -0.0115 -0.0027 6.3721 -0.0012 -1.5938
# 5 -9.1373 2.4967 7.1276 -0.0012 21.0973 0.0005
# 6 0.0001 -0.0031 0.0000 -1.5938 0.0005 15.3499
#
#
#
# Elastic Compliance Matrix: (Units=1/GPa)
#
#
# Indices 1 2 3 4 5 6 
#
# 1 0.087357 -0.002556 -0.005972 -0.000057 0.040155 -0.000008
# 2 -0.002556 0.012172 -0.003124 0.000023 -0.001492 0.000005
# 3 -0.005972 -0.003124 0.014083 0.000003 -0.006975 0.000000
# 4 -0.000057 0.000023 0.000003 0.161118 -0.000020 0.016729
# 5 0.040155 -0.001492 -0.006975 -0.000020 0.067323 -0.000005
# 6 -0.000008 0.000005 0.000000 0.016729 -0.000005 0.066884
#
#
# Mechanical properties :
#
#
# Convention : Reuss Voigt Hill
#
# Bulk Modulus (GPa) = 11.07314 26.83132 18.95223
# Shear Modulus (GPa) = 10.81447 19.05402 14.93425
#
# Velocity S-wave (km/s) = 2.48330 3.29624 2.91822
# Velocity P-wave (km/s) = 3.81269 5.45775 4.70764
#
# Compressibility (1/GPa) = 0.09030860
#
# Stress axis : x y z
#
# Youngs Moduli (GPa) = 11.44727 82.15670 71.00705
#
# Poissons Ratio (x) = 0.20997 0.42405
# Poissons Ratio (y) = 0.02926 0.22182
# Poissons Ratio (z) = 0.06836 0.25665
#
# Static dielectric constant tensor:
#      x y z
#    x 1.607580 0.000000 -0.013300 
#    y 0.000000 1.605700 0.000000 
#    z -0.013300 0.000000 1.600930 
# 
# From -- ./inp_files/97729.got.cif
#   From: 2010.05.17/outbox.cif.g08.bks.cpg/sg12_49_cif.got.tgz:97729.got - 2010.06.03 13:09:07.
