data_PCOD9185784
_publ_section_title
;
Structure prediction by ZEFSAII (Michael W. Deem and Ramdas Pophale) SiO2 
 PCOD9185784
Probable space group: C 2/M
;
_chemical_formula_sum "Si O2"
_cell_formula_units_Z 56
_cell_length_a 14.149494
_cell_length_b 23.310853
_cell_length_c 14.359325
_cell_angle_alpha 90.000000
_cell_angle_beta 140.123046
_cell_angle_gamma 90.000000
_cell_volume 3036.593465
_symmetry_space_group_name_H-M "C 2/M"
_symmetry_group_IT_number 12
_symmetry_cell_setting 'monoclinic'
loop_
_space_group_symop_operation_xyz
x,y,z
-x,y,-z
-x,-y,-z
x,-y,z
1/2+x,1/2+y,z
1/2-x,1/2+y,-z
1/2-x,1/2-y,-z
1/2+x,1/2-y,z
loop_
_atom_site_type_symbol
_atom_site_label
_atom_site_fract_x
_atom_site_fract_y
_atom_site_fract_z
Si Si1 0.283091 0.822736 0.595079
Si Si2 0.370574 0.066551 0.583313
Si Si3 0.872808 0.936372 0.762745
Si Si4 0.499744 0.271164 0.716018
Si Si5 0.340153 0.250131 0.336424
Si Si6 0.076322 0.831722 0.956913
Si Si7 0.331141 0.874152 0.257448
O O1 0.320064 0.889682 0.626260
O O2 0.418200 0.790318 0.646082
O O3 0.133073 0.812224 0.421964
O O4 0.264907 0.787169 0.677220
O O5 0.239004 0.067365 0.408368
O O6 0.513914 0.096102 0.645116
O O7 0.398011 0.000000 0.629108
O O8 0.773479 0.922304 0.777432
O O9 0.995963 0.888113 0.856977
O O10 0.935400 0.000000 0.814248
O O11 0.639878 0.272028 0.753691
O O12 0.547904 0.284982 0.856684
O O13 0.500000 0.261076 0.500000
O O14 0.324283 0.181083 0.322123
O O15 0.245208 0.848244 0.103766
O O16 0.000000 0.817473 0.000000
#
# Coordination Sequence:
#
# PCOD9185784 Si02
#       7
#     8   8   8   8   8   8   8
#     4  10  19  34  58  83 107 149 188 233 286 328
#     4  11  21  35  56  82 114 147 190 236 275 329
#     4  10  20  34  53  75 108 150 188 224 272 335
#     4  10  19  35  57  80 112 143 188 234 281 335
#     4  10  20  33  57  82 109 144 185 238 278 333
#     4  10  21  34  53  80 118 147 179 226 280 347
#     4  11  21  33  51  85 116 142 182 226 287 343
#
# _framework density 18.441717000000001
#
# number of rings (size 3 to 8) (size 9 to 14) (size 15 to 20)
#    0.000    1.714    2.857    3.429    2.000    4.857 
#    0.000    0.000    0.000    4.714    0.000    1.000 
#    0.000    0.000    0.000    0.000    0.000    0.000 
#
# Total GULP energy -156082.266722 kJ/mol
# GULP energy per Si atom -5574.366669 kJ/mol
# Density = 1.839974 g / cm^3
# Si number density = 18.441717 Si / 1000 Ang^3
#
#
#
# Elastic Constant Matrix: (Units=GPa)
#
#
# Indices 1 2 3 4 5 6 
#
# 1 47.1948 28.9385 12.3023 0.0000 -11.5103 0.0000
# 2 28.9385 116.0394 18.9132 0.0000 -4.8738 0.0000
# 3 12.3023 18.9132 51.5026 0.0000 -10.8290 0.0000
# 4 0.0000 0.0000 0.0000 21.5978 0.0000 -1.5432
# 5 -11.5103 -4.8738 -10.8290 0.0000 19.6606 0.0000
# 6 0.0000 0.0000 0.0000 -1.5432 0.0000 21.5593
#
#
#
# Elastic Compliance Matrix: (Units=1/GPa)
#
#
# Indices 1 2 3 4 5 6 
#
# 1 0.029061 -0.006385 -0.001529 0.000000 0.014588 0.000000
# 2 -0.006385 0.010573 -0.002932 0.000000 -0.002732 0.000000
# 3 -0.001529 -0.002932 0.023205 0.000000 0.011159 0.000000
# 4 0.000000 0.000000 0.000000 0.046539 0.000000 0.003331
# 5 0.014588 -0.002732 0.011159 0.000000 0.064873 0.000000
# 6 0.000000 0.000000 0.000000 0.003331 0.000000 0.046622
#
#
# Mechanical properties :
#
#
# Convention : Reuss Voigt Hill
#
# Bulk Modulus (GPa) = 24.30410 37.22717 30.76563
# Shear Modulus (GPa) = 19.50979 22.86905 21.18942
#
# Velocity S-wave (km/s) = 3.25609 3.52529 3.39336
# Velocity P-wave (km/s) = 5.22912 6.06633 5.66322
#
# Compressibility (1/GPa) = 0.04114533
#
# Stress axis : x y z
#
# Youngs Moduli (GPa) = 34.41077 94.57789 43.09440
#
# Poissons Ratio (x) = 0.60391 0.06591
# Poissons Ratio (y) = 0.21972 0.12635
# Poissons Ratio (z) = 0.05263 0.27731
#
# Static dielectric constant tensor:
#      x y z
#    x 1.715340 0.000000 -0.000440 
#    y 0.000000 1.655460 0.000000 
#    z -0.000440 0.000000 1.682500 
# 
# From -- ./inp_files/79163.got.cif
#   From: 2010.05.17/outbox.cif.g08.bks.cpg/sg12_40_cif.got.tgz:79163.got - 2010.06.03 13:09:07.
