data_PCOD9185735
_publ_section_title
;
Structure prediction by ZEFSAII (Michael W. Deem and Ramdas Pophale) SiO2 
 PCOD9185735
Probable space group: C 2/M
;
_chemical_formula_sum "Si O2"
_cell_formula_units_Z 56
_cell_length_a 16.988637
_cell_length_b 17.238766
_cell_length_c 27.119346
_cell_angle_alpha 90.000000
_cell_angle_beta 160.266320
_cell_angle_gamma 90.000000
_cell_volume 2681.692052
_symmetry_space_group_name_H-M "C 2/M"
_symmetry_group_IT_number 12
_symmetry_cell_setting 'monoclinic'
loop_
_space_group_symop_operation_xyz
x,y,z
-x,y,-z
-x,-y,-z
x,-y,z
1/2+x,1/2+y,z
1/2-x,1/2+y,-z
1/2-x,1/2-y,-z
1/2+x,1/2-y,z
loop_
_atom_site_type_symbol
_atom_site_label
_atom_site_fract_x
_atom_site_fract_y
_atom_site_fract_z
Si Si1 0.226659 0.648425 0.840737
Si Si2 0.797150 0.320939 0.919892
Si Si3 0.350591 0.827101 0.788956
Si Si4 0.455966 0.204285 0.590125
Si Si5 0.142821 0.589882 0.308371
Si Si6 0.951992 0.913860 0.578087
Si Si7 0.654154 0.590396 0.369446
O O1 0.206281 0.737789 0.847160
O O2 0.092965 0.649183 0.709740
O O3 0.093797 0.593387 0.799968
O O4 0.500000 0.631319 0.000000
O O5 0.584296 0.380706 0.795760
O O6 0.000000 0.343544 0.000000
O O7 0.918714 0.310303 0.044356
O O8 0.380248 0.849742 0.749940
O O9 0.153947 0.763930 0.687826
O O10 0.227133 0.904116 0.737695
O O11 0.250000 0.250000 0.500000
O O12 0.356871 0.154639 0.485724
O O13 0.192070 0.500000 0.321287
O O14 0.334118 0.623424 0.460130
O O15 0.887247 0.899579 0.596042
O O16 0.868933 0.000000 0.520625
O O17 0.705478 0.500000 0.389131
#
# Coordination Sequence:
#
# PCOD9185735 Si02
#       7
#     8   8   8   8   8   8   8
#     4  11  21  40  66  92 125 165 219 271 315 383
#     4  11  20  38  59  93 123 164 223 271 313 378
#     4  12  22  37  63  92 129 170 208 265 325 384
#     4  12  19  37  64  91 126 168 221 264 311 383
#     4  11  25  41  61  96 135 167 206 264 337 396
#     4  10  19  34  57  90 127 159 200 257 321 375
#     4  11  22  35  61  94 125 168 217 271 319 368
#
# _framework density 20.882338000000001
#
# number of rings (size 3 to 8) (size 9 to 14) (size 15 to 20)
#    0.000    0.857    8.571    0.857    0.000    3.429 
#    0.000    0.000    0.000    0.000    0.000    1.000 
#    0.000    0.000    0.000    0.000    0.000    0.000 
#
# Total GULP energy -156007.600398 kJ/mol
# GULP energy per Si atom -5571.700014 kJ/mol
# Density = 2.083481 g / cm^3
# Si number density = 20.882338 Si / 1000 Ang^3
#
#
#
# Elastic Constant Matrix: (Units=GPa)
#
#
# Indices 1 2 3 4 5 6 
#
# 1 43.3012 15.5549 8.8071 -0.0200 -4.8139 -0.0002
# 2 15.5549 72.4989 39.9116 -0.0027 2.7225 -0.0011
# 3 8.8071 39.9116 122.7136 -0.0352 -3.4665 0.0040
# 4 -0.0200 -0.0027 -0.0352 22.1188 0.0198 1.0492
# 5 -4.8139 2.7225 -3.4665 0.0198 23.5246 0.0009
# 6 -0.0002 -0.0011 0.0040 1.0492 0.0009 18.4949
#
#
#
# Elastic Compliance Matrix: (Units=1/GPa)
#
#
# Indices 1 2 3 4 5 6 
#
# 1 0.025832 -0.005896 0.000233 0.000018 0.006003 -0.000001
# 2 -0.005896 0.018328 -0.005655 -0.000009 -0.004161 0.000003
# 3 0.000233 -0.005655 0.010033 0.000014 0.002181 -0.000003
# 4 0.000018 -0.000009 0.000014 0.045332 -0.000031 -0.002572
# 5 0.006003 -0.004161 0.002181 -0.000031 0.044540 -0.000001
# 6 -0.000001 0.000003 -0.000003 -0.002572 -0.000001 0.054215
#
#
# Mechanical properties :
#
#
# Convention : Reuss Voigt Hill
#
# Bulk Modulus (GPa) = 31.68899 40.78455 36.23677
# Shear Modulus (GPa) = 21.60422 24.44365 23.02394
#
# Velocity S-wave (km/s) = 3.21996 3.42503 3.32408
# Velocity P-wave (km/s) = 5.38815 5.93415 5.66773
#
# Compressibility (1/GPa) = 0.03155671
#
# Stress axis : x y z
#
# Youngs Moduli (GPa) = 38.71165 54.56137 99.66813
#
# Poissons Ratio (x) = 0.32170 -0.02325
# Poissons Ratio (y) = 0.22825 0.56366
# Poissons Ratio (z) = -0.00903 0.30857
#
# Static dielectric constant tensor:
#      x y z
#    x 1.805710 0.000020 0.019140 
#    y 0.000020 1.909290 -0.000020 
#    z 0.019140 -0.000020 1.805460 
# 
# From -- ./inp_files/364513.got.cif
#   From: 2010.05.17/outbox.cif.g08.bks.cpg/sg12_183_cif.got.tgz:364513.got - 2010.06.03 13:09:07.
