data_PCOD9185162
_publ_section_title
;
Structure prediction by ZEFSAII (Michael W. Deem and Ramdas Pophale) SiO2 
 PCOD9185162
Probable space group: C 2/M
;
_chemical_formula_sum "Si O2"
_cell_formula_units_Z 56
_cell_length_a 14.874436
_cell_length_b 8.712774
_cell_length_c 26.848866
_cell_angle_alpha 90.000000
_cell_angle_beta 64.817443
_cell_angle_gamma 90.000000
_cell_volume 3148.840567
_symmetry_space_group_name_H-M "C 2/M"
_symmetry_group_IT_number 12
_symmetry_cell_setting 'monoclinic'
loop_
_space_group_symop_operation_xyz
x,y,z
-x,y,-z
-x,-y,-z
x,-y,z
1/2+x,1/2+y,z
1/2-x,1/2+y,-z
1/2-x,1/2-y,-z
1/2+x,1/2-y,z
loop_
_atom_site_type_symbol
_atom_site_label
_atom_site_fract_x
_atom_site_fract_y
_atom_site_fract_z
Si Si1 0.323809 0.683726 0.233766
Si Si2 0.318370 0.181422 0.440472
Si Si3 0.763159 0.686080 0.850974
Si Si4 0.009466 0.181796 0.439366
Si Si5 0.470201 0.815286 0.851326
Si Si6 0.764108 0.816731 0.645086
Si Si7 0.954172 0.185683 0.063690
O O1 0.333339 0.500000 0.229539
O O2 0.257180 0.732114 0.201584
O O3 0.433158 0.755448 0.201079
O O4 0.274257 0.735332 0.296601
O O5 0.250000 0.250000 0.500000
O O6 0.430199 0.222946 0.427376
O O7 0.290334 0.238988 0.392227
O O8 0.301217 0.000000 0.444338
O O9 0.766777 0.500000 0.850911
O O10 0.866350 0.738735 0.851124
O O11 0.661897 0.731310 0.903557
O O12 0.119663 0.206714 0.393237
O O13 0.000000 0.222009 0.500000
O O14 0.986126 0.000000 0.441043
O O15 0.486211 0.754702 0.903702
O O16 0.471002 0.000000 0.851324
O O17 0.747373 0.000000 0.654480
O O18 0.958291 0.000000 0.066694
O O19 0.000000 0.230947 0.000000
#
# Coordination Sequence:
#
# PCOD9185162 Si02
#       7
#     8   8   8   8   8   8   8
#     4  10  21  38  57  78 106 139 182 227 270 327
#     4  11  22  37  57  81 109 142 180 220 270 329
#     4   8  17  34  54  76 106 144 179 220 271 318
#     4  10  20  38  58  79 110 143 174 216 270 325
#     4  10  19  34  56  79 108 144 182 226 275 320
#     4  10  22  39  57  79 111 144 175 221 278 327
#     4   9  18  34  54  79 114 151 185 222 267 319
#
# _framework density 17.784323000000001
#
# number of rings (size 3 to 8) (size 9 to 14) (size 15 to 20)
#    0.000    2.286    1.429    2.143    0.000    4.000 
#    0.000   11.429    0.000    0.000    0.000    0.000 
#    0.000    0.000    0.000    0.000    0.000    0.000 
#
# Total GULP energy -156216.929297 kJ/mol
# GULP energy per Si atom -5579.176046 kJ/mol
# Density = 1.774384 g / cm^3
# Si number density = 17.784323 Si / 1000 Ang^3
#
#
#
# Elastic Constant Matrix: (Units=GPa)
#
#
# Indices 1 2 3 4 5 6 
#
# 1 126.5090 31.7617 64.7869 0.0000 11.1051 0.0000
# 2 31.7617 30.4502 37.1714 0.0000 0.8710 0.0000
# 3 64.7869 37.1714 157.2590 0.0000 2.3103 0.0000
# 4 0.0000 0.0000 0.0000 30.2597 0.0000 2.1386
# 5 11.1051 0.8710 2.3103 0.0000 12.3715 0.0000
# 6 0.0000 0.0000 0.0000 2.1386 0.0000 25.8900
#
#
#
# Elastic Compliance Matrix: (Units=1/GPa)
#
#
# Indices 1 2 3 4 5 6 
#
# 1 0.012599 -0.009414 -0.002817 0.000000 -0.010120 0.000000
# 2 -0.009414 0.053212 -0.008793 0.000000 0.006346 0.000000
# 3 -0.002817 -0.008793 0.009578 0.000000 0.001359 0.000000
# 4 0.000000 0.000000 0.000000 0.033241 0.000000 -0.002746
# 5 -0.010120 0.006346 0.001359 0.000000 0.089215 0.000000
# 6 0.000000 0.000000 0.000000 -0.002746 0.000000 0.038852
#
#
# Mechanical properties :
#
#
# Convention : Reuss Voigt Hill
#
# Bulk Modulus (GPa) = 29.99205 64.62868 47.31036
# Shear Modulus (GPa) = 17.24996 25.73746 21.49371
#
# Velocity S-wave (km/s) = 3.11779 3.80833 3.48023
# Velocity P-wave (km/s) = 5.46459 7.46706 6.54289
#
# Compressibility (1/GPa) = 0.03334217
#
# Stress axis : x y z
#
# Youngs Moduli (GPa) = 79.37279 18.79292 104.40934
#
# Poissons Ratio (x) = 0.17691 0.29408
# Poissons Ratio (y) = 0.74718 0.91804
# Poissons Ratio (z) = 0.22356 0.16524
#
# Static dielectric constant tensor:
#      x y z
#    x 1.604820 0.000000 0.002770 
#    y 0.000000 1.607580 0.000000 
#    z 0.002770 0.000000 1.588430 
# 
# From -- ./inp_files/337856.got.cif
#   From: 2010.05.17/outbox.cif.g08.bks.cpg/sg12_169_cif.got.tgz:337856.got - 2010.06.03 13:09:07.
