data_PCOD9185794
_publ_section_title
;
Structure prediction by ZEFSAII (Michael W. Deem and Ramdas Pophale) SiO2 
 PCOD9185794
Probable space group: C 2/M
;
_chemical_formula_sum "Si O2"
_cell_formula_units_Z 56
_cell_length_a 16.600780
_cell_length_b 7.488603
_cell_length_c 23.280328
_cell_angle_alpha 90.000000
_cell_angle_beta 121.159983
_cell_angle_gamma 90.000000
_cell_volume 2476.583934
_symmetry_space_group_name_H-M "C 2/M"
_symmetry_group_IT_number 12
_symmetry_cell_setting 'monoclinic'
loop_
_space_group_symop_operation_xyz
x,y,z
-x,y,-z
-x,-y,-z
x,-y,z
1/2+x,1/2+y,z
1/2-x,1/2+y,-z
1/2-x,1/2-y,-z
1/2+x,1/2-y,z
loop_
_atom_site_type_symbol
_atom_site_label
_atom_site_fract_x
_atom_site_fract_y
_atom_site_fract_z
Si Si1 0.812220 0.716915 0.284518
Si Si2 0.439939 0.784406 0.922937
Si Si3 0.772499 0.794261 0.142491
Si Si4 0.633460 0.717522 0.291152
Si Si5 0.527016 0.203280 0.571135
Si Si6 0.343177 0.287336 0.570568
Si Si7 0.456691 0.287867 0.158641
O O1 0.816962 0.500000 0.283061
O O2 0.819586 0.787317 0.222920
O O3 0.711838 0.770405 0.273904
O O4 0.891902 0.780421 0.358383
O O5 0.332352 0.716017 0.888676
O O6 0.494171 0.735000 0.884706
O O7 0.436368 0.000000 0.921395
O O8 0.500000 0.725888 0.000000
O O9 0.851199 0.715064 0.128798
O O10 0.756966 0.000000 0.119362
O O11 0.632616 0.500000 0.290664
O O12 0.662299 0.773790 0.365543
O O13 0.531432 0.781559 0.233153
O O14 0.500000 0.287887 0.500000
O O15 0.432401 0.201491 0.572950
O O16 0.559431 0.000000 0.569736
O O17 0.358664 0.500000 0.576648
O O18 0.250000 0.250000 0.500000
O O19 0.448733 0.500000 0.165621
#
# Coordination Sequence:
#
# PCOD9185794 Si02
#       7
#     8   8   8   8   8   8   8
#     4  10  19  34  58  83 109 147 192 236 284 347
#     4  10  22  40  59  84 122 159 190 236 298 353
#     4  10  21  37  58  86 118 152 192 243 295 344
#     4   9  18  34  56  80 109 146 185 234 292 343
#     4  10  21  37  55  77 110 149 189 236 294 353
#     4  11  22  37  56  79 111 150 193 241 294 349
#     4  10  20  37  61  86 113 149 196 240 287 348
#
# _framework density 22.611791
#
# number of rings (size 3 to 8) (size 9 to 14) (size 15 to 20)
#    0.000    2.000    1.429    2.143    0.000    5.714 
#    0.000    4.286    0.000    0.000    0.000    0.000 
#    0.000    0.000    0.000    0.000    0.000    0.000 
#
# Total GULP energy -156437.337210 kJ/mol
# GULP energy per Si atom -5587.047758 kJ/mol
# Density = 2.256033 g / cm^3
# Si number density = 22.611791 Si / 1000 Ang^3
#
#
#
# Elastic Constant Matrix: (Units=GPa)
#
#
# Indices 1 2 3 4 5 6 
#
# 1 177.0899 -3.6012 56.5779 0.0000 14.8310 0.0000
# 2 -3.6012 68.9200 -7.6450 0.0000 4.1852 0.0000
# 3 56.5779 -7.6450 118.4188 0.0000 9.0486 0.0000
# 4 0.0000 0.0000 0.0000 8.8808 0.0000 -10.1374
# 5 14.8310 4.1852 9.0486 0.0000 29.3107 0.0000
# 6 0.0000 0.0000 0.0000 -10.1374 0.0000 16.8148
#
#
#
# Elastic Compliance Matrix: (Units=1/GPa)
#
#
# Indices 1 2 3 4 5 6 
#
# 1 0.006842 0.000172 -0.003064 0.000000 -0.002541 0.000000
# 2 0.000172 0.014790 0.001066 0.000000 -0.002528 0.000000
# 3 -0.003064 0.001066 0.010109 0.000000 -0.001723 0.000000
# 4 0.000000 0.000000 0.000000 0.361127 0.000000 0.217717
# 5 -0.002541 -0.002528 -0.001723 0.000000 0.036296 0.000000
# 6 0.000000 0.000000 0.000000 0.217717 0.000000 0.190730
#
#
# Mechanical properties :
#
#
# Convention : Reuss Voigt Hill
#
# Bulk Modulus (GPa) = 35.60075 50.56578 43.08327
# Shear Modulus (GPa) = 7.90004 32.27439 20.08722
#
# Velocity S-wave (km/s) = 1.87119 3.78210 2.98376
# Velocity P-wave (km/s) = 4.52183 6.44076 5.56464
#
# Compressibility (1/GPa) = 0.02808929
#
# Stress axis : x y z
#
# Youngs Moduli (GPa) = 146.15746 67.61185 98.92362
#
# Poissons Ratio (x) = -0.01163 0.30307
# Poissons Ratio (y) = -0.02513 -0.10544
# Poissons Ratio (z) = 0.44778 -0.07206
#
# Static dielectric constant tensor:
#      x y z
#    x 1.825250 0.000000 0.015490 
#    y 0.000000 1.827850 0.000000 
#    z 0.015490 0.000000 1.817650 
# 
# From -- ./inp_files/268861.got.cif
#   From: 2010.05.17/outbox.cif.g08.bks.cpg/sg12_135_cif.got.tgz:268861.got - 2010.06.03 13:09:07.
