data_PCOD9185670
_publ_section_title
;
Structure prediction by ZEFSAII (Michael W. Deem and Ramdas Pophale) SiO2 
 PCOD9185670
Probable space group: C 2/M
;
_chemical_formula_sum "Si O2"
_cell_formula_units_Z 64
_cell_length_a 24.860610
_cell_length_b 11.284019
_cell_length_c 20.635480
_cell_angle_alpha 90.000000
_cell_angle_beta 149.448943
_cell_angle_gamma 90.000000
_cell_volume 2942.492573
_symmetry_space_group_name_H-M "C 2/M"
_symmetry_group_IT_number 12
_symmetry_cell_setting 'monoclinic'
loop_
_space_group_symop_operation_xyz
x,y,z
-x,y,-z
-x,-y,-z
x,-y,z
1/2+x,1/2+y,z
1/2-x,1/2+y,-z
1/2-x,1/2-y,-z
1/2+x,1/2-y,z
loop_
_atom_site_type_symbol
_atom_site_label
_atom_site_fract_x
_atom_site_fract_y
_atom_site_fract_z
Si Si1 0.465109 0.302998 0.896861
Si Si2 0.962230 0.631658 0.353726
Si Si3 0.633978 0.129540 0.015679
Si Si4 0.317182 0.869389 0.075860
Si Si5 0.880742 0.874567 0.672419
Si Si6 0.865277 0.135478 0.311059
Si Si7 0.262851 0.864096 0.689764
Si Si8 0.154458 0.290069 0.472536
O O1 0.565750 0.226511 0.979933
O O2 0.431155 0.368691 0.796008
O O3 0.364640 0.218177 0.806743
O O4 0.500000 0.364632 0.000000
O O5 0.949982 0.500000 0.371977
O O6 0.883354 0.634640 0.210297
O O7 0.936415 0.750615 0.367629
O O8 0.078040 0.643100 0.442357
O O9 0.614130 0.130344 0.918481
O O10 0.606325 0.000000 0.013903
O O11 0.759401 0.144018 0.157084
O O12 0.260936 0.000000 0.016910
O O13 0.250000 0.750000 0.000000
O O14 0.906898 0.766506 0.651932
O O15 0.754010 0.864789 0.550948
O O16 0.910103 0.000000 0.672450
O O17 0.818914 0.144882 0.335481
O O18 0.909152 0.000000 0.347911
O O19 0.206464 0.817821 0.566646
O O20 0.295826 0.000000 0.717797
#
# Coordination Sequence:
#
# PCOD9185670 Si02
#       8
#     8   8   8   8   8   8   8   8
#     4  11  21  35  60  91 125 160 198 244 308 382
#     4  11  23  40  62  89 122 164 211 252 302 370
#     4  10  19  34  57  85 120 155 196 247 302 361
#     4  10  20  35  56  83 116 155 198 247 299 357
#     4  10  22  41  62  89 122 158 201 255 311 369
#     4  10  21  37  59  88 123 157 200 256 307 358
#     4  10  21  38  62  92 122 157 205 263 312 359
#     4  10  22  41  65  87 117 158 208 260 306 361
#
# _framework density 21.750267000000001
#
# number of rings (size 3 to 8) (size 9 to 14) (size 15 to 20)
#    0.000    1.750    2.500    1.875    0.000    2.250 
#    0.000   11.250    0.000    0.000    0.000    0.000 
#    0.000    0.000    0.000    0.000    0.000    0.000 
#
# Total GULP energy -178573.462809 kJ/mol
# GULP energy per Si atom -5580.420713 kJ/mol
# Density = 2.170076 g / cm^3
# Si number density = 21.750267 Si / 1000 Ang^3
#
#
#
# Elastic Constant Matrix: (Units=GPa)
#
#
# Indices 1 2 3 4 5 6 
#
# 1 54.7499 37.7253 4.6324 0.0000 -9.2144 0.0000
# 2 37.7253 135.9313 29.7281 0.0000 3.5806 0.0000
# 3 4.6324 29.7281 82.5415 0.0000 -20.4320 0.0000
# 4 0.0000 0.0000 0.0000 -8.3231 0.0000 -6.6763
# 5 -9.2144 3.5806 -20.4320 0.0000 37.4262 0.0000
# 6 0.0000 0.0000 0.0000 -6.6763 0.0000 17.1960
#
#
#
# Elastic Compliance Matrix: (Units=1/GPa)
#
#
# Indices 1 2 3 4 5 6 
#
# 1 0.024936 -0.007958 0.003671 0.000000 0.008905 0.000000
# 2 -0.007958 0.010768 -0.004823 0.000000 -0.005623 0.000000
# 3 0.003671 -0.004823 0.016169 0.000000 0.010193 0.000000
# 4 0.000000 0.000000 0.000000 -0.091616 0.000000 -0.035570
# 5 0.008905 -0.005623 0.010193 0.000000 0.035014 0.000000
# 6 0.000000 0.000000 0.000000 -0.035570 0.000000 0.044343
#
#
# Mechanical properties :
#
#
# Convention : Reuss Voigt Hill
#
# Bulk Modulus (GPa) = 29.71524 46.37714 38.04619
# Shear Modulus (GPa) = 72.40712 22.66895 47.53804
#
# Velocity S-wave (km/s) = 5.77603 3.23187 4.68014
# Velocity P-wave (km/s) = 7.62725 5.94100 6.83632
#
# Compressibility (1/GPa) = 0.03365277
#
# Stress axis : x y z
#
# Youngs Moduli (GPa) = 40.10201 92.86545 61.84550
#
# Poissons Ratio (x) = 0.73903 -0.22703
# Poissons Ratio (y) = 0.31913 0.29831
# Poissons Ratio (z) = -0.14721 0.44794
#
# Static dielectric constant tensor:
#      x y z
#    x 1.778670 0.000000 -0.027480 
#    y 0.000000 1.786160 0.000000 
#    z -0.027480 0.000000 1.807520 
# 
# From -- ./inp_files/327843.got.cif
#   From: 2010.05.17/outbox.cif.g08.bks.cpg/sg12_164_cif.got.tgz:327843.got - 2010.06.03 13:09:07.
