data_PCOD9185671
_publ_section_title
;
Structure prediction by ZEFSAII (Michael W. Deem and Ramdas Pophale) SiO2 
 PCOD9185671
Probable space group: C 2/M
;
_chemical_formula_sum "Si O2"
_cell_formula_units_Z 56
_cell_length_a 14.171289
_cell_length_b 14.972307
_cell_length_c 12.552703
_cell_angle_alpha 90.000000
_cell_angle_beta 97.412164
_cell_angle_gamma 90.000000
_cell_volume 2641.137619
_symmetry_space_group_name_H-M "C 2/M"
_symmetry_group_IT_number 12
_symmetry_cell_setting 'monoclinic'
loop_
_space_group_symop_operation_xyz
x,y,z
-x,y,-z
-x,-y,-z
x,-y,z
1/2+x,1/2+y,z
1/2-x,1/2+y,-z
1/2-x,1/2-y,-z
1/2+x,1/2-y,z
loop_
_atom_site_type_symbol
_atom_site_label
_atom_site_fract_x
_atom_site_fract_y
_atom_site_fract_z
Si Si1 0.632982 0.403977 0.939277
Si Si2 0.610689 0.224055 0.483915
Si Si3 0.722579 0.604979 0.415505
Si Si4 0.331157 0.657051 0.823080
Si Si5 0.880608 0.716124 0.143153
Si Si6 0.931686 0.669480 0.751505
Si Si7 0.360172 0.094140 0.947552
O O1 0.592612 0.500000 0.903339
O O2 0.597527 0.320095 0.867965
O O3 0.746202 0.403387 0.932370
O O4 0.627330 0.390037 0.065923
O O5 0.500000 0.231082 0.500000
O O6 0.654745 0.324167 0.471390
O O7 0.678109 0.161447 0.566407
O O8 0.612390 0.171864 0.371010
O O9 0.728298 0.500000 0.452380
O O10 0.686105 0.603273 0.287981
O O11 0.228027 0.697029 0.841942
O O12 0.397256 0.738618 0.800117
O O13 0.954588 0.671152 0.233511
O O14 0.895014 0.672243 0.029118
O O15 0.895783 0.599585 0.832651
O O16 0.389310 0.000000 0.002255
#
# Coordination Sequence:
#
# PCOD9185671 Si02
#       7
#     8   8   8   8   8   8   8
#     4  10  19  34  57  85 120 159 194 234 283 340
#     4  10  23  43  63  90 121 157 199 258 314 363
#     4  10  22  41  67  92 119 157 204 253 308 367
#     4  10  19  37  57  85 118 153 195 239 287 345
#     4  11  20  35  56  84 122 159 191 235 287 344
#     4  11  21  35  60  80 115 154 195 237 294 347
#     4  10  20  35  55  82 116 153 194 239 288 344
#
# _framework density 21.202983
#
# number of rings (size 3 to 8) (size 9 to 14) (size 15 to 20)
#    0.000    1.714    2.857    2.571    0.000    2.857 
#    0.000    5.714    0.000    0.000    0.000    0.000 
#    0.000    0.000    0.000    0.000    0.000    0.000 
#
# Total GULP energy -156177.652951 kJ/mol
# GULP energy per Si atom -5577.773320 kJ/mol
# Density = 2.115472 g / cm^3
# Si number density = 21.202983 Si / 1000 Ang^3
#
#
#
# Elastic Constant Matrix: (Units=GPa)
#
#
# Indices 1 2 3 4 5 6 
#
# 1 80.2374 1.1518 -6.6641 0.0000 -15.3085 0.0000
# 2 1.1518 113.3801 3.9052 0.0000 -8.3529 0.0000
# 3 -6.6641 3.9052 38.0351 0.0000 -4.7486 0.0000
# 4 0.0000 0.0000 0.0000 1.6813 0.0000 -10.4063
# 5 -15.3085 -8.3529 -4.7486 0.0000 22.4334 0.0000
# 6 0.0000 0.0000 0.0000 -10.4063 0.0000 -9.7745
#
#
#
# Elastic Compliance Matrix: (Units=1/GPa)
#
#
# Indices 1 2 3 4 5 6 
#
# 1 0.014926 0.000539 0.003961 0.000000 0.011224 0.000000
# 2 0.000539 0.009098 -0.000381 0.000000 0.003675 0.000000
# 3 0.003961 -0.000381 0.028087 0.000000 0.008506 0.000000
# 4 0.000000 0.000000 0.000000 0.078368 0.000000 -0.083434
# 5 0.011224 0.003675 0.008506 0.000000 0.055405 0.000000
# 6 0.000000 0.000000 0.000000 -0.083434 0.000000 -0.013480
#
#
# Mechanical properties :
#
#
# Convention : Reuss Voigt Hill
#
# Bulk Modulus (GPa) = 16.57035 25.38206 20.97620
# Shear Modulus (GPa) = 27.13246 18.41870 22.77558
#
# Velocity S-wave (km/s) = 3.58110 2.95054 3.28101
# Velocity P-wave (km/s) = 4.99311 4.85845 4.92624
#
# Compressibility (1/GPa) = 0.06034874
#
# Stress axis : x y z
#
# Youngs Moduli (GPa) = 66.99825 109.91109 35.60409
#
# Poissons Ratio (x) = -0.05923 -0.14103
# Poissons Ratio (y) = -0.03610 0.01356
# Poissons Ratio (z) = -0.26539 0.04187
#
# Static dielectric constant tensor:
#      x y z
#    x 1.788960 0.000000 0.002890 
#    y 0.000000 1.826380 0.000000 
#    z 0.002890 0.000000 1.768680 
# 
# From -- ./inp_files/143734.got.cif
#   From: 2010.05.17/outbox.cif.g08.bks.cpg/sg12_72_cif.got.tgz:143734.got - 2010.06.03 13:09:07.
