data_PCOD9185157
_publ_section_title
;
Structure prediction by ZEFSAII (Michael W. Deem and Ramdas Pophale) SiO2 
 PCOD9185157
Probable space group: C 2/M
;
_chemical_formula_sum "Si O2"
_cell_formula_units_Z 40
_cell_length_a 22.611977
_cell_length_b 11.081087
_cell_length_c 11.122624
_cell_angle_alpha 90.000000
_cell_angle_beta 131.342740
_cell_angle_gamma 90.000000
_cell_volume 2092.357973
_symmetry_space_group_name_H-M "C 2/M"
_symmetry_group_IT_number 12
_symmetry_cell_setting 'monoclinic'
loop_
_space_group_symop_operation_xyz
x,y,z
-x,y,-z
-x,-y,-z
x,-y,z
1/2+x,1/2+y,z
1/2-x,1/2+y,-z
1/2-x,1/2-y,-z
1/2+x,1/2-y,z
loop_
_atom_site_type_symbol
_atom_site_label
_atom_site_fract_x
_atom_site_fract_y
_atom_site_fract_z
Si Si1 0.679238 0.860808 0.252112
Si Si2 0.142443 0.865875 0.523824
Si Si3 0.101837 0.358984 0.907313
Si Si4 0.404819 0.139037 0.375672
Si Si5 0.539596 0.702381 0.173714
O O1 0.769593 0.843600 0.408328
O O2 0.612678 0.782488 0.225342
O O3 0.658873 0.000000 0.247747
O O4 0.670613 0.839340 0.096838
O O5 0.122061 0.748961 0.576437
O O6 0.078924 0.872884 0.332145
O O7 0.144429 0.000000 0.586522
O O8 0.079227 0.500000 0.882040
O O9 0.122967 0.335132 0.797923
O O10 0.027949 0.282500 0.854430
O O11 0.500000 0.139546 0.500000
O O12 0.381386 0.000000 0.378380
O O13 0.500000 0.647358 0.000000
#
# Coordination Sequence:
#
# PCOD9185157 Si02
#       5
#     8   8   8   8   8
#     4   9  19  34  55  83 114 144 179 225 276 327
#     4  11  23  37  54  82 117 148 177 221 281 333
#     4   9  17  33  57  84 109 139 184 231 269 313
#     4  10  20  36  59  84 108 140 186 231 267 317
#     4  10  19  34  56  79 106 146 188 228 266 318
#
# _framework density 19.117187000000001
#
# number of rings (size 3 to 8) (size 9 to 14) (size 15 to 20)
#    0.000    2.200    2.000    1.200    0.000    4.800 
#    0.000    1.000    0.000    1.200    0.000    0.000 
#    0.000    0.000    0.000    0.000    0.000    0.000 
#
# Total GULP energy -111400.998040 kJ/mol
# GULP energy per Si atom -5570.049902 kJ/mol
# Density = 1.907368 g / cm^3
# Si number density = 19.117187 Si / 1000 Ang^3
#
#
#
# Elastic Constant Matrix: (Units=GPa)
#
#
# Indices 1 2 3 4 5 6 
#
# 1 43.5339 55.6406 15.2118 0.0000 -5.6391 0.0000
# 2 55.6406 113.5715 30.0556 0.0000 -12.3341 0.0000
# 3 15.2118 30.0556 87.2478 0.0000 -2.0921 0.0000
# 4 0.0000 0.0000 0.0000 23.2424 0.0000 -3.2545
# 5 -5.6391 -12.3341 -2.0921 0.0000 28.1102 0.0000
# 6 0.0000 0.0000 0.0000 -3.2545 0.0000 37.5127
#
#
#
# Elastic Compliance Matrix: (Units=1/GPa)
#
#
# Indices 1 2 3 4 5 6 
#
# 1 0.061479 -0.030122 -0.000364 0.000000 -0.000911 0.000000
# 2 -0.030122 0.024920 -0.003221 0.000000 0.004652 0.000000
# 3 -0.000364 -0.003221 0.012622 0.000000 -0.000547 0.000000
# 4 0.000000 0.000000 0.000000 0.043554 0.000000 0.003779
# 5 -0.000911 0.004652 -0.000547 0.000000 0.037392 0.000000
# 6 0.000000 0.000000 0.000000 0.003779 0.000000 0.026985
#
#
# Mechanical properties :
#
#
# Convention : Reuss Voigt Hill
#
# Bulk Modulus (GPa) = 31.63995 49.57437 40.60716
# Shear Modulus (GPa) = 17.54988 27.33609 22.44298
#
# Velocity S-wave (km/s) = 3.03316 3.78553 3.43004
# Velocity P-wave (km/s) = 5.37152 6.71529 6.08064
#
# Compressibility (1/GPa) = 0.03160561
#
# Stress axis : x y z
#
# Youngs Moduli (GPa) = 16.26571 40.12834 79.22905
#
# Poissons Ratio (x) = 1.20875 0.02885
# Poissons Ratio (y) = 0.48996 0.25521
# Poissons Ratio (z) = 0.00592 0.12926
#
# Static dielectric constant tensor:
#      x y z
#    x 1.632880 0.000000 -0.047780 
#    y 0.000000 1.656580 0.000000 
#    z -0.047780 0.000000 1.714080 
# 
# From -- ./inp_files/140250.got.cif
#   From: 2010.05.17/outbox.cif.g08.bks.cpg/sg12_71_cif.got.tgz:140250.got - 2010.06.03 13:09:07.
