data_PCOD9185194
_publ_section_title
;
Structure prediction by ZEFSAII (Michael W. Deem and Ramdas Pophale) SiO2 
 PCOD9185194
Probable space group: C 2/M
;
_chemical_formula_sum "Si O2"
_cell_formula_units_Z 64
_cell_length_a 18.981417
_cell_length_b 21.682568
_cell_length_c 8.776773
_cell_angle_alpha 90.000000
_cell_angle_beta 105.068742
_cell_angle_gamma 90.000000
_cell_volume 3488.012559
_symmetry_space_group_name_H-M "C 2/M"
_symmetry_group_IT_number 12
_symmetry_cell_setting 'monoclinic'
loop_
_space_group_symop_operation_xyz
x,y,z
-x,y,-z
-x,-y,-z
x,-y,z
1/2+x,1/2+y,z
1/2-x,1/2+y,-z
1/2-x,1/2-y,-z
1/2+x,1/2-y,z
loop_
_atom_site_type_symbol
_atom_site_label
_atom_site_fract_x
_atom_site_fract_y
_atom_site_fract_z
Si Si1 0.583481 0.775320 0.488915
Si Si2 0.910149 0.927154 0.252054
Si Si3 0.723751 0.776287 0.143880
Si Si4 0.273316 0.840772 0.341985
Si Si5 0.457540 0.373340 0.826398
Si Si6 0.432850 0.773172 0.863369
Si Si7 0.821272 0.927610 0.888241
Si Si8 0.179156 0.849202 0.586865
O O1 0.500000 0.771310 0.500000
O O2 0.641647 0.821701 0.601148
O O3 0.576721 0.797496 0.311456
O O4 0.624304 0.708384 0.520397
O O5 0.869096 0.905791 0.381282
O O6 0.985576 0.889233 0.273771
O O7 0.925393 0.000000 0.259048
O O8 0.858886 0.913530 0.073492
O O9 0.732065 0.722276 0.273490
O O10 0.639168 0.789217 0.084953
O O11 0.773230 0.829434 0.239541
O O12 0.750000 0.750000 0.000000
O O13 0.249970 0.888878 0.198272
O O14 0.236831 0.859012 0.482946
O O15 0.443471 0.300823 0.843620
O O16 0.380741 0.407634 0.793120
O O17 0.500000 0.396896 0.000000
O O18 0.500000 0.795319 0.000000
O O19 0.807787 0.000000 0.875329
#
# Coordination Sequence:
#
# PCOD9185194 Si02
#       8
#     8   8   8   8   8   8   8   8
#     4  11  22  37  54  79 112 145 182 226 285 341
#     4  10  21  35  54  85 116 154 198 230 267 325
#     4  11  21  34  55  81 108 147 188 228 275 329
#     4  11  21  38  54  78 114 145 182 228 286 336
#     4   9  17  30  52  77 113 145 184 226 267 316
#     4  11  21  34  53  83 112 145 187 225 274 337
#     4  10  19  34  56  80 108 146 193 234 271 325
#     4  11  21  36  56  75 116 152 179 233 276 330
#
# _framework density 18.348558000000001
#
# number of rings (size 3 to 8) (size 9 to 14) (size 15 to 20)
#    0.000    1.500    3.750    2.625    7.000    2.000 
#    0.000    0.000    0.000    4.500    0.000    0.000 
#    0.000    3.000    0.000    0.000    0.000    0.000 
#
# Total GULP energy -178463.496875 kJ/mol
# GULP energy per Si atom -5576.984277 kJ/mol
# Density = 1.830680 g / cm^3
# Si number density = 18.348558 Si / 1000 Ang^3
#
#
#
# Elastic Constant Matrix: (Units=GPa)
#
#
# Indices 1 2 3 4 5 6 
#
# 1 91.8594 -4.4746 25.1364 0.0000 20.2677 0.0000
# 2 -4.4746 33.4455 -4.5507 0.0000 11.7940 0.0000
# 3 25.1364 -4.5507 47.5912 0.0000 13.5375 0.0000
# 4 0.0000 0.0000 0.0000 14.7151 0.0000 -9.1903
# 5 20.2677 11.7940 13.5375 0.0000 40.7912 0.0000
# 6 0.0000 0.0000 0.0000 -9.1903 0.0000 3.3661
#
#
#
# Elastic Compliance Matrix: (Units=1/GPa)
#
#
# Indices 1 2 3 4 5 6 
#
# 1 0.013825 0.003274 -0.005262 0.000000 -0.006069 0.000000
# 2 0.003274 0.036020 0.005676 0.000000 -0.013925 0.000000
# 3 -0.005262 0.005676 0.026565 0.000000 -0.007843 0.000000
# 4 0.000000 0.000000 0.000000 -0.096369 0.000000 -0.263112
# 5 -0.006069 -0.013925 -0.007843 0.000000 0.034160 0.000000
# 6 0.000000 0.000000 0.000000 -0.263112 0.000000 -0.421281
#
#
# Mechanical properties :
#
#
# Convention : Reuss Voigt Hill
#
# Bulk Modulus (GPa) = 11.93530 22.79094 17.36312
# Shear Modulus (GPa) = -12.93569 22.22683 4.64557
#
# Velocity S-wave (km/s) = -2.65806 3.48424 1.59290
# Velocity P-wave (km/s) = 1.70338 5.35114 3.58700
#
# Compressibility (1/GPa) = 0.08378507
#
# Stress axis : x y z
#
# Youngs Moduli (GPa) = 72.33399 27.76233 37.64294
#
# Poissons Ratio (x) = -0.09089 0.19809
# Poissons Ratio (y) = -0.23680 -0.21367
# Poissons Ratio (z) = 0.38065 -0.15758
#
# Static dielectric constant tensor:
#      x y z
#    x 1.649500 0.000000 0.006550 
#    y 0.000000 1.626080 0.000000 
#    z 0.006550 0.000000 1.698390 
# 
# From -- ./inp_files/78834.got.cif
#   From: 2010.05.17/outbox.cif.g08.bks.cpg/sg12_40_cif.got.tgz:78834.got - 2010.06.03 13:09:07.
