data_PCOD9185193
_publ_section_title
;
Structure prediction by ZEFSAII (Michael W. Deem and Ramdas Pophale) SiO2 
 PCOD9185193
Probable space group: C 2/M
;
_chemical_formula_sum "Si O2"
_cell_formula_units_Z 52
_cell_length_a 26.230591
_cell_length_b 18.564295
_cell_length_c 6.642630
_cell_angle_alpha 90.000000
_cell_angle_beta 67.953964
_cell_angle_gamma 90.000000
_cell_volume 2998.135889
_symmetry_space_group_name_H-M "C 2/M"
_symmetry_group_IT_number 12
_symmetry_cell_setting 'monoclinic'
loop_
_space_group_symop_operation_xyz
x,y,z
-x,y,-z
-x,-y,-z
x,-y,z
1/2+x,1/2+y,z
1/2-x,1/2+y,-z
1/2-x,1/2-y,-z
1/2+x,1/2-y,z
loop_
_atom_site_type_symbol
_atom_site_label
_atom_site_fract_x
_atom_site_fract_y
_atom_site_fract_z
Si Si1 0.787659 0.584532 0.027779
Si Si2 0.554094 0.715545 0.039802
Si Si3 0.929365 0.083546 0.268537
Si Si4 0.170135 0.290964 0.787412
Si Si5 0.500000 0.337683 0.500000
Si Si6 0.237038 0.682483 0.310656
Si Si7 0.698397 0.581118 0.479007
O O1 0.801614 0.500000 0.981298
O O2 0.785247 0.630988 0.829330
O O3 0.825699 0.628526 0.128661
O O4 0.727375 0.588001 0.220602
O O5 0.539051 0.709288 0.296795
O O6 0.500000 0.744297 0.000000
O O7 0.562498 0.635253 0.935106
O O8 0.610532 0.757585 0.914909
O O9 0.866302 0.090861 0.429960
O O10 0.965939 0.113619 0.395661
O O11 0.940601 0.000000 0.208282
O O12 0.187613 0.289280 0.526026
O O13 0.220226 0.245213 0.816485
O O14 0.273868 0.634972 0.407463
O O15 0.710036 0.500000 0.534146
#
# Coordination Sequence:
#
# PCOD9185193 Si02
#       7
#     8   8   8   8   4   8   8
#     4  10  21  34  53  83 113 141 175 216 267 325
#     4  10  22  39  55  77 107 143 186 230 268 315
#     4  10  20  34  51  73 107 148 190 228 260 304
#     4  10  21  36  56  81 108 138 180 223 267 321
#     4  10  23  34  52  74 101 144 190 232 271 308
#     4  10  19  34  56  80 108 146 173 218 268 319
#     4   9  18  31  49  77 111 145 182 216 254 313
#
# _framework density 17.344111999999999
#
# number of rings (size 3 to 8) (size 9 to 14) (size 15 to 20)
#    0.000    2.154    1.538    1.154    2.154    6.462 
#    0.000    0.000    0.000    0.462    0.000    1.615 
#    0.000    0.000    0.000    0.000    0.000    0.000 
#
# Total GULP energy -144962.697393 kJ/mol
# GULP energy per Si atom -5575.488361 kJ/mol
# Density = 1.730464 g / cm^3
# Si number density = 17.344112 Si / 1000 Ang^3
#
#
#
# Elastic Constant Matrix: (Units=GPa)
#
#
# Indices 1 2 3 4 5 6 
#
# 1 52.3772 31.9222 49.2651 0.0000 -19.8543 0.0000
# 2 31.9222 90.0876 49.2448 0.0000 -9.0698 0.0000
# 3 49.2651 49.2448 105.5114 0.0000 -16.7211 0.0000
# 4 0.0000 0.0000 0.0000 28.1162 0.0000 0.0000
# 5 -19.8543 -9.0698 -16.7211 0.0000 30.2873 0.0000
# 6 0.0000 0.0000 0.0000 0.0000 0.0000 22.0363
#
#
#
# Elastic Compliance Matrix: (Units=1/GPa)
#
#
# Indices 1 2 3 4 5 6 
#
# 1 0.043334 -0.005415 -0.014752 0.000000 0.018641 0.000000
# 2 -0.005415 0.015592 -0.005010 0.000000 -0.001646 0.000000
# 3 -0.014752 -0.005010 0.018557 0.000000 -0.000926 0.000000
# 4 0.000000 0.000000 0.000000 0.035567 0.000000 0.000000
# 5 0.018641 -0.001646 -0.000926 0.000000 0.044233 0.000000
# 6 0.000000 0.000000 0.000000 0.000000 0.000000 0.045380
#
#
# Mechanical properties :
#
#
# Convention : Reuss Voigt Hill
#
# Bulk Modulus (GPa) = 36.85962 56.53785 46.69873
# Shear Modulus (GPa) = 19.07972 23.92423 21.50197
#
# Velocity S-wave (km/s) = 3.32033 3.71804 3.52480
# Velocity P-wave (km/s) = 5.99979 7.14844 6.59916
#
# Compressibility (1/GPa) = 0.02712996
#
# Stress axis : x y z
#
# Youngs Moduli (GPa) = 23.07660 64.13670 53.88744
#
# Poissons Ratio (x) = 0.34727 0.79496
# Poissons Ratio (y) = 0.12495 0.26996
# Poissons Ratio (z) = 0.34043 0.32131
#
# Static dielectric constant tensor:
#      x y z
#    x 1.569280 0.000000 -0.002920 
#    y 0.000000 1.610580 0.000000 
#    z -0.002920 0.000000 1.628960 
# 
# From -- ./inp_files/29284.got.cif
#   From: 2010.05.17/outbox.cif.g08.bks.cpg/sg12_15_cif.got.tgz:29284.got - 2010.06.03 13:09:07.
