data_PCOD9185450
_publ_section_title
;
Structure prediction by ZEFSAII (Michael W. Deem and Ramdas Pophale) SiO2 
 PCOD9185450
Probable space group: C 2/M
;
_chemical_formula_sum "Si O2"
_cell_formula_units_Z 40
_cell_length_a 28.879664
_cell_length_b 13.141327
_cell_length_c 11.470968
_cell_angle_alpha 90.000000
_cell_angle_beta 153.752830
_cell_angle_gamma 90.000000
_cell_volume 1925.279380
_symmetry_space_group_name_H-M "C 2/M"
_symmetry_group_IT_number 12
_symmetry_cell_setting 'monoclinic'
loop_
_space_group_symop_operation_xyz
x,y,z
-x,y,-z
-x,-y,-z
x,-y,z
1/2+x,1/2+y,z
1/2-x,1/2+y,-z
1/2-x,1/2-y,-z
1/2+x,1/2-y,z
loop_
_atom_site_type_symbol
_atom_site_label
_atom_site_fract_x
_atom_site_fract_y
_atom_site_fract_z
Si Si1 0.381676 0.884380 0.784276
Si Si2 0.690931 0.208647 0.600801
Si Si3 0.622716 0.742562 0.822924
Si Si4 0.490574 0.882629 0.265737
Si Si5 0.186269 0.119592 0.759684
O O1 0.317689 0.810174 0.555807
O O2 0.341264 0.000000 0.681186
O O3 0.500000 0.883498 0.000000
O O4 0.401587 0.863647 0.965330
O O5 0.603422 0.136649 0.462890
O O6 0.661516 0.320988 0.583357
O O7 0.804184 0.189899 0.912561
O O8 0.531722 0.802225 0.684027
O O9 0.613749 0.659880 0.700749
O O10 0.699040 0.834216 0.949565
O O11 0.481726 0.000000 0.282581
O O12 0.186517 0.000000 0.748472
#
# Coordination Sequence:
#
# PCOD9185450 Si02
#       5
#     8   8   8   8   8
#     4   8  15  29  51  79 107 134 167 215 263 302
#     4   9  18  33  52  80 106 138 170 213 266 310
#     4   9  20  35  53  79 103 138 178 217 255 311
#     4  10  19  34  57  81 105 136 178 219 257 304
#     4   9  19  37  52  70 108 145 169 213 269 310
#
# _framework density 20.776205000000001
#
# number of rings (size 3 to 8) (size 9 to 14) (size 15 to 20)
#    1.200    1.800    0.000    2.400    0.000    3.200 
#    0.000    3.000    0.000    6.600    0.000    0.000 
#    0.000    0.000    0.000    0.000    0.000    0.000 
#
# Total GULP energy -111368.904405 kJ/mol
# GULP energy per Si atom -5568.445220 kJ/mol
# Density = 2.072892 g / cm^3
# Si number density = 20.776205 Si / 1000 Ang^3
#
#
#
# Elastic Constant Matrix: (Units=GPa)
#
#
# Indices 1 2 3 4 5 6 
#
# 1 48.9041 14.0684 10.2857 0.0000 -8.6230 0.0000
# 2 14.0684 111.2064 30.8595 0.0000 -26.3540 0.0000
# 3 10.2857 30.8595 55.3573 0.0000 -16.9397 0.0000
# 4 0.0000 0.0000 0.0000 26.1422 0.0000 -8.7887
# 5 -8.6230 -26.3540 -16.9397 0.0000 35.2176 0.0000
# 6 0.0000 0.0000 0.0000 -8.7887 0.0000 18.1841
#
#
#
# Elastic Compliance Matrix: (Units=1/GPa)
#
#
# Indices 1 2 3 4 5 6 
#
# 1 0.021897 -0.001361 -0.002323 0.000000 0.003226 0.000000
# 2 -0.001361 0.011921 -0.004415 0.000000 0.006464 0.000000
# 3 -0.002323 -0.004415 0.023185 0.000000 0.007280 0.000000
# 4 0.000000 0.000000 0.000000 0.045674 0.000000 0.022075
# 5 0.003226 0.006464 0.007280 0.000000 0.037524 0.000000
# 6 0.000000 0.000000 0.000000 0.022075 0.000000 0.065662
#
#
# Mechanical properties :
#
#
# Convention : Reuss Voigt Hill
#
# Bulk Modulus (GPa) = 24.50621 36.21056 30.35838
# Shear Modulus (GPa) = 21.21685 26.59240 23.90462
#
# Velocity S-wave (km/s) = 3.19910 3.58151 3.39570
# Velocity P-wave (km/s) = 5.04645 5.87960 5.47888
#
# Compressibility (1/GPa) = 0.04080599
#
# Stress axis : x y z
#
# Youngs Moduli (GPa) = 45.66822 83.88215 43.13202
#
# Poissons Ratio (x) = 0.11418 0.10018
# Poissons Ratio (y) = 0.06216 0.19041
# Poissons Ratio (z) = 0.10608 0.37031
#
# Static dielectric constant tensor:
#      x y z
#    x 1.839640 0.000000 0.029950 
#    y 0.000000 1.699350 0.000000 
#    z 0.029950 0.000000 1.868620 
# 
# From -- ./inp_files/189086.got.cif
#   From: 2010.05.17/outbox.cif.g08.bks.cpg/sg12_95_cif.got.tgz:189086.got - 2010.06.03 13:09:07.
