data_PCOD9185396
_publ_section_title
;
Structure prediction by ZEFSAII (Michael W. Deem and Ramdas Pophale) SiO2 
 PCOD9185396
Probable space group: C 2/M
;
_chemical_formula_sum "Si O2"
_cell_formula_units_Z 58
_cell_length_a 24.625008
_cell_length_b 7.920162
_cell_length_c 14.348067
_cell_angle_alpha 90.000000
_cell_angle_beta 97.268849
_cell_angle_gamma 90.000000
_cell_volume 2775.872283
_symmetry_space_group_name_H-M "C 2/M"
_symmetry_group_IT_number 12
_symmetry_cell_setting 'monoclinic'
loop_
_space_group_symop_operation_xyz
x,y,z
-x,y,-z
-x,-y,-z
x,-y,z
1/2+x,1/2+y,z
1/2-x,1/2+y,-z
1/2-x,1/2-y,-z
1/2+x,1/2-y,z
loop_
_atom_site_type_symbol
_atom_site_label
_atom_site_fract_x
_atom_site_fract_y
_atom_site_fract_z
Si Si1 0.500000 0.500000 0.500000
Si Si2 0.332318 0.705304 0.060968
Si Si3 0.779051 0.198730 0.860301
Si Si4 0.760405 0.690174 0.654537
Si Si5 0.017434 0.311151 0.356146
Si Si6 0.574553 0.303106 0.786804
Si Si7 0.630939 0.304824 0.414674
Si Si8 0.359975 0.194162 0.378210
O O1 0.502712 0.652095 0.419554
O O2 0.329511 0.500000 0.065581
O O3 0.281913 0.774016 0.111529
O O4 0.389587 0.759864 0.118193
O O5 0.319683 0.753873 0.951831
O O6 0.783360 0.293939 0.764090
O O7 0.787113 0.000000 0.844160
O O8 0.742542 0.500000 0.630416
O O9 0.808835 0.740258 0.596158
O O10 0.705724 0.799621 0.637980
O O11 0.007454 0.500000 0.392257
O O12 0.082326 0.293259 0.353731
O O13 0.980177 0.290119 0.256528
O O14 0.562519 0.500000 0.798587
O O15 0.615206 0.282752 0.706705
O O16 0.627664 0.500000 0.389006
O O17 0.621083 0.283396 0.522979
O O18 0.377830 0.000000 0.383384
#
# Coordination Sequence:
#
# PCOD9185396 Si02
#       8
#     2   8   8   8   8   8   8   8
#     4  12  22  44  60  90 120 158 202 264 300 356
#     4   9  19  34  58  86 121 154 190 245 307 364
#     4  10  19  34  56  88 118 153 196 243 303 364
#     4  12  24  40  59  85 119 163 205 248 301 363
#     4  12  25  42  63  90 121 162 209 255 311 362
#     4  11  21  38  60  90 124 159 198 253 308 360
#     4  12  25  44  62  84 118 162 205 256 302 359
#     4  12  24  38  57  88 119 158 203 251 299 357
#
# _framework density 20.894333
#
# number of rings (size 3 to 8) (size 9 to 14) (size 15 to 20)
#    0.000    0.828    2.759    6.000    0.000    1.103 
#    0.000    0.000    0.000    0.828    0.000    5.793 
#    0.000    0.000    0.000    0.000    0.000    0.000 
#
# Total GULP energy -161913.030542 kJ/mol
# GULP energy per Si atom -5583.207950 kJ/mol
# Density = 2.084678 g / cm^3
# Si number density = 20.894333 Si / 1000 Ang^3
#
#
#
# Elastic Constant Matrix: (Units=GPa)
#
#
# Indices 1 2 3 4 5 6 
#
# 1 70.7894 -3.5121 7.8178 0.0000 23.8550 0.0000
# 2 -3.5121 108.3582 -6.1104 0.0000 2.2431 0.0000
# 3 7.8178 -6.1104 54.5437 0.0000 21.7052 0.0000
# 4 0.0000 0.0000 0.0000 22.0583 0.0000 1.3715
# 5 23.8550 2.2431 21.7052 0.0000 33.9701 0.0000
# 6 0.0000 0.0000 0.0000 1.3715 0.0000 16.3908
#
#
#
# Elastic Compliance Matrix: (Units=1/GPa)
#
#
# Indices 1 2 3 4 5 6 
#
# 1 0.019124 0.001157 0.003705 0.000000 -0.015873 0.000000
# 2 0.001157 0.009432 0.001961 0.000000 -0.002688 0.000000
# 3 0.003705 0.001961 0.025625 0.000000 -0.019104 0.000000
# 4 0.000000 0.000000 0.000000 0.045571 0.000000 -0.003813
# 5 -0.015873 -0.002688 -0.019104 0.000000 0.052969 0.000000
# 6 0.000000 0.000000 0.000000 -0.003813 0.000000 0.061329
#
#
# Mechanical properties :
#
#
# Convention : Reuss Voigt Hill
#
# Bulk Modulus (GPa) = 14.74332 25.56466 20.15399
# Shear Modulus (GPa) = 22.42027 30.18359 26.30193
#
# Velocity S-wave (km/s) = 3.27927 3.80489 3.55182
# Velocity P-wave (km/s) = 4.62705 5.61825 5.14657
#
# Compressibility (1/GPa) = 0.06782731
#
# Stress axis : x y z
#
# Youngs Moduli (GPa) = 52.29118 106.01785 39.02456
#
# Poissons Ratio (x) = -0.12270 -0.14459
# Poissons Ratio (y) = -0.06052 -0.07651
# Poissons Ratio (z) = -0.19375 -0.20786
#
# Static dielectric constant tensor:
#      x y z
#    x 1.777510 0.000000 0.040860 
#    y 0.000000 1.734610 0.000000 
#    z 0.040860 0.000000 1.750850 
# 
# From -- ./inp_files/237775.got.cif
#   From: 2010.05.17/outbox.cif.g08.bks.cpg/sg12_119_cif.got.tgz:237775.got - 2010.06.03 13:09:07.
