data_PCOD9185185
_publ_section_title
;
Structure prediction by ZEFSAII (Michael W. Deem and Ramdas Pophale) SiO2 
 PCOD9185185
Probable space group: C 2/M
;
_chemical_formula_sum "Si O2"
_cell_formula_units_Z 56
_cell_length_a 32.086753
_cell_length_b 7.626208
_cell_length_c 18.793038
_cell_angle_alpha 90.000000
_cell_angle_beta 144.804450
_cell_angle_gamma 90.000000
_cell_volume 2650.525030
_symmetry_space_group_name_H-M "C 2/M"
_symmetry_group_IT_number 12
_symmetry_cell_setting 'monoclinic'
loop_
_space_group_symop_operation_xyz
x,y,z
-x,y,-z
-x,-y,-z
x,-y,z
1/2+x,1/2+y,z
1/2-x,1/2+y,-z
1/2-x,1/2-y,-z
1/2+x,1/2-y,z
loop_
_atom_site_type_symbol
_atom_site_label
_atom_site_fract_x
_atom_site_fract_y
_atom_site_fract_z
Si Si1 0.359459 0.712181 0.163782
Si Si2 0.012886 0.213872 0.437408
Si Si3 0.664601 0.288677 0.389413
Si Si4 0.738265 0.797373 0.102406
Si Si5 0.365349 0.701412 0.497144
Si Si6 0.785300 0.200290 0.772693
Si Si7 0.419192 0.714270 0.869034
O O1 0.353480 0.500000 0.152538
O O2 0.441675 0.758189 0.293085
O O3 0.308729 0.771129 0.158717
O O4 0.325502 0.783846 0.044199
O O5 0.082925 0.277832 0.491979
O O6 0.000000 0.276662 0.500000
O O7 0.017656 0.000000 0.449349
O O8 0.659425 0.500000 0.383641
O O9 0.750000 0.250000 0.500000
O O10 0.636215 0.219879 0.425907
O O11 0.616306 0.228200 0.255336
O O12 0.718978 0.705566 0.148475
O O13 0.752315 0.000000 0.140048
O O14 0.389776 0.500000 0.539734
O O15 0.283538 0.702442 0.355194
O O16 0.861315 0.266116 0.848593
O O17 0.777585 0.000000 0.736869
O O18 0.422327 0.500000 0.871834
O O19 0.500000 0.775332 0.000000
#
# Coordination Sequence:
#
# PCOD9185185 Si02
#       7
#     8   8   8   8   8   8   8
#     4   9  18  34  55  78 105 142 184 223 265 319
#     4   9  17  31  52  79 110 141 178 223 267 315
#     4  10  19  34  56  80 107 140 179 226 276 327
#     4  10  20  34  54  78 108 142 178 222 272 326
#     4  10  20  33  55  82 106 142 186 227 275 329
#     4  11  21  34  55  80 106 139 181 225 274 332
#     4   9  19  35  55  80 108 139 180 232 280 323
#
# _framework density 21.127890000000001
#
# number of rings (size 3 to 8) (size 9 to 14) (size 15 to 20)
#    0.000    2.286    1.429    1.714    0.000    4.000 
#    0.000    5.000    0.000    7.286    0.000    0.000 
#    0.000    0.000    0.000    0.000    0.000    0.000 
#
# Total GULP energy -156318.378434 kJ/mol
# GULP energy per Si atom -5582.799230 kJ/mol
# Density = 2.107980 g / cm^3
# Si number density = 21.127890 Si / 1000 Ang^3
#
#
#
# Elastic Constant Matrix: (Units=GPa)
#
#
# Indices 1 2 3 4 5 6 
#
# 1 161.0006 3.4550 78.7397 0.0000 -8.5978 0.0000
# 2 3.4550 41.8648 -1.9326 0.0000 -0.0395 0.0000
# 3 78.7397 -1.9326 122.5498 0.0000 10.6382 0.0000
# 4 0.0000 0.0000 0.0000 21.3182 0.0000 -0.2886
# 5 -8.5978 -0.0395 10.6382 0.0000 31.3584 0.0000
# 6 0.0000 0.0000 0.0000 -0.2886 0.0000 14.9497
#
#
#
# Elastic Compliance Matrix: (Units=1/GPa)
#
#
# Indices 1 2 3 4 5 6 
#
# 1 0.009800 -0.001115 -0.006746 0.000000 0.004974 0.000000
# 2 -0.001115 0.024031 0.001154 0.000000 -0.000667 0.000000
# 3 -0.006746 0.001154 0.013057 0.000000 -0.006278 0.000000
# 4 0.000000 0.000000 0.000000 0.046920 0.000000 0.000906
# 5 0.004974 -0.000667 -0.006278 0.000000 0.035382 0.000000
# 6 0.000000 0.000000 0.000000 0.000906 0.000000 0.066909
#
#
# Mechanical properties :
#
#
# Convention : Reuss Voigt Hill
#
# Bulk Modulus (GPa) = 29.87504 53.99328 41.93416
# Shear Modulus (GPa) = 22.65796 29.86880 26.26338
#
# Velocity S-wave (km/s) = 3.27833 3.76402 3.52954
# Velocity P-wave (km/s) = 5.33861 6.67093 6.04161
#
# Compressibility (1/GPa) = 0.03347276
#
# Stress axis : x y z
#
# Youngs Moduli (GPa) = 102.04165 41.61275 76.58468
#
# Poissons Ratio (x) = 0.04642 0.51664
# Poissons Ratio (y) = 0.11383 -0.08835
# Poissons Ratio (z) = 0.68837 -0.04800
#
# Static dielectric constant tensor:
#      x y z
#    x 1.762290 0.000000 -0.003390 
#    y 0.000000 1.817910 0.000000 
#    z -0.003390 0.000000 1.712220 
# 
# From -- ./inp_files/280853.got.cif
#   From: 2010.05.17/outbox.cif.g08.bks.cpg/sg12_141_cif.got.tgz:280853.got - 2010.06.03 13:09:07.
