data_PCOD9185922
_publ_section_title
;
Structure prediction by ZEFSAII (Michael W. Deem and Ramdas Pophale) SiO2 
 PCOD9185922
Probable space group: C 2/M
;
_chemical_formula_sum "Si O2"
_cell_formula_units_Z 56
_cell_length_a 14.697828
_cell_length_b 8.665178
_cell_length_c 23.640834
_cell_angle_alpha 90.000000
_cell_angle_beta 64.206470
_cell_angle_gamma 90.000000
_cell_volume 2710.899716
_symmetry_space_group_name_H-M "C 2/M"
_symmetry_group_IT_number 12
_symmetry_cell_setting 'monoclinic'
loop_
_space_group_symop_operation_xyz
x,y,z
-x,y,-z
-x,-y,-z
x,-y,z
1/2+x,1/2+y,z
1/2-x,1/2+y,-z
1/2-x,1/2-y,-z
1/2+x,1/2-y,z
loop_
_atom_site_type_symbol
_atom_site_label
_atom_site_fract_x
_atom_site_fract_y
_atom_site_fract_z
Si Si1 0.153750 0.314704 0.493371
Si Si2 0.067861 0.686207 0.398739
Si Si3 0.920131 0.819803 0.727836
Si Si4 0.103939 0.818500 0.084822
Si Si5 0.821646 0.183447 0.051978
Si Si6 0.714930 0.679234 0.814283
Si Si7 0.948703 0.679536 0.214317
O O1 0.160515 0.500000 0.491340
O O2 0.250000 0.250000 0.500000
O O3 0.139440 0.265706 0.431737
O O4 0.047560 0.275354 0.552427
O O5 0.074460 0.500000 0.391453
O O6 0.091473 0.764207 0.333147
O O7 0.815002 0.781151 0.787195
O O8 0.007025 0.728053 0.737345
O O9 0.941723 0.000000 0.725063
O O10 0.220546 0.781545 0.068215
O O11 0.034539 0.718820 0.144590
O O12 0.080939 0.000000 0.099828
O O13 0.098904 0.782115 0.019096
O O14 0.847376 0.204876 0.110803
O O15 0.797619 0.000000 0.051524
O O16 0.745131 0.500000 0.804536
O O17 0.647088 0.722197 0.779397
O O18 0.923874 0.500000 0.219633
#
# Coordination Sequence:
#
# PCOD9185922 Si02
#       7
#     8   8   8   8   8   8   8
#     4   9  19  37  64  94 126 161 200 241 289 341
#     4   9  20  40  62  88 124 167 201 237 292 353
#     4  12  25  42  63  90 122 161 205 252 302 358
#     4  10  19  34  58  86 115 149 195 249 305 370
#     4   9  19  35  58  85 114 151 193 245 311 368
#     4  11  23  41  63  87 117 156 201 252 307 365
#     4  12  25  41  60  85 118 159 204 252 306 364
#
# _framework density 20.657349
#
# number of rings (size 3 to 8) (size 9 to 14) (size 15 to 20)
#    0.000    1.714    1.429    4.286    0.000    4.000 
#    0.000    7.143    0.000    0.000    0.000    0.000 
#    0.000    0.000    0.000    0.000    0.000    0.000 
#
# Total GULP energy -156459.342013 kJ/mol
# GULP energy per Si atom -5587.833643 kJ/mol
# Density = 2.061033 g / cm^3
# Si number density = 20.657349 Si / 1000 Ang^3
#
#
#
# Elastic Constant Matrix: (Units=GPa)
#
#
# Indices 1 2 3 4 5 6 
#
# 1 86.0489 -4.1531 13.9754 0.0000 23.5118 0.0000
# 2 -4.1531 35.5604 22.0443 0.0000 7.7387 0.0000
# 3 13.9754 22.0443 79.2092 0.0000 30.6533 0.0000
# 4 0.0000 0.0000 0.0000 27.0673 0.0000 -0.9487
# 5 23.5118 7.7387 30.6533 0.0000 24.5055 0.0000
# 6 0.0000 0.0000 0.0000 -0.9487 0.0000 30.1535
#
#
#
# Elastic Compliance Matrix: (Units=1/GPa)
#
#
# Indices 1 2 3 4 5 6 
#
# 1 0.017846 0.004197 0.005471 0.000000 -0.025290 0.000000
# 2 0.004197 0.035029 -0.009013 0.000000 -0.003814 0.000000
# 3 0.005471 -0.009013 0.029264 0.000000 -0.039008 0.000000
# 4 0.000000 0.000000 0.000000 0.036986 0.000000 0.001164
# 5 -0.025290 -0.003814 -0.039008 0.000000 0.115070 0.000000
# 6 0.000000 0.000000 0.000000 0.001164 0.000000 0.033200
#
#
# Mechanical properties :
#
#
# Convention : Reuss Voigt Hill
#
# Bulk Modulus (GPa) = 11.98380 29.39463 20.68921
# Shear Modulus (GPa) = 17.01252 27.60869 22.31061
#
# Velocity S-wave (km/s) = 2.87288 3.65979 3.28995
# Velocity P-wave (km/s) = 4.10103 5.66739 4.94660
#
# Compressibility (1/GPa) = 0.08344600
#
# Stress axis : x y z
#
# Youngs Moduli (GPa) = 56.03619 28.54807 34.17213
#
# Poissons Ratio (x) = -0.11980 -0.18694
# Poissons Ratio (y) = -0.23516 0.30800
# Poissons Ratio (z) = -0.30655 0.25731
#
# Static dielectric constant tensor:
#      x y z
#    x 1.745780 0.000000 0.013080 
#    y 0.000000 1.690120 0.000000 
#    z 0.013080 0.000000 1.766460 
# 
# From -- ./inp_files/338528.got.cif
#   From: 2010.05.17/outbox.cif.g08.bks.cpg/sg12_170_cif.got.tgz:338528.got - 2010.06.03 13:09:07.
