data_PCOD9185468
_publ_section_title
;
Structure prediction by ZEFSAII (Michael W. Deem and Ramdas Pophale) SiO2 
 PCOD9185468
Probable space group: C 2/M
;
_chemical_formula_sum "Si O2"
_cell_formula_units_Z 48
_cell_length_a 29.620209
_cell_length_b 8.671360
_cell_length_c 8.281898
_cell_angle_alpha 90.000000
_cell_angle_beta 102.186080
_cell_angle_gamma 90.000000
_cell_volume 2079.253345
_symmetry_space_group_name_H-M "C 2/M"
_symmetry_group_IT_number 12
_symmetry_cell_setting 'monoclinic'
loop_
_space_group_symop_operation_xyz
x,y,z
-x,y,-z
-x,-y,-z
x,-y,z
1/2+x,1/2+y,z
1/2-x,1/2+y,-z
1/2-x,1/2-y,-z
1/2+x,1/2-y,z
loop_
_atom_site_type_symbol
_atom_site_label
_atom_site_fract_x
_atom_site_fract_y
_atom_site_fract_z
Si Si1 0.727994 0.313773 0.821564
Si Si2 0.361730 0.314688 0.418136
Si Si3 0.029824 0.674454 0.189658
Si Si4 0.890221 0.824123 0.931802
Si Si5 0.947941 0.181392 0.307746
Si Si6 0.686116 0.819789 0.306187
O O1 0.728357 0.500000 0.828822
O O2 0.675978 0.264063 0.743722
O O3 0.762791 0.266496 0.703742
O O4 0.750000 0.250000 0.000000
O O5 0.364917 0.500000 0.412221
O O6 0.413258 0.256709 0.418732
O O7 0.338477 0.267989 0.567340
O O8 0.046213 0.500000 0.231071
O O9 0.071875 0.786515 0.177602
O O10 0.995101 0.732201 0.301398
O O11 0.000000 0.671886 0.000000
O O12 0.847432 0.711855 0.871543
O O13 0.873837 0.000000 0.906054
O O14 0.916594 0.808346 0.121246
O O15 0.958168 0.000000 0.340860
O O16 0.687465 0.000000 0.345012
#
# Coordination Sequence:
#
# PCOD9185468 Si02
#       6
#     8   8   8   8   8   8
#     4  10  22  39  60  85 111 141 181 226 269 319
#     4  10  21  38  57  79 110 147 184 221 266 324
#     4   9  17  30  51  80 112 142 176 224 276 321
#     4  10  19  34  57  81 108 145 185 225 270 322
#     4   9  18  33  55  81 107 140 185 228 267 320
#     4  11  23  37  54  81 114 145 180 224 273 322
#
# _framework density 23.08521
#
# number of rings (size 3 to 8) (size 9 to 14) (size 15 to 20)
#    0.000    2.167    0.000    3.000    0.000    6.667 
#    0.000    0.833    0.000    5.000    0.000    0.000 
#    0.000    0.000    0.000    0.000    0.000    0.000 
#
# Total GULP energy -134209.267787 kJ/mol
# GULP energy per Si atom -5592.052824 kJ/mol
# Density = 2.303267 g / cm^3
# Si number density = 23.085210 Si / 1000 Ang^3
#
#
#
# Elastic Constant Matrix: (Units=GPa)
#
#
# Indices 1 2 3 4 5 6 
#
# 1 123.1724 9.0643 29.0337 0.0000 -19.9991 0.0000
# 2 9.0643 13.6629 -0.8434 0.0000 -9.1648 0.0000
# 3 29.0337 -0.8434 79.1442 0.0000 -11.7874 0.0000
# 4 0.0000 0.0000 0.0000 26.3306 0.0000 -2.6103
# 5 -19.9991 -9.1648 -11.7874 0.0000 44.3731 0.0000
# 6 0.0000 0.0000 0.0000 -2.6103 0.0000 24.6201
#
#
#
# Elastic Compliance Matrix: (Units=1/GPa)
#
#
# Indices 1 2 3 4 5 6 
#
# 1 0.009643 -0.004939 -0.003222 0.000000 0.002470 0.000000
# 2 -0.004939 0.088525 0.005359 0.000000 0.017481 0.000000
# 3 -0.003222 0.005359 0.014392 0.000000 0.003478 0.000000
# 4 0.000000 0.000000 0.000000 0.038382 0.000000 0.004069
# 5 0.002470 0.017481 0.003478 0.000000 0.028184 0.000000
# 6 0.000000 0.000000 0.000000 0.004069 0.000000 0.041049
#
#
# Mechanical properties :
#
#
# Convention : Reuss Voigt Hill
#
# Bulk Modulus (GPa) = 9.34977 32.27651 20.81314
# Shear Modulus (GPa) = 19.12552 30.97977 25.05264
#
# Velocity S-wave (km/s) = 2.88145 3.66727 3.29785
# Velocity P-wave (km/s) = 3.88963 5.65187 4.85144
#
# Compressibility (1/GPa) = 0.10695452
#
# Stress axis : x y z
#
# Youngs Moduli (GPa) = 103.70492 11.29629 69.48168
#
# Poissons Ratio (x) = 0.05580 0.22388
# Poissons Ratio (y) = 0.51224 -0.37235
# Poissons Ratio (z) = 0.33416 -0.06054
#
# Static dielectric constant tensor:
#      x y z
#    x 1.870350 0.000000 0.014070 
#    y 0.000000 1.779830 0.000000 
#    z 0.014070 0.000000 1.937640 
# 
# From -- ./inp_files/108562.got.cif
#   From: 2010.05.17/outbox.cif.g08.bks.cpg/sg12_55_cif.got.tgz:108562.got - 2010.06.03 13:09:07.
