data_PCOD9185813
_publ_section_title
;
Structure prediction by ZEFSAII (Michael W. Deem and Ramdas Pophale) SiO2 
 PCOD9185813
Probable space group: C 2/M
;
_chemical_formula_sum "Si O2"
_cell_formula_units_Z 40
_cell_length_a 18.328146
_cell_length_b 7.621352
_cell_length_c 20.509025
_cell_angle_alpha 90.000000
_cell_angle_beta 47.013539
_cell_angle_gamma 90.000000
_cell_volume 2095.649799
_symmetry_space_group_name_H-M "C 2/M"
_symmetry_group_IT_number 12
_symmetry_cell_setting 'monoclinic'
loop_
_space_group_symop_operation_xyz
x,y,z
-x,y,-z
-x,-y,-z
x,-y,z
1/2+x,1/2+y,z
1/2-x,1/2+y,-z
1/2-x,1/2-y,-z
1/2+x,1/2-y,z
loop_
_atom_site_type_symbol
_atom_site_label
_atom_site_fract_x
_atom_site_fract_y
_atom_site_fract_z
Si Si1 0.278738 0.206736 0.408432
Si Si2 0.665466 0.500000 0.894622
Si Si3 0.491986 0.500000 0.894869
Si Si4 0.143523 0.299443 0.243763
Si Si5 0.994207 0.285278 0.223772
Si Si6 0.393445 0.210425 0.589642
O O1 0.250000 0.250000 0.500000
O O2 0.387594 0.269594 0.319556
O O3 0.193257 0.259314 0.409753
O O4 0.286107 0.000000 0.400830
O O5 0.591186 0.500000 0.878888
O O6 0.740936 0.334280 0.843758
O O7 0.601179 0.500000 0.999034
O O8 0.491735 0.673392 0.850185
O O9 0.102228 0.500000 0.274753
O O10 0.131323 0.219764 0.322865
O O11 0.079460 0.228005 0.223357
O O12 0.997519 0.500000 0.211794
O O13 0.500000 0.278476 0.500000
O O14 0.401101 0.000000 0.589877
#
# Coordination Sequence:
#
# PCOD9185813 Si02
#       6
#     8   4   4   8   8   8
#     4  11  23  36  55  84 117 155 200 248 289 349
#     4   9  20  38  61  90 121 157 199 249 310 363
#     4  11  22  38  68  90 114 163 203 247 307 361
#     4   8  17  36  57  79 122 155 186 249 297 353
#     4  10  22  40  60  90 121 155 203 250 297 356
#     4  10  19  34  58  83 115 161 194 234 300 354
#
# _framework density 19.087157999999999
#
# number of rings (size 3 to 8) (size 9 to 14) (size 15 to 20)
#    0.600    1.600    0.000    3.000    2.800    4.400 
#    1.800    2.000    2.200    0.000    0.000    0.000 
#    0.000    0.000    0.000    0.000    0.000    0.000 
#
# Total GULP energy -111435.616496 kJ/mol
# GULP energy per Si atom -5571.780825 kJ/mol
# Density = 1.904371 g / cm^3
# Si number density = 19.087158 Si / 1000 Ang^3
#
#
#
# Elastic Constant Matrix: (Units=GPa)
#
#
# Indices 1 2 3 4 5 6 
#
# 1 185.8234 26.6328 124.0466 0.0000 2.6517 0.0000
# 2 26.6328 53.4138 36.9806 0.0001 6.7399 0.0000
# 3 124.0466 36.9806 178.0340 0.0000 5.7589 0.0000
# 4 0.0000 0.0001 0.0000 2.7288 0.0000 14.5388
# 5 2.6517 6.7399 5.7589 0.0000 35.4402 0.0000
# 6 0.0000 0.0000 0.0000 14.5388 0.0000 11.5511
#
#
#
# Elastic Compliance Matrix: (Units=1/GPa)
#
#
# Indices 1 2 3 4 5 6 
#
# 1 0.010069 -0.000242 -0.006979 0.000000 0.000427 0.000000
# 2 -0.000242 0.022297 -0.004349 0.000000 -0.003516 0.000000
# 3 -0.006979 -0.004349 0.011399 0.000000 -0.000503 0.000000
# 4 0.000000 0.000000 0.000000 -0.064224 0.000000 0.080836
# 5 0.000427 -0.003516 -0.000503 0.000000 0.028935 0.000000
# 6 0.000000 0.000000 0.000000 0.080836 0.000000 -0.015172
#
#
# Mechanical properties :
#
#
# Convention : Reuss Voigt Hill
#
# Bulk Modulus (GPa) = 48.48576 88.06568 68.27572
# Shear Modulus (GPa) = 214.41283 25.25143 119.83213
#
# Velocity S-wave (km/s) = 10.61025 3.64119 7.93208
# Velocity P-wave (km/s) = 13.24993 7.99478 10.94251
#
# Compressibility (1/GPa) = 0.02062461
#
# Stress axis : x y z
#
# Youngs Moduli (GPa) = 99.31439 44.84880 87.72503
#
# Poissons Ratio (x) = 0.01087 0.61224
# Poissons Ratio (y) = 0.02408 0.38150
# Poissons Ratio (z) = 0.69313 0.19504
#
# Static dielectric constant tensor:
#      x y z
#    x 1.645570 0.000000 -0.026330 
#    y 0.000000 1.702040 0.000000 
#    z -0.026330 0.000000 1.658940 
# 
# From -- ./inp_files/266951.got.cif
#   From: 2010.05.17/outbox.cif.g08.bks.cpg/sg12_134_cif.got.tgz:266951.got - 2010.06.03 13:09:07.
