data_PCOD9185942
_publ_section_title
;
Structure prediction by ZEFSAII (Michael W. Deem and Ramdas Pophale) SiO2 
 PCOD9185942
Probable space group: C 2/M
;
_chemical_formula_sum "Si O2"
_cell_formula_units_Z 50
_cell_length_a 25.503229
_cell_length_b 7.578606
_cell_length_c 11.661618
_cell_angle_alpha 90.000000
_cell_angle_beta 111.060293
_cell_angle_gamma 90.000000
_cell_volume 2103.387758
_symmetry_space_group_name_H-M "C 2/M"
_symmetry_group_IT_number 12
_symmetry_cell_setting 'monoclinic'
loop_
_space_group_symop_operation_xyz
x,y,z
-x,y,-z
-x,-y,-z
x,-y,z
1/2+x,1/2+y,z
1/2-x,1/2+y,-z
1/2-x,1/2-y,-z
1/2+x,1/2-y,z
loop_
_atom_site_type_symbol
_atom_site_label
_atom_site_fract_x
_atom_site_fract_y
_atom_site_fract_z
Si Si1 0.338746 0.798798 0.632628
Si Si2 0.460212 0.202784 0.280569
Si Si3 0.951387 0.804570 0.831038
Si Si4 0.500000 0.500000 0.500000
Si Si5 0.715459 0.712514 0.627538
Si Si6 0.392818 0.211188 0.015281
Si Si7 0.731529 0.210682 0.112079
O O1 0.390653 0.694783 0.721639
O O2 0.332178 0.790556 0.490474
O O3 0.277693 0.738841 0.628805
O O4 0.346152 0.000000 0.677739
O O5 0.509949 0.193677 0.223706
O O6 0.476921 0.342705 0.391355
O O7 0.450406 0.000000 0.313869
O O8 0.409535 0.267726 0.156802
O O9 0.937720 0.751472 0.950775
O O10 0.975581 0.000000 0.848887
O O11 0.709353 0.500000 0.613977
O O12 0.721512 0.774287 0.761957
O O13 0.332107 0.279449 0.925825
O O14 0.389340 0.000000 0.019138
O O15 0.728705 0.000000 0.128851
O O16 0.750000 0.250000 0.000000
#
# Coordination Sequence:
#
# PCOD9185942 Si02
#       7
#     8   8   8   2   8   8   8
#     4  10  19  34  58  86 125 164 207 264 334 394
#     4  11  25  47  74 101 137 183 221 280 343 403
#     4  12  23  38  66 104 136 168 227 287 341 406
#     4  12  26  52  70  98 140 172 234 278 324 418
#     4   9  18  35  55  81 120 165 211 265 323 383
#     4  10  22  43  69  96 132 176 222 279 346 405
#     4  10  21  40  60  88 127 170 219 268 323 398
#
# _framework density 23.771176000000001
#
# number of rings (size 3 to 8) (size 9 to 14) (size 15 to 20)
#    0.000    1.600    2.400    2.640    1.120    3.840 
#    2.880    0.000    0.000    0.000    0.000    0.000 
#    0.000    0.000    0.000    0.000    0.000    0.000 
#
# Total GULP energy -139382.913706 kJ/mol
# GULP energy per Si atom -5575.316548 kJ/mol
# Density = 2.371707 g / cm^3
# Si number density = 23.771176 Si / 1000 Ang^3
#
#
#
# Elastic Constant Matrix: (Units=GPa)
#
#
# Indices 1 2 3 4 5 6 
#
# 1 24.4153 -8.6321 -6.2317 0.0000 1.8956 0.0000
# 2 -8.6321 101.8585 38.3565 0.0000 3.2714 0.0000
# 3 -6.2317 38.3565 187.5283 0.0000 -5.7292 0.0000
# 4 0.0000 0.0000 0.0000 33.3301 0.0000 -4.7061
# 5 1.8956 3.2714 -5.7292 0.0000 25.1825 0.0000
# 6 0.0000 0.0000 0.0000 -4.7061 0.0000 9.2249
#
#
#
# Elastic Compliance Matrix: (Units=1/GPa)
#
#
# Indices 1 2 3 4 5 6 
#
# 1 0.042621 0.003502 0.000592 0.000000 -0.003529 0.000000
# 2 0.003502 0.011015 -0.002204 0.000000 -0.002196 0.000000
# 3 0.000592 -0.002204 0.005851 0.000000 0.001573 0.000000
# 4 0.000000 0.000000 0.000000 0.032332 0.000000 0.016494
# 5 -0.003529 -0.002196 0.001573 0.000000 0.040619 0.000000
# 6 0.000000 0.000000 0.000000 0.016494 0.000000 0.116817
#
#
# Mechanical properties :
#
#
# Convention : Reuss Voigt Hill
#
# Bulk Modulus (GPa) = 15.80563 40.08750 27.94656
# Shear Modulus (GPa) = 18.75737 32.90147 25.82942
#
# Velocity S-wave (km/s) = 2.81211 3.72437 3.29992
# Velocity P-wave (km/s) = 4.14818 5.94938 5.12848
#
# Compressibility (1/GPa) = 0.06326861
#
# Stress axis : x y z
#
# Youngs Moduli (GPa) = 23.46250 90.78792 170.91156
#
# Poissons Ratio (x) = -0.31797 -0.10121
# Poissons Ratio (y) = -0.08217 0.37662
# Poissons Ratio (z) = -0.01389 0.20006
#
# Static dielectric constant tensor:
#      x y z
#    x 1.921840 0.000000 0.003300 
#    y 0.000000 1.963880 0.000000 
#    z 0.003300 0.000000 1.964830 
# 
# From -- ./inp_files/181236.got.cif
#   From: 2010.05.17/outbox.cif.g08.bks.cpg/sg12_91_cif.got.tgz:181236.got - 2010.06.03 13:09:07.
