data_PCOD9185651
_publ_section_title
;
Structure prediction by ZEFSAII (Michael W. Deem and Ramdas Pophale) SiO2 
 PCOD9185651
Probable space group: C 2/M
;
_chemical_formula_sum "Si O2"
_cell_formula_units_Z 64
_cell_length_a 33.007227
_cell_length_b 8.918666
_cell_length_c 12.486747
_cell_angle_alpha 90.000000
_cell_angle_beta 91.378968
_cell_angle_gamma 90.000000
_cell_volume 3674.789430
_symmetry_space_group_name_H-M "C 2/M"
_symmetry_group_IT_number 12
_symmetry_cell_setting 'monoclinic'
loop_
_space_group_symop_operation_xyz
x,y,z
-x,y,-z
-x,-y,-z
x,-y,z
1/2+x,1/2+y,z
1/2-x,1/2+y,-z
1/2-x,1/2-y,-z
1/2+x,1/2-y,z
loop_
_atom_site_type_symbol
_atom_site_label
_atom_site_fract_x
_atom_site_fract_y
_atom_site_fract_z
Si Si1 0.493270 0.820774 0.175785
Si Si2 0.066536 0.679241 0.014786
Si Si3 0.815870 0.177698 0.514247
Si Si4 0.768893 0.819486 0.895510
Si Si5 0.137882 0.820677 0.139854
Si Si6 0.761013 0.679120 0.337088
Si Si7 0.522706 0.321225 0.390906
Si Si8 0.610446 0.821177 0.363243
O O1 0.454951 0.781540 0.098725
O O2 0.497357 0.734741 0.286780
O O3 0.492330 0.000000 0.194548
O O4 0.533070 0.790936 0.105309
O O5 0.073924 0.500000 0.015878
O O6 0.106846 0.767365 0.046736
O O7 0.795897 0.235232 0.403299
O O8 0.781315 0.205935 0.602540
O O9 0.856199 0.263977 0.550303
O O10 0.823389 0.000000 0.511752
O O11 0.816039 0.777976 0.884132
O O12 0.745226 0.774672 0.785864
O O13 0.767139 0.000000 0.901627
O O14 0.750000 0.750000 0.000000
O O15 0.123886 0.743640 0.248981
O O16 0.136131 0.000000 0.153579
O O17 0.768397 0.500000 0.342653
O O18 0.500000 0.285357 0.500000
O O19 0.528346 0.500000 0.384971
O O20 0.566227 0.241838 0.387731
O O21 0.609453 0.000000 0.358536
#
# Coordination Sequence:
#
# PCOD9185651 Si02
#       8
#     8   8   8   8   8   8   8   8
#     4   9  18  34  56  83 116 148 185 229 277 333
#     4   9  18  33  55  86 116 144 183 233 281 329
#     4  10  19  34  57  85 115 144 185 237 284 331
#     4  10  22  39  57  81 116 153 189 232 280 336
#     4  11  21  36  57  85 116 146 187 238 283 327
#     4   9  18  35  55  81 116 149 186 231 284 336
#     4  11  24  40  58  83 116 151 189 233 283 336
#     4  12  23  36  58  86 114 148 191 233 280 336
#
# _framework density 17.415965
#
# number of rings (size 3 to 8) (size 9 to 14) (size 15 to 20)
#    0.000    1.875    2.500    3.000    0.000    3.500 
#    0.000    2.500    0.000    3.000    0.000    0.000 
#    0.000    0.000    0.000    0.000    0.000    0.000 
#
# Total GULP energy -178695.883923 kJ/mol
# GULP energy per Si atom -5584.246373 kJ/mol
# Density = 1.737633 g / cm^3
# Si number density = 17.415965 Si / 1000 Ang^3
#
#
#
# Elastic Constant Matrix: (Units=GPa)
#
#
# Indices 1 2 3 4 5 6 
#
# 1 114.3625 61.7876 83.6413 0.0000 10.9825 0.0000
# 2 61.7876 68.3938 68.0200 0.0000 2.4776 0.0000
# 3 83.6413 68.0200 154.6396 0.0000 12.4776 0.0000
# 4 0.0000 0.0000 0.0000 31.4438 0.0000 4.7969
# 5 10.9825 2.4776 12.4776 0.0000 26.2931 0.0000
# 6 0.0000 0.0000 0.0000 4.7969 0.0000 28.5471
#
#
#
# Elastic Compliance Matrix: (Units=1/GPa)
#
#
# Indices 1 2 3 4 5 6 
#
# 1 0.019473 -0.013028 -0.004414 0.000000 -0.004812 0.000000
# 2 -0.013028 0.034952 -0.008839 0.000000 0.006343 0.000000
# 3 -0.004414 -0.008839 0.013025 0.000000 -0.003504 0.000000
# 4 0.000000 0.000000 0.000000 0.032639 0.000000 -0.005485
# 5 -0.004812 0.006343 -0.003504 0.000000 0.041108 0.000000
# 6 0.000000 0.000000 0.000000 -0.005485 0.000000 0.035951
#
#
# Mechanical properties :
#
#
# Convention : Reuss Voigt Hill
#
# Bulk Modulus (GPa) = 67.16986 84.92150 76.04568
# Shear Modulus (GPa) = 21.30615 25.51994 23.41304
#
# Velocity S-wave (km/s) = 3.50146 3.83210 3.67051
# Velocity P-wave (km/s) = 7.41611 8.27324 7.85638
#
# Compressibility (1/GPa) = 0.01488763
#
# Stress axis : x y z
#
# Youngs Moduli (GPa) = 51.35256 28.61048 76.77699
#
# Poissons Ratio (x) = 0.37275 0.33887
# Poissons Ratio (y) = 0.66904 0.67865
# Poissons Ratio (z) = 0.22666 0.25289
#
# Static dielectric constant tensor:
#      x y z
#    x 1.576180 0.000000 0.017550 
#    y 0.000000 1.579700 0.000000 
#    z 0.017550 0.000000 1.582650 
# 
# From -- ./inp_files/187454.got.cif
#   From: 2010.05.17/outbox.cif.g08.bks.cpg/sg12_94_cif.got.tgz:187454.got - 2010.06.03 13:09:07.
