data_PCOD9185372
_publ_section_title
;
Structure prediction by ZEFSAII (Michael W. Deem and Ramdas Pophale) SiO2 
 PCOD9185372
Probable space group: C 2/M
;
_chemical_formula_sum "Si O2"
_cell_formula_units_Z 48
_cell_length_a 21.105721
_cell_length_b 8.357764
_cell_length_c 15.579384
_cell_angle_alpha 90.000000
_cell_angle_beta 111.766513
_cell_angle_gamma 90.000000
_cell_volume 2552.215223
_symmetry_space_group_name_H-M "C 2/M"
_symmetry_group_IT_number 12
_symmetry_cell_setting 'monoclinic'
loop_
_space_group_symop_operation_xyz
x,y,z
-x,y,-z
-x,-y,-z
x,-y,z
1/2+x,1/2+y,z
1/2-x,1/2+y,-z
1/2-x,1/2-y,-z
1/2+x,1/2-y,z
loop_
_atom_site_type_symbol
_atom_site_label
_atom_site_fract_x
_atom_site_fract_y
_atom_site_fract_z
Si Si1 0.325272 0.693644 0.314350
Si Si2 0.675906 0.308057 0.181594
Si Si3 0.324738 0.693489 0.509010
Si Si4 0.174921 0.309883 0.989460
Si Si5 0.422490 0.693394 0.209868
Si Si6 0.921283 0.195556 0.712156
O O1 0.325185 0.500000 0.313708
O O2 0.250794 0.750236 0.247366
O O3 0.338574 0.747142 0.418565
O O4 0.381290 0.748434 0.273584
O O5 0.676117 0.500000 0.180143
O O6 0.621206 0.254142 0.225308
O O7 0.660531 0.246146 0.078881
O O8 0.324822 0.500000 0.509442
O O9 0.250000 0.750000 0.500000
O O10 0.380234 0.747363 0.606688
O O11 0.175334 0.500000 0.986482
O O12 0.119835 0.245031 0.894586
O O13 0.250000 0.250000 0.000000
O O14 0.423509 0.500000 0.212300
O O15 0.500556 0.749709 0.247588
O O16 0.921682 0.000000 0.712093
#
# Coordination Sequence:
#
# PCOD9185372 Si02
#       6
#     8   8   8   8   8   8
#     4  10  20  33  57  87 115 149 194 242 285 335
#     4  11  21  36  60  86 115 153 194 236 282 342
#     4  10  19  34  56  86 116 151 196 240 285 338
#     4  12  24  39  60  87 115 149 193 239 289 344
#     4  10  21  39  59  84 118 154 193 238 288 341
#     4   9  20  37  58  85 119 156 193 235 286 342
#
# _framework density 18.807191
#
# number of rings (size 3 to 8) (size 9 to 14) (size 15 to 20)
#    0.000    1.667    3.333    2.000    0.000    1.333 
#    0.000    9.167    0.000    0.000    0.000    3.500 
#    0.000    0.000    0.000    0.000    0.000    0.000 
#
# Total GULP energy -134072.484982 kJ/mol
# GULP energy per Si atom -5586.353541 kJ/mol
# Density = 1.876439 g / cm^3
# Si number density = 18.807191 Si / 1000 Ang^3
#
#
#
# Elastic Constant Matrix: (Units=GPa)
#
#
# Indices 1 2 3 4 5 6 
#
# 1 199.5447 20.9224 127.1056 0.0000 0.1994 0.0000
# 2 20.9224 14.2283 17.0435 0.0000 -4.2713 0.0000
# 3 127.1056 17.0435 213.0427 0.0000 -8.6101 0.0000
# 4 0.0000 0.0000 0.0000 24.1806 0.0000 3.2791
# 5 0.1994 -4.2713 -8.6101 0.0000 38.0943 0.0000
# 6 0.0000 0.0000 0.0000 3.2791 0.0000 23.2508
#
#
#
# Elastic Compliance Matrix: (Units=1/GPa)
#
#
# Indices 1 2 3 4 5 6 
#
# 1 0.008863 -0.007968 -0.004731 0.000000 -0.002009 0.000000
# 2 -0.007968 0.087005 -0.001827 0.000000 0.009384 0.000000
# 3 -0.004731 -0.001827 0.007726 0.000000 0.001566 0.000000
# 4 0.000000 0.000000 0.000000 0.042162 0.000000 -0.005946
# 5 -0.002009 0.009384 0.001566 0.000000 0.027667 0.000000
# 6 0.000000 0.000000 0.000000 -0.005946 0.000000 0.043848
#
#
# Mechanical properties :
#
#
# Convention : Reuss Voigt Hill
#
# Bulk Modulus (GPa) = 13.41546 84.10651 48.76099
# Shear Modulus (GPa) = 18.43850 34.55475 26.49662
#
# Velocity S-wave (km/s) = 3.13452 4.29104 3.75754
# Velocity P-wave (km/s) = 4.49989 8.32876 6.69392
#
# Compressibility (1/GPa) = 0.07454085
#
# Stress axis : x y z
#
# Youngs Moduli (GPa) = 112.83280 11.49354 129.42912
#
# Poissons Ratio (x) = 0.09158 0.61238
# Poissons Ratio (y) = 0.89905 0.23651
# Poissons Ratio (z) = 0.53386 0.02100
#
# Static dielectric constant tensor:
#      x y z
#    x 1.612930 0.000000 -0.018310 
#    y 0.000000 1.658500 0.000000 
#    z -0.018310 0.000000 1.637310 
# 
# From -- ./inp_files/230387.got.cif
#   From: 2010.05.17/outbox.cif.g08.bks.cpg/sg12_116_cif.got.tgz:230387.got - 2010.06.03 13:09:07.
