data_PCOD9185171
_publ_section_title
;
Structure prediction by ZEFSAII (Michael W. Deem and Ramdas Pophale) SiO2 
 PCOD9185171
Probable space group: C 2/M
;
_chemical_formula_sum "Si O2"
_cell_formula_units_Z 44
_cell_length_a 27.614550
_cell_length_b 11.493743
_cell_length_c 16.640410
_cell_angle_alpha 90.000000
_cell_angle_beta 155.014775
_cell_angle_gamma 90.000000
_cell_volume 2230.855728
_symmetry_space_group_name_H-M "C 2/M"
_symmetry_group_IT_number 12
_symmetry_cell_setting 'monoclinic'
loop_
_space_group_symop_operation_xyz
x,y,z
-x,y,-z
-x,-y,-z
x,-y,z
1/2+x,1/2+y,z
1/2-x,1/2+y,-z
1/2-x,1/2-y,-z
1/2+x,1/2-y,z
loop_
_atom_site_type_symbol
_atom_site_label
_atom_site_fract_x
_atom_site_fract_y
_atom_site_fract_z
Si Si1 0.340716 0.743458 0.562693
Si Si2 0.172756 0.361868 0.720053
Si Si3 0.600966 0.233039 0.954162
Si Si4 0.058202 0.358707 0.712955
Si Si5 0.243250 0.000000 0.592877
Si Si6 0.837730 0.500000 0.564311
Si Si7 0.909495 0.500000 0.977331
O O1 0.250000 0.750000 0.500000
O O2 0.472936 0.733176 0.790126
O O3 0.313561 0.625295 0.473191
O O4 0.331268 0.874930 0.510710
O O5 0.164264 0.500000 0.704868
O O6 0.144325 0.329125 0.769724
O O7 0.066882 0.319621 0.506615
O O8 0.298140 0.323755 0.883107
O O9 0.587740 0.201688 0.840510
O O10 0.638762 0.116664 0.056394
O O11 0.058208 0.500000 0.724495
O O12 0.367596 0.000000 0.822619
O O13 0.248992 0.000000 0.504523
O O14 0.959633 0.500000 0.794550
#
# Coordination Sequence:
#
# PCOD9185171 Si02
#       7
#     8   8   8   8   4   4   4
#     4   9  20  35  56  82 116 152 185 229 279 330
#     4   9  20  35  57  81 106 139 188 229 286 330
#     4  11  20  34  56  80 114 141 189 226 277 336
#     4   9  18  37  57  78 105 146 183 230 276 343
#     4  10  19  34  56  79 114 140 187 238 281 317
#     4   8  17  38  56  77 103 152 191 222 275 334
#     4  10  21  32  52  82 104 147 188 221 269 342
#
# _framework density 19.723372000000001
#
# number of rings (size 3 to 8) (size 9 to 14) (size 15 to 20)
#    0.000    2.545    0.909    1.909    3.818    0.000 
#    0.000    0.000    0.000    1.091    0.000   14.000 
#    0.000    0.000    0.000    0.000    0.000    0.000 
#
# Total GULP energy -122498.865296 kJ/mol
# GULP energy per Si atom -5568.130241 kJ/mol
# Density = 1.967848 g / cm^3
# Si number density = 19.723372 Si / 1000 Ang^3
#
#
#
# Elastic Constant Matrix: (Units=GPa)
#
#
# Indices 1 2 3 4 5 6 
#
# 1 49.8232 9.0221 18.5053 0.0000 6.5697 0.0000
# 2 9.0221 100.9395 28.3161 0.0000 -3.3907 0.0000
# 3 18.5053 28.3161 79.3106 0.0000 17.5973 0.0000
# 4 0.0000 0.0000 0.0000 18.8767 0.0000 15.6246
# 5 6.5697 -3.3907 17.5973 0.0000 34.3492 0.0000
# 6 0.0000 0.0000 0.0000 15.6246 0.0000 13.5104
#
#
#
# Elastic Compliance Matrix: (Units=1/GPa)
#
#
# Indices 1 2 3 4 5 6 
#
# 1 0.022129 -0.000806 -0.004421 0.000000 -0.002047 0.000000
# 2 -0.000806 0.011425 -0.004711 0.000000 0.003695 0.000000
# 3 -0.004421 -0.004711 0.017192 0.000000 -0.008427 0.000000
# 4 0.000000 0.000000 0.000000 1.239269 0.000000 -1.433203
# 5 -0.002047 0.003695 -0.008427 0.000000 0.034186 0.000000
# 6 0.000000 0.000000 0.000000 -1.433203 0.000000 1.731504
#
#
# Mechanical properties :
#
#
# Convention : Reuss Voigt Hill
#
# Bulk Modulus (GPa) = 32.39505 37.97337 35.18421
# Shear Modulus (GPa) = 1.62029 24.96257 13.29143
#
# Velocity S-wave (km/s) = 0.90735 3.56143 2.59876
# Velocity P-wave (km/s) = 4.19024 6.01719 5.18481
#
# Compressibility (1/GPa) = 0.03086891
#
# Stress axis : x y z
#
# Youngs Moduli (GPa) = 45.18949 87.53051 58.16734
#
# Poissons Ratio (x) = 0.07059 0.25717
# Poissons Ratio (y) = 0.03644 0.27400
# Poissons Ratio (z) = 0.19979 0.41232
#
# Static dielectric constant tensor:
#      x y z
#    x 1.746300 0.000000 0.017630 
#    y 0.000000 1.728130 0.000000 
#    z 0.017630 0.000000 1.675820 
# 
# From -- ./inp_files/203412.got.cif
#   From: 2010.05.17/outbox.cif.g08.bks.cpg/sg12_102_cif.got.tgz:203412.got - 2010.06.03 13:09:07.
