data_PCOD9185837
_publ_section_title
;
Structure prediction by ZEFSAII (Michael W. Deem and Ramdas Pophale) SiO2 
 PCOD9185837
Probable space group: C 2/M
;
_chemical_formula_sum "Si O2"
_cell_formula_units_Z 56
_cell_length_a 14.899620
_cell_length_b 8.430455
_cell_length_c 27.517505
_cell_angle_alpha 90.000000
_cell_angle_beta 127.955666
_cell_angle_gamma 90.000000
_cell_volume 2725.396812
_symmetry_space_group_name_H-M "C 2/M"
_symmetry_group_IT_number 12
_symmetry_cell_setting 'monoclinic'
loop_
_space_group_symop_operation_xyz
x,y,z
-x,y,-z
-x,-y,-z
x,-y,z
1/2+x,1/2+y,z
1/2-x,1/2+y,-z
1/2-x,1/2-y,-z
1/2+x,1/2-y,z
loop_
_atom_site_type_symbol
_atom_site_label
_atom_site_fract_x
_atom_site_fract_y
_atom_site_fract_z
Si Si1 0.370934 0.181208 0.287447
Si Si2 0.897276 0.191654 0.000338
Si Si3 0.798456 0.808229 0.445687
Si Si4 0.225740 0.314563 0.317790
Si Si5 0.017965 0.814199 0.765142
Si Si6 0.143693 0.808408 0.904043
Si Si7 0.569416 0.686984 0.419135
O O1 0.259162 0.219982 0.280966
O O2 0.390889 0.287895 0.247037
O O3 0.472769 0.217875 0.359139
O O4 0.373585 0.000000 0.272883
O O5 0.904691 0.242712 0.059450
O O6 0.899093 0.000000 0.000294
O O7 0.772587 0.247018 0.941918
O O8 0.000000 0.247903 0.000000
O O9 0.801163 0.768305 0.389807
O O10 0.688506 0.721723 0.431537
O O11 0.904379 0.771495 0.515993
O O12 0.781015 0.000000 0.443182
O O13 0.244456 0.500000 0.315129
O O14 0.095011 0.281041 0.286652
O O15 0.067598 0.758585 0.833110
O O16 0.989025 0.000000 0.758383
O O17 0.147332 0.000000 0.904977
O O18 0.542133 0.500000 0.407094
#
# Coordination Sequence:
#
# PCOD9185837 Si02
#       7
#     8   8   8   8   8   8   8
#     4  12  25  40  58  83 115 154 201 249 299 354
#     4   9  18  35  60  90 123 156 190 230 277 333
#     4   9  19  35  57  84 113 146 187 240 300 363
#     4  11  23  40  61  86 116 152 196 244 299 360
#     4  11  23  41  61  85 120 159 200 246 292 342
#     4   9  20  37  58  87 121 155 192 234 281 336
#     4  10  19  34  58  84 112 147 189 242 302 357
#
# _framework density 20.547466
#
# number of rings (size 3 to 8) (size 9 to 14) (size 15 to 20)
#    0.000    1.857    1.429    2.571    0.000    4.286 
#    0.000    4.286    0.000    0.000    0.000    0.000 
#    0.000    0.000    0.000    0.000    0.000    0.000 
#
# Total GULP energy -156410.954266 kJ/mol
# GULP energy per Si atom -5586.105509 kJ/mol
# Density = 2.050070 g / cm^3
# Si number density = 20.547466 Si / 1000 Ang^3
#
#
#
# Elastic Constant Matrix: (Units=GPa)
#
#
# Indices 1 2 3 4 5 6 
#
# 1 85.3130 3.0448 20.8154 0.0000 -19.4329 0.0000
# 2 3.0448 18.2949 10.6416 0.0000 -0.9463 0.0000
# 3 20.8154 10.6416 102.7694 0.0000 -13.5938 0.0000
# 4 0.0000 0.0000 0.0000 21.4634 0.0000 6.0952
# 5 -19.4329 -0.9463 -13.5938 0.0000 14.2641 0.0000
# 6 0.0000 0.0000 0.0000 6.0952 0.0000 22.6990
#
#
#
# Elastic Compliance Matrix: (Units=1/GPa)
#
#
# Indices 1 2 3 4 5 6 
#
# 1 0.017051 -0.001496 -0.000274 0.000000 0.022870 0.000000
# 2 -0.001496 0.058352 -0.006290 0.000000 -0.004160 0.000000
# 3 -0.000274 -0.006290 0.011823 0.000000 0.010477 0.000000
# 4 0.000000 0.000000 0.000000 0.050437 0.000000 -0.013543
# 5 0.022870 -0.004160 0.010477 0.000000 0.110972 0.000000
# 6 0.000000 0.000000 0.000000 -0.013543 0.000000 0.047691
#
#
# Mechanical properties :
#
#
# Convention : Reuss Voigt Hill
#
# Bulk Modulus (GPa) = 14.06301 30.59788 22.33045
# Shear Modulus (GPa) = 14.87444 23.14368 19.00906
#
# Velocity S-wave (km/s) = 2.69347 3.35976 3.04489
# Velocity P-wave (km/s) = 4.06596 5.47488 4.82215
#
# Compressibility (1/GPa) = 0.07110851
#
# Stress axis : x y z
#
# Youngs Moduli (GPa) = 58.64760 17.13730 84.57991
#
# Poissons Ratio (x) = 0.02563 0.02315
# Poissons Ratio (y) = 0.08771 0.53198
# Poissons Ratio (z) = 0.01605 0.10779
#
# Static dielectric constant tensor:
#      x y z
#    x 1.735660 0.000000 -0.017890 
#    y 0.000000 1.692300 0.000000 
#    z -0.017890 0.000000 1.732510 
# 
# From -- ./inp_files/339060.got.cif
#   From: 2010.05.17/outbox.cif.g08.bks.cpg/sg12_170_cif.got.tgz:339060.got - 2010.06.03 13:09:07.
