data_PCOD9185818
_publ_section_title
;
Structure prediction by ZEFSAII (Michael W. Deem and Ramdas Pophale) SiO2 
 PCOD9185818
Probable space group: C 2/M
;
_chemical_formula_sum "Si O2"
_cell_formula_units_Z 44
_cell_length_a 10.977271
_cell_length_b 27.859664
_cell_length_c 9.218875
_cell_angle_alpha 90.000000
_cell_angle_beta 139.223556
_cell_angle_gamma 90.000000
_cell_volume 1841.340356
_symmetry_space_group_name_H-M "C 2/M"
_symmetry_group_IT_number 12
_symmetry_cell_setting 'monoclinic'
loop_
_space_group_symop_operation_xyz
x,y,z
-x,y,-z
-x,-y,-z
x,-y,z
1/2+x,1/2+y,z
1/2-x,1/2+y,-z
1/2-x,1/2-y,-z
1/2+x,1/2-y,z
loop_
_atom_site_type_symbol
_atom_site_label
_atom_site_fract_x
_atom_site_fract_y
_atom_site_fract_z
Si Si1 0.920828 0.947265 0.091012
Si Si2 0.792606 0.868698 0.614621
Si Si3 0.275577 0.330971 0.287700
Si Si4 0.713920 0.230210 0.635025
Si Si5 0.022061 0.446751 0.320730
Si Si6 0.000000 0.406265 0.000000
O O1 0.024826 0.900877 0.249017
O O2 0.960002 0.000000 0.195353
O O3 0.000000 0.948623 0.000000
O O4 0.699857 0.942467 0.880445
O O5 0.718485 0.845989 0.398540
O O6 0.809565 0.821995 0.730755
O O7 0.637264 0.907709 0.513137
O O8 0.500000 0.332820 0.500000
O O9 0.221432 0.275841 0.210672
O O10 0.164324 0.370121 0.095779
O O11 0.500000 0.222953 0.500000
O O12 0.750000 0.250000 0.500000
O O13 0.076539 0.500000 0.416775
O O14 0.072387 0.438565 0.196520
#
# Coordination Sequence:
#
# PCOD9185818 Si02
#       6
#     8   8   8   8   8   4
#     4  10  22  37  52  77 111 144 184 231 275 326
#     4  10  20  35  57  80 107 148 187 225 279 333
#     4   9  18  35  55  79 113 145 178 228 280 331
#     4   9  19  35  56  82 113 147 188 235 282 338
#     4  10  21  36  56  82 112 144 184 231 278 334
#     4  10  19  34  58  84 108 144 185 224 280 338
#
# _framework density 23.895638000000002
#
# number of rings (size 3 to 8) (size 9 to 14) (size 15 to 20)
#    0.000    2.364    0.000    1.909    2.545    0.000 
#    1.636    2.727    0.000   20.727    0.000    0.000 
#    0.000    0.000    0.000    0.000    0.000    0.000 
#
# Total GULP energy -122599.552068 kJ/mol
# GULP energy per Si atom -5572.706912 kJ/mol
# Density = 2.384125 g / cm^3
# Si number density = 23.895638 Si / 1000 Ang^3
#
#
#
# Elastic Constant Matrix: (Units=GPa)
#
#
# Indices 1 2 3 4 5 6 
#
# 1 64.3198 31.3065 14.5076 0.0000 21.7479 0.0000
# 2 31.3065 223.2729 48.8989 0.0000 20.8319 0.0000
# 3 14.5076 48.8989 65.1478 0.0000 27.6248 0.0000
# 4 0.0000 0.0000 0.0000 -3.0517 0.0000 -7.1735
# 5 21.7479 20.8319 27.6248 0.0000 46.9315 0.0000
# 6 0.0000 0.0000 0.0000 -7.1735 0.0000 -50.0903
#
#
#
# Elastic Compliance Matrix: (Units=1/GPa)
#
#
# Indices 1 2 3 4 5 6 
#
# 1 0.019247 -0.002102 0.000903 0.000000 -0.008518 0.000000
# 2 -0.002102 0.005589 -0.004115 0.000000 0.000915 0.000000
# 3 0.000903 -0.004115 0.023508 0.000000 -0.012429 0.000000
# 4 0.000000 0.000000 0.000000 -0.493992 0.000000 0.070745
# 5 -0.008518 0.000915 -0.012429 0.000000 0.032164 0.000000
# 6 0.000000 0.000000 0.000000 0.070745 0.000000 -0.030096
#
#
# Mechanical properties :
#
#
# Convention : Reuss Voigt Hill
#
# Bulk Modulus (GPa) = 26.51394 60.24073 43.37734
# Shear Modulus (GPa) = -11.89401 15.95974 2.03287
#
# Velocity S-wave (km/s) = -2.23345 2.58717 0.92335
# Velocity P-wave (km/s) = 2.11394 5.84716 4.39648
#
# Compressibility (1/GPa) = 0.03771600
#
# Stress axis : x y z
#
# Youngs Moduli (GPa) = 51.95733 178.90848 42.53901
#
# Poissons Ratio (x) = 0.37603 -0.03843
# Poissons Ratio (y) = 0.10920 0.17507
# Poissons Ratio (z) = -0.04694 0.73629
#
# Static dielectric constant tensor:
#      x y z
#    x 1.935260 0.000000 0.039420 
#    y 0.000000 1.999250 0.000000 
#    z 0.039420 0.000000 1.962780 
# 
# From -- ./inp_files/137078.got.cif
#   From: 2010.05.17/outbox.cif.g08.bks.cpg/sg12_69_cif.got.tgz:137078.got - 2010.06.03 13:09:07.
