data_PCOD9185434
_publ_section_title
;
Structure prediction by ZEFSAII (Michael W. Deem and Ramdas Pophale) SiO2 
 PCOD9185434
Probable space group: C 2/M
;
_chemical_formula_sum "Si O2"
_cell_formula_units_Z 56
_cell_length_a 20.747047
_cell_length_b 7.588300
_cell_length_c 19.465999
_cell_angle_alpha 90.000000
_cell_angle_beta 119.802178
_cell_angle_gamma 90.000000
_cell_volume 2659.318660
_symmetry_space_group_name_H-M "C 2/M"
_symmetry_group_IT_number 12
_symmetry_cell_setting 'monoclinic'
loop_
_space_group_symop_operation_xyz
x,y,z
-x,y,-z
-x,-y,-z
x,-y,z
1/2+x,1/2+y,z
1/2-x,1/2+y,-z
1/2-x,1/2-y,-z
1/2+x,1/2-y,z
loop_
_atom_site_type_symbol
_atom_site_label
_atom_site_fract_x
_atom_site_fract_y
_atom_site_fract_z
Si Si1 0.066372 0.289385 0.486047
Si Si2 0.022796 0.791251 0.307384
Si Si3 0.418063 0.715490 0.934330
Si Si4 0.699936 0.215405 0.645085
Si Si5 0.630814 0.284082 0.244963
Si Si6 0.646645 0.789718 0.765262
Si Si7 0.272741 0.711503 0.934583
O O1 0.066825 0.500000 0.495914
O O2 0.146402 0.224994 0.555165
O O3 0.000000 0.220562 0.500000
O O4 0.049999 0.258254 0.397834
O O5 0.936634 0.743370 0.254797
O O6 0.074124 0.720793 0.273355
O O7 0.027684 0.000000 0.305591
O O8 0.419340 0.500000 0.935230
O O9 0.394462 0.769260 0.844831
O O10 0.353602 0.773765 0.952717
O O11 0.500000 0.774351 0.000000
O O12 0.785349 0.272578 0.692755
O O13 0.660849 0.272771 0.695339
O O14 0.701823 0.000000 0.644833
O O15 0.631091 0.500000 0.244535
O O16 0.709208 0.719404 0.849633
O O17 0.656200 0.000000 0.767391
O O18 0.274375 0.500000 0.928419
O O19 0.250000 0.750000 0.000000
#
# Coordination Sequence:
#
# PCOD9185434 Si02
#       7
#     8   8   8   8   8   8   8
#     4  10  19  34  57  80 103 141 187 224 260 318
#     4  11  23  34  52  84 116 139 168 227 285 320
#     4   9  17  31  53  79 107 141 179 218 261 316
#     4   9  16  32  57  76  98 140 190 225 251 306
#     4   9  18  33  51  77 109 141 179 221 268 317
#     4  10  19  36  58  78 104 146 191 220 253 316
#     4  10  21  35  57  85 112 141 179 226 268 315
#
# _framework density 21.058024
#
# number of rings (size 3 to 8) (size 9 to 14) (size 15 to 20)
#    0.000    2.286    2.857    0.429    2.000    1.429 
#    0.000    0.000    0.000    4.714    0.000    0.000 
#    0.000    0.000    0.000    0.000    0.000    0.000 
#
# Total GULP energy -156356.363852 kJ/mol
# GULP energy per Si atom -5584.155852 kJ/mol
# Density = 2.101010 g / cm^3
# Si number density = 21.058024 Si / 1000 Ang^3
#
#
#
# Elastic Constant Matrix: (Units=GPa)
#
#
# Indices 1 2 3 4 5 6 
#
# 1 220.4428 0.6768 108.0674 0.0000 15.8431 0.0000
# 2 0.6768 40.9804 1.5172 0.0000 3.6018 0.0000
# 3 108.0674 1.5172 152.1622 0.0000 23.5936 0.0000
# 4 0.0000 0.0000 0.0000 4.0062 0.0000 -6.5604
# 5 15.8431 3.6018 23.5936 0.0000 44.2938 0.0000
# 6 0.0000 0.0000 0.0000 -6.5604 0.0000 14.1910
#
#
#
# Elastic Compliance Matrix: (Units=1/GPa)
#
#
# Indices 1 2 3 4 5 6 
#
# 1 0.006960 0.000056 -0.004967 0.000000 0.000152 0.000000
# 2 0.000056 0.024579 0.000031 0.000000 -0.002035 0.000000
# 3 -0.004967 0.000031 0.010709 0.000000 -0.003930 0.000000
# 4 0.000000 0.000000 0.000000 1.027368 0.000000 0.474948
# 5 0.000152 -0.002035 -0.003930 0.000000 0.024781 0.000000
# 6 0.000000 0.000000 0.000000 0.474948 0.000000 0.290034
#
#
# Mechanical properties :
#
#
# Convention : Reuss Voigt Hill
#
# Bulk Modulus (GPa) = 30.78217 70.45646 50.61932
# Shear Modulus (GPa) = 3.55866 32.71980 18.13923
#
# Velocity S-wave (km/s) = 1.30138 3.94609 2.93813
# Velocity P-wave (km/s) = 4.11189 7.36838 5.96661
#
# Compressibility (1/GPa) = 0.03248634
#
# Stress axis : x y z
#
# Youngs Moduli (GPa) = 143.66893 40.68560 93.37977
#
# Poissons Ratio (x) = -0.00226 0.46386
# Poissons Ratio (y) = -0.00799 -0.00289
# Poissons Ratio (z) = 0.71367 -0.00126
#
# Static dielectric constant tensor:
#      x y z
#    x 1.732630 0.000000 -0.003540 
#    y 0.000000 1.802680 0.000000 
#    z -0.003540 0.000000 1.710800 
# 
# From -- ./inp_files/275647.got.cif
#   From: 2010.05.17/outbox.cif.g08.bks.cpg/sg12_138_cif.got.tgz:275647.got - 2010.06.03 13:09:07.
