data_PCOD9185154
_publ_section_title
;
Structure prediction by ZEFSAII (Michael W. Deem and Ramdas Pophale) SiO2 
 PCOD9185154
Probable space group: C 2/M
;
_chemical_formula_sum "Si O2"
_cell_formula_units_Z 56
_cell_length_a 19.785260
_cell_length_b 7.468688
_cell_length_c 25.742984
_cell_angle_alpha 90.000000
_cell_angle_beta 138.711892
_cell_angle_gamma 90.000000
_cell_volume 2510.078903
_symmetry_space_group_name_H-M "C 2/M"
_symmetry_group_IT_number 12
_symmetry_cell_setting 'monoclinic'
loop_
_space_group_symop_operation_xyz
x,y,z
-x,y,-z
-x,-y,-z
x,-y,z
1/2+x,1/2+y,z
1/2-x,1/2+y,-z
1/2-x,1/2-y,-z
1/2+x,1/2-y,z
loop_
_atom_site_type_symbol
_atom_site_label
_atom_site_fract_x
_atom_site_fract_y
_atom_site_fract_z
Si Si1 0.328108 0.796251 0.187421
Si Si2 0.643310 0.287989 0.911256
Si Si3 0.082152 0.719068 0.503464
Si Si4 0.183526 0.785461 0.349696
Si Si5 0.969165 0.715242 0.643077
Si Si6 0.608048 0.281047 0.086237
Si Si7 0.426340 0.717523 0.818635
O O1 0.363670 0.799465 0.148776
O O2 0.421089 0.713485 0.273565
O O3 0.213517 0.719159 0.120874
O O4 0.316575 0.000000 0.200410
O O5 0.635050 0.500000 0.898126
O O6 0.545576 0.231456 0.887940
O O7 0.750000 0.250000 0.000000
O O8 0.081662 0.500000 0.503619
O O9 0.199091 0.777880 0.581113
O O10 0.054413 0.776932 0.428850
O O11 0.000000 0.774916 0.500000
O O12 0.118452 0.750683 0.364429
O O13 0.126215 0.718448 0.264718
O O14 0.187834 0.000000 0.347712
O O15 0.976589 0.500000 0.645144
O O16 0.603572 0.500000 0.080049
O O17 0.619548 0.228028 0.153041
O O18 0.500000 0.218847 0.000000
O O19 0.421392 0.500000 0.814929
#
# Coordination Sequence:
#
# PCOD9185154 Si02
#       7
#     8   8   8   8   8   8   8
#     4  10  20  33  53  79 107 139 176 221 272 318
#     4  11  21  35  55  79 108 139 178 221 264 315
#     4   9  19  33  54  84 112 138 175 225 271 312
#     4  10  19  34  56  79 106 142 181 219 264 319
#     4  10  20  34  53  80 111 141 175 218 270 323
#     4   9  17  30  49  73 101 133 175 224 267 309
#     4   9  18  31  51  78 103 135 180 223 259 306
#
# _framework density 22.310054000000001
#
# number of rings (size 3 to 8) (size 9 to 14) (size 15 to 20)
#    0.000    2.286    1.429    1.714    2.000    2.286 
#    0.000    0.000    0.000    7.286    0.000    0.000 
#    0.000    0.000    0.000    0.000    0.000    0.000 
#
# Total GULP energy -156329.103149 kJ/mol
# GULP energy per Si atom -5583.182255 kJ/mol
# Density = 2.225928 g / cm^3
# Si number density = 22.310054 Si / 1000 Ang^3
#
#
#
# Elastic Constant Matrix: (Units=GPa)
#
#
# Indices 1 2 3 4 5 6 
#
# 1 82.8009 -1.3833 16.8774 0.0001 7.8289 0.0000
# 2 -1.3833 65.4750 5.9784 0.0002 4.2354 -0.0001
# 3 16.8774 5.9784 125.6545 0.0000 7.9769 0.0000
# 4 0.0001 0.0002 0.0000 -15.3418 0.0000 13.6765
# 5 7.8289 4.2354 7.9769 0.0000 42.1098 0.0000
# 6 0.0000 -0.0001 0.0000 13.6765 0.0000 5.2687
#
#
#
# Elastic Compliance Matrix: (Units=1/GPa)
#
#
# Indices 1 2 3 4 5 6 
#
# 1 0.012608 0.000547 -0.001586 0.000000 -0.002099 0.000000
# 2 0.000547 0.015448 -0.000712 0.000000 -0.001521 0.000000
# 3 -0.001586 -0.000712 0.008282 0.000000 -0.001202 0.000000
# 4 0.000000 0.000000 0.000000 -0.019668 0.000000 0.051055
# 5 -0.002099 -0.001521 -0.001202 0.000000 0.024518 0.000000
# 6 0.000000 0.000000 0.000000 0.051055 0.000000 0.057271
#
#
# Mechanical properties :
#
#
# Convention : Reuss Voigt Hill
#
# Bulk Modulus (GPa) = 30.45522 35.20840 32.83181
# Shear Modulus (GPa) = 44.28446 23.23787 33.76116
#
# Velocity S-wave (km/s) = 4.46012 3.23086 3.89430
# Velocity P-wave (km/s) = 6.34067 5.45286 5.91345
#
# Compressibility (1/GPa) = 0.03283510
#
# Stress axis : x y z
#
# Youngs Moduli (GPa) = 79.31438 64.73365 120.74977
#
# Poissons Ratio (x) = -0.03541 0.19154
# Poissons Ratio (y) = -0.04338 0.08596
# Poissons Ratio (z) = 0.12581 0.04609
#
# Static dielectric constant tensor:
#      x y z
#    x 1.758190 0.000000 0.012590 
#    y 0.000000 1.886970 0.000000 
#    z 0.012590 0.000000 1.807090 
# 
# From -- ./inp_files/363145.got.cif
#   From: 2010.05.17/outbox.cif.g08.bks.cpg/sg12_182_cif.got.tgz:363145.got - 2010.06.03 13:09:07.
