data_PCOD9185968
_publ_section_title
;
Structure prediction by ZEFSAII (Michael W. Deem and Ramdas Pophale) SiO2 
 PCOD9185968
Probable space group: C 2/M
;
_chemical_formula_sum "Si O2"
_cell_formula_units_Z 40
_cell_length_a 27.168954
_cell_length_b 9.398165
_cell_length_c 7.162249
_cell_angle_alpha 90.000000
_cell_angle_beta 78.619913
_cell_angle_gamma 90.000000
_cell_volume 1792.842087
_symmetry_space_group_name_H-M "C 2/M"
_symmetry_group_IT_number 12
_symmetry_cell_setting 'monoclinic'
loop_
_space_group_symop_operation_xyz
x,y,z
-x,y,-z
-x,-y,-z
x,-y,z
1/2+x,1/2+y,z
1/2-x,1/2+y,-z
1/2-x,1/2-y,-z
1/2+x,1/2-y,z
loop_
_atom_site_type_symbol
_atom_site_label
_atom_site_fract_x
_atom_site_fract_y
_atom_site_fract_z
Si Si1 0.921947 0.666171 0.561253
Si Si2 0.287576 0.164037 0.230563
Si Si3 0.306145 0.839696 0.771407
Si Si4 0.383864 0.665030 0.256288
Si Si5 0.459257 0.334658 0.874716
O O1 0.933402 0.500000 0.523508
O O2 0.864103 0.677564 0.675856
O O3 0.920832 0.755856 0.372231
O O4 0.955440 0.735896 0.697710
O O5 0.232370 0.229624 0.290949
O O6 0.330975 0.254857 0.294678
O O7 0.289973 0.000000 0.286682
O O8 0.299850 0.170881 0.999589
O O9 0.290396 0.000000 0.731106
O O10 0.378969 0.500000 0.312616
O O11 0.407477 0.671203 0.031473
O O12 0.468536 0.500000 0.814926
O O13 0.500000 0.293792 0.000000
#
# Coordination Sequence:
#
# PCOD9185968 Si02
#       5
#     8   8   8   8   8
#     4  11  23  40  63  91 124 158 198 247 297 355
#     4  10  19  34  58  87 120 158 202 247 291 345
#     4   9  19  35  56  85 120 159 200 242 292 349
#     4  11  23  39  62  90 122 159 200 245 297 358
#     4  10  23  44  67  89 117 155 199 249 303 358
#
# _framework density 22.310945
#
# number of rings (size 3 to 8) (size 9 to 14) (size 15 to 20)
#    0.000    1.800    2.000    1.800    0.000    5.200 
#    0.000    4.000    0.000    0.000    0.000    0.000 
#    0.000    0.000    0.000    0.000    0.000    0.000 
#
# Total GULP energy -111926.485696 kJ/mol
# GULP energy per Si atom -5596.324285 kJ/mol
# Density = 2.226016 g / cm^3
# Si number density = 22.310945 Si / 1000 Ang^3
#
#
#
# Elastic Constant Matrix: (Units=GPa)
#
#
# Indices 1 2 3 4 5 6 
#
# 1 93.9135 66.9532 11.8922 0.0000 22.1312 0.0000
# 2 66.9532 173.3462 51.9130 0.0000 40.1184 0.0000
# 3 11.8922 51.9130 87.8312 0.0000 24.0158 0.0000
# 4 0.0000 0.0000 0.0000 25.1630 0.0000 13.4558
# 5 22.1312 40.1184 24.0158 0.0000 44.9758 0.0000
# 6 0.0000 0.0000 0.0000 13.4558 0.0000 34.7498
#
#
#
# Elastic Compliance Matrix: (Units=1/GPa)
#
#
# Indices 1 2 3 4 5 6 
#
# 1 0.015328 -0.005778 0.002334 0.000000 -0.003635 0.000000
# 2 -0.005778 0.010167 -0.004127 0.000000 -0.004022 0.000000
# 3 0.002334 -0.004127 0.015007 0.000000 -0.005480 0.000000
# 4 0.000000 0.000000 0.000000 0.050119 0.000000 -0.019407
# 5 -0.003635 -0.004022 -0.005480 0.000000 0.030537 0.000000
# 6 0.000000 0.000000 0.000000 -0.019407 0.000000 0.036292
#
#
# Mechanical properties :
#
#
# Convention : Reuss Voigt Hill
#
# Bulk Modulus (GPa) = 39.43290 68.51198 53.97244
# Shear Modulus (GPa) = 27.61702 35.93322 31.77512
#
# Velocity S-wave (km/s) = 3.52209 4.01754 3.77794
# Velocity P-wave (km/s) = 5.85259 7.23155 6.57830
#
# Compressibility (1/GPa) = 0.02535954
#
# Stress axis : x y z
#
# Youngs Moduli (GPa) = 65.23802 98.35272 66.63345
#
# Poissons Ratio (x) = 0.56829 -0.15549
# Poissons Ratio (y) = 0.37695 0.27502
# Poissons Ratio (z) = -0.15224 0.40594
#
# Static dielectric constant tensor:
#      x y z
#    x 1.818270 0.000000 -0.026200 
#    y 0.000000 1.761290 0.000000 
#    z -0.026200 0.000000 1.850370 
# 
# From -- ./inp_files/101015.got.cif
#   From: 2010.05.17/outbox.cif.g08.bks.cpg/sg12_51_cif.got.tgz:101015.got - 2010.06.03 13:09:07.
