data_PCOD9185528
_publ_section_title
;
Structure prediction by ZEFSAII (Michael W. Deem and Ramdas Pophale) SiO2 
 PCOD9185528
Probable space group: C 2/M
;
_chemical_formula_sum "Si O2"
_cell_formula_units_Z 40
_cell_length_a 31.375768
_cell_length_b 13.150095
_cell_length_c 8.322892
_cell_angle_alpha 90.000000
_cell_angle_beta 143.505060
_cell_angle_gamma 90.000000
_cell_volume 2042.364601
_symmetry_space_group_name_H-M "C 2/M"
_symmetry_group_IT_number 12
_symmetry_cell_setting 'monoclinic'
loop_
_space_group_symop_operation_xyz
x,y,z
-x,y,-z
-x,-y,-z
x,-y,z
1/2+x,1/2+y,z
1/2-x,1/2+y,-z
1/2-x,1/2-y,-z
1/2+x,1/2-y,z
loop_
_atom_site_type_symbol
_atom_site_label
_atom_site_fract_x
_atom_site_fract_y
_atom_site_fract_z
Si Si1 0.275926 0.111551 0.652376
Si Si2 0.080697 0.696488 0.062594
Si Si3 0.688763 0.764323 0.945091
Si Si4 0.573940 0.880254 0.397057
Si Si5 0.129748 0.116314 0.009695
O O1 0.349157 0.137239 0.783915
O O2 0.207676 0.113386 0.330982
O O3 0.280865 0.000000 0.740143
O O4 0.270376 0.191454 0.777050
O O5 0.083259 0.688288 0.264106
O O6 0.084682 0.806266 0.986349
O O7 0.007035 0.641135 0.791399
O O8 0.631087 0.843361 0.700295
O O9 0.750000 0.750000 0.000000
O O10 0.644781 0.667701 0.881671
O O11 0.582085 0.000000 0.382477
O O12 0.103062 0.000000 0.919657
#
# Coordination Sequence:
#
# PCOD9185528 Si02
#       5
#     8   8   8   8   8
#     4  10  19  34  57  82 110 148 187 228 279 333
#     4  10  20  38  58  83 114 148 186 229 279 340
#     4  11  22  36  55  85 115 144 186 236 280 334
#     4  11  22  37  60  88 115 143 179 235 294 338
#     4  10  22  39  58  79 113 158 195 228 273 331
#
# _framework density 19.585141
#
# number of rings (size 3 to 8) (size 9 to 14) (size 15 to 20)
#    0.000    1.600    0.000    7.800    0.000    6.400 
#    0.000   10.000    0.000    0.000    0.000    0.000 
#    0.000    0.000    0.000    0.000    0.000    0.000 
#
# Total GULP energy -111578.081275 kJ/mol
# GULP energy per Si atom -5578.904064 kJ/mol
# Density = 1.954056 g / cm^3
# Si number density = 19.585141 Si / 1000 Ang^3
#
#
#
# Elastic Constant Matrix: (Units=GPa)
#
#
# Indices 1 2 3 4 5 6 
#
# 1 91.7246 35.7845 11.3145 0.0000 7.8784 0.0000
# 2 35.7845 136.9378 -1.4537 0.0000 -5.3406 0.0000
# 3 11.3145 -1.4537 49.7262 0.0000 5.9221 0.0000
# 4 0.0000 0.0000 0.0000 27.7022 0.0000 1.2358
# 5 7.8784 -5.3406 5.9221 0.0000 20.1900 0.0000
# 6 0.0000 0.0000 0.0000 1.2358 0.0000 16.9325
#
#
#
# Elastic Compliance Matrix: (Units=1/GPa)
#
#
# Indices 1 2 3 4 5 6 
#
# 1 0.013090 -0.003656 -0.002447 0.000000 -0.005357 0.000000
# 2 -0.003656 0.008400 0.000666 0.000000 0.003453 0.000000
# 3 -0.002447 0.000666 0.021296 0.000000 -0.005115 0.000000
# 4 0.000000 0.000000 0.000000 0.036216 0.000000 -0.002643
# 5 -0.005357 0.003453 -0.005115 0.000000 0.054034 0.000000
# 6 0.000000 0.000000 0.000000 -0.002643 0.000000 0.059251
#
#
# Mechanical properties :
#
#
# Convention : Reuss Voigt Hill
#
# Bulk Modulus (GPa) = 31.33640 41.07547 36.20594
# Shear Modulus (GPa) = 23.38658 28.48115 25.93387
#
# Velocity S-wave (km/s) = 3.45932 3.81756 3.64285
# Velocity P-wave (km/s) = 5.65603 6.36003 6.01834
#
# Compressibility (1/GPa) = 0.03191177
#
# Stress axis : x y z
#
# Youngs Moduli (GPa) = 76.39170 119.05288 46.95791
#
# Poissons Ratio (x) = 0.43522 0.11493
# Poissons Ratio (y) = 0.27926 -0.03128
# Poissons Ratio (z) = 0.18696 -0.07931
#
# Static dielectric constant tensor:
#      x y z
#    x 1.713150 0.000000 -0.003070 
#    y 0.000000 1.739720 0.000000 
#    z -0.003070 0.000000 1.677720 
# 
# From -- ./inp_files/112119.got.cif
#   From: 2010.05.17/outbox.cif.g08.bks.cpg/sg12_57_cif.got.tgz:112119.got - 2010.06.03 13:09:07.
