data_PCOD9185885
_publ_section_title
;
Structure prediction by ZEFSAII (Michael W. Deem and Ramdas Pophale) SiO2 
 PCOD9185885
Probable space group: C 2/M
;
_chemical_formula_sum "Si O2"
_cell_formula_units_Z 48
_cell_length_a 28.853756
_cell_length_b 13.896876
_cell_length_c 11.053783
_cell_angle_alpha 90.000000
_cell_angle_beta 37.254549
_cell_angle_gamma 90.000000
_cell_volume 2683.132829
_symmetry_space_group_name_H-M "C 2/M"
_symmetry_group_IT_number 12
_symmetry_cell_setting 'monoclinic'
loop_
_space_group_symop_operation_xyz
x,y,z
-x,y,-z
-x,-y,-z
x,-y,z
1/2+x,1/2+y,z
1/2-x,1/2+y,-z
1/2-x,1/2-y,-z
1/2+x,1/2-y,z
loop_
_atom_site_type_symbol
_atom_site_label
_atom_site_fract_x
_atom_site_fract_y
_atom_site_fract_z
Si Si1 0.426772 0.108501 0.531709
Si Si2 0.160604 0.609489 0.539933
Si Si3 0.592582 0.891014 0.088061
Si Si4 0.581057 0.247817 0.891879
Si Si5 0.162808 0.887711 0.906019
Si Si6 0.169710 0.739508 0.098806
O O1 0.393360 0.112302 0.465411
O O2 0.518172 0.113394 0.329448
O O3 0.389331 0.197298 0.680207
O O4 0.405296 0.000000 0.622698
O O5 0.153835 0.500000 0.606157
O O6 0.135820 0.694587 0.681267
O O7 0.247239 0.621554 0.313058
O O8 0.664254 0.841805 0.005452
O O9 0.608768 0.000000 0.024518
O O10 0.569261 0.832751 0.018748
O O11 0.617872 0.335532 0.890262
O O12 0.500000 0.272739 0.000000
O O13 0.143734 0.000000 0.953924
O O14 0.149259 0.833970 0.062764
O O15 0.250000 0.750000 0.000000
#
# Coordination Sequence:
#
# PCOD9185885 Si02
#       6
#     8   8   8   8   8   8
#     4  10  19  34  58  86 115 145 176 223 288 343
#     4  10  19  34  58  85 115 146 177 222 285 340
#     4  10  21  35  56  88 118 142 175 225 288 342
#     4  11  21  35  59  87 113 146 184 230 274 330
#     4  10  23  40  56  77 110 155 194 227 269 321
#     4  11  21  34  55  80 108 145 189 228 266 324
#
# _framework density 17.889536
#
# number of rings (size 3 to 8) (size 9 to 14) (size 15 to 20)
#    0.000    1.667    3.333    2.000    0.000    3.000 
#    0.000    0.000    0.000   10.000    0.000    0.000 
#    0.000    0.000    0.000    0.000    0.000    0.000 
#
# Total GULP energy -133799.591793 kJ/mol
# GULP energy per Si atom -5574.982991 kJ/mol
# Density = 1.784882 g / cm^3
# Si number density = 17.889536 Si / 1000 Ang^3
#
#
#
# Elastic Constant Matrix: (Units=GPa)
#
#
# Indices 1 2 3 4 5 6 
#
# 1 130.2736 61.4761 25.5803 0.0000 -16.1727 0.0000
# 2 61.4761 146.7589 47.0493 0.0000 1.8751 0.0000
# 3 25.5803 47.0493 48.4010 0.0000 5.9210 0.0000
# 4 0.0000 0.0000 0.0000 24.7835 0.0000 10.4004
# 5 -16.1727 1.8751 5.9210 0.0000 32.7354 0.0000
# 6 0.0000 0.0000 0.0000 10.4004 0.0000 16.2437
#
#
#
# Elastic Compliance Matrix: (Units=1/GPa)
#
#
# Indices 1 2 3 4 5 6 
#
# 1 0.010703 -0.003648 -0.002846 0.000000 0.006011 0.000000
# 2 -0.003648 0.011188 -0.008845 0.000000 -0.000843 0.000000
# 3 -0.002846 -0.008845 0.031571 0.000000 -0.006610 0.000000
# 4 0.000000 0.000000 0.000000 0.055174 0.000000 -0.035326
# 5 0.006011 -0.000843 -0.006610 0.000000 0.034762 0.000000
# 6 0.000000 0.000000 0.000000 -0.035326 0.000000 0.084181
#
#
# Mechanical properties :
#
#
# Convention : Reuss Voigt Hill
#
# Bulk Modulus (GPa) = 43.88823 65.96055 54.92439
# Shear Modulus (GPa) = 18.80761 27.50772 23.15767
#
# Velocity S-wave (km/s) = 3.24592 3.92553 3.60179
# Velocity P-wave (km/s) = 6.21564 7.58271 6.93295
#
# Compressibility (1/GPa) = 0.02278515
#
# Stress axis : x y z
#
# Youngs Moduli (GPa) = 93.43562 89.38017 31.67447
#
# Poissons Ratio (x) = 0.32603 0.09014
# Poissons Ratio (y) = 0.34082 0.28015
# Poissons Ratio (z) = 0.26592 0.79055
#
# Static dielectric constant tensor:
#      x y z
#    x 1.650020 0.000000 0.026570 
#    y 0.000000 1.606770 0.000000 
#    z 0.026570 0.000000 1.618850 
# 
# From -- ./inp_files/189351.got.cif
#   From: 2010.05.17/outbox.cif.g08.bks.cpg/sg12_95_cif.got.tgz:189351.got - 2010.06.03 13:09:07.
