data_PCOD9185554
_publ_section_title
;
Structure prediction by ZEFSAII (Michael W. Deem and Ramdas Pophale) SiO2 
 PCOD9185554
Probable space group: C 2/M
;
_chemical_formula_sum "Si O2"
_cell_formula_units_Z 52
_cell_length_a 7.662475
_cell_length_b 26.073480
_cell_length_c 16.639674
_cell_angle_alpha 90.000000
_cell_angle_beta 46.862546
_cell_angle_gamma 90.000000
_cell_volume 2425.863923
_symmetry_space_group_name_H-M "C 2/M"
_symmetry_group_IT_number 12
_symmetry_cell_setting 'monoclinic'
loop_
_space_group_symop_operation_xyz
x,y,z
-x,y,-z
-x,-y,-z
x,-y,z
1/2+x,1/2+y,z
1/2-x,1/2+y,-z
1/2-x,1/2-y,-z
1/2+x,1/2-y,z
loop_
_atom_site_type_symbol
_atom_site_label
_atom_site_fract_x
_atom_site_fract_y
_atom_site_fract_z
Si Si1 0.365093 0.829822 0.915375
Si Si2 0.500000 0.117271 0.500000
Si Si3 0.560525 0.670554 0.848102
Si Si4 0.170964 0.805833 0.309042
Si Si5 0.027400 0.445533 0.895542
Si Si6 0.526824 0.595603 0.720365
Si Si7 0.470170 0.201719 0.375760
O O1 0.207282 0.826636 0.884541
O O2 0.610136 0.798740 0.824528
O O3 0.421662 0.890668 0.903254
O O4 0.206610 0.813602 0.042076
O O5 0.287850 0.083468 0.604425
O O6 0.424035 0.157636 0.454505
O O7 0.538665 0.616186 0.808782
O O8 0.739940 0.698788 0.730956
O O9 0.310945 0.811658 0.348691
O O10 0.967541 0.763029 0.387647
O O11 0.051940 0.856513 0.310909
O O12 0.925492 0.500000 0.896635
O O13 0.307905 0.442988 0.785382
O O14 0.000000 0.445936 0.000000
#
# Coordination Sequence:
#
# PCOD9185554 Si02
#       7
#     8   4   8   8   8   8   8
#     4   9  18  33  52  77 106 144 168 221 269 317
#     4  10  22  36  57  74 110 144 183 222 262 296
#     4   9  17  32  52  73 111 139 181 215 261 316
#     4  10  21  33  52  75 109 139 183 222 267 303
#     4  10  19  34  57  83 108 136 171 215 268 328
#     4  10  20  36  54  79 104 144 175 221 267 316
#     4  10  20  34  48  79 104 146 187 221 253 308
#
# _framework density 21.435662000000001
#
# number of rings (size 3 to 8) (size 9 to 14) (size 15 to 20)
#    0.000    2.308    1.538    1.846    0.000    3.692 
#    0.000    5.769    0.000    0.000    0.000   21.538 
#    0.000    0.000    0.000    0.000    0.000    0.000 
#
# Total GULP energy -144796.233022 kJ/mol
# GULP energy per Si atom -5569.085885 kJ/mol
# Density = 2.138687 g / cm^3
# Si number density = 21.435662 Si / 1000 Ang^3
#
#
#
# Elastic Constant Matrix: (Units=GPa)
#
#
# Indices 1 2 3 4 5 6 
#
# 1 50.3256 -4.9403 15.1336 0.0000 6.7909 0.0000
# 2 -4.9403 49.1551 -5.2883 0.0000 -4.8874 0.0000
# 3 15.1336 -5.2883 128.4052 0.0000 -17.8845 0.0000
# 4 0.0000 0.0000 0.0000 -102.1526 0.0000 -67.9803
# 5 6.7909 -4.8874 -17.8845 0.0000 34.1667 0.0000
# 6 0.0000 0.0000 0.0000 -67.9803 0.0000 -27.9917
#
#
#
# Elastic Compliance Matrix: (Units=1/GPa)
#
#
# Indices 1 2 3 4 5 6 
#
# 1 0.021793 0.001244 -0.003339 0.000000 -0.005902 0.000000
# 2 0.001244 0.020931 0.001184 0.000000 0.003367 0.000000
# 3 -0.003339 0.001184 0.009003 0.000000 0.005545 0.000000
# 4 0.000000 0.000000 0.000000 0.015887 0.000000 -0.038584
# 5 -0.005902 0.003367 0.005545 0.000000 0.033826 0.000000
# 6 0.000000 0.000000 0.000000 -0.038584 0.000000 0.057979
#
#
# Mechanical properties :
#
#
# Convention : Reuss Voigt Hill
#
# Bulk Modulus (GPa) = 20.03787 26.41066 23.22427
# Shear Modulus (GPa) = 28.10964 -4.33014 11.88975
#
# Velocity S-wave (km/s) = 3.62518 -1.42283 2.35770
# Velocity P-wave (km/s) = 5.18564 3.10618 4.27430
#
# Compressibility (1/GPa) = 0.04990549
#
# Stress axis : x y z
#
# Youngs Moduli (GPa) = 45.88576 47.77604 111.07953
#
# Poissons Ratio (x) = -0.05945 0.37092
# Poissons Ratio (y) = -0.05710 -0.13155
# Poissons Ratio (z) = 0.15322 -0.05658
#
# Static dielectric constant tensor:
#      x y z
#    x 1.766690 0.000000 -0.047440 
#    y 0.000000 1.792060 0.000000 
#    z -0.047440 0.000000 1.893870 
# 
# From -- ./inp_files/123811.got.cif
#   From: 2010.05.17/outbox.cif.g08.bks.cpg/sg12_62_cif.got.tgz:123811.got - 2010.06.03 13:09:07.
