data_PCOD9185260
_publ_section_title
;
Structure prediction by ZEFSAII (Michael W. Deem and Ramdas Pophale) SiO2 
 PCOD9185260
Probable space group: C 2/M
;
_chemical_formula_sum "Si O2"
_cell_formula_units_Z 64
_cell_length_a 25.377686
_cell_length_b 8.683379
_cell_length_c 16.877065
_cell_angle_alpha 90.000000
_cell_angle_beta 104.504425
_cell_angle_gamma 90.000000
_cell_volume 3600.564665
_symmetry_space_group_name_H-M "C 2/M"
_symmetry_group_IT_number 12
_symmetry_cell_setting 'monoclinic'
loop_
_space_group_symop_operation_xyz
x,y,z
-x,y,-z
-x,-y,-z
x,-y,z
1/2+x,1/2+y,z
1/2-x,1/2+y,-z
1/2-x,1/2-y,-z
1/2+x,1/2-y,z
loop_
_atom_site_type_symbol
_atom_site_label
_atom_site_fract_x
_atom_site_fract_y
_atom_site_fract_z
Si Si1 0.383281 0.183527 0.281604
Si Si2 0.065789 0.676207 0.017688
Si Si3 0.329975 0.684669 0.671212
Si Si4 0.937096 0.817314 0.456868
Si Si5 0.941502 0.816369 0.152186
Si Si6 0.664003 0.182294 0.500407
Si Si7 0.779435 0.183603 0.322802
Si Si8 0.932241 0.814826 0.813628
O O1 0.421364 0.259458 0.363563
O O2 0.406311 0.233156 0.205642
O O3 0.323029 0.247154 0.277840
O O4 0.383530 0.000000 0.291033
O O5 0.083758 0.500000 0.015463
O O6 0.078096 0.771683 0.943309
O O7 0.084796 0.746527 0.107883
O O8 0.000000 0.677239 0.000000
O O9 0.327087 0.500000 0.664495
O O10 0.323502 0.756406 0.581881
O O11 0.280656 0.746756 0.706060
O O12 0.388128 0.728070 0.730949
O O13 0.898137 0.725586 0.501799
O O14 0.000000 0.793591 0.500000
O O15 0.925066 0.000000 0.458366
O O16 0.005473 0.768374 0.182260
O O17 0.938739 0.000000 0.162267
O O18 0.698359 0.265557 0.582124
O O19 0.673047 0.000000 0.509024
O O20 0.778627 0.000000 0.317123
O O21 0.932716 0.000000 0.820654
#
# Coordination Sequence:
#
# PCOD9185260 Si02
#       8
#     8   8   8   8   8   8   8   8
#     4  11  22  36  55  80 107 139 180 225 269 316
#     4   9  17  31  52  79 111 143 175 217 265 313
#     4  11  22  37  56  80 109 142 181 227 272 319
#     4  10  21  36  53  73 105 145 180 218 268 322
#     4  10  19  34  56  82 111 145 182 216 258 322
#     4  11  22  36  54  78 105 139 183 227 272 318
#     4  11  22  39  58  77 103 141 185 228 273 320
#     4   9  20  35  54  80 111 145 177 214 266 322
#
# _framework density 17.774991
#
# number of rings (size 3 to 8) (size 9 to 14) (size 15 to 20)
#    0.000    1.750    0.000    6.750    1.750    4.000 
#    0.000    0.000    0.000    0.750    0.000    0.000 
#    0.000    0.000    0.000    0.000    0.000    0.000 
#
# Total GULP energy -178710.357115 kJ/mol
# GULP energy per Si atom -5584.698660 kJ/mol
# Density = 1.773453 g / cm^3
# Si number density = 17.774991 Si / 1000 Ang^3
#
#
#
# Elastic Constant Matrix: (Units=GPa)
#
#
# Indices 1 2 3 4 5 6 
#
# 1 57.2311 14.0856 34.1536 0.0000 -12.2385 0.0000
# 2 14.0856 61.7597 13.8999 0.0000 -5.1770 0.0000
# 3 34.1536 13.8999 52.4528 0.0000 -22.4732 0.0000
# 4 0.0000 0.0000 0.0000 25.4101 0.0000 -7.6163
# 5 -12.2385 -5.1770 -22.4732 0.0000 20.2767 0.0000
# 6 0.0000 0.0000 0.0000 -7.6163 0.0000 26.3374
#
#
#
# Elastic Compliance Matrix: (Units=1/GPa)
#
#
# Indices 1 2 3 4 5 6 
#
# 1 0.029371 -0.002460 -0.021225 0.000000 -0.006425 0.000000
# 2 -0.002460 0.017442 -0.003329 0.000000 -0.000722 0.000000
# 3 -0.021225 -0.003329 0.053156 0.000000 0.045253 0.000000
# 4 0.000000 0.000000 0.000000 0.043089 0.000000 0.012461
# 5 -0.006425 -0.000722 0.045253 0.000000 0.095410 0.000000
# 6 0.000000 0.000000 0.000000 0.012461 0.000000 0.041572
#
#
# Mechanical properties :
#
#
# Convention : Reuss Voigt Hill
#
# Bulk Modulus (GPa) = 21.76795 32.85800 27.31297
# Shear Modulus (GPa) = 14.31094 21.69180 18.00137
#
# Velocity S-wave (km/s) = 2.84054 3.49715 3.18580
# Velocity P-wave (km/s) = 4.79908 5.90190 5.37883
#
# Compressibility (1/GPa) = 0.04593911
#
# Stress axis : x y z
#
# Youngs Moduli (GPa) = 34.04707 57.33381 18.81265
#
# Poissons Ratio (x) = 0.14106 0.39930
# Poissons Ratio (y) = 0.08376 0.06263
# Poissons Ratio (z) = 0.72265 0.19088
#
# Static dielectric constant tensor:
#      x y z
#    x 1.617010 0.000000 -0.000080 
#    y 0.000000 1.595520 0.000000 
#    z -0.000080 0.000000 1.589040 
# 
# From -- ./inp_files/244121.got.cif
#   From: 2010.05.17/outbox.cif.g08.bks.cpg/sg12_123_cif.got.tgz:244121.got - 2010.06.03 13:09:07.
