data_PCOD9185869
_publ_section_title
;
Structure prediction by ZEFSAII (Michael W. Deem and Ramdas Pophale) SiO2 
 PCOD9185869
Probable space group: C 2/M
;
_chemical_formula_sum "Si O2"
_cell_formula_units_Z 64
_cell_length_a 16.971181
_cell_length_b 9.593954
_cell_length_c 29.226080
_cell_angle_alpha 90.000000
_cell_angle_beta 135.908906
_cell_angle_gamma 90.000000
_cell_volume 3311.047540
_symmetry_space_group_name_H-M "C 2/M"
_symmetry_group_IT_number 12
_symmetry_cell_setting 'monoclinic'
loop_
_space_group_symop_operation_xyz
x,y,z
-x,y,-z
-x,-y,-z
x,-y,z
1/2+x,1/2+y,z
1/2-x,1/2+y,-z
1/2-x,1/2-y,-z
1/2+x,1/2-y,z
loop_
_atom_site_type_symbol
_atom_site_label
_atom_site_fract_x
_atom_site_fract_y
_atom_site_fract_z
Si Si1 0.169754 0.163172 0.031459
Si Si2 0.088603 0.162711 0.576781
Si Si3 0.536153 0.337469 0.731668
Si Si4 0.842581 0.650266 0.686779
Si Si5 0.213492 0.656141 0.132942
Si Si6 0.417562 0.165756 0.089659
Si Si7 0.154918 0.267739 0.211528
Si Si8 0.391702 0.842702 0.324691
O O1 0.160542 0.227842 0.078113
O O2 0.301418 0.172283 0.070072
O O3 0.136587 0.000000 0.015472
O O4 0.105041 0.262063 0.968613
O O5 0.218668 0.172383 0.614065
O O6 0.080806 0.265479 0.616468
O O7 0.000000 0.194981 0.500000
O O8 0.071799 0.000000 0.583622
O O9 0.521376 0.500000 0.715094
O O10 0.428503 0.272294 0.711502
O O11 0.650673 0.324607 0.809223
O O12 0.557698 0.249461 0.694904
O O13 0.889414 0.500000 0.691436
O O14 0.824741 0.644910 0.734016
O O15 0.187366 0.500000 0.105120
O O16 0.177019 0.667239 0.170709
O O17 0.520003 0.252645 0.154868
O O18 0.446644 0.000000 0.098360
O O19 0.255139 0.156047 0.259131
O O20 0.433862 0.000000 0.341908
#
# Coordination Sequence:
#
# PCOD9185869 Si02
#       8
#     8   8   8   8   8   8   8   8
#     4  10  22  37  53  75 104 138 178 227 278 326
#     4   9  19  37  60  85 116 153 188 224 270 324
#     4  10  21  36  56  82 113 147 184 228 275 326
#     4  10  19  34  58  85 112 142 181 226 272 323
#     4  10  20  35  54  76 104 140 180 221 272 330
#     4  10  20  37  58  76 100 139 183 223 271 332
#     4  10  21  35  56  82 107 138 179 225 272 325
#     4  10  21  37  58  85 115 146 183 228 276 324
#
# _framework density 19.329231
#
# number of rings (size 3 to 8) (size 9 to 14) (size 15 to 20)
#    0.000    2.125    0.000    3.000    0.000   11.250 
#    0.000    2.500    0.000    0.000    0.000    0.000 
#    0.000    0.000    0.000    0.000    0.000    0.000 
#
# Total GULP energy -178404.159114 kJ/mol
# GULP energy per Si atom -5575.129972 kJ/mol
# Density = 1.928524 g / cm^3
# Si number density = 19.329231 Si / 1000 Ang^3
#
#
#
# Elastic Constant Matrix: (Units=GPa)
#
#
# Indices 1 2 3 4 5 6 
#
# 1 45.2713 31.0589 23.7418 0.0000 -3.9985 0.0000
# 2 31.0589 109.8681 29.4917 0.0000 -19.2103 0.0000
# 3 23.7418 29.4917 96.4061 0.0000 -3.4696 0.0000
# 4 0.0000 0.0000 0.0000 11.3445 0.0000 3.2060
# 5 -3.9985 -19.2103 -3.4696 0.0000 21.3082 0.0000
# 6 0.0000 0.0000 0.0000 3.2060 0.0000 -0.2848
#
#
#
# Elastic Compliance Matrix: (Units=1/GPa)
#
#
# Indices 1 2 3 4 5 6 
#
# 1 0.029641 -0.007333 -0.005124 0.000000 -0.001883 0.000000
# 2 -0.007333 0.013538 -0.001957 0.000000 0.010510 0.000000
# 3 -0.005124 -0.001957 0.012207 0.000000 -0.000738 0.000000
# 4 0.000000 0.000000 0.000000 0.021081 0.000000 0.237323
# 5 -0.001883 0.010510 -0.000738 0.000000 0.055932 0.000000
# 6 0.000000 0.000000 0.000000 0.237323 0.000000 -0.839783
#
#
# Mechanical properties :
#
#
# Convention : Reuss Voigt Hill
#
# Bulk Modulus (GPa) = 37.65516 46.68114 42.16815
# Shear Modulus (GPa) = -7.46600 17.62378 5.07889
#
# Velocity S-wave (km/s) = -1.96747 3.02283 1.62274
# Velocity P-wave (km/s) = 3.78972 6.03210 5.03727
#
# Compressibility (1/GPa) = 0.02655679
#
# Stress axis : x y z
#
# Youngs Moduli (GPa) = 33.73714 73.86643 81.92120
#
# Poissons Ratio (x) = 0.54167 0.41977
# Poissons Ratio (y) = 0.24740 0.16034
# Poissons Ratio (z) = 0.17287 0.14457
#
# Static dielectric constant tensor:
#      x y z
#    x 1.704980 0.000000 0.027340 
#    y 0.000000 1.662640 0.000000 
#    z 0.027340 0.000000 1.669200 
# 
# From -- ./inp_files/378404.got.cif
#   From: 2010.05.17/outbox.cif.g08.bks.cpg/sg12_190_cif.got.tgz:378404.got - 2010.06.03 13:09:07.
