data_PCOD9185462
_publ_section_title
;
Structure prediction by ZEFSAII (Michael W. Deem and Ramdas Pophale) SiO2 
 PCOD9185462
Probable space group: C 2/M
;
_chemical_formula_sum "Si O2"
_cell_formula_units_Z 40
_cell_length_a 15.189932
_cell_length_b 24.718851
_cell_length_c 5.066391
_cell_angle_alpha 90.000000
_cell_angle_beta 111.326896
_cell_angle_gamma 90.000000
_cell_volume 1772.047175
_symmetry_space_group_name_H-M "C 2/M"
_symmetry_group_IT_number 12
_symmetry_cell_setting 'monoclinic'
loop_
_space_group_symop_operation_xyz
x,y,z
-x,y,-z
-x,-y,-z
x,-y,z
1/2+x,1/2+y,z
1/2-x,1/2+y,-z
1/2-x,1/2-y,-z
1/2+x,1/2-y,z
loop_
_atom_site_type_symbol
_atom_site_label
_atom_site_fract_x
_atom_site_fract_y
_atom_site_fract_z
Si Si1 0.061837 0.664650 0.810160
Si Si2 0.615847 0.730810 0.105545
Si Si3 0.174849 0.440429 0.850413
Si Si4 0.612866 0.670461 0.603187
Si Si5 0.696992 0.440310 0.508852
O O1 0.109035 0.611059 0.748155
O O2 0.000000 0.688297 0.500000
O O3 0.132821 0.710254 0.000051
O O4 0.000000 0.649900 0.000000
O O5 0.649858 0.714074 0.430576
O O6 0.500000 0.729835 0.000000
O O7 0.648117 0.685928 0.931410
O O8 0.131029 0.500000 0.757855
O O9 0.260982 0.436003 0.737997
O O10 0.215918 0.439117 0.190644
O O11 0.500000 0.674672 0.500000
O O12 0.636048 0.611095 0.522790
O O13 0.651444 0.500000 0.487288
#
# Coordination Sequence:
#
# PCOD9185462 Si02
#       5
#     8   8   8   8   8
#     4  11  21  36  59  83 108 141 184 225 265 323
#     4   9  18  33  52  79 110 139 172 221 277 314
#     4  10  22  39  56  78 112 147 178 222 278 321
#     4  10  19  34  57  81 107 142 183 221 262 320
#     4  10  21  38  56  77 111 148 179 221 276 321
#
# _framework density 22.572762999999998
#
# number of rings (size 3 to 8) (size 9 to 14) (size 15 to 20)
#    0.000    2.000    0.000    5.400    0.000    1.200 
#    0.000    6.000    0.000    7.200    0.000    0.000 
#    0.000    0.000    0.000    0.000    0.000    0.000 
#
# Total GULP energy -111713.098237 kJ/mol
# GULP energy per Si atom -5585.654912 kJ/mol
# Density = 2.252139 g / cm^3
# Si number density = 22.572763 Si / 1000 Ang^3
#
#
#
# Elastic Constant Matrix: (Units=GPa)
#
#
# Indices 1 2 3 4 5 6 
#
# 1 40.5261 40.5265 9.1451 0.0000 -12.9379 0.0000
# 2 40.5265 177.0474 14.9264 0.0000 -20.8189 0.0000
# 3 9.1451 14.9264 64.3188 0.0000 -14.7253 0.0000
# 4 0.0000 0.0000 0.0000 31.1557 0.0000 -5.8211
# 5 -12.9379 -20.8189 -14.7253 0.0000 20.8481 0.0000
# 6 0.0000 0.0000 0.0000 -5.8211 0.0000 38.5547
#
#
#
# Elastic Compliance Matrix: (Units=1/GPa)
#
#
# Indices 1 2 3 4 5 6 
#
# 1 0.036206 -0.006397 0.000022 0.000000 0.016096 0.000000
# 2 -0.006397 0.007530 -0.000030 0.000000 0.003528 0.000000
# 3 0.000022 -0.000030 0.018547 0.000000 0.013083 0.000000
# 4 0.000000 0.000000 0.000000 0.033029 0.000000 0.004987
# 5 0.016096 0.003528 0.013083 0.000000 0.070719 0.000000
# 6 0.000000 0.000000 0.000000 0.004987 0.000000 0.026690
#
#
# Mechanical properties :
#
#
# Convention : Reuss Voigt Hill
#
# Bulk Modulus (GPa) = 20.21333 45.67648 32.94491
# Shear Modulus (GPa) = 22.52031 32.59798 27.55915
#
# Velocity S-wave (km/s) = 3.16203 3.80429 3.49793
# Velocity P-wave (km/s) = 4.72286 6.29095 5.56244
#
# Compressibility (1/GPa) = 0.04947230
#
# Stress axis : x y z
#
# Youngs Moduli (GPa) = 27.61969 132.80440 53.91772
#
# Poissons Ratio (x) = 0.84951 -0.00117
# Poissons Ratio (y) = 0.17668 0.00163
# Poissons Ratio (z) = -0.00060 0.00400
#
# Static dielectric constant tensor:
#      x y z
#    x 1.840180 0.000000 0.018800 
#    y 0.000000 1.874240 0.000000 
#    z 0.018800 0.000000 1.800940 
# 
# From -- ./inp_files/15876.got.cif
#   From: 2010.05.17/outbox.cif.g08.bks.cpg/sg12_8_cif.got.tgz:15876.got - 2010.06.03 13:09:07.
