data_PCOD9185697
_publ_section_title
;
Structure prediction by ZEFSAII (Michael W. Deem and Ramdas Pophale) SiO2 
 PCOD9185697
Probable space group: C 2/M
;
_chemical_formula_sum "Si O2"
_cell_formula_units_Z 44
_cell_length_a 7.774687
_cell_length_b 20.664056
_cell_length_c 14.432318
_cell_angle_alpha 90.000000
_cell_angle_beta 113.394991
_cell_angle_gamma 90.000000
_cell_volume 2128.029204
_symmetry_space_group_name_H-M "C 2/M"
_symmetry_group_IT_number 12
_symmetry_cell_setting 'monoclinic'
loop_
_space_group_symop_operation_xyz
x,y,z
-x,y,-z
-x,-y,-z
x,-y,z
1/2+x,1/2+y,z
1/2-x,1/2+y,-z
1/2-x,1/2-y,-z
1/2+x,1/2-y,z
loop_
_atom_site_type_symbol
_atom_site_label
_atom_site_fract_x
_atom_site_fract_y
_atom_site_fract_z
Si Si1 0.621161 0.281467 0.658701
Si Si2 0.821516 0.926742 0.754882
Si Si3 0.364162 0.604217 0.550563
Si Si4 0.467230 0.851682 0.635760
Si Si5 0.000000 0.710567 0.000000
Si Si6 0.598858 0.315086 0.867998
O O1 0.449836 0.324066 0.584068
O O2 0.594181 0.207232 0.624728
O O3 0.810075 0.315397 0.663630
O O4 0.614855 0.287323 0.767856
O O5 0.864608 0.925750 0.652856
O O6 0.611295 0.898455 0.718386
O O7 0.963936 0.876879 0.833628
O O8 0.836833 0.000000 0.791627
O O9 0.500000 0.574988 0.500000
O O10 0.157535 0.609481 0.464423
O O11 0.808969 0.670874 0.948397
O O12 0.019823 0.758985 0.917070
#
# Coordination Sequence:
#
# PCOD9185697 Si02
#       6
#     8   8   8   8   4   8
#     4  10  19  34  57  87 118 143 184 240 293 332
#     4  11  24  40  55  77 116 158 193 225 267 329
#     4   9  20  35  55  84 115 150 192 235 277 321
#     4  11  20  32  55  84 116 154 191 233 275 321
#     4  10  20  38  68  94 112 130 172 234 298 354
#     4  10  21  38  62  91 115 141 175 228 290 344
#
# _framework density 20.676409
#
# number of rings (size 3 to 8) (size 9 to 14) (size 15 to 20)
#    0.000    1.818    0.000    5.455    0.000    6.182 
#    0.000    8.182    0.000    0.000    0.000    0.000 
#    0.000    0.000    0.000    0.000    0.000    0.000 
#
# Total GULP energy -122944.348099 kJ/mol
# GULP energy per Si atom -5588.379459 kJ/mol
# Density = 2.062935 g / cm^3
# Si number density = 20.676409 Si / 1000 Ang^3
#
#
#
# Elastic Constant Matrix: (Units=GPa)
#
#
# Indices 1 2 3 4 5 6 
#
# 1 129.5972 29.8402 42.2604 0.0000 24.9959 0.0000
# 2 29.8402 82.9134 37.1271 0.0000 38.2153 0.0000
# 3 42.2604 37.1271 93.2873 0.0000 25.2014 0.0000
# 4 0.0000 0.0000 0.0000 3.1409 0.0000 -3.0996
# 5 24.9959 38.2153 25.2014 0.0000 59.3889 0.0000
# 6 0.0000 0.0000 0.0000 -3.0996 0.0000 7.7038
#
#
#
# Elastic Compliance Matrix: (Units=1/GPa)
#
#
# Indices 1 2 3 4 5 6 
#
# 1 0.009405 -0.001018 -0.003347 0.000000 -0.001883 0.000000
# 2 -0.001018 0.018968 -0.004412 0.000000 -0.009905 0.000000
# 3 -0.003347 -0.004412 0.014507 0.000000 -0.001909 0.000000
# 4 0.000000 0.000000 0.000000 0.528041 0.000000 0.212455
# 5 -0.001883 -0.009905 -0.001909 0.000000 0.024814 0.000000
# 6 0.000000 0.000000 0.000000 0.212455 0.000000 0.215287
#
#
# Mechanical properties :
#
#
# Convention : Reuss Voigt Hill
#
# Bulk Modulus (GPa) = 39.48466 58.25037 48.86752
# Shear Modulus (GPa) = 5.97359 27.15141 16.56250
#
# Velocity S-wave (km/s) = 1.70157 3.62768 2.83332
# Velocity P-wave (km/s) = 4.79567 6.76612 5.86425
#
# Compressibility (1/GPa) = 0.02532629
#
# Stress axis : x y z
#
# Youngs Moduli (GPa) = 106.32399 52.72049 68.93168
#
# Poissons Ratio (x) = 0.05369 0.23069
# Poissons Ratio (y) = 0.10828 0.30412
# Poissons Ratio (z) = 0.35583 0.23260
#
# Static dielectric constant tensor:
#      x y z
#    x 1.802270 0.000000 -0.014120 
#    y 0.000000 1.703030 0.000000 
#    z -0.014120 0.000000 1.763050 
# 
# From -- ./inp_files/197265.got.cif
#   From: 2010.05.17/outbox.cif.g08.bks.cpg/sg12_99_cif.got.tgz:197265.got - 2010.06.03 13:09:07.
