data_PCOD9185382
_publ_section_title
;
Structure prediction by ZEFSAII (Michael W. Deem and Ramdas Pophale) SiO2 
 PCOD9185382
Probable space group: C 2/M
;
_chemical_formula_sum "Si O2"
_cell_formula_units_Z 40
_cell_length_a 12.236982
_cell_length_b 19.368892
_cell_length_c 10.816249
_cell_angle_alpha 90.000000
_cell_angle_beta 132.359876
_cell_angle_gamma 90.000000
_cell_volume 1894.338252
_symmetry_space_group_name_H-M "C 2/M"
_symmetry_group_IT_number 12
_symmetry_cell_setting 'monoclinic'
loop_
_space_group_symop_operation_xyz
x,y,z
-x,y,-z
-x,-y,-z
x,-y,z
1/2+x,1/2+y,z
1/2-x,1/2+y,-z
1/2-x,1/2-y,-z
1/2+x,1/2-y,z
loop_
_atom_site_type_symbol
_atom_site_label
_atom_site_fract_x
_atom_site_fract_y
_atom_site_fract_z
Si Si1 0.289654 0.215819 0.806025
Si Si2 0.600221 0.711185 0.437042
Si Si3 0.053705 0.922798 0.244236
Si Si4 0.441653 0.176960 0.159351
Si Si5 0.287830 0.621908 0.860721
O O1 0.142254 0.206567 0.613849
O O2 0.413896 0.175965 0.817539
O O3 0.320273 0.297986 0.845234
O O4 0.310947 0.187913 0.960229
O O5 0.750000 0.750000 0.500000
O O6 0.582253 0.635459 0.366982
O O7 0.478041 0.759430 0.277745
O O8 0.186687 0.919202 0.245628
O O9 0.037864 0.000000 0.281409
O O10 0.909855 0.903076 0.052258
O O11 0.373846 0.120221 0.199916
#
# Coordination Sequence:
#
# PCOD9185382 Si02
#       5
#     8   8   8   8   8
#     4  10  19  34  56  89 126 151 196 261 301 341
#     4  10  19  37  58  88 125 158 198 252 306 348
#     4  11  22  39  60  88 128 158 197 256 310 366
#     4  10  19  34  56  86 123 150 198 255 294 355
#     4  11  19  35  58  89 118 154 201 245 310 349
#
# _framework density 21.115552999999998
#
# number of rings (size 3 to 8) (size 9 to 14) (size 15 to 20)
#    0.000    1.600    6.000    3.000    0.000    0.800 
#    0.000    0.000    0.000   18.000    0.000   11.200 
#    0.000    0.000    0.000    0.000    0.000    0.000 
#
# Total GULP energy -111437.218838 kJ/mol
# GULP energy per Si atom -5571.860942 kJ/mol
# Density = 2.106749 g / cm^3
# Si number density = 21.115553 Si / 1000 Ang^3
#
#
#
# Elastic Constant Matrix: (Units=GPa)
#
#
# Indices 1 2 3 4 5 6 
#
# 1 75.7417 4.1371 26.9554 0.0000 -4.1459 0.0000
# 2 4.1371 100.3264 29.1666 0.0000 -7.2629 0.0000
# 3 26.9554 29.1666 156.7562 0.0000 -15.7504 0.0000
# 4 0.0000 0.0000 0.0000 9.3661 0.0000 -3.9597
# 5 -4.1459 -7.2629 -15.7504 0.0000 42.6910 0.0000
# 6 0.0000 0.0000 0.0000 -3.9597 0.0000 17.5673
#
#
#
# Elastic Compliance Matrix: (Units=1/GPa)
#
#
# Indices 1 2 3 4 5 6 
#
# 1 0.014076 0.000153 -0.002398 0.000000 0.000508 0.000000
# 2 0.000153 0.010590 -0.001884 0.000000 0.001121 0.000000
# 3 -0.002398 -0.001884 0.007359 0.000000 0.002162 0.000000
# 4 0.000000 0.000000 0.000000 0.118014 0.000000 0.026600
# 5 0.000508 0.001121 0.002162 0.000000 0.024462 0.000000
# 6 0.000000 0.000000 0.000000 0.026600 0.000000 0.062920
#
#
# Mechanical properties :
#
#
# Convention : Reuss Voigt Hill
#
# Bulk Modulus (GPa) = 42.07335 50.37139 46.22237
# Shear Modulus (GPa) = 19.71606 32.09590 25.90598
#
# Velocity S-wave (km/s) = 3.05900 3.90296 3.50647
# Velocity P-wave (km/s) = 5.69607 6.64964 6.19124
#
# Compressibility (1/GPa) = 0.02376802
#
# Stress axis : x y z
#
# Youngs Moduli (GPa) = 71.04508 94.42804 135.87980
#
# Poissons Ratio (x) = -0.01449 0.32582
# Poissons Ratio (y) = -0.01090 0.25602
# Poissons Ratio (z) = 0.17036 0.17792
#
# Static dielectric constant tensor:
#      x y z
#    x 1.942500 0.000000 0.042850 
#    y 0.000000 1.730130 0.000000 
#    z 0.042850 0.000000 1.780560 
# 
# From -- ./inp_files/145848.got.cif
#   From: 2010.05.17/outbox.cif.g08.bks.cpg/sg12_73_cif.got.tgz:145848.got - 2010.06.03 13:09:07.
