data_PCOD9185934
_publ_section_title
;
Structure prediction by ZEFSAII (Michael W. Deem and Ramdas Pophale) SiO2 
 PCOD9185934
Probable space group: C 2/M
;
_chemical_formula_sum "Si O2"
_cell_formula_units_Z 52
_cell_length_a 12.178079
_cell_length_b 22.606528
_cell_length_c 11.367445
_cell_angle_alpha 90.000000
_cell_angle_beta 54.607665
_cell_angle_gamma 90.000000
_cell_volume 2551.188224
_symmetry_space_group_name_H-M "C 2/M"
_symmetry_group_IT_number 12
_symmetry_cell_setting 'monoclinic'
loop_
_space_group_symop_operation_xyz
x,y,z
-x,y,-z
-x,-y,-z
x,-y,z
1/2+x,1/2+y,z
1/2-x,1/2+y,-z
1/2-x,1/2-y,-z
1/2+x,1/2-y,z
loop_
_atom_site_type_symbol
_atom_site_label
_atom_site_fract_x
_atom_site_fract_y
_atom_site_fract_z
Si Si1 0.803098 0.067968 0.862112
Si Si2 0.738804 0.262785 0.648131
Si Si3 0.046539 0.128929 0.833554
Si Si4 0.814303 0.565142 0.613492
Si Si5 0.568805 0.936520 0.197787
Si Si6 0.000000 0.332275 0.500000
Si Si7 0.111284 0.646412 0.830788
O O1 0.714601 0.097284 0.814872
O O2 0.922669 0.110937 0.827845
O O3 0.844959 0.000000 0.811387
O O4 0.701555 0.066148 0.035402
O O5 0.750000 0.250000 0.500000
O O6 0.622038 0.310589 0.750483
O O7 0.880691 0.287415 0.614184
O O8 0.693273 0.202680 0.737998
O O9 0.160139 0.079902 0.734572
O O10 0.000000 0.129319 0.000000
O O11 0.831455 0.500000 0.548774
O O12 0.880437 0.563860 0.701408
O O13 0.893281 0.620342 0.507038
O O14 0.476382 0.882866 0.217171
O O15 0.502617 0.000000 0.211472
O O16 0.000000 0.661065 0.000000
#
# Coordination Sequence:
#
# PCOD9185934 Si02
#       7
#     8   8   8   8   8   4   8
#     4  10  20  35  61  94 127 156 190 250 317 373
#     4  11  25  42  61  81 119 166 209 253 298 360
#     4  11  22  38  60  95 125 156 200 251 312 369
#     4  10  19  34  58  86 119 153 193 248 301 362
#     4   9  17  32  57  88 119 148 187 241 303 361
#     4  10  23  38  54  80 109 158 208 238 294 352
#     4  10  21  39  61  92 119 157 206 253 305 358
#
# _framework density 20.382660999999999
#
# number of rings (size 3 to 8) (size 9 to 14) (size 15 to 20)
#    0.000    1.846    1.538    2.538    2.154    2.462 
#    0.000    2.308    0.000    3.692    0.000    0.000 
#    0.000    0.000    0.000    0.000    0.000    0.000 
#
# Total GULP energy -144814.087466 kJ/mol
# GULP energy per Si atom -5569.772595 kJ/mol
# Density = 2.033627 g / cm^3
# Si number density = 20.382661 Si / 1000 Ang^3
#
#
#
# Elastic Constant Matrix: (Units=GPa)
#
#
# Indices 1 2 3 4 5 6 
#
# 1 61.3679 16.7188 37.9269 0.0000 -22.7886 0.0000
# 2 16.7188 108.6837 45.3832 0.0000 -19.9739 0.0000
# 3 37.9269 45.3832 98.3136 0.0000 -10.4556 0.0000
# 4 0.0000 0.0000 0.0000 3.4798 0.0000 -18.8393
# 5 -22.7886 -19.9739 -10.4556 0.0000 27.6793 0.0000
# 6 0.0000 0.0000 0.0000 -18.8393 0.0000 19.7782
#
#
#
# Elastic Compliance Matrix: (Units=1/GPa)
#
#
# Indices 1 2 3 4 5 6 
#
# 1 0.031417 0.004561 -0.011590 0.000000 0.024779 0.000000
# 2 0.004561 0.013305 -0.006752 0.000000 0.010805 0.000000
# 3 -0.011590 -0.006752 0.016906 0.000000 -0.008028 0.000000
# 4 0.000000 0.000000 0.000000 -0.069132 0.000000 -0.065850
# 5 0.024779 0.010805 -0.008028 0.000000 0.061293 0.000000
# 6 0.000000 0.000000 0.000000 -0.065850 0.000000 -0.012163
#
#
# Mechanical properties :
#
#
# Convention : Reuss Voigt Hill
#
# Bulk Modulus (GPa) = 29.35578 52.04701 40.70140
# Shear Modulus (GPa) = 62.07859 21.40989 41.74424
#
# Velocity S-wave (km/s) = 5.52473 3.24450 4.53042
# Velocity P-wave (km/s) = 7.42499 6.29492 6.88319
#
# Compressibility (1/GPa) = 0.03406485
#
# Stress axis : x y z
#
# Youngs Moduli (GPa) = 31.82984 75.16186 59.15196
#
# Poissons Ratio (x) = -0.34278 0.68557
# Poissons Ratio (y) = -0.14516 0.39939
# Poissons Ratio (z) = 0.36891 0.50748
#
# Static dielectric constant tensor:
#      x y z
#    x 1.703520 0.000000 -0.008500 
#    y 0.000000 1.764890 0.000000 
#    z -0.008500 0.000000 1.774940 
# 
# From -- ./inp_files/135849.got.cif
#   From: 2010.05.17/outbox.cif.g08.bks.cpg/sg12_68_cif.got.tgz:135849.got - 2010.06.03 13:09:07.
