data_PCOD9185202
_publ_section_title
;
Structure prediction by ZEFSAII (Michael W. Deem and Ramdas Pophale) SiO2 
 PCOD9185202
Probable space group: C 2/M
;
_chemical_formula_sum "Si O2"
_cell_formula_units_Z 56
_cell_length_a 24.546813
_cell_length_b 8.337310
_cell_length_c 15.350581
_cell_angle_alpha 90.000000
_cell_angle_beta 118.215015
_cell_angle_gamma 90.000000
_cell_volume 2768.281869
_symmetry_space_group_name_H-M "C 2/M"
_symmetry_group_IT_number 12
_symmetry_cell_setting 'monoclinic'
loop_
_space_group_symop_operation_xyz
x,y,z
-x,y,-z
-x,-y,-z
x,-y,z
1/2+x,1/2+y,z
1/2-x,1/2+y,-z
1/2-x,1/2-y,-z
1/2+x,1/2-y,z
loop_
_atom_site_type_symbol
_atom_site_label
_atom_site_fract_x
_atom_site_fract_y
_atom_site_fract_z
Si Si1 0.765417 0.686788 0.283187
Si Si2 0.376164 0.312435 0.819535
Si Si3 0.943403 0.314591 0.021402
Si Si4 0.931344 0.813688 0.199001
Si Si5 0.434582 0.696714 0.684542
Si Si6 0.311005 0.309645 0.494738
Si Si7 0.792496 0.808289 0.112499
O O1 0.781656 0.500000 0.288361
O O2 0.694678 0.697288 0.262160
O O3 0.805562 0.766989 0.388907
O O4 0.768338 0.761850 0.189636
O O5 0.390165 0.500000 0.848248
O O6 0.418271 0.255368 0.771483
O O7 0.385655 0.213589 0.914406
O O8 0.947805 0.500000 0.052275
O O9 0.940316 0.202331 0.102029
O O10 0.000000 0.275962 0.000000
O O11 0.863353 0.742736 0.163587
O O12 0.996045 0.747415 0.286409
O O13 0.928419 0.000000 0.223073
O O14 0.435486 0.500000 0.684466
O O15 0.376293 0.751023 0.583117
O O16 0.311340 0.500000 0.505573
O O17 0.250000 0.250000 0.500000
O O18 0.795073 0.000000 0.106230
O O19 0.750000 0.750000 0.000000
#
# Coordination Sequence:
#
# PCOD9185202 Si02
#       7
#     8   8   8   8   8   8   8
#     4  11  23  40  61  88 119 157 201 245 294 353
#     4  10  19  34  56  80 110 151 195 232 280 348
#     4  11  22  32  47  81 120 148 182 232 295 355
#     4  10  21  39  61  81 109 154 202 241 286 348
#     4   9  18  35  58  84 113 148 192 240 285 342
#     4  11  21  37  61  91 124 157 196 246 300 354
#     4  11  24  42  64  90 117 156 203 248 295 350
#
# _framework density 20.229151999999999
#
# number of rings (size 3 to 8) (size 9 to 14) (size 15 to 20)
#    0.000    1.571    2.857    2.571    0.000    6.286 
#    0.000    2.143    0.000    4.286    0.000    0.000 
#    0.000    0.000    0.000    0.000    0.000    0.000 
#
# Total GULP energy -156230.868156 kJ/mol
# GULP energy per Si atom -5579.673863 kJ/mol
# Density = 2.018311 g / cm^3
# Si number density = 20.229152 Si / 1000 Ang^3
#
#
#
# Elastic Constant Matrix: (Units=GPa)
#
#
# Indices 1 2 3 4 5 6 
#
# 1 105.3903 17.0260 42.4186 0.0000 20.9072 0.0000
# 2 17.0260 19.0143 7.5928 0.0000 7.5938 0.0000
# 3 42.4186 7.5928 119.9471 0.0000 18.0160 0.0000
# 4 0.0000 0.0000 0.0000 25.6855 0.0000 -0.5393
# 5 20.9072 7.5938 18.0160 0.0000 32.9479 0.0000
# 6 0.0000 0.0000 0.0000 -0.5393 0.0000 20.9789
#
#
#
# Elastic Compliance Matrix: (Units=1/GPa)
#
#
# Indices 1 2 3 4 5 6 
#
# 1 0.013151 -0.008615 -0.003432 0.000000 -0.004483 0.000000
# 2 -0.008615 0.063930 0.000427 0.000000 -0.009501 0.000000
# 3 -0.003432 0.000427 0.010036 0.000000 -0.003408 0.000000
# 4 0.000000 0.000000 0.000000 0.038954 0.000000 0.001001
# 5 -0.004483 -0.009501 -0.003408 0.000000 0.037249 0.000000
# 6 0.000000 0.000000 0.000000 0.001001 0.000000 0.047693
#
#
# Mechanical properties :
#
#
# Convention : Reuss Voigt Hill
#
# Bulk Modulus (GPa) = 15.65521 42.04739 28.85130
# Shear Modulus (GPa) = 19.56603 27.74339 23.65471
#
# Velocity S-wave (km/s) = 3.11339 3.70734 3.42327
# Velocity P-wave (km/s) = 4.54753 6.25751 5.46975
#
# Compressibility (1/GPa) = 0.06387650
#
# Stress axis : x y z
#
# Youngs Moduli (GPa) = 76.03989 15.64200 99.64504
#
# Poissons Ratio (x) = 0.13476 0.34199
# Poissons Ratio (y) = 0.65509 -0.04254
# Poissons Ratio (z) = 0.26098 -0.00668
#
# Static dielectric constant tensor:
#      x y z
#    x 1.781890 0.000000 0.043010 
#    y 0.000000 1.718770 0.000000 
#    z 0.043010 0.000000 1.742170 
# 
# From -- ./inp_files/238883.got.cif
#   From: 2010.05.17/outbox.cif.g08.bks.cpg/sg12_120_cif.got.tgz:238883.got - 2010.06.03 13:09:07.
