data_PCOD9185856
_publ_section_title
;
Structure prediction by ZEFSAII (Michael W. Deem and Ramdas Pophale) SiO2 
 PCOD9185856
Probable space group: C 2/M
;
_chemical_formula_sum "Si O2"
_cell_formula_units_Z 64
_cell_length_a 15.252445
_cell_length_b 32.441034
_cell_length_c 20.214109
_cell_angle_alpha 90.000000
_cell_angle_beta 161.012595
_cell_angle_gamma 90.000000
_cell_volume 3254.268010
_symmetry_space_group_name_H-M "C 2/M"
_symmetry_group_IT_number 12
_symmetry_cell_setting 'monoclinic'
loop_
_space_group_symop_operation_xyz
x,y,z
-x,y,-z
-x,-y,-z
x,-y,z
1/2+x,1/2+y,z
1/2-x,1/2+y,-z
1/2-x,1/2-y,-z
1/2+x,1/2-y,z
loop_
_atom_site_type_symbol
_atom_site_label
_atom_site_fract_x
_atom_site_fract_y
_atom_site_fract_z
Si Si1 0.233794 0.243538 0.067231
Si Si2 0.812858 0.095095 0.430145
Si Si3 0.756739 0.547891 0.006225
Si Si4 0.200045 0.816734 0.265447
Si Si5 0.776193 0.916268 0.158063
Si Si6 0.965242 0.893677 0.045865
Si Si7 0.057838 0.830655 0.776450
Si Si8 0.935927 0.663520 0.672215
O O1 0.297544 0.288264 0.141838
O O2 0.458284 0.209621 0.244007
O O3 0.250000 0.250000 0.000000
O O4 0.950011 0.220826 0.878466
O O5 0.553302 0.066624 0.232593
O O6 0.716191 0.142111 0.374640
O O7 0.000000 0.092861 0.500000
O O8 0.981687 0.082210 0.615957
O O9 0.746775 0.500000 0.015839
O O10 0.559937 0.574908 0.911904
O O11 0.693566 0.554556 0.883737
O O12 0.500000 0.805453 0.500000
O O13 0.017020 0.827571 0.199417
O O14 0.193166 0.859006 0.219610
O O15 0.770857 0.870441 0.121705
O O16 0.500000 0.924260 0.000000
O O17 0.692252 0.866356 0.846760
O O18 0.000000 0.914911 0.000000
O O19 0.773891 0.836068 0.537037
#
# Coordination Sequence:
#
# PCOD9185856 Si02
#       8
#     8   8   8   8   8   8   8   8
#     4   9  19  32  52  82 121 158 198 254 296 337
#     4  10  21  38  62  89 120 160 202 243 301 368
#     4  11  24  42  65  92 123 153 194 255 308 367
#     4  10  19  34  58  84 116 160 203 246 294 352
#     4  11  22  40  64  90 120 164 203 240 304 368
#     4  10  20  38  62  88 117 157 201 244 299 365
#     4  10  19  36  57  82 121 159 200 253 295 350
#     4   9  19  34  57  84 113 159 205 247 294 349
#
# _framework density 19.666481000000001
#
# number of rings (size 3 to 8) (size 9 to 14) (size 15 to 20)
#    0.000    2.000    2.500    1.125    1.750    1.250 
#    0.000   11.250    0.000    0.375    0.000    0.000 
#    0.000    0.000    0.000    0.000    0.000    0.000 
#
# Total GULP energy -178573.805781 kJ/mol
# GULP energy per Si atom -5580.431431 kJ/mol
# Density = 1.962172 g / cm^3
# Si number density = 19.666481 Si / 1000 Ang^3
#
#
#
# Elastic Constant Matrix: (Units=GPa)
#
#
# Indices 1 2 3 4 5 6 
#
# 1 77.8275 10.4793 0.0716 0.0030 -10.0571 -0.0020
# 2 10.4793 94.2257 9.0247 0.0018 -4.2560 -0.0014
# 3 0.0716 9.0247 60.0024 0.0029 -11.2835 0.0034
# 4 0.0030 0.0018 0.0029 12.3172 0.0072 -5.3705
# 5 -10.0571 -4.2560 -11.2835 0.0072 20.6020 0.0009
# 6 -0.0020 -0.0014 0.0034 -5.3705 0.0009 6.2984
#
#
#
# Elastic Compliance Matrix: (Units=1/GPa)
#
#
# Indices 1 2 3 4 5 6 
#
# 1 0.013990 -0.001373 0.001584 -0.000011 0.007413 -0.000007
# 2 -0.001373 0.010944 -0.001500 0.000000 0.000769 0.000003
# 3 0.001584 -0.001500 0.018926 -0.000026 0.010829 -0.000033
# 4 -0.000011 0.000000 -0.000026 0.129234 -0.000070 0.110195
# 5 0.007413 0.000769 0.010829 -0.000070 0.058248 -0.000071
# 6 -0.000007 0.000003 -0.000033 0.110195 -0.000071 0.252731
#
#
# Mechanical properties :
#
#
# Convention : Reuss Voigt Hill
#
# Bulk Modulus (GPa) = 24.22299 30.13407 27.17853
# Shear Modulus (GPa) = 9.99177 22.00884 16.00030
#
# Velocity S-wave (km/s) = 2.25647 3.34893 2.85543
# Velocity P-wave (km/s) = 4.37407 5.50542 4.97203
#
# Compressibility (1/GPa) = 0.04128309
#
# Stress axis : x y z
#
# Youngs Moduli (GPa) = 71.47813 91.37532 52.83705
#
# Poissons Ratio (x) = 0.12544 -0.08369
# Poissons Ratio (y) = 0.09812 0.07924
# Poissons Ratio (z) = -0.11321 0.13704
#
# Static dielectric constant tensor:
#      x y z
#    x 1.729690 -0.000040 -0.015260 
#    y -0.000040 1.688680 0.000090 
#    z -0.015260 0.000090 1.719790 
# 
# From -- ./inp_files/312945.got.cif
#   From: 2010.05.17/outbox.cif.g08.bks.cpg/sg12_157_cif.got.tgz:312945.got - 2010.06.03 13:09:07.
