data_PCOD9185984
_publ_section_title
;
Structure prediction by ZEFSAII (Michael W. Deem and Ramdas Pophale) SiO2 
 PCOD9185984
Probable space group: C 2/M
;
_chemical_formula_sum "Si O2"
_cell_formula_units_Z 58
_cell_length_a 28.124502
_cell_length_b 12.259260
_cell_length_c 8.578982
_cell_angle_alpha 90.000000
_cell_angle_beta 96.421962
_cell_angle_gamma 90.000000
_cell_volume 2939.348777
_symmetry_space_group_name_H-M "C 2/M"
_symmetry_group_IT_number 12
_symmetry_cell_setting 'monoclinic'
loop_
_space_group_symop_operation_xyz
x,y,z
-x,y,-z
-x,-y,-z
x,-y,z
1/2+x,1/2+y,z
1/2-x,1/2+y,-z
1/2-x,1/2-y,-z
1/2+x,1/2-y,z
loop_
_atom_site_type_symbol
_atom_site_label
_atom_site_fract_x
_atom_site_fract_y
_atom_site_fract_z
Si Si1 0.299568 0.624421 0.743398
Si Si2 0.979900 0.380063 0.316310
Si Si3 0.852302 0.724143 0.533916
Si Si4 0.079038 0.373040 0.179854
Si Si5 0.578043 0.666421 0.665456
Si Si6 0.500000 0.500000 0.500000
Si Si7 0.629945 0.291338 0.974423
Si Si8 0.309448 0.125598 0.209989
O O1 0.300807 0.500000 0.683697
O O2 0.311824 0.713194 0.616528
O O3 0.247471 0.642441 0.798125
O O4 0.340264 0.640946 0.888643
O O5 0.959952 0.500000 0.273665
O O6 0.941227 0.286651 0.299511
O O7 0.000000 0.381804 0.500000
O O8 0.024816 0.359103 0.220202
O O9 0.885612 0.654978 0.662827
O O10 0.885259 0.815986 0.463009
O O11 0.830909 0.651080 0.388645
O O12 0.085091 0.500000 0.136607
O O13 0.092730 0.285912 0.053505
O O14 0.534289 0.593877 0.593914
O O15 0.605168 0.634797 0.833502
O O16 0.666077 0.209311 0.899207
O O17 0.318693 0.000000 0.169924
#
# Coordination Sequence:
#
# PCOD9185984 Si02
#       8
#     8   8   8   8   8   2   8   8
#     4  10  22  39  59  82 120 159 198 245 298 353
#     4  10  19  35  59  86 117 149 190 240 303 351
#     4  10  20  36  59  87 116 151 205 242 289 349
#     4  10  19  34  58  88 121 155 186 239 294 357
#     4  11  23  39  60  85 113 158 198 253 296 347
#     4  12  24  40  62  82 116 152 218 254 288 340
#     4  10  23  38  58  86 121 153 198 236 300 366
#     4  10  20  37  61  90 119 154 191 246 306 361
#
# _framework density 19.732261000000001
#
# number of rings (size 3 to 8) (size 9 to 14) (size 15 to 20)
#    0.000    1.793    2.069    1.655    1.931    3.310 
#    0.000    1.379    0.000   10.759    0.000    0.000 
#    0.000    0.000    0.000    0.000    0.000    0.000 
#
# Total GULP energy -161733.952005 kJ/mol
# GULP energy per Si atom -5577.032828 kJ/mol
# Density = 1.968735 g / cm^3
# Si number density = 19.732261 Si / 1000 Ang^3
#
#
#
# Elastic Constant Matrix: (Units=GPa)
#
#
# Indices 1 2 3 4 5 6 
#
# 1 60.1120 23.5629 8.4678 0.0000 -9.2138 0.0000
# 2 23.5629 57.9305 -1.2638 0.0000 -9.2402 0.0000
# 3 8.4678 -1.2638 51.6518 0.0000 1.5932 0.0000
# 4 0.0000 0.0000 0.0000 5.0297 0.0000 -13.0596
# 5 -9.2138 -9.2402 1.5932 0.0000 25.4558 0.0000
# 6 0.0000 0.0000 0.0000 -13.0596 0.0000 -6.6847
#
#
#
# Elastic Compliance Matrix: (Units=1/GPa)
#
#
# Indices 1 2 3 4 5 6 
#
# 1 0.021004 -0.007829 -0.003789 0.000000 0.004998 0.000000
# 2 -0.007829 0.021244 0.001656 0.000000 0.004774 0.000000
# 3 -0.003789 0.001656 0.020085 0.000000 -0.002027 0.000000
# 4 0.000000 0.000000 0.000000 0.032740 0.000000 -0.063962
# 5 0.004998 0.004774 -0.002027 0.000000 0.042953 0.000000
# 6 0.000000 0.000000 0.000000 -0.063962 0.000000 -0.024634
#
#
# Mechanical properties :
#
#
# Convention : Reuss Voigt Hill
#
# Bulk Modulus (GPa) = 23.57997 25.69203 24.63600
# Shear Modulus (GPa) = 33.90955 14.02200 23.96577
#
# Velocity S-wave (km/s) = 4.14996 2.66862 3.48882
# Velocity P-wave (km/s) = 5.91090 4.74805 5.36110
#
# Compressibility (1/GPa) = 0.04240887
#
# Stress axis : x y z
#
# Youngs Moduli (GPa) = 47.60950 47.07214 49.78924
#
# Poissons Ratio (x) = 0.36852 0.18866
# Poissons Ratio (y) = 0.37273 -0.08245
# Poissons Ratio (z) = 0.18040 -0.07795
#
# Static dielectric constant tensor:
#      x y z
#    x 1.675580 0.000000 0.005370 
#    y 0.000000 1.670400 0.000000 
#    z 0.005370 0.000000 1.706250 
# 
# From -- ./inp_files/110054.got.cif
#   From: 2010.05.17/outbox.cif.g08.bks.cpg/sg12_56_cif.got.tgz:110054.got - 2010.06.03 13:09:07.
