data_PCOD9185701
_publ_section_title
;
Structure prediction by ZEFSAII (Michael W. Deem and Ramdas Pophale) SiO2 
 PCOD9185701
Probable space group: C 2/M
;
_chemical_formula_sum "Si O2"
_cell_formula_units_Z 48
_cell_length_a 24.888356
_cell_length_b 9.149456
_cell_length_c 11.051943
_cell_angle_alpha 90.000000
_cell_angle_beta 101.636034
_cell_angle_gamma 90.000000
_cell_volume 2464.970734
_symmetry_space_group_name_H-M "C 2/M"
_symmetry_group_IT_number 12
_symmetry_cell_setting 'monoclinic'
loop_
_space_group_symop_operation_xyz
x,y,z
-x,y,-z
-x,-y,-z
x,-y,z
1/2+x,1/2+y,z
1/2-x,1/2+y,-z
1/2-x,1/2-y,-z
1/2+x,1/2-y,z
loop_
_atom_site_type_symbol
_atom_site_label
_atom_site_fract_x
_atom_site_fract_y
_atom_site_fract_z
Si Si1 0.192893 0.666809 0.489308
Si Si2 0.012940 0.175569 0.648219
Si Si3 0.872662 0.325682 0.310337
Si Si4 0.839235 0.666311 0.795536
Si Si5 0.962630 0.677139 0.865328
Si Si6 0.758876 0.328969 0.128658
O O1 0.206552 0.500000 0.532169
O O2 0.250000 0.750000 0.500000
O O3 0.152278 0.724953 0.572716
O O4 0.160769 0.663395 0.349377
O O5 0.074595 0.232788 0.697667
O O6 0.000000 0.216161 0.500000
O O7 0.979288 0.248648 0.744688
O O8 0.008086 0.000000 0.654229
O O9 0.886345 0.500000 0.321407
O O10 0.821092 0.305858 0.199085
O O11 0.829785 0.500000 0.835588
O O12 0.899144 0.714857 0.865645
O O13 0.787276 0.763013 0.805471
O O14 0.965543 0.500000 0.851016
O O15 0.000000 0.714728 0.000000
O O16 0.749975 0.500000 0.114642
O O17 0.750000 0.250000 0.000000
#
# Coordination Sequence:
#
# PCOD9185701 Si02
#       6
#     8   8   8   8   8   8
#     4  10  19  34  57  87 119 152 193 241 298 358
#     4  11  25  43  64  94 129 166 210 262 317 369
#     4  10  22  40  63  90 122 162 206 248 300 368
#     4  10  21  38  62  90 122 157 198 250 305 364
#     4  10  23  43  67  93 123 164 212 260 312 375
#     4  11  24  40  60  88 123 162 203 249 304 363
#
# _framework density 19.472847999999999
#
# number of rings (size 3 to 8) (size 9 to 14) (size 15 to 20)
#    0.000    1.667    1.667    2.000    2.333    5.667 
#    0.000    0.000    0.000    0.000    0.000    0.000 
#    0.000    0.000    0.000    0.000    0.000    0.000 
#
# Total GULP energy -133917.338824 kJ/mol
# GULP energy per Si atom -5579.889118 kJ/mol
# Density = 1.942853 g / cm^3
# Si number density = 19.472848 Si / 1000 Ang^3
#
#
#
# Elastic Constant Matrix: (Units=GPa)
#
#
# Indices 1 2 3 4 5 6 
#
# 1 73.2242 35.8738 5.8913 0.0000 13.0438 0.0000
# 2 35.8738 51.6377 30.4619 0.0000 7.8605 0.0000
# 3 5.8913 30.4619 77.0525 0.0000 1.9200 0.0000
# 4 0.0000 0.0000 0.0000 30.1905 0.0000 -4.0063
# 5 13.0438 7.8605 1.9200 0.0000 30.9737 0.0000
# 6 0.0000 0.0000 0.0000 -4.0063 0.0000 24.5967
#
#
#
# Elastic Compliance Matrix: (Units=1/GPa)
#
#
# Indices 1 2 3 4 5 6 
#
# 1 0.023387 -0.018840 0.005795 0.000000 -0.005427 0.000000
# 2 -0.018840 0.041518 -0.014931 0.000000 -0.001677 0.000000
# 3 0.005795 -0.014931 0.018433 0.000000 0.000206 0.000000
# 4 0.000000 0.000000 0.000000 0.033855 0.000000 0.005514
# 5 -0.005427 -0.001677 0.000206 0.000000 0.034984 0.000000
# 6 0.000000 0.000000 0.000000 0.005514 0.000000 0.041554
#
#
# Mechanical properties :
#
#
# Convention : Reuss Voigt Hill
#
# Bulk Modulus (GPa) = 36.51570 38.48538 37.50054
# Shear Modulus (GPa) = 19.31903 25.79802 22.55852
#
# Velocity S-wave (km/s) = 3.15318 3.64376 3.40731
# Velocity P-wave (km/s) = 5.66123 6.12447 5.89740
#
# Compressibility (1/GPa) = 0.02738548
#
# Stress axis : x y z
#
# Youngs Moduli (GPa) = 42.75807 24.08585 54.25078
#
# Poissons Ratio (x) = 0.45379 -0.31441
# Poissons Ratio (y) = 0.80558 0.81004
# Poissons Ratio (z) = -0.24780 0.35964
#
# Static dielectric constant tensor:
#      x y z
#    x 1.723570 0.000000 -0.034400 
#    y 0.000000 1.673300 0.000000 
#    z -0.034400 0.000000 1.732640 
# 
# From -- ./inp_files/172086.got.cif
#   From: 2010.05.17/outbox.cif.g08.bks.cpg/sg12_87_cif.got.tgz:172086.got - 2010.06.03 13:09:07.
