data_PCOD9185408
_publ_section_title
;
Structure prediction by ZEFSAII (Michael W. Deem and Ramdas Pophale) SiO2 
 PCOD9185408
Probable space group: C 2/M
;
_chemical_formula_sum "Si O2"
_cell_formula_units_Z 52
_cell_length_a 9.806952
_cell_length_b 25.513009
_cell_length_c 12.369026
_cell_angle_alpha 90.000000
_cell_angle_beta 72.915235
_cell_angle_gamma 90.000000
_cell_volume 2958.220864
_symmetry_space_group_name_H-M "C 2/M"
_symmetry_group_IT_number 12
_symmetry_cell_setting 'monoclinic'
loop_
_space_group_symop_operation_xyz
x,y,z
-x,y,-z
-x,-y,-z
x,-y,z
1/2+x,1/2+y,z
1/2-x,1/2+y,-z
1/2-x,1/2-y,-z
1/2+x,1/2-y,z
loop_
_atom_site_type_symbol
_atom_site_label
_atom_site_fract_x
_atom_site_fract_y
_atom_site_fract_z
Si Si1 0.345334 0.260781 0.583290
Si Si2 0.135916 0.059620 0.222496
Si Si3 0.275225 0.058668 0.959794
Si Si4 0.811541 0.938914 0.262941
Si Si5 0.665485 0.153878 0.754450
Si Si6 0.077236 0.353367 0.367931
Si Si7 0.000000 0.639143 0.000000
O O1 0.500000 0.277328 0.500000
O O2 0.250000 0.250000 0.500000
O O3 0.267093 0.302425 0.677834
O O4 0.363640 0.205950 0.642155
O O5 0.240269 0.101719 0.250792
O O6 0.968858 0.071720 0.272293
O O7 0.162654 0.000000 0.254281
O O8 0.170746 0.060459 0.086418
O O9 0.194334 0.066223 0.866099
O O10 0.395776 0.101463 0.955066
O O11 0.340298 0.000000 0.941700
O O12 0.698157 0.897043 0.330212
O O13 0.776273 0.000000 0.295536
O O14 0.537402 0.143065 0.701085
O O15 0.596037 0.168286 0.887621
O O16 0.000000 0.360537 0.500000
#
# Coordination Sequence:
#
# PCOD9185408 Si02
#       7
#     8   8   8   8   8   8   4
#     4  11  23  43  68  88 108 152 211 253 286 345
#     4   9  20  34  56  89 122 157 197 238 292 351
#     4   9  16  30  55  83 119 162 201 233 275 350
#     4  10  20  35  57  86 123 160 194 241 293 347
#     4  11  22  39  63  91 121 155 196 249 299 355
#     4  11  23  40  62  86 114 152 204 248 290 352
#     4  10  19  34  56  92 130 150 189 240 310 352
#
# _framework density 17.578133999999999
#
# number of rings (size 3 to 8) (size 9 to 14) (size 15 to 20)
#    0.000    1.846    4.615    0.692    2.154    3.385 
#    0.000    0.769    3.385    2.308    0.000    0.000 
#    0.000    0.000    0.000    0.000    0.000    0.000 
#
# Total GULP energy -144993.271210 kJ/mol
# GULP energy per Si atom -5576.664277 kJ/mol
# Density = 1.753813 g / cm^3
# Si number density = 17.578134 Si / 1000 Ang^3
#
#
#
# Elastic Constant Matrix: (Units=GPa)
#
#
# Indices 1 2 3 4 5 6 
#
# 1 109.7995 68.3150 49.5773 0.0000 -9.4602 0.0000
# 2 68.3150 106.4606 65.4465 0.0000 -16.1420 0.0000
# 3 49.5773 65.4465 93.2818 0.0000 -6.4380 0.0000
# 4 0.0000 0.0000 0.0000 32.2581 0.0000 -2.5499
# 5 -9.4602 -16.1420 -6.4380 0.0000 31.3725 0.0000
# 6 0.0000 0.0000 0.0000 -2.5499 0.0000 27.7391
#
#
#
# Elastic Compliance Matrix: (Units=1/GPa)
#
#
# Indices 1 2 3 4 5 6 
#
# 1 0.015415 -0.008579 -0.002189 0.000000 -0.000215 0.000000
# 2 -0.008579 0.022576 -0.010810 0.000000 0.006811 0.000000
# 3 -0.002189 -0.010810 0.019312 0.000000 -0.002259 0.000000
# 4 0.000000 0.000000 0.000000 0.031227 0.000000 0.002870
# 5 -0.000215 0.006811 -0.002259 0.000000 0.034851 0.000000
# 6 0.000000 0.000000 0.000000 0.002870 0.000000 0.036314
#
#
# Mechanical properties :
#
#
# Convention : Reuss Voigt Hill
#
# Bulk Modulus (GPa) = 70.68088 75.13552 72.90820
# Shear Modulus (GPa) = 24.08885 26.68747 25.38816
#
# Velocity S-wave (km/s) = 3.70589 3.90066 3.80452
# Velocity P-wave (km/s) = 7.65561 7.94502 7.80166
#
# Compressibility (1/GPa) = 0.01414810
#
# Stress axis : x y z
#
# Youngs Moduli (GPa) = 64.87339 44.29475 51.78181
#
# Poissons Ratio (x) = 0.37999 0.11333
# Poissons Ratio (y) = 0.55652 0.55976
# Poissons Ratio (z) = 0.14199 0.47882
#
# Static dielectric constant tensor:
#      x y z
#    x 1.600050 0.000000 -0.014880 
#    y 0.000000 1.597550 0.000000 
#    z -0.014880 0.000000 1.599510 
# 
# From -- ./inp_files/123652.got.cif
#   From: 2010.05.17/outbox.cif.g08.bks.cpg/sg12_62_cif.got.tgz:123652.got - 2010.06.03 13:09:07.
