data_PCOD9185655
_publ_section_title
;
Structure prediction by ZEFSAII (Michael W. Deem and Ramdas Pophale) SiO2 
 PCOD9185655
Probable space group: C 2/M
;
_chemical_formula_sum "Si O2"
_cell_formula_units_Z 64
_cell_length_a 32.459127
_cell_length_b 13.633605
_cell_length_c 9.484863
_cell_angle_alpha 90.000000
_cell_angle_beta 126.392738
_cell_angle_gamma 90.000000
_cell_volume 3378.763256
_symmetry_space_group_name_H-M "C 2/M"
_symmetry_group_IT_number 12
_symmetry_cell_setting 'monoclinic'
loop_
_space_group_symop_operation_xyz
x,y,z
-x,y,-z
-x,-y,-z
x,-y,z
1/2+x,1/2+y,z
1/2-x,1/2+y,-z
1/2-x,1/2-y,-z
1/2+x,1/2-y,z
loop_
_atom_site_type_symbol
_atom_site_label
_atom_site_fract_x
_atom_site_fract_y
_atom_site_fract_z
Si Si1 0.744658 0.883281 0.394252
Si Si2 0.899627 0.228451 0.028379
Si Si3 0.271658 0.881874 0.962254
Si Si4 0.837739 0.251436 0.628887
Si Si5 0.390240 0.884086 0.237796
Si Si6 0.399044 0.726896 0.473869
Si Si7 0.668380 0.617470 0.894022
Si Si8 0.500103 0.616147 0.329298
O O1 0.735333 0.848300 0.213577
O O2 0.799536 0.841655 0.551425
O O3 0.699899 0.839104 0.400249
O O4 0.743686 0.000000 0.396153
O O5 0.904465 0.332349 0.119455
O O6 0.854037 0.169508 0.014451
O O7 0.950513 0.166829 0.161953
O O8 0.882428 0.241708 0.834196
O O9 0.225877 0.850182 0.971534
O O10 0.266226 0.000000 0.943726
O O11 0.329108 0.864757 0.130437
O O12 0.863048 0.259855 0.527824
O O13 0.415287 0.820466 0.412613
O O14 0.399678 0.000000 0.259974
O O15 0.367605 0.653921 0.306976
O O16 0.448924 0.668170 0.623436
O O17 0.665722 0.500000 0.901775
O O18 0.500000 0.629598 0.500000
O O19 0.500071 0.500000 0.302611
#
# Coordination Sequence:
#
# PCOD9185655 Si02
#       8
#     8   8   8   8   8   8   8   8
#     4  10  21  37  58  85 123 166 199 236 293 356
#     4  11  23  38  60  87 120 157 199 248 299 354
#     4   9  17  32  57  85 113 153 199 238 287 346
#     4  11  24  39  57  91 126 161 198 239 294 360
#     4  10  21  38  60  87 116 155 204 247 290 346
#     4  11  23  38  60  86 119 156 197 248 299 350
#     4  10  19  34  57  85 115 153 197 245 292 346
#     4  11  22  41  66  91 116 148 196 249 304 353
#
# _framework density 18.941842999999999
#
# number of rings (size 3 to 8) (size 9 to 14) (size 15 to 20)
#    0.000    1.625    5.000    0.750    0.000    6.500 
#    0.000    3.125    0.000    0.000    0.000    2.625 
#    0.000    0.000    0.000    0.000    0.000    0.000 
#
# Total GULP energy -178734.398601 kJ/mol
# GULP energy per Si atom -5585.449956 kJ/mol
# Density = 1.889873 g / cm^3
# Si number density = 18.941843 Si / 1000 Ang^3
#
#
#
# Elastic Constant Matrix: (Units=GPa)
#
#
# Indices 1 2 3 4 5 6 
#
# 1 35.7624 9.8342 -2.8744 0.0000 6.0349 0.0000
# 2 9.8342 114.0174 18.6908 0.0000 7.6023 0.0000
# 3 -2.8744 18.6908 52.0909 0.0000 2.5579 0.0000
# 4 0.0000 0.0000 0.0000 16.3709 0.0000 3.0258
# 5 6.0349 7.6023 2.5579 0.0000 31.6144 0.0000
# 6 0.0000 0.0000 0.0000 3.0258 0.0000 24.0259
#
#
#
# Elastic Compliance Matrix: (Units=1/GPa)
#
#
# Indices 1 2 3 4 5 6 
#
# 1 0.029824 -0.002691 0.002870 0.000000 -0.005278 0.000000
# 2 -0.002691 0.009686 -0.003549 0.000000 -0.001528 0.000000
# 3 0.002870 -0.003549 0.020696 0.000000 -0.001369 0.000000
# 4 0.000000 0.000000 0.000000 0.062540 0.000000 -0.007876
# 5 -0.005278 -0.001528 -0.001369 0.000000 0.033117 0.000000
# 6 0.000000 0.000000 0.000000 -0.007876 0.000000 0.042614
#
#
# Mechanical properties :
#
#
# Convention : Reuss Voigt Hill
#
# Bulk Modulus (GPa) = 18.70302 28.13020 23.41661
# Shear Modulus (GPa) = 22.41765 26.15024 24.28394
#
# Velocity S-wave (km/s) = 3.44393 3.71961 3.58442
# Velocity P-wave (km/s) = 5.07046 5.77325 5.43323
#
# Compressibility (1/GPa) = 0.05346730
#
# Stress axis : x y z
#
# Youngs Moduli (GPa) = 33.53036 103.23758 48.31789
#
# Poissons Ratio (x) = 0.27781 -0.13869
# Poissons Ratio (y) = 0.09023 0.17148
# Poissons Ratio (z) = -0.09625 0.36639
#
# Static dielectric constant tensor:
#      x y z
#    x 1.658840 0.000000 0.009830 
#    y 0.000000 1.667590 0.000000 
#    z 0.009830 0.000000 1.658210 
# 
# From -- ./inp_files/111669.got.cif
#   From: 2010.05.17/outbox.cif.g08.bks.cpg/sg12_56_cif.got.tgz:111669.got - 2010.06.03 13:09:07.
