data_PCOD9185453
_publ_section_title
;
Structure prediction by ZEFSAII (Michael W. Deem and Ramdas Pophale) SiO2 
 PCOD9185453
Probable space group: C 2/M
;
_chemical_formula_sum "Si O2"
_cell_formula_units_Z 56
_cell_length_a 22.377461
_cell_length_b 8.820762
_cell_length_c 16.096259
_cell_angle_alpha 90.000000
_cell_angle_beta 96.362490
_cell_angle_gamma 90.000000
_cell_volume 3157.611062
_symmetry_space_group_name_H-M "C 2/M"
_symmetry_group_IT_number 12
_symmetry_cell_setting 'monoclinic'
loop_
_space_group_symop_operation_xyz
x,y,z
-x,y,-z
-x,-y,-z
x,-y,z
1/2+x,1/2+y,z
1/2-x,1/2+y,-z
1/2-x,1/2-y,-z
1/2+x,1/2-y,z
loop_
_atom_site_type_symbol
_atom_site_label
_atom_site_fract_x
_atom_site_fract_y
_atom_site_fract_z
Si Si1 0.818161 0.826569 0.219642
Si Si2 0.311254 0.821827 0.044718
Si Si3 0.231416 0.677545 0.629499
Si Si4 0.041188 0.176797 0.758493
Si Si5 0.338947 0.821008 0.545462
Si Si6 0.948916 0.316855 0.058825
Si Si7 0.468936 0.683438 0.583287
O O1 0.808707 0.714272 0.141963
O O2 0.779515 0.778045 0.291952
O O3 0.888389 0.816280 0.253338
O O4 0.805753 0.000000 0.191874
O O5 0.379245 0.766320 0.029330
O O6 0.309555 0.000000 0.027086
O O7 0.250000 0.750000 0.000000
O O8 0.232470 0.500000 0.650959
O O9 0.291910 0.726965 0.592747
O O10 0.179009 0.703287 0.553531
O O11 0.034423 0.261465 0.845580
O O12 0.004785 0.230397 0.672054
O O13 0.025837 0.000000 0.770430
O O14 0.404835 0.762593 0.573601
O O15 0.332006 0.000000 0.561142
O O16 0.947843 0.500000 0.058933
O O17 0.000000 0.268531 0.000000
O O18 0.500000 0.721663 0.500000
O O19 0.463127 0.500000 0.584529
#
# Coordination Sequence:
#
# PCOD9185453 Si02
#       7
#     8   8   8   8   8   8   8
#     4  10  19  34  57  81 106 138 179 221 269 325
#     4  10  20  36  57  82 112 143 182 229 280 334
#     4  10  20  35  54  76 104 139 180 222 269 322
#     4   9  19  34  54  81 109 140 180 222 266 322
#     4  10  21  35  52  76 106 141 180 224 269 317
#     4   9  19  37  59  81 107 144 185 229 281 332
#     4  10  20  35  54  77 109 146 181 221 270 321
#
# _framework density 17.734926999999999
#
# number of rings (size 3 to 8) (size 9 to 14) (size 15 to 20)
#    0.000    2.286    0.000    2.571    0.000    5.143 
#    2.571    0.000    0.000    0.000    0.000    0.000 
#    0.000    0.000    0.000    0.000    0.000    0.000 
#
# Total GULP energy -156084.124699 kJ/mol
# GULP energy per Si atom -5574.433025 kJ/mol
# Density = 1.769456 g / cm^3
# Si number density = 17.734927 Si / 1000 Ang^3
#
#
#
# Elastic Constant Matrix: (Units=GPa)
#
#
# Indices 1 2 3 4 5 6 
#
# 1 86.8952 21.3217 53.1237 0.0000 22.1396 0.0000
# 2 21.3217 15.9145 15.8506 0.0000 5.8951 0.0000
# 3 53.1237 15.8506 70.5861 0.0000 3.7702 0.0000
# 4 0.0000 0.0000 0.0000 22.4451 0.0000 -0.7347
# 5 22.1396 5.8951 3.7702 0.0000 29.6435 0.0000
# 6 0.0000 0.0000 0.0000 -0.7347 0.0000 29.8366
#
#
#
# Elastic Compliance Matrix: (Units=1/GPa)
#
#
# Indices 1 2 3 4 5 6 
#
# 1 0.032217 -0.017056 -0.019445 0.000000 -0.018197 0.000000
# 2 -0.017056 0.096066 -0.008453 0.000000 -0.005290 0.000000
# 3 -0.019445 -0.008453 0.030038 0.000000 0.012383 0.000000
# 4 0.000000 0.000000 0.000000 0.044589 0.000000 0.001098
# 5 -0.018197 -0.005290 0.012383 0.000000 0.046802 0.000000
# 6 0.000000 0.000000 0.000000 0.001098 0.000000 0.033543
#
#
# Mechanical properties :
#
#
# Convention : Reuss Voigt Hill
#
# Bulk Modulus (GPa) = 14.61709 39.33195 26.97452
# Shear Modulus (GPa) = 12.62729 21.92504 17.27616
#
# Velocity S-wave (km/s) = 2.67123 3.51987 3.12450
# Velocity P-wave (km/s) = 4.21590 6.22456 5.31596
#
# Compressibility (1/GPa) = 0.06841308
#
# Stress axis : x y z
#
# Youngs Moduli (GPa) = 31.03927 10.40953 33.29084
#
# Poissons Ratio (x) = 0.17755 0.64734
# Poissons Ratio (y) = 0.52941 0.28141
# Poissons Ratio (z) = 0.60356 0.08799
#
# Static dielectric constant tensor:
#      x y z
#    x 1.610510 0.000000 0.013210 
#    y 0.000000 1.605600 0.000000 
#    z 0.013210 0.000000 1.590600 
# 
# From -- ./inp_files/231061.got.cif
#   From: 2010.05.17/outbox.cif.g08.bks.cpg/sg12_116_cif.got.tgz:231061.got - 2010.06.03 13:09:07.
