data_PCOD9185179
_publ_section_title
;
Structure prediction by ZEFSAII (Michael W. Deem and Ramdas Pophale) SiO2 
 PCOD9185179
Probable space group: C 2/M
;
_chemical_formula_sum "Si O2"
_cell_formula_units_Z 40
_cell_length_a 15.944676
_cell_length_b 14.079281
_cell_length_c 10.036460
_cell_angle_alpha 90.000000
_cell_angle_beta 84.692514
_cell_angle_gamma 90.000000
_cell_volume 2243.420818
_symmetry_space_group_name_H-M "C 2/M"
_symmetry_group_IT_number 12
_symmetry_cell_setting 'monoclinic'
loop_
_space_group_symop_operation_xyz
x,y,z
-x,y,-z
-x,-y,-z
x,-y,z
1/2+x,1/2+y,z
1/2-x,1/2+y,-z
1/2-x,1/2-y,-z
1/2+x,1/2-y,z
loop_
_atom_site_type_symbol
_atom_site_label
_atom_site_fract_x
_atom_site_fract_y
_atom_site_fract_z
Si Si1 0.966183 0.607294 0.352499
Si Si2 0.653359 0.731576 0.550355
Si Si3 0.594205 0.390252 0.042180
Si Si4 0.616460 0.766290 0.263141
Si Si5 0.212576 0.110506 0.768596
O O1 0.948646 0.500000 0.309948
O O2 0.886278 0.676513 0.371795
O O3 0.000000 0.601101 0.500000
O O4 0.039327 0.660035 0.260238
O O5 0.750000 0.750000 0.500000
O O6 0.608804 0.722198 0.413594
O O7 0.654790 0.645476 0.653775
O O8 0.600033 0.500000 0.087369
O O9 0.612689 0.315782 0.155262
O O10 0.500000 0.375693 0.000000
O O11 0.659811 0.377924 0.911496
O O12 0.703316 0.825542 0.241715
O O13 0.235209 0.000000 0.748367
#
# Coordination Sequence:
#
# PCOD9185179 Si02
#       5
#     8   8   8   8   8
#     4   9  17  31  52  77 105 136 171 214 261 308
#     4   9  19  32  51  80 107 136 171 210 259 311
#     4  10  21  36  54  75 104 143 179 215 263 315
#     4  10  19  34  56  80 105 136 178 222 263 309
#     4  10  20  35  54  77 106 141 178 216 265 317
#
# _framework density 17.829913999999999
#
# number of rings (size 3 to 8) (size 9 to 14) (size 15 to 20)
#    0.000    2.400    0.000    2.400    0.000    5.600 
#    0.000    3.000    0.000   22.800    0.000    0.000 
#    0.000    0.000    0.000    0.000    0.000    0.000 
#
# Total GULP energy -111494.101177 kJ/mol
# GULP energy per Si atom -5574.705059 kJ/mol
# Density = 1.778933 g / cm^3
# Si number density = 17.829914 Si / 1000 Ang^3
#
#
#
# Elastic Constant Matrix: (Units=GPa)
#
#
# Indices 1 2 3 4 5 6 
#
# 1 89.7582 61.9869 26.0505 0.0000 -14.6089 0.0000
# 2 61.9869 155.7089 92.0288 0.0000 0.9831 0.0000
# 3 26.0505 92.0288 92.8711 0.0000 -2.6447 0.0000
# 4 0.0000 0.0000 0.0000 32.5084 0.0000 5.3258
# 5 -14.6089 0.9831 -2.6447 0.0000 17.9853 0.0000
# 6 0.0000 0.0000 0.0000 5.3258 0.0000 31.8768
#
#
#
# Elastic Compliance Matrix: (Units=1/GPa)
#
#
# Indices 1 2 3 4 5 6 
#
# 1 0.020870 -0.012748 0.007311 0.000000 0.018724 0.000000
# 2 -0.012748 0.023463 -0.020090 0.000000 -0.014591 0.000000
# 3 0.007311 -0.020090 0.028946 0.000000 0.011293 0.000000
# 4 0.000000 0.000000 0.000000 0.031627 0.000000 -0.005284
# 5 0.018724 -0.014591 0.011293 0.000000 0.073268 0.000000
# 6 0.000000 0.000000 0.000000 -0.005284 0.000000 0.032254
#
#
# Mechanical properties :
#
#
# Convention : Reuss Voigt Hill
#
# Bulk Modulus (GPa) = 44.99174 77.60784 61.29979
# Shear Modulus (GPa) = 18.59505 27.02558 22.81032
#
# Velocity S-wave (km/s) = 3.23292 3.89748 3.58065
# Velocity P-wave (km/s) = 6.26293 7.99219 7.17981
#
# Compressibility (1/GPa) = 0.02222630
#
# Stress axis : x y z
#
# Youngs Moduli (GPa) = 47.91546 42.62072 34.54709
#
# Poissons Ratio (x) = 0.54331 -0.25257
# Poissons Ratio (y) = 0.61080 0.69404
# Poissons Ratio (z) = -0.35031 0.85624
#
# Static dielectric constant tensor:
#      x y z
#    x 1.613020 0.000000 0.002110 
#    y 0.000000 1.598140 0.000000 
#    z 0.002110 0.000000 1.612270 
# 
# From -- ./inp_files/59069.got.cif
#   From: 2010.05.17/outbox.cif.g08.bks.cpg/sg12_30_cif.got.tgz:59069.got - 2010.06.03 13:09:07.
