data_PCOD9185340
_publ_section_title
;
Structure prediction by ZEFSAII (Michael W. Deem and Ramdas Pophale) SiO2 
 PCOD9185340
Probable space group: C 2/M
;
_chemical_formula_sum "Si O2"
_cell_formula_units_Z 44
_cell_length_a 24.083358
_cell_length_b 10.332897
_cell_length_c 23.760648
_cell_angle_alpha 90.000000
_cell_angle_beta 158.247448
_cell_angle_gamma 90.000000
_cell_volume 2191.297985
_symmetry_space_group_name_H-M "C 2/M"
_symmetry_group_IT_number 12
_symmetry_cell_setting 'monoclinic'
loop_
_space_group_symop_operation_xyz
x,y,z
-x,y,-z
-x,-y,-z
x,-y,z
1/2+x,1/2+y,z
1/2-x,1/2+y,-z
1/2-x,1/2-y,-z
1/2+x,1/2-y,z
loop_
_atom_site_type_symbol
_atom_site_label
_atom_site_fract_x
_atom_site_fract_y
_atom_site_fract_z
Si Si1 0.441980 0.850526 0.615128
Si Si2 0.379633 0.148038 0.110138
Si Si3 0.000000 0.241473 0.500000
Si Si4 0.459718 0.852342 0.053814
Si Si5 0.789729 0.146846 0.395520
Si Si6 0.722265 0.146434 0.794650
O O1 0.482065 0.825388 0.717736
O O2 0.328599 0.750142 0.480227
O O3 0.600581 0.837365 0.730703
O O4 0.393341 0.000000 0.562297
O O5 0.422684 0.153278 0.085536
O O6 0.330808 0.000000 0.076924
O O7 0.250000 0.250000 0.000000
O O8 0.076643 0.157753 0.523632
O O9 0.125748 0.328728 0.647878
O O10 0.635974 0.823758 0.218053
O O11 0.432633 0.000000 0.008693
O O12 0.353015 0.750772 0.923227
O O13 0.777410 0.000000 0.405926
O O14 0.779546 0.000000 0.850775
#
# Coordination Sequence:
#
# PCOD9185340 Si02
#       6
#     8   8   4   8   8   8
#     4   9  19  35  56  82 114 149 186 226 272 328
#     4  10  19  34  56  84 116 151 183 222 273 329
#     4  10  22  40  60  80 108 146 190 236 282 332
#     4  10  22  37  56  85 119 145 181 234 279 325
#     4  10  22  39  57  82 112 148 190 233 280 330
#     4  10  20  37  60  84 111 145 187 231 278 334
#
# _framework density 20.079422999999998
#
# number of rings (size 3 to 8) (size 9 to 14) (size 15 to 20)
#    0.000    2.182    1.818    0.545    0.000    7.273 
#    0.000    2.727    0.000    0.000    0.000    0.000 
#    0.000    0.000    0.000    0.000    0.000    0.000 
#
# Total GULP energy -122861.643072 kJ/mol
# GULP energy per Si atom -5584.620140 kJ/mol
# Density = 2.003372 g / cm^3
# Si number density = 20.079423 Si / 1000 Ang^3
#
#
#
# Elastic Constant Matrix: (Units=GPa)
#
#
# Indices 1 2 3 4 5 6 
#
# 1 33.5389 21.5463 15.1678 -0.0002 -11.6292 -0.0002
# 2 21.5463 128.5876 101.8719 0.0003 -15.0733 0.0003
# 3 15.1678 101.8719 120.7857 0.0003 -19.1633 0.0003
# 4 -0.0002 0.0003 0.0003 40.0874 0.0001 -4.4467
# 5 -11.6292 -15.0733 -19.1633 0.0001 31.9641 0.0000
# 6 -0.0002 0.0003 0.0003 -4.4467 0.0000 11.0362
#
#
#
# Elastic Compliance Matrix: (Units=1/GPa)
#
#
# Indices 1 2 3 4 5 6 
#
# 1 0.037383 -0.007981 0.003976 0.000000 0.012221 0.000001
# 2 -0.007981 0.025163 -0.020775 0.000000 -0.003493 0.000000
# 3 0.003976 -0.020775 0.026497 0.000000 0.007536 0.000000
# 4 0.000000 0.000000 0.000000 0.026113 0.000000 0.010521
# 5 0.012221 -0.003493 0.007536 0.000000 0.038602 0.000000
# 6 0.000001 0.000000 0.000000 0.010521 0.000000 0.094850
#
#
# Mechanical properties :
#
#
# Convention : Reuss Voigt Hill
#
# Bulk Modulus (GPa) = 25.32738 62.23159 43.77948
# Shear Modulus (GPa) = 16.06013 26.23927 21.14970
#
# Velocity S-wave (km/s) = 2.83120 3.61885 3.24898
# Velocity P-wave (km/s) = 4.82996 6.96574 5.99375
#
# Compressibility (1/GPa) = 0.03948296
#
# Stress axis : x y z
#
# Youngs Moduli (GPa) = 26.75021 39.74013 37.73981
#
# Poissons Ratio (x) = 0.31718 -0.15006
# Poissons Ratio (y) = 0.21350 0.78404
# Poissons Ratio (z) = -0.10636 0.82560
#
# Static dielectric constant tensor:
#      x y z
#    x 1.742010 0.000000 -0.000860 
#    y 0.000000 1.688850 0.000000 
#    z -0.000860 0.000000 1.686400 
# 
# From -- ./inp_files/107843.got.cif
#   From: 2010.05.17/outbox.cif.g08.bks.cpg/sg12_54_cif.got.tgz:107843.got - 2010.06.03 13:09:07.
