data_PCOD9185518
_publ_section_title
;
Structure prediction by ZEFSAII (Michael W. Deem and Ramdas Pophale) SiO2 
 PCOD9185518
Probable space group: C 2/M
;
_chemical_formula_sum "Si O2"
_cell_formula_units_Z 64
_cell_length_a 21.024951
_cell_length_b 8.347109
_cell_length_c 25.243906
_cell_angle_alpha 90.000000
_cell_angle_beta 128.649977
_cell_angle_gamma 90.000000
_cell_volume 3459.914068
_symmetry_space_group_name_H-M "C 2/M"
_symmetry_group_IT_number 12
_symmetry_cell_setting 'monoclinic'
loop_
_space_group_symop_operation_xyz
x,y,z
-x,y,-z
-x,-y,-z
x,-y,z
1/2+x,1/2+y,z
1/2-x,1/2+y,-z
1/2-x,1/2-y,-z
1/2+x,1/2-y,z
loop_
_atom_site_type_symbol
_atom_site_label
_atom_site_fract_x
_atom_site_fract_y
_atom_site_fract_z
Si Si1 0.647485 0.691372 0.795605
Si Si2 0.687279 0.194167 0.422611
Si Si3 0.238891 0.808527 0.053934
Si Si4 0.251928 0.692870 0.342890
Si Si5 0.205437 0.693638 0.204007
Si Si6 0.502343 0.193108 0.343337
Si Si7 0.407230 0.306805 0.946509
Si Si8 0.565176 0.193878 0.578292
O O1 0.646725 0.500000 0.796265
O O2 0.686435 0.753531 0.870175
O O3 0.710992 0.743520 0.782385
O O4 0.558504 0.753022 0.734444
O O5 0.750000 0.250000 0.500000
O O6 0.714811 0.251010 0.378795
O O7 0.595110 0.248526 0.385787
O O8 0.687567 0.000000 0.422879
O O9 0.156018 0.750371 0.040620
O O10 0.236268 0.000000 0.052351
O O11 0.250000 0.750000 0.000000
O O12 0.246389 0.500000 0.340048
O O13 0.208386 0.749533 0.266215
O O14 0.346059 0.740353 0.388085
O O15 0.202802 0.500000 0.202005
O O16 0.132549 0.757140 0.129938
O O17 0.465144 0.248837 0.379897
O O18 0.503429 0.000000 0.344630
O O19 0.408700 0.500000 0.949875
O O20 0.500000 0.248445 0.000000
O O21 0.500000 0.242062 0.500000
O O22 0.569109 0.000000 0.580560
#
# Coordination Sequence:
#
# PCOD9185518 Si02
#       8
#     8   8   8   8   8   8   8   8
#     4  10  19  34  57  82 110 142 181 226 270 320
#     4  10  22  39  57  76 108 146 181 223 275 331
#     4  10  20  36  58  83 114 147 181 221 267 319
#     4  10  20  36  55  78 107 139 177 224 271 317
#     4   9  18  33  54  80 109 139 177 221 266 316
#     4  10  20  35  54  78 109 143 180 222 272 325
#     4   9  19  36  57  81 111 144 178 218 264 313
#     4  10  20  33  53  80 107 137 177 223 266 318
#
# _framework density 18.49757
#
# number of rings (size 3 to 8) (size 9 to 14) (size 15 to 20)
#    0.000    2.250    1.250    1.500    0.000    4.000 
#    2.250    0.000    0.000    0.000    0.000    0.000 
#    0.000    0.000    0.000    0.000    0.000    0.000 
#
# Total GULP energy -178589.343998 kJ/mol
# GULP energy per Si atom -5580.917000 kJ/mol
# Density = 1.845547 g / cm^3
# Si number density = 18.497570 Si / 1000 Ang^3
#
#
#
# Elastic Constant Matrix: (Units=GPa)
#
#
# Indices 1 2 3 4 5 6 
#
# 1 99.1796 11.4618 72.0439 0.0000 4.6534 0.0000
# 2 11.4618 4.6622 11.1327 0.0000 -0.6658 0.0000
# 3 72.0439 11.1327 156.8920 0.0000 4.9522 0.0000
# 4 0.0000 0.0000 0.0000 29.1126 0.0000 0.8043
# 5 4.6534 -0.6658 4.9522 0.0000 39.3942 0.0000
# 6 0.0000 0.0000 0.0000 0.8043 0.0000 19.6582
#
#
#
# Elastic Compliance Matrix: (Units=1/GPa)
#
#
# Indices 1 2 3 4 5 6 
#
# 1 0.018095 -0.030165 -0.006109 0.000000 -0.001879 0.000000
# 2 -0.030165 0.310303 -0.008479 0.000000 0.009874 0.000000
# 3 -0.006109 -0.008479 0.009801 0.000000 -0.000654 0.000000
# 4 0.000000 0.000000 0.000000 0.034388 0.000000 -0.001407
# 5 -0.001879 0.009874 -0.000654 0.000000 0.025855 0.000000
# 6 0.000000 0.000000 0.000000 -0.001407 0.000000 0.050927
#
#
# Mechanical properties :
#
#
# Convention : Reuss Voigt Hill
#
# Bulk Modulus (GPa) = 4.02102 50.00118 27.01110
# Shear Modulus (GPa) = 8.04153 28.70602 18.37378
#
# Velocity S-wave (km/s) = 2.08729 3.94367 3.15510
# Velocity P-wave (km/s) = 2.82623 6.91568 5.28271
#
# Compressibility (1/GPa) = 0.24869340
#
# Stress axis : x y z
#
# Youngs Moduli (GPa) = 55.26500 3.22266 102.02639
#
# Poissons Ratio (x) = 0.09721 0.62330
# Poissons Ratio (y) = 1.66706 0.86504
# Poissons Ratio (z) = 0.33763 0.02732
#
# Static dielectric constant tensor:
#      x y z
#    x 1.631060 0.000000 -0.006130 
#    y 0.000000 1.641840 0.000000 
#    z -0.006130 0.000000 1.612330 
# 
# From -- ./inp_files/346141.got.cif
#   From: 2010.05.17/outbox.cif.g08.bks.cpg/sg12_174_cif.got.tgz:346141.got - 2010.06.03 13:09:07.
