data_PCOD9185853
_publ_section_title
;
Structure prediction by ZEFSAII (Michael W. Deem and Ramdas Pophale) SiO2 
 PCOD9185853
Probable space group: C 2/M
;
_chemical_formula_sum "Si O2"
_cell_formula_units_Z 56
_cell_length_a 17.959728
_cell_length_b 8.034499
_cell_length_c 30.122068
_cell_angle_alpha 90.000000
_cell_angle_beta 41.821384
_cell_angle_gamma 90.000000
_cell_volume 2898.316899
_symmetry_space_group_name_H-M "C 2/M"
_symmetry_group_IT_number 12
_symmetry_cell_setting 'monoclinic'
loop_
_space_group_symop_operation_xyz
x,y,z
-x,y,-z
-x,-y,-z
x,-y,z
1/2+x,1/2+y,z
1/2-x,1/2+y,-z
1/2-x,1/2-y,-z
1/2+x,1/2-y,z
loop_
_atom_site_type_symbol
_atom_site_label
_atom_site_fract_x
_atom_site_fract_y
_atom_site_fract_z
Si Si1 0.051532 0.306819 0.931189
Si Si2 0.552542 0.199584 0.189298
Si Si3 0.686122 0.000000 0.424173
Si Si4 0.381545 0.685556 0.665442
Si Si5 0.699307 0.191859 0.667751
Si Si6 0.505940 0.000000 0.423141
Si Si7 0.793253 0.694932 0.797451
Si Si8 0.877128 0.807546 0.938565
O O1 0.081578 0.500000 0.925156
O O2 0.163234 0.216307 0.865999
O O3 0.958159 0.293079 0.934951
O O4 0.000000 0.240308 0.000000
O O5 0.425549 0.230476 0.260484
O O6 0.635363 0.251990 0.191853
O O7 0.583432 0.283859 0.129411
O O8 0.565038 0.000000 0.177532
O O9 0.758119 0.832887 0.384864
O O10 0.594968 0.000000 0.424484
O O11 0.615253 0.000000 0.500686
O O12 0.430323 0.500000 0.639730
O O13 0.281988 0.698382 0.673466
O O14 0.466870 0.834101 0.616718
O O15 0.329072 0.710386 0.737212
O O16 0.701861 0.000000 0.649859
O O17 0.817850 0.500000 0.779182
O O18 0.885585 0.000000 0.947654
O O19 0.750000 0.750000 0.000000
#
# Coordination Sequence:
#
# PCOD9185853 Si02
#       8
#     8   8   4   8   8   4   8   8
#     4  11  24  41  60  84 117 154 197 246 293 350
#     4  10  22  39  59  85 116 152 193 245 292 347
#     4   9  18  32  58  86 118 152 184 243 291 355
#     4  10  19  34  58  84 116 154 194 243 293 353
#     4   9  19  35  56  85 116 151 193 241 295 349
#     4   9  18  34  54  88 121 146 191 237 297 351
#     4  11  22  37  59  86 115 153 196 244 294 353
#     4  12  25  40  61  85 116 155 195 244 296 352
#
# _framework density 19.321558
#
# number of rings (size 3 to 8) (size 9 to 14) (size 15 to 20)
#    0.000    1.714    0.714    3.857    1.000    6.286 
#    0.000    2.857    0.000    0.857    0.000    0.000 
#    0.000    0.000    0.000    0.000    0.000    0.000 
#
# Total GULP energy -156446.381365 kJ/mol
# GULP energy per Si atom -5587.370763 kJ/mol
# Density = 1.927758 g / cm^3
# Si number density = 19.321558 Si / 1000 Ang^3
#
#
#
# Elastic Constant Matrix: (Units=GPa)
#
#
# Indices 1 2 3 4 5 6 
#
# 1 57.0613 23.1330 40.0280 -0.0001 -0.8805 0.0002
# 2 23.1330 92.3094 58.4045 -0.0005 -2.5071 -0.0012
# 3 40.0280 58.4045 137.9606 -0.0003 -2.2047 0.0008
# 4 -0.0001 -0.0005 -0.0003 29.4986 0.0001 -2.4129
# 5 -0.8805 -2.5071 -2.2047 0.0001 21.5501 0.0005
# 6 0.0002 -0.0012 0.0008 -2.4129 0.0005 0.1021
#
#
#
# Elastic Compliance Matrix: (Units=1/GPa)
#
#
# Indices 1 2 3 4 5 6 
#
# 1 0.022281 -0.002038 -0.005601 0.000002 0.000100 0.000022
# 2 -0.002038 0.015008 -0.005745 -0.000020 0.001075 -0.000247
# 3 -0.005601 -0.005745 0.011310 0.000013 0.000260 0.000163
# 4 0.000002 -0.000020 0.000013 -0.036300 0.000018 -0.858212
# 5 0.000100 0.001075 0.000260 0.000018 0.046559 0.000222
# 6 0.000022 -0.000247 0.000163 -0.858212 0.000222-10.491816
#
#
# Mechanical properties :
#
#
# Convention : Reuss Voigt Hill
#
# Bulk Modulus (GPa) = 45.80327 58.94025 52.37176
# Shear Modulus (GPa) = -0.48082 21.28120 10.40019
#
# Velocity S-wave (km/s) = -0.49939 3.32237 2.32258
# Velocity P-wave (km/s) = 4.83991 6.72968 5.86146
#
# Compressibility (1/GPa) = 0.02183250
#
# Stress axis : x y z
#
# Youngs Moduli (GPa) = 44.88062 66.63155 88.41975
#
# Poissons Ratio (x) = 0.13577 0.49520
# Poissons Ratio (y) = 0.09145 0.50798
# Poissons Ratio (z) = 0.25136 0.38281
#
# Static dielectric constant tensor:
#      x y z
#    x 1.655670 0.000000 0.004740 
#    y 0.000000 1.683240 0.000000 
#    z 0.004740 0.000000 1.628750 
# 
# From -- ./inp_files/363061.got.cif
#   From: 2010.05.17/outbox.cif.g08.bks.cpg/sg12_182_cif.got.tgz:363061.got - 2010.06.03 13:09:07.
