data_PCOD9185341
_publ_section_title
;
Structure prediction by ZEFSAII (Michael W. Deem and Ramdas Pophale) SiO2 
 PCOD9185341
Probable space group: C 2/M
;
_chemical_formula_sum "Si O2"
_cell_formula_units_Z 56
_cell_length_a 26.796365
_cell_length_b 8.649856
_cell_length_c 14.886502
_cell_angle_alpha 90.000000
_cell_angle_beta 123.747762
_cell_angle_gamma 90.000000
_cell_volume 2869.030324
_symmetry_space_group_name_H-M "C 2/M"
_symmetry_group_IT_number 12
_symmetry_cell_setting 'monoclinic'
loop_
_space_group_symop_operation_xyz
x,y,z
-x,y,-z
-x,-y,-z
x,-y,z
1/2+x,1/2+y,z
1/2-x,1/2+y,-z
1/2-x,1/2-y,-z
1/2+x,1/2-y,z
loop_
_atom_site_type_symbol
_atom_site_label
_atom_site_fract_x
_atom_site_fract_y
_atom_site_fract_z
Si Si1 0.502291 0.813787 0.398160
Si Si2 0.385512 0.815632 0.165064
Si Si3 0.855378 0.183833 0.952198
Si Si4 0.720873 0.685537 0.824310
Si Si5 0.889429 0.185102 0.610098
Si Si6 0.142178 0.685292 0.237528
Si Si7 0.780407 0.187035 0.380241
O O1 0.500000 0.766820 0.500000
O O2 0.440356 0.776329 0.285710
O O3 0.556539 0.734921 0.399865
O O4 0.510336 0.000000 0.403003
O O5 0.324473 0.754651 0.149197
O O6 0.382103 0.000000 0.152333
O O7 0.393128 0.741195 0.074927
O O8 0.788266 0.251284 0.899965
O O9 0.876847 0.247378 0.877542
O O10 0.852677 0.000000 0.947254
O O11 0.722308 0.500000 0.833437
O O12 0.700345 0.727633 0.702196
O O13 0.894566 0.257356 0.713813
O O14 0.827727 0.242502 0.500924
O O15 0.887070 0.000000 0.615038
O O16 0.141791 0.500000 0.231900
O O17 0.211611 0.738503 0.322582
O O18 0.779787 0.000000 0.384008
#
# Coordination Sequence:
#
# PCOD9185341 Si02
#       7
#     8   8   8   8   8   8   8
#     4  10  23  42  61  83 112 147 187 229 275 328
#     4  11  22  37  57  81 111 148 189 231 278 330
#     4  11  22  37  57  83 114 146 185 231 280 332
#     4  10  19  34  56  84 117 150 186 227 277 332
#     4  11  21  35  57  85 115 148 188 230 277 329
#     4  10  20  37  58  82 115 150 186 228 277 331
#     4   8  17  32  53  83 116 149 183 224 273 328
#
# _framework density 19.518789000000002
#
# number of rings (size 3 to 8) (size 9 to 14) (size 15 to 20)
#    0.000    1.857    0.000    5.571    0.000    1.429 
#    0.000    7.857    0.000    4.286    0.000    0.000 
#    0.000    0.000    0.000    0.000    0.000    0.000 
#
# Total GULP energy -156468.675861 kJ/mol
# GULP energy per Si atom -5588.166995 kJ/mol
# Density = 1.947436 g / cm^3
# Si number density = 19.518789 Si / 1000 Ang^3
#
#
#
# Elastic Constant Matrix: (Units=GPa)
#
#
# Indices 1 2 3 4 5 6 
#
# 1 75.9828 26.5679 42.7936 0.0000 -36.3982 0.0000
# 2 26.5679 57.6597 44.2691 0.0000 -12.5010 0.0000
# 3 42.7936 44.2691 133.7121 0.0000 -35.7415 0.0000
# 4 0.0000 0.0000 0.0000 23.4256 0.0000 -5.0295
# 5 -36.3982 -12.5010 -35.7415 0.0000 29.7964 0.0000
# 6 0.0000 0.0000 0.0000 -5.0295 0.0000 30.5159
#
#
#
# Elastic Compliance Matrix: (Units=1/GPa)
#
#
# Indices 1 2 3 4 5 6 
#
# 1 0.035219 -0.009486 0.003393 0.000000 0.043113 0.000000
# 2 -0.009486 0.025821 -0.008412 0.000000 -0.010844 0.000000
# 3 0.003393 -0.008412 0.013752 0.000000 0.017111 0.000000
# 4 0.000000 0.000000 0.000000 0.044254 0.000000 0.007294
# 5 0.043113 -0.010844 0.017111 0.000000 0.102202 0.000000
# 6 0.000000 0.000000 0.000000 0.007294 0.000000 0.033972
#
#
# Mechanical properties :
#
#
# Convention : Reuss Voigt Hill
#
# Bulk Modulus (GPa) = 21.84226 54.95730 38.39978
# Shear Modulus (GPa) = 16.69510 26.99584 21.84547
#
# Velocity S-wave (km/s) = 2.92778 3.72300 3.34908
# Velocity P-wave (km/s) = 4.75856 6.83361 5.88821
#
# Compressibility (1/GPa) = 0.04578281
#
# Stress axis : x y z
#
# Youngs Moduli (GPa) = 28.39365 38.72834 72.71914
#
# Poissons Ratio (x) = 0.36737 -0.24674
# Poissons Ratio (y) = 0.26934 0.61168
# Poissons Ratio (z) = -0.09634 0.32577
#
# Static dielectric constant tensor:
#      x y z
#    x 1.658290 0.000000 -0.004250 
#    y 0.000000 1.651960 0.000000 
#    z -0.004250 0.000000 1.703000 
# 
# From -- ./inp_files/238925.got.cif
#   From: 2010.05.17/outbox.cif.g08.bks.cpg/sg12_120_cif.got.tgz:238925.got - 2010.06.03 13:09:07.
