data_PCOD9185736
_publ_section_title
;
Structure prediction by ZEFSAII (Michael W. Deem and Ramdas Pophale) SiO2 
 PCOD9185736
Probable space group: C 2/M
;
_chemical_formula_sum "Si O2"
_cell_formula_units_Z 60
_cell_length_a 18.733013
_cell_length_b 11.830349
_cell_length_c 21.628108
_cell_angle_alpha 90.000000
_cell_angle_beta 147.893141
_cell_angle_gamma 90.000000
_cell_volume 2547.575001
_symmetry_space_group_name_H-M "C 2/M"
_symmetry_group_IT_number 12
_symmetry_cell_setting 'monoclinic'
loop_
_space_group_symop_operation_xyz
x,y,z
-x,y,-z
-x,-y,-z
x,-y,z
1/2+x,1/2+y,z
1/2-x,1/2+y,-z
1/2-x,1/2-y,-z
1/2+x,1/2-y,z
loop_
_atom_site_type_symbol
_atom_site_label
_atom_site_fract_x
_atom_site_fract_y
_atom_site_fract_z
Si Si1 0.504854 0.877401 0.428477
Si Si2 0.081455 0.125651 0.493694
Si Si3 0.800982 0.879076 0.808376
Si Si4 0.133243 0.375386 0.844395
Si Si5 0.000000 0.689705 0.000000
Si Si6 0.351862 0.803406 0.005384
Si Si7 0.442066 0.624723 0.791029
Si Si8 0.662502 0.796714 0.378818
O O1 0.500000 0.878466 0.500000
O O2 0.548590 0.750528 0.443313
O O3 0.354496 0.879568 0.292050
O O4 0.570306 0.000000 0.459153
O O5 0.243498 0.135663 0.601937
O O6 0.000000 0.125604 0.500000
O O7 0.046159 0.000000 0.441210
O O8 0.816974 0.876614 0.746018
O O9 0.860293 0.000000 0.871473
O O10 0.881006 0.773097 0.891419
O O11 0.183506 0.500000 0.861699
O O12 0.152207 0.370229 0.933394
O O13 0.975940 0.364595 0.710924
O O14 0.214303 0.260709 0.885477
O O15 0.931010 0.633019 0.008644
O O16 0.445945 0.696746 0.092201
O O17 0.492018 0.500000 0.816349
O O18 0.393866 0.685066 0.695089
O O19 0.750000 0.750000 0.500000
#
# Coordination Sequence:
#
# PCOD9185736 Si02
#       8
#     8   8   8   8   4   8   8   8
#     4   9  17  31  53  81 113 150 196 247 296 351
#     4  10  21  38  59  83 116 159 205 251 304 368
#     4   9  17  29  50  82 117 151 185 231 298 365
#     4  10  21  41  64  84 117 164 206 243 297 372
#     4  10  19  34  57  90 128 148 181 246 305 356
#     4   9  20  37  61  91 118 153 198 246 301 362
#     4   9  17  32  55  81 112 151 192 240 300 361
#     4  11  24  39  57  86 120 158 208 258 305 363
#
# _framework density 23.551808000000001
#
# number of rings (size 3 to 8) (size 9 to 14) (size 15 to 20)
#    0.000    2.400    0.000    2.600    0.000    5.333 
#    0.000    1.667    0.000    5.600    0.000    0.000 
#    0.000    0.000    0.000    0.000    0.000    0.000 
#
# Total GULP energy -167038.672637 kJ/mol
# GULP energy per Si atom -5567.955755 kJ/mol
# Density = 2.349820 g / cm^3
# Si number density = 23.551808 Si / 1000 Ang^3
#
#
#
# Elastic Constant Matrix: (Units=GPa)
#
#
# Indices 1 2 3 4 5 6 
#
# 1 111.3209 6.3090 18.0385 0.0000 8.7665 0.0000
# 2 6.3090 165.2474 20.9930 0.0001 3.0831 0.0000
# 3 18.0385 20.9930 93.6880 0.0001 8.2773 0.0000
# 4 0.0000 0.0001 0.0001 -3.4902 0.0001 3.0065
# 5 8.7665 3.0831 8.2773 0.0001 33.8985 0.0000
# 6 0.0000 0.0000 0.0000 3.0065 0.0000 10.5490
#
#
#
# Elastic Compliance Matrix: (Units=1/GPa)
#
#
# Indices 1 2 3 4 5 6 
#
# 1 0.009410 -0.000117 -0.001606 0.000000 -0.002031 0.000000
# 2 -0.000117 0.006232 -0.001356 0.000000 -0.000205 0.000000
# 3 -0.001606 -0.001356 0.011487 0.000000 -0.002266 0.000000
# 4 0.000000 0.000000 0.000000 -0.230043 0.000000 0.065562
# 5 -0.002031 -0.000205 -0.002266 0.000000 0.030597 0.000000
# 6 0.000000 0.000000 0.000000 0.065562 0.000000 0.076110
#
#
# Mechanical properties :
#
#
# Convention : Reuss Voigt Hill
#
# Bulk Modulus (GPa) = 47.68565 51.21526 49.45045
# Shear Modulus (GPa) = -60.19834 29.85253 -15.17291
#
# Velocity S-wave (km/s) = -5.06117 3.56410 -2.54093
# Velocity P-wave (km/s) = 3.72329 6.22335 3.52613
#
# Compressibility (1/GPa) = 0.02097067
#
# Stress axis : x y z
#
# Youngs Moduli (GPa) = 106.27168 160.46021 87.05536
#
# Poissons Ratio (x) = 0.01883 0.13982
# Poissons Ratio (y) = 0.01247 0.11802
# Poissons Ratio (z) = 0.17068 0.21754
#
# Static dielectric constant tensor:
#      x y z
#    x 2.056930 0.000000 -0.001890 
#    y 0.000000 1.911700 0.000000 
#    z -0.001890 0.000000 1.974880 
# 
# From -- ./inp_files/347167.got.cif
#   From: 2010.05.17/outbox.cif.g08.bks.cpg/sg12_174_cif.got.tgz:347167.got - 2010.06.03 13:09:07.
