data_PCOD9185128
_publ_section_title
;
Structure prediction by ZEFSAII (Michael W. Deem and Ramdas Pophale) SiO2 
 PCOD9185128
Probable space group: C 2/M
;
_chemical_formula_sum "Si O2"
_cell_formula_units_Z 56
_cell_length_a 28.144872
_cell_length_b 7.753990
_cell_length_c 17.008802
_cell_angle_alpha 90.000000
_cell_angle_beta 131.794623
_cell_angle_gamma 90.000000
_cell_volume 2767.377104
_symmetry_space_group_name_H-M "C 2/M"
_symmetry_group_IT_number 12
_symmetry_cell_setting 'monoclinic'
loop_
_space_group_symop_operation_xyz
x,y,z
-x,y,-z
-x,-y,-z
x,-y,z
1/2+x,1/2+y,z
1/2-x,1/2+y,-z
1/2-x,1/2-y,-z
1/2+x,1/2-y,z
loop_
_atom_site_type_symbol
_atom_site_label
_atom_site_fract_x
_atom_site_fract_y
_atom_site_fract_z
Si Si1 0.122091 0.788543 0.438218
Si Si2 0.672800 0.699306 0.327626
Si Si3 0.155406 0.705007 0.888786
Si Si4 0.718758 0.699346 0.667807
Si Si5 0.536324 0.202700 0.117005
Si Si6 0.757219 0.699966 0.876780
Si Si7 0.985735 0.206864 0.227824
O O1 0.160897 0.733910 0.402864
O O2 0.157414 0.726188 0.555257
O O3 0.048976 0.736181 0.344767
O O4 0.123541 0.000000 0.439450
O O5 0.692538 0.500000 0.353941
O O6 0.724696 0.795714 0.333348
O O7 0.603752 0.709938 0.209938
O O8 0.167722 0.500000 0.897736
O O9 0.193364 0.788838 0.858681
O O10 0.080584 0.736872 0.808202
O O11 0.187775 0.772448 0.005537
O O12 0.702723 0.500000 0.668265
O O13 0.743301 0.779500 0.776310
O O14 0.493677 0.224654 0.147868
O O15 0.549505 0.000000 0.119523
O O16 0.500000 0.268805 0.000000
O O17 0.775337 0.500000 0.883397
O O18 0.987244 0.000000 0.225489
#
# Coordination Sequence:
#
# PCOD9185128 Si02
#       7
#     8   8   8   8   8   8   8
#     4   8  17  34  53  76 106 140 179 217 255 310
#     4  10  20  33  50  77 110 142 177 214 261 315
#     4  10  20  36  56  78 106 137 172 215 267 322
#     4  10  19  34  56  78 104 139 179 223 265 306
#     4  10  21  35  51  74 106 141 180 219 255 305
#     4   9  20  36  55  79 103 132 175 221 264 314
#     4  10  20  35  56  79 105 139 175 213 264 317
#
# _framework density 20.235766999999999
#
# number of rings (size 3 to 8) (size 9 to 14) (size 15 to 20)
#    0.000    2.429    0.000    3.000    2.000    2.286 
#    0.000    4.286    0.000    4.286    0.000    0.000 
#    0.000    0.000    0.000    0.000    0.000    0.000 
#
# Total GULP energy -156256.570891 kJ/mol
# GULP energy per Si atom -5580.591818 kJ/mol
# Density = 2.018971 g / cm^3
# Si number density = 20.235767 Si / 1000 Ang^3
#
#
#
# Elastic Constant Matrix: (Units=GPa)
#
#
# Indices 1 2 3 4 5 6 
#
# 1 57.0332 -11.8496 46.0281 0.0000 8.6209 0.0000
# 2 -11.8496 39.9709 -0.7955 0.0000 -6.4934 0.0000
# 3 46.0281 -0.7955 90.4317 0.0000 -14.2063 0.0000
# 4 0.0000 0.0000 0.0000 2.9080 0.0000 6.9662
# 5 8.6209 -6.4934 -14.2063 0.0000 25.4519 0.0000
# 6 0.0000 0.0000 0.0000 6.9662 0.0000 23.3225
#
#
#
# Elastic Compliance Matrix: (Units=1/GPa)
#
#
# Indices 1 2 3 4 5 6 
#
# 1 0.046459 0.008451 -0.028177 0.000000 -0.029307 0.000000
# 2 0.008451 0.027800 -0.003719 0.000000 0.002154 0.000000
# 3 -0.028177 -0.003719 0.029285 0.000000 0.024941 0.000000
# 4 0.000000 0.000000 0.000000 1.208748 0.000000 -0.361042
# 5 -0.029307 0.002154 0.024941 0.000000 0.063687 0.000000
# 6 0.000000 0.000000 0.000000 -0.361042 0.000000 0.150717
#
#
# Mechanical properties :
#
#
# Convention : Reuss Voigt Hill
#
# Bulk Modulus (GPa) = 17.65047 28.24464 22.94755
# Shear Modulus (GPa) = 3.13978 20.60668 11.87323
#
# Velocity S-wave (km/s) = 1.24698 3.19459 2.42491
# Velocity P-wave (km/s) = 3.28856 5.25312 4.38235
#
# Compressibility (1/GPa) = 0.05665571
#
# Stress axis : x y z
#
# Youngs Moduli (GPa) = 21.52432 35.97178 34.14747
#
# Poissons Ratio (x) = -0.30401 0.96216
# Poissons Ratio (y) = -0.18191 0.12698
# Poissons Ratio (z) = 0.60648 0.13376
#
# Static dielectric constant tensor:
#      x y z
#    x 1.673620 0.000000 -0.015700 
#    y 0.000000 1.779660 0.000000 
#    z -0.015700 0.000000 1.753770 
# 
# From -- ./inp_files/292538.got.cif
#   From: 2010.05.17/outbox.cif.g08.bks.cpg/sg12_147_cif.got.tgz:292538.got - 2010.06.03 13:09:07.
