data_PCOD9185048
_publ_section_title
;
Structure prediction by ZEFSAII (Michael W. Deem and Ramdas Pophale) SiO2 
 PCOD9185048
Probable space group: C 2/M
;
_chemical_formula_sum "Si O2"
_cell_formula_units_Z 64
_cell_length_a 30.310660
_cell_length_b 13.057193
_cell_length_c 17.747760
_cell_angle_alpha 90.000000
_cell_angle_beta 29.567509
_cell_angle_gamma 90.000000
_cell_volume 3466.017803
_symmetry_space_group_name_H-M "C 2/M"
_symmetry_group_IT_number 12
_symmetry_cell_setting 'monoclinic'
loop_
_space_group_symop_operation_xyz
x,y,z
-x,y,-z
-x,-y,-z
x,-y,z
1/2+x,1/2+y,z
1/2-x,1/2+y,-z
1/2-x,1/2-y,-z
1/2+x,1/2-y,z
loop_
_atom_site_type_symbol
_atom_site_label
_atom_site_fract_x
_atom_site_fract_y
_atom_site_fract_z
Si Si1 0.386820 0.304286 0.512708
Si Si2 0.949396 0.120405 0.266656
Si Si3 0.872968 0.755332 0.012282
Si Si4 0.762170 0.617338 0.684226
Si Si5 0.447747 0.615286 0.657021
Si Si6 0.275529 0.620913 0.823145
Si Si7 0.901305 0.384518 0.111827
Si Si8 0.179076 0.789613 0.665120
O O1 0.385659 0.358611 0.433301
O O2 0.348147 0.190761 0.561722
O O3 0.489181 0.312091 0.388229
O O4 0.325316 0.357816 0.668423
O O5 0.902489 0.161972 0.260471
O O6 0.967266 0.000000 0.233801
O O7 0.040161 0.184553 0.143846
O O8 0.810346 0.835775 0.150258
O O9 0.809778 0.694891 0.047947
O O10 0.902080 0.668665 0.029345
O O11 0.781305 0.500000 0.672140
O O12 0.721284 0.631020 0.661474
O O13 0.500000 0.607888 0.500000
O O14 0.447802 0.500000 0.690578
O O15 0.347865 0.644359 0.781166
O O16 0.254605 0.500000 0.858022
O O17 0.864963 0.500000 0.161986
O O18 0.847890 0.308092 0.244894
O O19 0.000000 0.388994 0.000000
O O20 0.250000 0.750000 0.500000
#
# Coordination Sequence:
#
# PCOD9185048 Si02
#       8
#     8   8   8   8   8   8   8   8
#     4  10  19  34  55  83 110 133 177 225 269 320
#     4  12  23  36  54  77 108 143 178 219 268 319
#     4  10  21  36  52  78 109 141 186 215 256 317
#     4  10  21  37  55  73 104 145 181 220 261 311
#     4   8  14  28  54  85 109 133 169 218 273 316
#     4   9  17  33  59  85 108 137 176 223 269 314
#     4  10  20  36  57  76 105 141 179 220 260 306
#     4  11  22  39  51  81 109 135 178 220 271 316
#
# _framework density 18.464994000000001
#
# number of rings (size 3 to 8) (size 9 to 14) (size 15 to 20)
#    0.000    2.000    2.500    3.000    0.000    1.000 
#    0.000    3.750    0.000   10.125    0.000    0.000 
#    0.000    0.000    0.000    0.000    0.000    0.000 
#
# Total GULP energy -178510.928114 kJ/mol
# GULP energy per Si atom -5578.466504 kJ/mol
# Density = 1.842297 g / cm^3
# Si number density = 18.464994 Si / 1000 Ang^3
#
#
#
# Elastic Constant Matrix: (Units=GPa)
#
#
# Indices 1 2 3 4 5 6 
#
# 1 73.3593 39.7581 19.9621 0.0000 -25.6371 0.0000
# 2 39.7581 129.6951 30.3879 0.0000 -19.5512 0.0000
# 3 19.9621 30.3879 47.7281 0.0000 -15.4240 0.0000
# 4 0.0000 0.0000 0.0000 18.7913 0.0000 -10.4645
# 5 -25.6371 -19.5512 -15.4240 0.0000 32.4510 0.0000
# 6 0.0000 0.0000 0.0000 -10.4645 0.0000 11.0346
#
#
#
# Elastic Compliance Matrix: (Units=1/GPa)
#
#
# Indices 1 2 3 4 5 6 
#
# 1 0.020933 -0.003966 -0.001959 0.000000 0.013217 0.000000
# 2 -0.003966 0.010106 -0.004514 0.000000 0.000810 0.000000
# 3 -0.001959 -0.004514 0.027488 0.000000 0.008798 0.000000
# 4 0.000000 0.000000 0.000000 0.112772 0.000000 0.106946
# 5 0.013217 0.000810 0.008798 0.000000 0.045928 0.000000
# 6 0.000000 0.000000 0.000000 0.106946 0.000000 0.192045
#
#
# Mechanical properties :
#
#
# Convention : Reuss Voigt Hill
#
# Bulk Modulus (GPa) = 26.56008 47.88875 37.22441
# Shear Modulus (GPa) = 11.29437 23.16701 17.23069
#
# Velocity S-wave (km/s) = 2.47587 3.54594 3.05807
# Velocity P-wave (km/s) = 4.75273 6.53881 5.71597
#
# Compressibility (1/GPa) = 0.03765050
#
# Stress axis : x y z
#
# Youngs Moduli (GPa) = 47.77185 98.95335 36.37886
#
# Poissons Ratio (x) = 0.39240 0.07126
# Poissons Ratio (y) = 0.18944 0.16421
# Poissons Ratio (z) = 0.09358 0.44666
#
# Static dielectric constant tensor:
#      x y z
#    x 1.671240 0.000000 -0.015890 
#    y 0.000000 1.611010 0.000000 
#    z -0.015890 0.000000 1.638900 
# 
# From -- ./inp_files/296484.got.cif
#   From: 2010.05.17/outbox.cif.g08.bks.cpg/sg12_149_cif.got.tgz:296484.got - 2010.06.03 13:09:07.
