data_PCOD9185281
_publ_section_title
;
Structure prediction by ZEFSAII (Michael W. Deem and Ramdas Pophale) SiO2 
 PCOD9185281
Probable space group: C 2/M
;
_chemical_formula_sum "Si O2"
_cell_formula_units_Z 64
_cell_length_a 31.698771
_cell_length_b 7.532739
_cell_length_c 25.041759
_cell_angle_alpha 90.000000
_cell_angle_beta 154.964256
_cell_angle_gamma 90.000000
_cell_volume 2530.398866
_symmetry_space_group_name_H-M "C 2/M"
_symmetry_group_IT_number 12
_symmetry_cell_setting 'monoclinic'
loop_
_space_group_symop_operation_xyz
x,y,z
-x,y,-z
-x,-y,-z
x,-y,z
1/2+x,1/2+y,z
1/2-x,1/2+y,-z
1/2-x,1/2-y,-z
1/2+x,1/2-y,z
loop_
_atom_site_type_symbol
_atom_site_label
_atom_site_fract_x
_atom_site_fract_y
_atom_site_fract_z
Si Si1 0.314972 0.788656 0.626097
Si Si2 0.634694 0.283859 0.485021
Si Si3 0.410222 0.297039 0.932904
Si Si4 0.039142 0.709217 0.889348
Si Si5 0.431103 0.291689 0.194249
Si Si6 0.213926 0.717816 0.751240
Si Si7 0.039303 0.705462 0.481481
Si Si8 0.161464 0.285963 0.803243
O O1 0.250000 0.750000 0.500000
O O2 0.242415 0.722326 0.588984
O O3 0.426486 0.721478 0.749366
O O4 0.324066 0.000000 0.642487
O O5 0.632128 0.500000 0.481431
O O6 0.538935 0.220998 0.339509
O O7 0.619376 0.214750 0.526325
O O8 0.399336 0.500000 0.901114
O O9 0.299673 0.214644 0.809980
O O10 0.500000 0.218371 0.000000
O O11 0.433972 0.298663 0.023583
O O12 0.039161 0.500000 0.901276
O O13 0.092546 0.728831 0.892828
O O14 0.442353 0.500000 0.201996
O O15 0.348865 0.261682 0.146385
O O16 0.214591 0.500000 0.750135
O O17 0.102888 0.772766 0.604733
O O18 0.231310 0.770221 0.833328
O O19 0.012903 0.500000 0.460220
O O20 0.943982 0.783244 0.341887
O O21 0.167638 0.500000 0.810984
#
# Coordination Sequence:
#
# PCOD9185281 Si02
#       8
#     8   8   8   8   8   8   8   8
#     4  10  20  33  51  78 111 145 183 224 274 333
#     4   9  18  31  46  74 113 147 175 214 270 331
#     4  10  23  42  61  81 109 148 193 235 275 323
#     4  11  23  38  58  82 111 147 189 234 280 329
#     4  10  19  34  56  82 115 147 178 221 278 340
#     4   9  18  35  57  81 110 148 191 233 277 328
#     4   9  17  29  52  83 111 143 182 223 270 327
#     4   9  17  32  56  85 117 146 179 227 281 335
#
# _framework density 25.292453999999999
#
# number of rings (size 3 to 8) (size 9 to 14) (size 15 to 20)
#    0.000    2.375    1.250    1.125    1.750    3.250 
#    0.000    2.500    0.000    3.000    0.000    0.000 
#    0.000    0.000    0.000    0.000    0.000    0.000 
#
# Total GULP energy -178479.158164 kJ/mol
# GULP energy per Si atom -5577.473693 kJ/mol
# Density = 2.523489 g / cm^3
# Si number density = 25.292454 Si / 1000 Ang^3
#
#
#
# Elastic Constant Matrix: (Units=GPa)
#
#
# Indices 1 2 3 4 5 6 
#
# 1 157.5428 -4.8707 14.9465 0.0000 7.6012 0.0000
# 2 -4.8707 75.8181 -9.4136 0.0000 2.5750 -0.0001
# 3 14.9465 -9.4136 89.1579 0.0000 -10.7746 0.0000
# 4 0.0000 0.0000 0.0000 1.9028 0.0000 -8.0517
# 5 7.6012 2.5750 -10.7746 0.0000 43.0524 0.0000
# 6 0.0000 -0.0001 0.0000 -8.0517 0.0000 13.7813
#
#
#
# Elastic Compliance Matrix: (Units=1/GPa)
#
#
# Indices 1 2 3 4 5 6 
#
# 1 0.006547 0.000317 -0.001244 0.000000 -0.001486 0.000000
# 2 0.000317 0.013389 0.001296 0.000000 -0.000532 0.000000
# 3 -0.001244 0.001296 0.011940 0.000000 0.003130 0.000000
# 4 0.000000 0.000000 0.000000 -0.356964 0.000000 -0.208554
# 5 -0.001486 -0.000532 0.003130 0.000000 0.024305 0.000000
# 6 0.000000 0.000000 0.000000 -0.208554 0.000000 -0.049285
#
#
# Mechanical properties :
#
#
# Convention : Reuss Voigt Hill
#
# Bulk Modulus (GPa) = 30.66185 35.98258 33.32221
# Shear Modulus (GPa) = -14.70869 33.20440 9.24786
#
# Velocity S-wave (km/s) = -2.41414 3.62721 1.91424
# Velocity P-wave (km/s) = 2.09248 5.63913 4.25313
#
# Compressibility (1/GPa) = 0.03261382
#
# Stress axis : x y z
#
# Youngs Moduli (GPa) = 152.74249 74.68921 83.75425
#
# Poissons Ratio (x) = -0.02365 0.10417
# Poissons Ratio (y) = -0.04836 -0.10856
# Poissons Ratio (z) = 0.18997 -0.09681
#
# Static dielectric constant tensor:
#      x y z
#    x 2.100750 0.000000 0.024670 
#    y 0.000000 2.024190 0.000000 
#    z 0.024670 0.000000 2.056470 
# 
# From -- ./inp_files/353576.got.cif
#   From: 2010.05.17/outbox.cif.g08.bks.cpg/sg12_177_cif.got.tgz:353576.got - 2010.06.03 13:09:07.
