data_PCOD9185843
_publ_section_title
;
Structure prediction by ZEFSAII (Michael W. Deem and Ramdas Pophale) SiO2 
 PCOD9185843
Probable space group: C 2/M
;
_chemical_formula_sum "Si O2"
_cell_formula_units_Z 56
_cell_length_a 14.722776
_cell_length_b 18.317778
_cell_length_c 17.204191
_cell_angle_alpha 90.000000
_cell_angle_beta 145.800308
_cell_angle_gamma 90.000000
_cell_volume 2607.918760
_symmetry_space_group_name_H-M "C 2/M"
_symmetry_group_IT_number 12
_symmetry_cell_setting 'monoclinic'
loop_
_space_group_symop_operation_xyz
x,y,z
-x,y,-z
-x,-y,-z
x,-y,z
1/2+x,1/2+y,z
1/2-x,1/2+y,-z
1/2-x,1/2-y,-z
1/2+x,1/2-y,z
loop_
_atom_site_type_symbol
_atom_site_label
_atom_site_fract_x
_atom_site_fract_y
_atom_site_fract_z
Si Si1 0.928195 0.080591 0.292212
Si Si2 0.372628 0.582918 0.071547
Si Si3 0.646647 0.739501 0.756961
Si Si4 0.405089 0.701991 0.832690
Si Si5 0.615771 0.168133 0.515024
Si Si6 0.943454 0.680768 0.152226
Si Si7 0.800382 0.415607 0.580924
O O1 0.943906 0.080992 0.209484
O O2 0.830170 0.153751 0.241489
O O3 0.107510 0.088891 0.453907
O O4 0.863332 0.000000 0.268298
O O5 0.351792 0.500000 0.030014
O O6 0.490446 0.629308 0.100363
O O7 0.202751 0.624476 0.957853
O O8 0.796336 0.786075 0.830999
O O9 0.489712 0.767096 0.597786
O O10 0.606693 0.760463 0.817050
O O11 0.275759 0.697356 0.670033
O O12 0.514858 0.772361 0.893585
O O13 0.500000 0.135221 0.500000
O O14 0.657562 0.112627 0.475990
O O15 0.099275 0.636153 0.291168
O O16 0.848014 0.500000 0.623784
#
# Coordination Sequence:
#
# PCOD9185843 Si02
#       7
#     8   8   8   8   8   8   8
#     4  10  20  37  61  86 117 153 193 241 286 342
#     4  11  23  40  60  87 119 154 192 239 300 342
#     4  10  21  37  60  90 117 149 201 237 286 346
#     4  11  21  37  63  87 114 159 195 237 289 345
#     4   9  18  32  54  87 118 147 189 246 286 336
#     4  11  22  39  58  84 120 154 194 242 286 341
#     4  10  19  34  58  84 113 156 194 233 293 345
#
# _framework density 21.473061000000001
#
# number of rings (size 3 to 8) (size 9 to 14) (size 15 to 20)
#    0.000    1.714    2.857    1.714    0.000    3.143 
#    0.000    8.571    0.000    7.286    0.000    0.000 
#    0.000    0.000    0.000    0.000    0.000    0.000 
#
# Total GULP energy -156558.715905 kJ/mol
# GULP energy per Si atom -5591.382711 kJ/mol
# Density = 2.142419 g / cm^3
# Si number density = 21.473061 Si / 1000 Ang^3
#
#
#
# Elastic Constant Matrix: (Units=GPa)
#
#
# Indices 1 2 3 4 5 6 
#
# 1 19.5169 -0.0939 5.3157 0.0007 2.2388 -0.0002
# 2 -0.0939 129.4804 35.7793 0.0019 11.0925 0.0005
# 3 5.3157 35.7793 89.1975 0.0035 -0.6201 0.0017
# 4 0.0007 0.0019 0.0035 29.1968 0.0016 7.0736
# 5 2.2388 11.0925 -0.6201 0.0016 26.2904 0.0006
# 6 -0.0002 0.0005 0.0017 7.0736 0.0006 23.5821
#
#
#
# Elastic Compliance Matrix: (Units=1/GPa)
#
#
# Indices 1 2 3 4 5 6 
#
# 1 0.052883 0.001539 -0.003805 -0.000001 -0.005242 0.000001
# 2 0.001539 0.009116 -0.003777 0.000000 -0.004067 0.000000
# 3 -0.003805 -0.003777 0.012968 -0.000001 0.002223 -0.000001
# 4 -0.000001 0.000000 -0.000001 0.036934 -0.000002 -0.011079
# 5 -0.005242 -0.004067 0.002223 -0.000002 0.040251 0.000000
# 6 0.000001 0.000000 -0.000001 -0.011079 0.000000 0.045728
#
#
# Mechanical properties :
#
#
# Convention : Reuss Voigt Hill
#
# Bulk Modulus (GPa) = 15.90298 35.57744 25.74021
# Shear Modulus (GPa) = 21.65176 28.96009 25.30592
#
# Velocity S-wave (km/s) = 3.17885 3.67641 3.43665
# Velocity P-wave (km/s) = 4.57117 5.88436 5.26884
#
# Compressibility (1/GPa) = 0.06288128
#
# Stress axis : x y z
#
# Youngs Moduli (GPa) = 18.90971 109.69361 77.11128
#
# Poissons Ratio (x) = -0.16882 0.29343
# Poissons Ratio (y) = -0.02910 0.29123
# Poissons Ratio (z) = 0.07196 0.41429
#
# Static dielectric constant tensor:
#      x y z
#    x 1.749750 0.000000 -0.016290 
#    y 0.000000 1.758670 0.000000 
#    z -0.016290 0.000000 1.811570 
# 
# From -- ./inp_files/311656.got.cif
#   From: 2010.05.17/outbox.cif.g08.bks.cpg/sg12_156_cif.got.tgz:311656.got - 2010.06.03 13:09:07.
