data_PCOD9185223
_publ_section_title
;
Structure prediction by ZEFSAII (Michael W. Deem and Ramdas Pophale) SiO2 
 PCOD9185223
Probable space group: C 2/M
;
_chemical_formula_sum "Si O2"
_cell_formula_units_Z 48
_cell_length_a 20.742434
_cell_length_b 7.424239
_cell_length_c 14.015425
_cell_angle_alpha 90.000000
_cell_angle_beta 91.791693
_cell_angle_gamma 90.000000
_cell_volume 2157.275226
_symmetry_space_group_name_H-M "C 2/M"
_symmetry_group_IT_number 12
_symmetry_cell_setting 'monoclinic'
loop_
_space_group_symop_operation_xyz
x,y,z
-x,y,-z
-x,-y,-z
x,-y,z
1/2+x,1/2+y,z
1/2-x,1/2+y,-z
1/2-x,1/2-y,-z
1/2+x,1/2-y,z
loop_
_atom_site_type_symbol
_atom_site_label
_atom_site_fract_x
_atom_site_fract_y
_atom_site_fract_z
Si Si1 0.802107 0.284248 0.083845
Si Si2 0.613938 0.279395 0.369781
Si Si3 0.975402 0.781730 0.283909
Si Si4 0.240573 0.789266 0.275700
Si Si5 0.055168 0.709156 0.934951
Si Si6 0.857817 0.782556 0.413323
O O1 0.809935 0.500000 0.095667
O O2 0.775301 0.212420 0.183513
O O3 0.872669 0.211987 0.059444
O O4 0.750000 0.250000 0.000000
O O5 0.614476 0.500000 0.370130
O O6 0.543366 0.224114 0.331801
O O7 0.671192 0.215972 0.303145
O O8 0.629248 0.222036 0.478421
O O9 0.967055 0.718452 0.175570
O O10 0.915208 0.722036 0.345790
O O11 0.974698 0.000000 0.282712
O O12 0.289836 0.774503 0.366035
O O13 0.229969 0.000000 0.255048
O O14 0.061612 0.500000 0.964838
O O15 0.000000 0.789858 0.000000
O O16 0.858486 0.000000 0.413909
#
# Coordination Sequence:
#
# PCOD9185223 Si02
#       6
#     8   8   8   8   8   8
#     4  10  22  38  57  80 107 140 177 219 269 319
#     4   9  19  34  54  81 111 142 178 219 263 311
#     4  10  20  35  57  82 108 141 180 221 261 311
#     4  10  20  36  56  78 109 144 176 219 269 316
#     4  10  22  40  58  78 108 143 176 219 273 320
#     4  10  19  34  56  81 109 142 179 219 263 313
#
# _framework density 22.250291000000001
#
# number of rings (size 3 to 8) (size 9 to 14) (size 15 to 20)
#    0.000    2.167    1.667    1.000    2.333    3.667 
#    0.000    1.667    0.000    2.000    0.000    0.000 
#    0.000    0.000    0.000    0.000    0.000    0.000 
#
# Total GULP energy -134154.746201 kJ/mol
# GULP energy per Si atom -5589.781092 kJ/mol
# Density = 2.219965 g / cm^3
# Si number density = 22.250291 Si / 1000 Ang^3
#
#
#
# Elastic Constant Matrix: (Units=GPa)
#
#
# Indices 1 2 3 4 5 6 
#
# 1 53.6458 -10.3113 5.6913 0.0000 -11.5171 0.0000
# 2 -10.3113 69.7486 -11.3150 0.0000 -13.3975 0.0000
# 3 5.6913 -11.3150 77.4791 0.0000 -9.0594 0.0000
# 4 0.0000 0.0000 0.0000 6.8851 0.0000 22.7562
# 5 -11.5171 -13.3975 -9.0594 0.0000 45.6082 0.0000
# 6 0.0000 0.0000 0.0000 22.7562 0.0000 -0.8705
#
#
#
# Elastic Compliance Matrix: (Units=1/GPa)
#
#
# Indices 1 2 3 4 5 6 
#
# 1 0.020884 0.004315 -0.000142 0.000000 0.006513 0.000000
# 2 0.004315 0.016706 0.002891 0.000000 0.006572 0.000000
# 3 -0.000142 0.002891 0.013754 0.000000 0.003545 0.000000
# 4 0.000000 0.000000 0.000000 0.001662 0.000000 0.043441
# 5 0.006513 0.006572 0.003545 0.000000 0.026205 0.000000
# 6 0.000000 0.000000 0.000000 0.043441 0.000000 -0.013143
#
#
# Mechanical properties :
#
#
# Convention : Reuss Voigt Hill
#
# Bulk Modulus (GPa) = 15.27362 18.77816 17.02589
# Shear Modulus (GPa) = 67.78449 24.77845 46.28147
#
# Velocity S-wave (km/s) = 5.52546 3.34072 4.56569
# Velocity P-wave (km/s) = 6.89833 4.83098 5.95505
#
# Compressibility (1/GPa) = 0.06547238
#
# Stress axis : x y z
#
# Youngs Moduli (GPa) = 47.88457 59.85704 72.70642
#
# Poissons Ratio (x) = -0.25830 0.01034
# Poissons Ratio (y) = -0.20663 -0.21021
# Poissons Ratio (z) = 0.00681 -0.17306
#
# Static dielectric constant tensor:
#      x y z
#    x 1.799150 0.000000 -0.034970 
#    y 0.000000 1.861180 0.000000 
#    z -0.034970 0.000000 1.761510 
# 
# From -- ./inp_files/153509.got.cif
#   From: 2010.05.17/outbox.cif.g08.bks.cpg/sg12_77_cif.got.tgz:153509.got - 2010.06.03 13:09:07.
