data_PCOD9185406
_publ_section_title
;
Structure prediction by ZEFSAII (Michael W. Deem and Ramdas Pophale) SiO2 
 PCOD9185406
Probable space group: C 2/M
;
_chemical_formula_sum "Si O2"
_cell_formula_units_Z 56
_cell_length_a 12.975760
_cell_length_b 13.689628
_cell_length_c 14.668926
_cell_angle_alpha 90.000000
_cell_angle_beta 49.595369
_cell_angle_gamma 90.000000
_cell_volume 1984.196350
_symmetry_space_group_name_H-M "C 2/M"
_symmetry_group_IT_number 12
_symmetry_cell_setting 'monoclinic'
loop_
_space_group_symop_operation_xyz
x,y,z
-x,y,-z
-x,-y,-z
x,-y,z
1/2+x,1/2+y,z
1/2-x,1/2+y,-z
1/2-x,1/2-y,-z
1/2+x,1/2-y,z
loop_
_atom_site_type_symbol
_atom_site_label
_atom_site_fract_x
_atom_site_fract_y
_atom_site_fract_z
Si Si1 0.457006 0.613466 0.929184
Si Si2 0.530468 0.618247 0.585854
Si Si3 0.289995 0.383146 0.865321
Si Si4 0.676823 0.882541 0.508359
Si Si5 0.268103 0.688363 0.275486
Si Si6 0.596874 0.886157 0.824780
Si Si7 0.910681 0.615406 0.774993
O O1 0.424822 0.500000 0.966498
O O2 0.339145 0.656510 0.934431
O O3 0.595721 0.623506 0.793141
O O4 0.500000 0.661337 0.000000
O O5 0.500000 0.650034 0.500000
O O6 0.533807 0.500000 0.582277
O O7 0.408268 0.643799 0.724632
O O8 0.677892 0.651358 0.535498
O O9 0.302946 0.500000 0.868852
O O10 0.142996 0.372903 0.903314
O O11 0.667361 0.848455 0.409868
O O12 0.546387 0.856352 0.642276
O O13 0.680363 0.000000 0.507337
O O14 0.312672 0.799033 0.267395
O O15 0.210437 0.669119 0.207083
O O16 0.454034 0.873042 0.855687
O O17 0.635373 0.000000 0.780701
O O18 0.884145 0.500000 0.777358
#
# Coordination Sequence:
#
# PCOD9185406 Si02
#       7
#     8   8   8   8   8   8   8
#     4  10  21  39  67 103 134 163 210 274 334 383
#     4   9  15  25  50  86 124 168 212 250 304 377
#     4   9  17  35  60  84 123 170 210 257 317 377
#     4  10  19  34  56  90 132 170 213 266 322 382
#     4  12  23  37  67  93 126 168 223 266 322 384
#     4  10  24  43  63  89 130 177 214 262 327 385
#     4  10  22  40  62  93 134 175 213 259 324 393
#
# _framework density 28.223012000000001
#
# number of rings (size 3 to 8) (size 9 to 14) (size 15 to 20)
#    0.000    2.000    1.429    2.571    2.000    5.143 
#    0.000    3.571    0.000    5.571    0.000    0.000 
#    0.000    0.000    0.000    0.000    0.000    0.000 
#
# Total GULP energy -156850.493557 kJ/mol
# GULP energy per Si atom -5601.803341 kJ/mol
# Density = 2.815878 g / cm^3
# Si number density = 28.223012 Si / 1000 Ang^3
#
#
#
# Elastic Constant Matrix: (Units=GPa)
#
#
# Indices 1 2 3 4 5 6 
#
# 1 276.1700 44.4227 78.3513 0.0000 9.9460 0.0000
# 2 44.4227 111.4351 11.3901 0.0000 -17.6259 0.0000
# 3 78.3513 11.3901 115.7726 0.0000 10.1216 0.0000
# 4 0.0000 0.0000 0.0000 -22.0996 0.0000 -14.7229
# 5 9.9460 -17.6259 10.1216 0.0000 62.8467 0.0000
# 6 0.0000 0.0000 0.0000 -14.7229 0.0000 38.8392
#
#
#
# Elastic Compliance Matrix: (Units=1/GPa)
#
#
# Indices 1 2 3 4 5 6 
#
# 1 0.004774 -0.001716 -0.002996 0.000000 -0.000754 0.000000
# 2 -0.001716 0.010166 -0.000113 0.000000 0.003141 0.000000
# 3 -0.002996 -0.000113 0.010790 0.000000 -0.001295 0.000000
# 4 0.000000 0.000000 0.000000 -0.036126 0.000000 -0.013695
# 5 -0.000754 0.003141 -0.001295 0.000000 0.017121 0.000000
# 6 0.000000 0.000000 0.000000 -0.013695 0.000000 0.020556
#
#
# Mechanical properties :
#
#
# Convention : Reuss Voigt Hill
#
# Bulk Modulus (GPa) = 62.19372 85.74510 73.96941
# Shear Modulus (GPa) = 118.22554 40.53150 79.37852
#
# Velocity S-wave (km/s) = 6.47925 3.79372 5.30910
# Velocity P-wave (km/s) = 8.83508 7.04535 7.99048
#
# Compressibility (1/GPa) = 0.01607879
#
# Stress axis : x y z
#
# Youngs Moduli (GPa) = 209.45680 98.36292 92.68015
#
# Poissons Ratio (x) = 0.16882 0.27769
# Poissons Ratio (y) = 0.35949 0.01050
# Poissons Ratio (z) = 0.62759 0.01114
#
# Static dielectric constant tensor:
#      x y z
#    x 2.165910 0.000000 0.046040 
#    y 0.000000 2.125310 0.000000 
#    z 0.046040 0.000000 2.183590 
# 
# From -- ./inp_files/263249.got.cif
#   From: 2010.05.17/outbox.cif.g08.bks.cpg/sg12_132_cif.got.tgz:263249.got - 2010.06.03 13:09:07.
