data_PCOD9185525
_publ_section_title
;
Structure prediction by ZEFSAII (Michael W. Deem and Ramdas Pophale) SiO2 
 PCOD9185525
Probable space group: C 2/M
;
_chemical_formula_sum "Si O2"
_cell_formula_units_Z 56
_cell_length_a 32.036482
_cell_length_b 10.573901
_cell_length_c 26.170137
_cell_angle_alpha 90.000000
_cell_angle_beta 161.982230
_cell_angle_gamma 90.000000
_cell_volume 2742.096580
_symmetry_space_group_name_H-M "C 2/M"
_symmetry_group_IT_number 12
_symmetry_cell_setting 'monoclinic'
loop_
_space_group_symop_operation_xyz
x,y,z
-x,y,-z
-x,-y,-z
x,-y,z
1/2+x,1/2+y,z
1/2-x,1/2+y,-z
1/2-x,1/2-y,-z
1/2+x,1/2-y,z
loop_
_atom_site_type_symbol
_atom_site_label
_atom_site_fract_x
_atom_site_fract_y
_atom_site_fract_z
Si Si1 0.572706 0.647874 0.241092
Si Si2 0.940557 0.144187 0.982639
Si Si3 0.464081 0.852672 0.192204
Si Si4 0.850527 0.285173 0.330472
Si Si5 0.879259 0.860457 0.464560
Si Si6 0.343033 0.141109 0.496086
Si Si7 0.309836 0.357555 0.179786
O O1 0.534370 0.500000 0.207560
O O2 0.538689 0.745785 0.245865
O O3 0.729033 0.646916 0.407029
O O4 0.495995 0.696024 0.100639
O O5 0.778828 0.143787 0.797456
O O6 0.992509 0.000000 0.043578
O O7 0.000000 0.203989 0.000000
O O8 0.515495 0.841285 0.309984
O O9 0.495815 0.000000 0.214512
O O10 0.305881 0.833176 0.996317
O O11 0.871330 0.171007 0.395158
O O12 0.808537 0.238124 0.225591
O O13 0.000000 0.346076 0.500000
O O14 0.815135 0.748294 0.422395
O O15 0.037850 0.857079 0.663097
O O16 0.824875 0.000000 0.411868
O O17 0.338808 0.000000 0.468218
O O18 0.285423 0.500000 0.171611
#
# Coordination Sequence:
#
# PCOD9185525 Si02
#       7
#     8   8   8   8   8   8   8
#     4  10  20  36  56  79 111 148 187 226 276 335
#     4  10  20  34  53  78 114 156 187 222 283 344
#     4  10  20  36  59  83 109 144 188 232 278 327
#     4  10  19  34  57  82 110 146 189 235 279 336
#     4  10  21  36  57  83 111 148 188 226 278 337
#     4  10  22  38  56  81 113 149 184 228 282 333
#     4   9  18  35  57  81 111 144 181 229 283 333
#
# _framework density 20.422329000000001
#
# number of rings (size 3 to 8) (size 9 to 14) (size 15 to 20)
#    0.000    2.143    1.429    1.714    0.000    5.429 
#    0.000    2.857    0.000    2.143    0.000    0.000 
#    0.000    0.000    0.000    0.000    0.000    0.000 
#
# Total GULP energy -156030.167751 kJ/mol
# GULP energy per Si atom -5572.505991 kJ/mol
# Density = 2.037585 g / cm^3
# Si number density = 20.422329 Si / 1000 Ang^3
#
#
#
# Elastic Constant Matrix: (Units=GPa)
#
#
# Indices 1 2 3 4 5 6 
#
# 1 30.9501 28.4604 -5.7038 0.0000 -1.8913 0.0002
# 2 28.4604 87.3919 -1.8193 -0.0001 -12.3065 0.0004
# 3 -5.7038 -1.8193 88.8240 -0.0001 -6.9736 0.0002
# 4 0.0000 -0.0001 -0.0001 10.4151 -0.0001 20.4570
# 5 -1.8913 -12.3065 -6.9736 -0.0001 22.5367 0.0002
# 6 0.0002 0.0004 0.0002 20.4570 0.0002 -17.0638
#
#
#
# Elastic Compliance Matrix: (Units=1/GPa)
#
#
# Indices 1 2 3 4 5 6 
#
# 1 0.047072 -0.015837 0.002388 0.000000 -0.003959 0.000000
# 2 -0.015837 0.017781 0.000005 0.000000 0.008382 0.000000
# 3 0.002388 0.000005 0.011712 0.000000 0.003827 0.000000
# 4 0.000000 0.000000 0.000000 0.028621 0.000000 0.034312
# 5 -0.003959 0.008382 0.003827 0.000000 0.049801 0.000000
# 6 0.000000 0.000000 0.000000 0.034312 0.000000 -0.017469
#
#
# Mechanical properties :
#
#
# Convention : Reuss Voigt Hill
#
# Bulk Modulus (GPa) = 20.13073 27.67119 23.90096
# Shear Modulus (GPa) = 27.62964 15.59284 21.61124
#
# Velocity S-wave (km/s) = 3.68219 2.76618 3.25655
# Velocity P-wave (km/s) = 5.28740 4.87660 5.08615
#
# Compressibility (1/GPa) = 0.04967531
#
# Stress axis : x y z
#
# Youngs Moduli (GPa) = 21.24424 56.24030 85.38164
#
# Poissons Ratio (x) = 0.89070 -0.20385
# Poissons Ratio (y) = 0.33645 -0.00045
# Poissons Ratio (z) = -0.05072 -0.00030
#
# Static dielectric constant tensor:
#      x y z
#    x 1.721310 0.000000 0.001690 
#    y 0.000000 1.727010 0.000000 
#    z 0.001690 0.000000 1.778520 
# 
# From -- ./inp_files/353992.got.cif
#   From: 2010.05.17/outbox.cif.g08.bks.cpg/sg12_177_cif.got.tgz:353992.got - 2010.06.03 13:09:07.
