data_PCOD9185384
_publ_section_title
;
Structure prediction by ZEFSAII (Michael W. Deem and Ramdas Pophale) SiO2 
 PCOD9185384
Probable space group: C 2/M
;
_chemical_formula_sum "Si O2"
_cell_formula_units_Z 46
_cell_length_a 14.163873
_cell_length_b 23.792715
_cell_length_c 19.358225
_cell_angle_alpha 90.000000
_cell_angle_beta 22.846010
_cell_angle_gamma 90.000000
_cell_volume 2532.849858
_symmetry_space_group_name_H-M "C 2/M"
_symmetry_group_IT_number 12
_symmetry_cell_setting 'monoclinic'
loop_
_space_group_symop_operation_xyz
x,y,z
-x,y,-z
-x,-y,-z
x,-y,z
1/2+x,1/2+y,z
1/2-x,1/2+y,-z
1/2-x,1/2-y,-z
1/2+x,1/2-y,z
loop_
_atom_site_type_symbol
_atom_site_label
_atom_site_fract_x
_atom_site_fract_y
_atom_site_fract_z
Si Si1 0.500000 0.000000 0.500000
Si Si2 0.190778 0.935307 0.970959
Si Si3 0.174708 0.338575 0.021688
Si Si4 0.146552 0.590031 0.288575
Si Si5 0.098340 0.721283 0.329045
Si Si6 0.884357 0.760388 0.280082
Si Si7 0.500000 0.204129 0.000000
O O1 0.497624 0.950404 0.562486
O O2 0.301549 0.897702 0.956697
O O3 0.341420 0.931934 0.798158
O O4 0.158762 0.000000 0.013179
O O5 0.923608 0.912294 0.131052
O O6 0.048690 0.294728 0.159583
O O7 0.025409 0.333415 0.051300
O O8 0.440948 0.313336 0.826431
O O9 0.070511 0.654943 0.336629
O O10 0.250149 0.728753 0.297616
O O11 0.266115 0.754573 0.161958
O O12 0.832185 0.746671 0.519956
#
# Coordination Sequence:
#
# PCOD9185384 Si02
#       7
#     2   8   8   8   8   8   4
#     4  12  20  34  48  84 128 144 184 214 274 350
#     4  11  21  39  54  79 113 163 191 224 292 343
#     4  10  21  37  55  80 116 154 202 243 276 342
#     4  11  21  33  56  85 120 150 177 229 289 367
#     4  10  19  34  56  87 118 148 177 232 307 361
#     4   9  19  34  55  84 115 151 181 234 301 351
#     4  10  22  38  57  81 116 150 200 252 288 324
#
# _framework density 18.161360999999999
#
# number of rings (size 3 to 8) (size 9 to 14) (size 15 to 20)
#    0.000    1.739    3.478    2.609    4.870    0.696 
#    0.000    0.435    0.000    0.000    0.000    9.739 
#    0.000    0.000    0.000    0.000    0.000    0.000 
#
# Total GULP energy -128083.654452 kJ/mol
# GULP energy per Si atom -5568.854541 kJ/mol
# Density = 1.812002 g / cm^3
# Si number density = 18.161361 Si / 1000 Ang^3
#
#
#
# Elastic Constant Matrix: (Units=GPa)
#
#
# Indices 1 2 3 4 5 6 
#
# 1 89.0485 34.4659 6.9747 -0.3196 11.3527 0.4239
# 2 34.4659 64.5226 13.7922 -0.2926 8.7666 0.1619
# 3 6.9747 13.7922 75.2348 -0.7204 7.3341 1.2183
# 4 -0.3196 -0.2926 -0.7204 8.3379 -0.3865 14.0485
# 5 11.3527 8.7666 7.3341 -0.3865 17.6765 0.6441
# 6 0.4239 0.1619 1.2183 14.0485 0.6441 10.3900
#
#
#
# Elastic Compliance Matrix: (Units=1/GPa)
#
#
# Indices 1 2 3 4 5 6 
#
# 1 0.014739 -0.007154 0.000539 -0.000285 -0.006156 0.000214
# 2 -0.007154 0.020493 -0.002647 0.000728 -0.004439 -0.000426
# 3 0.000539 -0.002647 0.014162 -0.002470 -0.005036 0.002011
# 4 -0.000285 0.000728 -0.002470 -0.092614 -0.005765 0.125872
# 5 -0.006156 -0.004439 -0.005036 -0.005765 0.064520 0.004706
# 6 0.000214 -0.000426 0.002011 0.125872 0.004706 -0.074477
#
#
# Mechanical properties :
#
#
# Convention : Reuss Voigt Hill
#
# Bulk Modulus (GPa) = 32.39357 37.69683 35.04520
# Shear Modulus (GPa) = -205.22847 18.85241 -93.18803
#
# Velocity S-wave (km/s) = -10.64181 3.22537 -7.17095
# Velocity P-wave (km/s) = 11.53786 5.88833 7.01605
#
# Compressibility (1/GPa) = 0.03087032
#
# Stress axis : x y z
#
# Youngs Moduli (GPa) = 67.84581 48.79675 70.61261
#
# Poissons Ratio (x) = 0.34909 -0.03806
# Poissons Ratio (y) = 0.48536 0.18691
# Poissons Ratio (z) = -0.03657 0.12917
#
# Static dielectric constant tensor:
#      x y z
#    x 1.667090 0.000180 0.031090 
#    y 0.000180 1.596730 0.000160 
#    z 0.031090 0.000160 1.672040 
# 
# From -- ./inp_files/312462.got.cif
#   From: 2010.05.17/outbox.cif.g08.bks.cpg/sg12_157_cif.got.tgz:312462.got - 2010.06.03 13:09:07.
