data_PCOD9185978
_publ_section_title
;
Structure prediction by ZEFSAII (Michael W. Deem and Ramdas Pophale) SiO2 
 PCOD9185978
Probable space group: C 2/M
;
_chemical_formula_sum "Si O2"
_cell_formula_units_Z 64
_cell_length_a 10.484535
_cell_length_b 28.589152
_cell_length_c 15.877360
_cell_angle_alpha 90.000000
_cell_angle_beta 48.679649
_cell_angle_gamma 90.000000
_cell_volume 3574.257421
_symmetry_space_group_name_H-M "C 2/M"
_symmetry_group_IT_number 12
_symmetry_cell_setting 'monoclinic'
loop_
_space_group_symop_operation_xyz
x,y,z
-x,y,-z
-x,-y,-z
x,-y,z
1/2+x,1/2+y,z
1/2-x,1/2+y,-z
1/2-x,1/2-y,-z
1/2+x,1/2-y,z
loop_
_atom_site_type_symbol
_atom_site_label
_atom_site_fract_x
_atom_site_fract_y
_atom_site_fract_z
Si Si1 0.770951 0.552242 0.500006
Si Si2 0.376744 0.791846 0.274285
Si Si3 0.607790 0.554215 0.750933
Si Si4 0.221304 0.883266 0.133256
Si Si5 0.074668 0.791854 0.274261
Si Si6 0.151291 0.153535 0.500005
Si Si7 0.890410 0.445784 0.750879
Si Si8 0.487896 0.116733 0.866697
O O1 0.708533 0.500000 0.499982
O O2 0.732689 0.554945 0.615779
O O3 0.687685 0.599150 0.499982
O O4 0.964251 0.554948 0.384278
O O5 0.493224 0.749995 0.256747
O O6 0.303894 0.819170 0.388074
O O7 0.482945 0.830192 0.176079
O O8 0.215636 0.777899 0.284340
O O9 0.558784 0.500000 0.785190
O O10 0.443975 0.584994 0.803958
O O11 0.715570 0.570452 0.784447
O O12 0.337293 0.897806 0.162688
O O13 0.164904 0.830191 0.176033
O O14 0.339216 0.886456 0.999974
O O15 0.919982 0.819189 0.388034
O O16 0.000000 0.155444 0.500000
O O17 0.870931 0.500000 0.785126
O O18 0.948232 0.415007 0.803878
#
# Coordination Sequence:
#
# PCOD9185978 Si02
#       8
#     8   8   8   8   8   8   8   8
#     4  10  19  34  58  88 119 150 184 226 281 341
#     4  10  21  38  58  83 114 146 186 235 288 341
#     4  10  21  37  58  86 119 152 187 231 282 338
#     4  10  22  40  60  82 112 151 194 240 285 331
#     4  10  21  38  58  83 114 146 186 235 288 341
#     4  10  19  35  57  85 118 149 184 231 282 340
#     4  10  21  37  58  86 119 152 187 231 282 338
#     4  10  22  40  60  82 112 151 194 240 285 331
#
# _framework density 17.905818
#
# number of rings (size 3 to 8) (size 9 to 14) (size 15 to 20)
#    0.000    2.000    2.500    0.750    0.000    4.750 
#    0.000    5.000    0.000    0.000    0.000    0.000 
#    0.000    0.000    0.000    0.000    0.000    0.000 
#
# Total GULP energy -178404.705082 kJ/mol
# GULP energy per Si atom -5575.147034 kJ/mol
# Density = 1.786506 g / cm^3
# Si number density = 17.905818 Si / 1000 Ang^3
#
#
#
# Elastic Constant Matrix: (Units=GPa)
#
#
# Indices 1 2 3 4 5 6 
#
# 1 129.8926 92.7881 63.5415 0.0000 -1.9303 0.0000
# 2 92.7881 101.4495 42.1741 0.0000 -1.5491 0.0000
# 3 63.5415 42.1741 71.3986 0.0000 0.0900 0.0000
# 4 0.0000 0.0000 0.0000 4.3278 0.0000 -0.8585
# 5 -1.9303 -1.5491 0.0900 0.0000 1.6916 0.0000
# 6 0.0000 0.0000 0.0000 -0.8585 0.0000 32.9398
#
#
#
# Elastic Compliance Matrix: (Units=1/GPa)
#
#
# Indices 1 2 3 4 5 6 
#
# 1 0.030290 -0.021541 -0.014253 0.000000 0.015596 0.000000
# 2 -0.021541 0.028649 0.002246 0.000000 0.001536 0.000000
# 3 -0.014253 0.002246 0.025383 0.000000 -0.015558 0.000000
# 4 0.000000 0.000000 0.000000 0.232262 0.000000 0.006053
# 5 0.015596 0.001536 -0.015558 0.000000 0.611198 0.000000
# 6 0.000000 0.000000 0.000000 0.006053 0.000000 0.030516
#
#
# Mechanical properties :
#
#
# Convention : Reuss Voigt Hill
#
# Bulk Modulus (GPa) = 58.04853 77.74976 67.89914
# Shear Modulus (GPa) = 4.84902 14.74099 9.79500
#
# Velocity S-wave (km/s) = 1.64741 2.87235 2.34140
# Velocity P-wave (km/s) = 6.00898 7.38351 6.73142
#
# Compressibility (1/GPa) = 0.01722697
#
# Stress axis : x y z
#
# Youngs Moduli (GPa) = 33.01376 34.90556 39.39651
#
# Poissons Ratio (x) = 0.75190 0.56151
# Poissons Ratio (y) = 0.71115 -0.08849
# Poissons Ratio (z) = 0.47054 -0.07841
#
# Static dielectric constant tensor:
#      x y z
#    x 1.605980 0.000000 0.000710 
#    y 0.000000 1.594710 0.000000 
#    z 0.000710 0.000000 1.629800 
# 
# From -- ./inp_files/201265.got.cif
#   From: 2010.05.17/outbox.cif.g08.bks.cpg/sg12_101_cif.got.tgz:201265.got - 2010.06.03 13:09:07.
