data_PCOD9185141
_publ_section_title
;
Structure prediction by ZEFSAII (Michael W. Deem and Ramdas Pophale) SiO2 
 PCOD9185141
Probable space group: C 2/M
;
_chemical_formula_sum "Si O2"
_cell_formula_units_Z 48
_cell_length_a 30.303941
_cell_length_b 7.419669
_cell_length_c 14.802545
_cell_angle_alpha 90.000000
_cell_angle_beta 141.285777
_cell_angle_gamma 90.000000
_cell_volume 2081.628213
_symmetry_space_group_name_H-M "C 2/M"
_symmetry_group_IT_number 12
_symmetry_cell_setting 'monoclinic'
loop_
_space_group_symop_operation_xyz
x,y,z
-x,y,-z
-x,-y,-z
x,-y,z
1/2+x,1/2+y,z
1/2-x,1/2+y,-z
1/2-x,1/2-y,-z
1/2+x,1/2-y,z
loop_
_atom_site_type_symbol
_atom_site_label
_atom_site_fract_x
_atom_site_fract_y
_atom_site_fract_z
Si Si1 0.065520 0.720019 0.041385
Si Si2 0.444305 0.707797 0.481811
Si Si3 0.279384 0.784789 0.646019
Si Si4 0.956270 0.281546 0.202542
Si Si5 0.795453 0.779418 0.300363
Si Si6 0.192860 0.714164 0.985166
O O1 0.066600 0.500000 0.042821
O O2 0.141573 0.780609 0.202354
O O3 0.052421 0.773455 0.915883
O O4 0.000000 0.775381 0.000000
O O5 0.500000 0.789992 0.500000
O O6 0.434938 0.500000 0.438600
O O7 0.477560 0.713869 0.634972
O O8 0.366522 0.788077 0.366784
O O9 0.250000 0.750000 0.500000
O O10 0.221435 0.719810 0.625767
O O11 0.283705 0.000000 0.663826
O O12 0.960312 0.500000 0.209995
O O13 0.886698 0.218247 0.146670
O O14 0.728337 0.724477 0.134422
O O15 0.799626 0.000000 0.306168
O O16 0.186059 0.500000 0.979747
O O17 0.250000 0.750000 0.000000
#
# Coordination Sequence:
#
# PCOD9185141 Si02
#       6
#     8   8   8   8   8   8
#     4   9  18  34  56  80 106 139 176 213 262 322
#     4  10  21  36  54  77 107 145 181 213 259 318
#     4  10  20  36  57  80 106 138 176 218 265 316
#     4  10  20  35  56  81 108 137 175 223 266 307
#     4   9  18  35  55  74 105 143 175 210 261 321
#     4  10  19  34  56  79 103 137 177 217 262 311
#
# _framework density 23.058872999999998
#
# number of rings (size 3 to 8) (size 9 to 14) (size 15 to 20)
#    0.000    2.333    1.667    1.000    2.333    2.333 
#    0.000    2.500    0.000    1.000    0.000    0.000 
#    0.000    0.000    0.000    0.000    0.000    0.000 
#
# Total GULP energy -134030.881757 kJ/mol
# GULP energy per Si atom -5584.620073 kJ/mol
# Density = 2.300639 g / cm^3
# Si number density = 23.058873 Si / 1000 Ang^3
#
#
#
# Elastic Constant Matrix: (Units=GPa)
#
#
# Indices 1 2 3 4 5 6 
#
# 1 101.4167 3.9965 -0.6886 0.0000 3.3313 0.0000
# 2 3.9965 74.8229 -3.5797 0.0000 5.7230 0.0000
# 3 -0.6886 -3.5797 63.5922 0.0000 4.4214 0.0000
# 4 0.0000 0.0000 0.0000 14.6862 0.0000 -11.4366
# 5 3.3313 5.7230 4.4214 0.0000 46.8813 0.0000
# 6 0.0000 0.0000 0.0000 -11.4366 0.0000 6.8093
#
#
#
# Elastic Compliance Matrix: (Units=1/GPa)
#
#
# Indices 1 2 3 4 5 6 
#
# 1 0.009901 -0.000473 0.000126 0.000000 -0.000658 0.000000
# 2 -0.000473 0.013562 0.000877 0.000000 -0.001705 0.000000
# 3 0.000126 0.000877 0.015888 0.000000 -0.001614 0.000000
# 4 0.000000 0.000000 0.000000 -0.221121 0.000000 -0.371388
# 5 -0.000658 -0.001705 -0.001614 0.000000 0.021738 0.000000
# 6 0.000000 0.000000 0.000000 -0.371388 0.000000 -0.476914
#
#
# Mechanical properties :
#
#
# Convention : Reuss Voigt Hill
#
# Bulk Modulus (GPa) = 24.74422 26.58757 25.66590
# Shear Modulus (GPa) = -8.00595 29.68225 10.83815
#
# Velocity S-wave (km/s) = -1.86534 3.59170 2.17035
# Velocity P-wave (km/s) = 2.47282 5.36244 4.17556
#
# Compressibility (1/GPa) = 0.04041347
#
# Stress axis : x y z
#
# Youngs Moduli (GPa) = 100.99585 73.73284 62.93986
#
# Poissons Ratio (x) = 0.03484 -0.00795
# Poissons Ratio (y) = 0.04772 -0.05519
# Poissons Ratio (z) = -0.01276 -0.06465
#
# Static dielectric constant tensor:
#      x y z
#    x 1.835930 0.000000 -0.055260 
#    y 0.000000 1.800510 0.000000 
#    z -0.055260 0.000000 1.796190 
# 
# From -- ./inp_files/153644.got.cif
#   From: 2010.05.17/outbox.cif.g08.bks.cpg/sg12_77_cif.got.tgz:153644.got - 2010.06.03 13:09:07.
