data_PCOD9185700
_publ_section_title
;
Structure prediction by ZEFSAII (Michael W. Deem and Ramdas Pophale) SiO2 
 PCOD9185700
Probable space group: C 2/M
;
_chemical_formula_sum "Si O2"
_cell_formula_units_Z 52
_cell_length_a 15.642692
_cell_length_b 9.101299
_cell_length_c 20.947416
_cell_angle_alpha 90.000000
_cell_angle_beta 125.859006
_cell_angle_gamma 90.000000
_cell_volume 2417.004392
_symmetry_space_group_name_H-M "C 2/M"
_symmetry_group_IT_number 12
_symmetry_cell_setting 'monoclinic'
loop_
_space_group_symop_operation_xyz
x,y,z
-x,y,-z
-x,-y,-z
x,-y,z
1/2+x,1/2+y,z
1/2-x,1/2+y,-z
1/2-x,1/2-y,-z
1/2+x,1/2-y,z
loop_
_atom_site_type_symbol
_atom_site_label
_atom_site_fract_x
_atom_site_fract_y
_atom_site_fract_z
Si Si1 0.394761 0.832911 0.999186
Si Si2 0.271495 0.330483 0.842338
Si Si3 0.995965 0.500000 0.573287
Si Si4 0.598325 0.715444 0.675101
Si Si5 0.898114 0.831918 0.668429
Si Si6 0.120211 0.000000 0.574310
Si Si7 0.017624 0.165502 0.152201
Si Si8 0.318447 0.000000 0.590605
O O1 0.308867 0.733477 0.926169
O O2 0.358426 0.000000 0.986251
O O3 0.500000 0.828047 0.000000
O O4 0.434089 0.774952 0.084463
O O5 0.237488 0.500000 0.832706
O O6 0.183114 0.236029 0.767912
O O7 0.374528 0.325376 0.841715
O O8 0.877233 0.500000 0.548814
O O9 0.000000 0.500000 0.500000
O O10 0.059252 0.366596 0.629942
O O11 0.492128 0.651762 0.658791
O O12 0.641909 0.632316 0.632498
O O13 0.848689 0.666419 0.632090
O O14 0.949958 0.811934 0.760834
O O15 0.845119 0.000000 0.646891
O O16 0.193573 0.000000 0.544767
O O17 0.000000 0.000000 0.500000
O O18 0.976118 0.000000 0.126195
#
# Coordination Sequence:
#
# PCOD9185700 Si02
#       8
#     8   8   4   8   8   4   8   4
#     4   9  18  30  49  82 123 164 212 270 329 387
#     4  10  19  34  57  87 118 165 219 268 327 398
#     4  10  22  46  72 102 134 174 221 275 337 413
#     4  11  22  41  67  92 133 171 216 276 339 400
#     4  10  21  41  67  97 134 177 226 276 331 402
#     4  12  26  46  68 103 139 172 218 280 344 412
#     4   9  18  33  55  84 124 166 218 275 324 384
#     4  10  24  44  74 101 136 184 226 273 343 405
#
# _framework density 21.514236
#
# number of rings (size 3 to 8) (size 9 to 14) (size 15 to 20)
#    0.000    2.000    1.538    1.846    2.154    1.846 
#    1.385    9.231    0.000    0.000    0.000    0.000 
#    0.000    0.000    0.000    0.000    0.000    0.000 
#
# Total GULP energy -144896.643484 kJ/mol
# GULP energy per Si atom -5572.947826 kJ/mol
# Density = 2.146527 g / cm^3
# Si number density = 21.514236 Si / 1000 Ang^3
#
#
#
# Elastic Constant Matrix: (Units=GPa)
#
#
# Indices 1 2 3 4 5 6 
#
# 1 65.0142 23.9148 20.1096 0.0000 -4.0995 0.0000
# 2 23.9148 126.3317 36.6480 0.0000 2.0002 0.0000
# 3 20.1096 36.6480 70.0854 0.0000 11.9140 0.0000
# 4 0.0000 0.0000 0.0000 -21.9599 0.0000 -38.6440
# 5 -4.0995 2.0002 11.9140 0.0000 23.2285 0.0000
# 6 0.0000 0.0000 0.0000 -38.6440 0.0000 -0.4027
#
#
#
# Elastic Compliance Matrix: (Units=1/GPa)
#
#
# Indices 1 2 3 4 5 6 
#
# 1 0.018101 -0.002026 -0.005157 0.000000 0.006014 0.000000
# 2 -0.002026 0.009632 -0.004660 0.000000 0.001203 0.000000
# 3 -0.005157 -0.004660 0.020016 0.000000 -0.010775 0.000000
# 4 0.000000 0.000000 0.000000 0.000271 0.000000 -0.026031
# 5 0.006014 0.001203 -0.010775 0.000000 0.049535 0.000000
# 6 0.000000 0.000000 0.000000 -0.026031 0.000000 0.014793
#
#
# Mechanical properties :
#
#
# Convention : Reuss Voigt Hill
#
# Bulk Modulus (GPa) = 41.55532 46.97511 44.26522
# Shear Modulus (GPa) = 34.70931 12.22379 23.46655
#
# Velocity S-wave (km/s) = 4.02097 2.38622 3.30623
# Velocity P-wave (km/s) = 6.39647 5.42899 5.93248
#
# Compressibility (1/GPa) = 0.02406431
#
# Stress axis : x y z
#
# Youngs Moduli (GPa) = 55.24674 103.82183 49.95938
#
# Poissons Ratio (x) = 0.21032 0.25762
# Poissons Ratio (y) = 0.11192 0.23280
# Poissons Ratio (z) = 0.28489 0.48379
#
# Static dielectric constant tensor:
#      x y z
#    x 1.802950 0.000000 -0.006730 
#    y 0.000000 1.729450 0.000000 
#    z -0.006730 0.000000 1.744890 
# 
# From -- ./inp_files/314947.got.cif
#   From: 2010.05.17/outbox.cif.g08.bks.cpg/sg12_158_cif.got.tgz:314947.got - 2010.06.03 13:09:07.
