data_PCOD9185827
_publ_section_title
;
Structure prediction by ZEFSAII (Michael W. Deem and Ramdas Pophale) SiO2 
 PCOD9185827
Probable space group: C 2/M
;
_chemical_formula_sum "Si O2"
_cell_formula_units_Z 40
_cell_length_a 15.750717
_cell_length_b 26.995122
_cell_length_c 10.109136
_cell_angle_alpha 90.000000
_cell_angle_beta 151.031761
_cell_angle_gamma 90.000000
_cell_volume 2081.787005
_symmetry_space_group_name_H-M "C 2/M"
_symmetry_group_IT_number 12
_symmetry_cell_setting 'monoclinic'
loop_
_space_group_symop_operation_xyz
x,y,z
-x,y,-z
-x,-y,-z
x,-y,z
1/2+x,1/2+y,z
1/2-x,1/2+y,-z
1/2-x,1/2-y,-z
1/2+x,1/2-y,z
loop_
_atom_site_type_symbol
_atom_site_label
_atom_site_fract_x
_atom_site_fract_y
_atom_site_fract_z
Si Si1 0.907358 0.299193 0.007655
Si Si2 0.192493 0.891572 0.825740
Si Si3 0.807188 0.000000 0.174393
Si Si4 0.205826 0.500000 0.737860
Si Si5 0.142239 0.287993 0.574972
Si Si6 0.794082 0.393254 0.261488
O O1 0.806170 0.345693 0.931959
O O2 0.777812 0.254777 0.793266
O O3 0.000000 0.315625 0.000000
O O4 0.043110 0.280027 0.302468
O O5 0.000000 0.888244 0.500000
O O6 0.271487 0.946123 0.898019
O O7 0.188972 0.889152 0.980454
O O8 0.000000 0.000000 0.500000
O O9 0.809971 0.000000 0.018714
O O10 0.242303 0.446737 0.722077
O O11 0.000000 0.500000 0.500000
O O12 0.228201 0.342784 0.688772
O O13 0.000000 0.288198 0.500000
O O14 0.000000 0.394744 0.500000
#
# Coordination Sequence:
#
# PCOD9185827 Si02
#       6
#     8   8   4   4   8   8
#     4  12  25  39  54  81 115 147 180 228 282 327
#     4  10  19  34  58  84 110 145 184 224 270 322
#     4   8  16  30  51  82 112 136 177 226 265 316
#     4   8  14  24  48  80 108 128 163 231 276 294
#     4  11  22  39  59  80 106 143 194 227 266 326
#     4   9  16  31  53  82 106 134 181 226 263 316
#
# _framework density 19.214261
#
# number of rings (size 3 to 8) (size 9 to 14) (size 15 to 20)
#    0.000    2.000    4.000    1.800    2.800    0.000 
#    0.000    0.500    0.000    0.000    0.000    0.700 
#    0.000    0.000    0.000    0.000    0.000    0.000 
#
# Total GULP energy -111450.144819 kJ/mol
# GULP energy per Si atom -5572.507241 kJ/mol
# Density = 1.917053 g / cm^3
# Si number density = 19.214261 Si / 1000 Ang^3
#
#
#
# Elastic Constant Matrix: (Units=GPa)
#
#
# Indices 1 2 3 4 5 6 
#
# 1 14.7971 10.0094 1.5496 0.0000 -9.7694 0.0000
# 2 10.0094 194.5538 32.3322 0.0000 8.9848 0.0000
# 3 1.5496 32.3322 137.7654 0.0000 -12.1007 0.0000
# 4 0.0000 0.0000 0.0000 59.1675 0.0000 -14.4660
# 5 -9.7694 8.9848 -12.1007 0.0000 12.5156 0.0000
# 6 0.0000 0.0000 0.0000 -14.4660 0.0000 0.7600
#
#
#
# Elastic Compliance Matrix: (Units=1/GPa)
#
#
# Indices 1 2 3 4 5 6 
#
# 1 0.223194 -0.025022 0.022121 0.000000 0.213570 0.000000
# 2 -0.025022 0.008527 -0.004342 0.000000 -0.029851 0.000000
# 3 0.022121 -0.004342 0.010731 0.000000 0.030759 0.000000
# 4 0.000000 0.000000 0.000000 -0.004626 0.000000 -0.088048
# 5 0.213570 -0.029851 0.030759 0.000000 0.297776 0.000001
# 6 0.000000 0.000000 0.000000 -0.088048 0.000001 -0.360125
#
#
# Mechanical properties :
#
#
# Convention : Reuss Voigt Hill
#
# Bulk Modulus (GPa) = 4.38662 48.32206 26.35434
# Shear Modulus (GPa) = 18.80039 34.70364 26.75202
#
# Velocity S-wave (km/s) = 3.13143 4.25448 3.73540
# Velocity P-wave (km/s) = 3.91949 7.02409 5.68772
#
# Compressibility (1/GPa) = 0.22796602
#
# Stress axis : x y z
#
# Youngs Moduli (GPa) = 4.48041 117.26847 93.19149
#
# Poissons Ratio (x) = 2.93430 -2.06148
# Poissons Ratio (y) = 0.11211 0.40462
# Poissons Ratio (z) = -0.09911 0.50916
#
# Static dielectric constant tensor:
#      x y z
#    x 1.523680 0.000000 0.047900 
#    y 0.000000 1.741450 0.000000 
#    z 0.047900 0.000000 1.653160 
# 
# From -- ./inp_files/68487.got.cif
#   From: 2010.05.17/outbox.cif.g08.bks.cpg/sg12_35_cif.got.tgz:68487.got - 2010.06.03 13:09:07.
