data_PCOD9185877
_publ_section_title
;
Structure prediction by ZEFSAII (Michael W. Deem and Ramdas Pophale) SiO2 
 PCOD9185877
Probable space group: C 2/M
;
_chemical_formula_sum "Si O2"
_cell_formula_units_Z 48
_cell_length_a 17.586846
_cell_length_b 16.233511
_cell_length_c 18.869796
_cell_angle_alpha 90.000000
_cell_angle_beta 155.519944
_cell_angle_gamma 90.000000
_cell_volume 2232.352188
_symmetry_space_group_name_H-M "C 2/M"
_symmetry_group_IT_number 12
_symmetry_cell_setting 'monoclinic'
loop_
_space_group_symop_operation_xyz
x,y,z
-x,y,-z
-x,-y,-z
x,-y,z
1/2+x,1/2+y,z
1/2-x,1/2+y,-z
1/2-x,1/2-y,-z
1/2+x,1/2-y,z
loop_
_atom_site_type_symbol
_atom_site_label
_atom_site_fract_x
_atom_site_fract_y
_atom_site_fract_z
Si Si1 0.371850 0.359995 0.158891
Si Si2 0.718419 0.089080 0.172560
Si Si3 0.699849 0.912498 0.634771
Si Si4 0.787772 0.407175 0.523286
Si Si5 0.287194 0.728116 0.805333
Si Si6 0.326539 0.168566 0.143461
O O1 0.585731 0.369439 0.359528
O O2 0.315345 0.265758 0.121139
O O3 0.259822 0.408135 0.123619
O O4 0.315367 0.378161 0.029363
O O5 0.789939 0.000000 0.260681
O O6 0.500000 0.088432 0.000000
O O7 0.792743 0.178364 0.263861
O O8 0.500000 0.914892 0.500000
O O9 0.686967 0.911737 0.539821
O O10 0.777491 0.825742 0.726494
O O11 0.794272 0.000000 0.735327
O O12 0.785802 0.500000 0.550809
O O13 0.968252 0.360174 0.702486
O O14 0.211225 0.668885 0.804141
O O15 0.500000 0.740253 0.000000
#
# Coordination Sequence:
#
# PCOD9185877 Si02
#       6
#     8   8   8   8   8   8
#     4  10  21  38  60  87 115 151 198 245 291 350
#     4   9  19  37  61  84 110 147 192 245 300 348
#     4  10  20  35  53  79 117 154 188 227 279 340
#     4  11  22  36  58  87 120 156 190 233 292 352
#     4  10  19  34  58  85 113 155 195 237 286 345
#     4  10  21  37  58  86 118 154 196 239 292 348
#
# _framework density 21.501984
#
# number of rings (size 3 to 8) (size 9 to 14) (size 15 to 20)
#    0.000    2.000    1.667    2.000    0.000    3.000 
#    0.000    0.000    0.000    0.500    0.000    0.000 
#    0.000    0.000    0.000    0.000    0.000    0.000 
#
# Total GULP energy -133603.862700 kJ/mol
# GULP energy per Si atom -5566.827612 kJ/mol
# Density = 2.145304 g / cm^3
# Si number density = 21.501984 Si / 1000 Ang^3
#
#
#
# Elastic Constant Matrix: (Units=GPa)
#
#
# Indices 1 2 3 4 5 6 
#
# 1 40.5245 -15.6333 -8.6280 -0.0159 15.8658 -0.0069
# 2 -15.6333 114.5109 6.2919 -0.0189 -17.2369 -0.0095
# 3 -8.6280 6.2919 45.0545 -0.0317 7.2166 -0.0125
# 4 -0.0159 -0.0189 -0.0317 14.4485 -0.0098 23.1494
# 5 15.8658 -17.2369 7.2166 -0.0098 25.7231 -0.0064
# 6 -0.0069 -0.0095 -0.0125 23.1494 -0.0064 12.1509
#
#
#
# Elastic Compliance Matrix: (Units=1/GPa)
#
#
# Indices 1 2 3 4 5 6 
#
# 1 0.037401 0.000605 0.011212 -0.000008 -0.025809 0.000036
# 2 0.000605 0.010002 -0.002402 0.000001 0.007003 0.000008
# 3 0.011212 -0.002402 0.027269 -0.000009 -0.016176 0.000042
# 4 -0.000008 0.000001 -0.000009 -0.033721 0.000012 0.064244
# 5 -0.025809 0.007003 -0.016176 0.000012 0.064025 -0.000014
# 6 0.000036 0.000008 0.000042 0.064244 -0.000014 -0.040097
#
#
# Mechanical properties :
#
#
# Convention : Reuss Voigt Hill
#
# Bulk Modulus (GPa) = 10.69509 18.23902 14.46706
# Shear Modulus (GPa) = 64.75334 25.00178 44.87756
#
# Velocity S-wave (km/s) = 5.49367 3.41363 4.57347
# Velocity P-wave (km/s) = 6.72498 4.90287 5.88487
#
# Compressibility (1/GPa) = 0.09350082
#
# Stress axis : x y z
#
# Youngs Moduli (GPa) = 26.73696 99.98489 36.67188
#
# Poissons Ratio (x) = -0.06051 -0.41116
# Poissons Ratio (y) = -0.01618 0.08810
# Poissons Ratio (z) = -0.29977 0.24021
#
# Static dielectric constant tensor:
#      x y z
#    x 1.840240 0.000000 -0.027750 
#    y 0.000000 1.868990 0.000000 
#    z -0.027750 0.000000 1.829890 
# 
# From -- ./inp_files/74612.got.cif
#   From: 2010.05.17/outbox.cif.g08.bks.cpg/sg12_38_cif.got.tgz:74612.got - 2010.06.03 13:09:07.
