data_PCOD9185572
_publ_section_title
;
Structure prediction by ZEFSAII (Michael W. Deem and Ramdas Pophale) SiO2 
 PCOD9185572
Probable space group: C 2/M
;
_chemical_formula_sum "Si O2"
_cell_formula_units_Z 52
_cell_length_a 8.412041
_cell_length_b 30.599580
_cell_length_c 15.239417
_cell_angle_alpha 90.000000
_cell_angle_beta 46.354963
_cell_angle_gamma 90.000000
_cell_volume 2838.582379
_symmetry_space_group_name_H-M "C 2/M"
_symmetry_group_IT_number 12
_symmetry_cell_setting 'monoclinic'
loop_
_space_group_symop_operation_xyz
x,y,z
-x,y,-z
-x,-y,-z
x,-y,z
1/2+x,1/2+y,z
1/2-x,1/2+y,-z
1/2-x,1/2-y,-z
1/2+x,1/2-y,z
loop_
_atom_site_type_symbol
_atom_site_label
_atom_site_fract_x
_atom_site_fract_y
_atom_site_fract_z
Si Si1 0.494746 0.794755 0.861089
Si Si2 0.631139 0.703642 0.137210
Si Si3 0.554988 0.887261 0.192357
Si Si4 0.340602 0.550389 0.974427
Si Si5 0.238638 0.451313 0.583651
Si Si6 0.500000 0.078842 0.500000
Si Si7 0.870632 0.884768 0.232981
O O1 0.502066 0.748832 0.808141
O O2 0.673747 0.792249 0.868448
O O3 0.535685 0.840043 0.797106
O O4 0.250626 0.798886 0.996667
O O5 0.500093 0.659386 0.203847
O O6 0.380942 0.915945 0.311216
O O7 0.754378 0.878620 0.183288
O O8 0.646887 0.916439 0.076913
O O9 0.277082 0.500000 0.980162
O O10 0.471518 0.573455 0.844734
O O11 0.500000 0.548475 0.000000
O O12 0.500000 0.447342 0.500000
O O13 0.172729 0.500000 0.637849
O O14 0.143365 0.445881 0.520684
O O15 0.317435 0.105387 0.624509
#
# Coordination Sequence:
#
# PCOD9185572 Si02
#       7
#     8   8   8   8   8   4   8
#     4  10  20  33  57  85 113 145 183 230 285 347
#     4  10  20  34  55  84 115 146 183 228 286 343
#     4  10  19  34  57  83 112 145 184 238 287 340
#     4   9  17  30  52  82 111 143 181 230 285 337
#     4  10  22  39  60  84 114 157 202 241 283 338
#     4  10  23  38  60  82 116 156 198 240 281 344
#     4  10  20  35  56  81 113 148 189 233 283 338
#
# _framework density 18.319004
#
# number of rings (size 3 to 8) (size 9 to 14) (size 15 to 20)
#    0.000    2.154    1.538    1.615    2.154    5.538 
#    0.000    0.000    1.692    3.692    0.000    0.000 
#    0.000    0.000    0.000    0.000    0.000    0.000 
#
# Total GULP energy -144890.812008 kJ/mol
# GULP energy per Si atom -5572.723539 kJ/mol
# Density = 1.827731 g / cm^3
# Si number density = 18.319004 Si / 1000 Ang^3
#
#
#
# Elastic Constant Matrix: (Units=GPa)
#
#
# Indices 1 2 3 4 5 6 
#
# 1 56.7474 46.0635 17.7326 0.0000 -6.5375 0.0000
# 2 46.0635 166.8911 47.2368 0.0000 -1.5756 0.0000
# 3 17.7326 47.2368 72.0007 0.0000 4.0015 0.0000
# 4 0.0000 0.0000 0.0000 8.9188 0.0000 -4.5426
# 5 -6.5375 -1.5756 4.0015 0.0000 14.6295 0.0000
# 6 0.0000 0.0000 0.0000 -4.5426 0.0000 22.3076
#
#
#
# Elastic Compliance Matrix: (Units=1/GPa)
#
#
# Indices 1 2 3 4 5 6 
#
# 1 0.024548 -0.005876 -0.002808 0.000000 0.011105 0.000000
# 2 -0.005876 0.008832 -0.004320 0.000000 -0.000493 0.000000
# 3 -0.002808 -0.004320 0.017780 0.000000 -0.006583 0.000000
# 4 0.000000 0.000000 0.000000 0.125098 0.000000 0.025474
# 5 0.011105 -0.000493 -0.006583 0.000000 0.075065 0.000000
# 6 0.000000 0.000000 0.000000 0.025474 0.000000 0.050015
#
#
# Mechanical properties :
#
#
# Convention : Reuss Voigt Hill
#
# Bulk Modulus (GPa) = 39.75663 57.52280 48.63972
# Shear Modulus (GPa) = 14.89291 21.47825 18.18558
#
# Velocity S-wave (km/s) = 2.85437 3.42783 3.15416
# Velocity P-wave (km/s) = 5.71075 6.86553 6.31459
#
# Compressibility (1/GPa) = 0.02515304
#
# Stress axis : x y z
#
# Youngs Moduli (GPa) = 40.73570 113.22841 56.24257
#
# Poissons Ratio (x) = 0.66533 0.15794
# Poissons Ratio (y) = 0.23936 0.24294
# Poissons Ratio (z) = 0.11439 0.48910
#
# Static dielectric constant tensor:
#      x y z
#    x 1.656690 0.000000 -0.002240 
#    y 0.000000 1.631940 0.000000 
#    z -0.002240 0.000000 1.623470 
# 
# From -- ./inp_files/201177.got.cif
#   From: 2010.05.17/outbox.cif.g08.bks.cpg/sg12_101_cif.got.tgz:201177.got - 2010.06.03 13:09:07.
