data_PCOD9185989
_publ_section_title
;
Structure prediction by ZEFSAII (Michael W. Deem and Ramdas Pophale) SiO2 
 PCOD9185989
Probable space group: C 2/M
;
_chemical_formula_sum "Si O2"
_cell_formula_units_Z 40
_cell_length_a 11.354123
_cell_length_b 13.553890
_cell_length_c 19.423898
_cell_angle_alpha 90.000000
_cell_angle_beta 137.760557
_cell_angle_gamma 90.000000
_cell_volume 2009.426353
_symmetry_space_group_name_H-M "C 2/M"
_symmetry_group_IT_number 12
_symmetry_cell_setting 'monoclinic'
loop_
_space_group_symop_operation_xyz
x,y,z
-x,y,-z
-x,-y,-z
x,-y,z
1/2+x,1/2+y,z
1/2-x,1/2+y,-z
1/2-x,1/2-y,-z
1/2+x,1/2-y,z
loop_
_atom_site_type_symbol
_atom_site_label
_atom_site_fract_x
_atom_site_fract_y
_atom_site_fract_z
Si Si1 0.995382 0.809873 0.920686
Si Si2 0.449351 0.259554 0.556850
Si Si3 0.451754 0.617472 0.271108
Si Si4 0.698133 0.886650 0.037732
Si Si5 0.742274 0.882885 0.703617
O O1 0.136860 0.873093 0.940373
O O2 0.816493 0.829632 0.803671
O O3 0.063194 0.696608 0.954213
O O4 0.000000 0.846183 0.000000
O O5 0.500000 0.291791 0.500000
O O6 0.250000 0.250000 0.500000
O O7 0.541594 0.330874 0.652552
O O8 0.547863 0.154591 0.605327
O O9 0.457684 0.500000 0.282495
O O10 0.284135 0.637477 0.149463
O O11 0.624624 0.645863 0.300864
O O12 0.637624 0.000000 0.009306
O O13 0.751578 0.000000 0.715826
#
# Coordination Sequence:
#
# PCOD9185989 Si02
#       5
#     8   8   8   8   8
#     4  10  19  34  58  88 123 159 207 253 294 360
#     4  12  24  41  66  95 124 158 208 269 317 363
#     4   9  19  39  63  89 124 166 208 251 309 378
#     4   9  19  35  58  88 124 165 202 245 308 370
#     4  10  22  40  62  87 122 170 212 249 310 385
#
# _framework density 19.906178000000001
#
# number of rings (size 3 to 8) (size 9 to 14) (size 15 to 20)
#    0.000    2.000    2.000    3.000    0.000    3.600 
#    0.000    1.000    0.000    0.000    0.000    0.000 
#    0.000    0.000    0.000    0.000    0.000    0.000 
#
# Total GULP energy -111515.835864 kJ/mol
# GULP energy per Si atom -5575.791793 kJ/mol
# Density = 1.986087 g / cm^3
# Si number density = 19.906178 Si / 1000 Ang^3
#
#
#
# Elastic Constant Matrix: (Units=GPa)
#
#
# Indices 1 2 3 4 5 6 
#
# 1 110.2000 29.8070 53.2823 0.0000 -11.2173 0.0000
# 2 29.8070 91.9387 50.2311 0.0000 -9.6055 0.0000
# 3 53.2823 50.2311 97.8174 0.0000 -25.8135 0.0000
# 4 0.0000 0.0000 0.0000 31.3265 0.0000 -2.7123
# 5 -11.2173 -9.6055 -25.8135 0.0000 50.8044 0.0000
# 6 0.0000 0.0000 0.0000 -2.7123 0.0000 11.9916
#
#
#
# Elastic Compliance Matrix: (Units=1/GPa)
#
#
# Indices 1 2 3 4 5 6 
#
# 1 0.012358 -0.000415 -0.006720 0.000000 -0.000764 0.000000
# 2 -0.000415 0.015202 -0.007906 0.000000 -0.001235 0.000000
# 3 -0.006720 -0.007906 0.019815 0.000000 0.007089 0.000000
# 4 0.000000 0.000000 0.000000 0.032559 0.000000 0.007364
# 5 -0.000764 -0.001235 0.007089 0.000000 0.022883 0.000000
# 6 0.000000 0.000000 0.000000 0.007364 0.000000 0.085058
#
#
# Mechanical properties :
#
#
# Convention : Reuss Voigt Hill
#
# Bulk Modulus (GPa) = 57.83099 62.95521 60.39310
# Shear Modulus (GPa) = 22.34920 29.93356 26.14138
#
# Velocity S-wave (km/s) = 3.35435 3.88201 3.62778
# Velocity P-wave (km/s) = 6.64207 7.19638 6.92477
#
# Compressibility (1/GPa) = 0.01729177
#
# Stress axis : x y z
#
# Youngs Moduli (GPa) = 80.91856 65.78098 50.46774
#
# Poissons Ratio (x) = 0.02728 0.33916
# Poissons Ratio (y) = 0.03356 0.39902
# Poissons Ratio (z) = 0.54380 0.52009
#
# Static dielectric constant tensor:
#      x y z
#    x 1.753020 0.000000 0.026760 
#    y 0.000000 1.677710 0.000000 
#    z 0.026760 0.000000 1.739480 
# 
# From -- ./inp_files/176337.got.cif
#   From: 2010.05.17/outbox.cif.g08.bks.cpg/sg12_89_cif.got.tgz:176337.got - 2010.06.03 13:09:07.
