data_PCOD9185814
_publ_section_title
;
Structure prediction by ZEFSAII (Michael W. Deem and Ramdas Pophale) SiO2 
 PCOD9185814
Probable space group: C 2/M
;
_chemical_formula_sum "Si O2"
_cell_formula_units_Z 64
_cell_length_a 29.248119
_cell_length_b 18.998868
_cell_length_c 19.088576
_cell_angle_alpha 90.000000
_cell_angle_beta 19.433995
_cell_angle_gamma 90.000000
_cell_volume 3529.222447
_symmetry_space_group_name_H-M "C 2/M"
_symmetry_group_IT_number 12
_symmetry_cell_setting 'monoclinic'
loop_
_space_group_symop_operation_xyz
x,y,z
-x,y,-z
-x,-y,-z
x,-y,z
1/2+x,1/2+y,z
1/2-x,1/2+y,-z
1/2-x,1/2-y,-z
1/2+x,1/2-y,z
loop_
_atom_site_type_symbol
_atom_site_label
_atom_site_fract_x
_atom_site_fract_y
_atom_site_fract_z
Si Si1 0.657407 0.294385 0.922245
Si Si2 0.161162 0.189882 0.594117
Si Si3 0.128391 0.790774 0.480961
Si Si4 0.844485 0.275523 0.926221
Si Si5 0.824328 0.417343 0.445149
Si Si6 0.129682 0.581083 0.037640
Si Si7 0.638588 0.583403 0.844477
Si Si8 0.915818 0.920803 0.549837
O O1 0.748299 0.243767 0.741532
O O2 0.670229 0.371702 0.868236
O O3 0.492777 0.289798 0.161857
O O4 0.692780 0.271209 0.950776
O O5 0.250000 0.250000 0.500000
O O6 0.176370 0.188133 0.488930
O O7 0.221534 0.119517 0.540346
O O8 0.066474 0.858424 0.530462
O O9 0.002060 0.737961 0.676553
O O10 0.830972 0.357961 0.964596
O O11 0.750000 0.250000 0.000000
O O12 0.819690 0.500000 0.439033
O O13 0.763297 0.403958 0.610478
O O14 0.984421 0.396330 0.213255
O O15 0.114098 0.500000 0.086884
O O16 0.254736 0.579284 0.802528
O O17 0.625970 0.500000 0.877353
O O18 0.500000 0.603781 0.000000
O O19 0.000000 0.907864 0.500000
O O20 0.953456 0.000000 0.471265
#
# Coordination Sequence:
#
# PCOD9185814 Si02
#       8
#     8   8   8   8   8   8   8   8
#     4  11  22  38  56  84 121 153 200 254 298 354
#     4  11  23  36  53  82 119 157 197 239 295 357
#     4  11  24  37  60  88 119 158 200 257 305 363
#     4  11  23  40  62  91 119 156 205 256 317 363
#     4  10  20  36  58  84 119 159 199 242 293 360
#     4  10  20  39  63  86 119 158 201 247 298 363
#     4  10  19  34  58  83 115 162 202 238 296 360
#     4  10  21  40  64  87 114 155 203 252 306 362
#
# _framework density 18.134305999999999
#
# number of rings (size 3 to 8) (size 9 to 14) (size 15 to 20)
#    0.000    1.500    2.500    3.750    0.000    0.500 
#    0.000    2.500    0.000    2.250    0.000    4.375 
#    0.000    0.000    0.000    0.000    0.000    0.000 
#
# Total GULP energy -178377.795327 kJ/mol
# GULP energy per Si atom -5574.306104 kJ/mol
# Density = 1.809303 g / cm^3
# Si number density = 18.134306 Si / 1000 Ang^3
#
#
#
# Elastic Constant Matrix: (Units=GPa)
#
#
# Indices 1 2 3 4 5 6 
#
# 1 98.1616 59.2136 23.4157 -0.0007 4.0010 0.0000
# 2 59.2136 75.4469 9.8647 -0.0029 5.6331 -0.0005
# 3 23.4157 9.8647 65.5745 -0.0023 9.9020 -0.0003
# 4 -0.0007 -0.0029 -0.0023 24.8227 0.0001 -2.4518
# 5 4.0010 5.6331 9.9020 0.0001 20.4609 0.0000
# 6 0.0000 -0.0005 -0.0003 -2.4518 0.0000 28.9442
#
#
#
# Elastic Compliance Matrix: (Units=1/GPa)
#
#
# Indices 1 2 3 4 5 6 
#
# 1 0.021057 -0.016022 -0.005559 -0.000002 0.002984 -0.000001
# 2 -0.016022 0.025879 0.002623 0.000003 -0.005261 0.000001
# 3 -0.005559 0.002623 0.018109 0.000002 -0.008399 0.000000
# 4 -0.000002 0.000003 0.000002 0.040626 -0.000002 0.003441
# 5 0.002984 -0.005261 -0.008399 -0.000002 0.053803 0.000000
# 6 -0.000001 0.000001 0.000000 0.003441 0.000000 0.034841
#
#
# Mechanical properties :
#
#
# Convention : Reuss Voigt Hill
#
# Bulk Modulus (GPa) = 36.86411 47.13012 41.99712
# Shear Modulus (GPa) = 20.72340 24.62484 22.67412
#
# Velocity S-wave (km/s) = 3.38416 3.68899 3.53986
# Velocity P-wave (km/s) = 5.97014 6.64761 6.31796
#
# Compressibility (1/GPa) = 0.02712665
#
# Stress axis : x y z
#
# Youngs Moduli (GPa) = 47.49099 38.64159 55.22218
#
# Poissons Ratio (x) = 0.61911 0.30700
# Poissons Ratio (y) = 0.76090 -0.14482
# Poissons Ratio (z) = 0.26402 -0.10134
#
# Static dielectric constant tensor:
#      x y z
#    x 1.631110 0.000000 0.024880 
#    y 0.000000 1.635880 0.000000 
#    z 0.024880 0.000000 1.614410 
# 
# From -- ./inp_files/294152.got.cif
#   From: 2010.05.17/outbox.cif.g08.bks.cpg/sg12_148_cif.got.tgz:294152.got - 2010.06.03 13:09:07.
