data_PCOD9185946
_publ_section_title
;
Structure prediction by ZEFSAII (Michael W. Deem and Ramdas Pophale) SiO2 
 PCOD9185946
Probable space group: C 2/M
;
_chemical_formula_sum "Si O2"
_cell_formula_units_Z 48
_cell_length_a 20.569034
_cell_length_b 18.127784
_cell_length_c 9.839345
_cell_angle_alpha 90.000000
_cell_angle_beta 130.586135
_cell_angle_gamma 90.000000
_cell_volume 2786.197165
_symmetry_space_group_name_H-M "C 2/M"
_symmetry_group_IT_number 12
_symmetry_cell_setting 'monoclinic'
loop_
_space_group_symop_operation_xyz
x,y,z
-x,y,-z
-x,-y,-z
x,-y,z
1/2+x,1/2+y,z
1/2-x,1/2+y,-z
1/2-x,1/2-y,-z
1/2+x,1/2-y,z
loop_
_atom_site_type_symbol
_atom_site_label
_atom_site_fract_x
_atom_site_fract_y
_atom_site_fract_z
Si Si1 0.864559 0.412488 0.513329
Si Si2 0.718378 0.164208 0.108155
Si Si3 0.536974 0.912301 0.898605
Si Si4 0.098172 0.910955 0.139699
Si Si5 0.221123 0.912646 0.545293
Si Si6 0.262768 0.340006 0.863370
O O1 0.858549 0.500000 0.472699
O O2 0.805204 0.400543 0.565940
O O3 0.821310 0.366475 0.334029
O O4 0.961470 0.395758 0.688356
O O5 0.770471 0.129603 0.303425
O O6 0.724619 0.252301 0.127761
O O7 0.621370 0.135109 0.989804
O O8 0.753175 0.140537 0.008272
O O9 0.557474 0.000000 0.916994
O O10 0.500000 0.900168 0.000000
O O11 0.142283 0.889867 0.342398
O O12 0.157249 0.878525 0.101626
O O13 0.101904 0.000000 0.136061
O O14 0.000000 0.887307 0.000000
O O15 0.215836 0.000000 0.564147
#
# Coordination Sequence:
#
# PCOD9185946 Si02
#       6
#     8   8   8   8   8   8
#     4   9  18  35  58  83 109 141 182 228 270 320
#     4  11  22  36  52  79 117 149 176 216 269 327
#     4  10  19  34  58  87 113 137 180 230 270 322
#     4   9  19  38  60  80 102 134 184 234 267 310
#     4   9  17  33  58  82 105 138 179 222 269 317
#     4  10  23  38  51  77 115 149 181 216 269 327
#
# _framework density 17.227782999999999
#
# number of rings (size 3 to 8) (size 9 to 14) (size 15 to 20)
#    0.000    2.333    1.667    2.000    0.000    6.667 
#    3.000    2.500    0.000    3.000    0.000    0.000 
#    0.000    0.000    0.000    0.000    0.000    0.000 
#
# Total GULP energy -133907.135835 kJ/mol
# GULP energy per Si atom -5579.463993 kJ/mol
# Density = 1.718857 g / cm^3
# Si number density = 17.227783 Si / 1000 Ang^3
#
#
#
# Elastic Constant Matrix: (Units=GPa)
#
#
# Indices 1 2 3 4 5 6 
#
# 1 88.8319 46.4198 92.6337 0.0000 -1.0163 0.0000
# 2 46.4198 43.6136 64.2710 0.0000 -5.0349 0.0000
# 3 92.6337 64.2710 156.0764 0.0000 -0.5697 0.0000
# 4 0.0000 0.0000 0.0000 25.6659 0.0000 -5.1143
# 5 -1.0163 -5.0349 -0.5697 0.0000 31.3091 0.0000
# 6 0.0000 0.0000 0.0000 -5.1143 0.0000 28.0476
#
#
#
# Elastic Compliance Matrix: (Units=1/GPa)
#
#
# Indices 1 2 3 4 5 6 
#
# 1 0.033590 -0.016722 -0.013057 0.000000 -0.001836 0.000000
# 2 -0.016722 0.069258 -0.018558 0.000000 0.010257 0.000000
# 3 -0.013057 -0.018558 0.021788 0.000000 -0.003012 0.000000
# 4 0.000000 0.000000 0.000000 0.040431 0.000000 0.007372
# 5 -0.001836 0.010257 -0.003012 0.000000 0.033475 0.000000
# 6 0.000000 0.000000 0.000000 0.007372 0.000000 0.036998
#
#
# Mechanical properties :
#
#
# Convention : Reuss Voigt Hill
#
# Bulk Modulus (GPa) = 35.76226 77.24120 56.50173
# Shear Modulus (GPa) = 14.63980 22.68434 18.66207
#
# Velocity S-wave (km/s) = 2.91826 3.63261 3.29485
# Velocity P-wave (km/s) = 5.67085 7.90741 6.88061
#
# Compressibility (1/GPa) = 0.02796244
#
# Stress axis : x y z
#
# Youngs Moduli (GPa) = 29.77051 14.43870 45.89770
#
# Poissons Ratio (x) = 0.24145 0.59929
# Poissons Ratio (y) = 0.49783 0.85176
# Poissons Ratio (z) = 0.38871 0.26795
#
# Static dielectric constant tensor:
#      x y z
#    x 1.562720 0.000000 0.007160 
#    y 0.000000 1.571330 0.000000 
#    z 0.007160 0.000000 1.590290 
# 
# From -- ./inp_files/75056.got.cif
#   From: 2010.05.17/outbox.cif.g08.bks.cpg/sg12_38_cif.got.tgz:75056.got - 2010.06.03 13:09:07.
