data_PCOD9185177
_publ_section_title
;
Structure prediction by ZEFSAII (Michael W. Deem and Ramdas Pophale) SiO2 
 PCOD9185177
Probable space group: C 2/M
;
_chemical_formula_sum "Si O2"
_cell_formula_units_Z 64
_cell_length_a 14.593246
_cell_length_b 8.748931
_cell_length_c 30.468808
_cell_angle_alpha 90.000000
_cell_angle_beta 117.606950
_cell_angle_gamma 90.000000
_cell_volume 3447.214550
_symmetry_space_group_name_H-M "C 2/M"
_symmetry_group_IT_number 12
_symmetry_cell_setting 'monoclinic'
loop_
_space_group_symop_operation_xyz
x,y,z
-x,y,-z
-x,-y,-z
x,-y,z
1/2+x,1/2+y,z
1/2-x,1/2+y,-z
1/2-x,1/2-y,-z
1/2+x,1/2-y,z
loop_
_atom_site_type_symbol
_atom_site_label
_atom_site_fract_x
_atom_site_fract_y
_atom_site_fract_z
Si Si1 0.541143 0.314729 0.288217
Si Si2 0.254340 0.315700 0.364998
Si Si3 0.050361 0.815948 0.908165
Si Si4 0.193374 0.815960 0.445117
Si Si5 0.533029 0.685001 0.632266
Si Si6 0.390689 0.315869 0.176678
Si Si7 0.820045 0.818284 0.886978
Si Si8 0.879448 0.674891 0.989032
O O1 0.551321 0.500000 0.290354
O O2 0.654614 0.242409 0.316048
O O3 0.483128 0.270206 0.320575
O O4 0.473703 0.267655 0.231419
O O5 0.253218 0.500000 0.366913
O O6 0.242748 0.248078 0.411259
O O7 0.360940 0.262738 0.366165
O O8 0.078910 0.765483 0.865678
O O9 0.931176 0.773341 0.891747
O O10 0.057687 0.000000 0.912148
O O11 0.119364 0.747708 0.962587
O O12 0.250000 0.750000 0.500000
O O13 0.071967 0.770318 0.416280
O O14 0.198758 0.000000 0.446066
O O15 0.536078 0.500000 0.632476
O O16 0.388270 0.500000 0.176354
O O17 0.275942 0.254680 0.159454
O O18 0.820056 0.762839 0.937517
O O19 0.812576 0.000000 0.884099
O O20 0.844145 0.500000 0.982573
O O21 0.000000 0.677472 0.000000
#
# Coordination Sequence:
#
# PCOD9185177 Si02
#       8
#     8   8   8   8   8   8   8   8
#     4   9  19  37  55  74 103 138 173 215 263 308
#     4  10  19  34  56  80 104 138 181 219 257 305
#     4   9  19  35  52  73 102 134 165 205 259 311
#     4  10  20  36  55  80 115 149 179 216 259 304
#     4   8  17  34  55  76 104 142 178 211 258 311
#     4  10  21  36  54  75 102 135 171 209 256 313
#     4  10  20  34  52  74 102 132 165 208 258 309
#     4   9  17  31  52  75  98 128 167 207 249 306
#
# _framework density 18.565712999999999
#
# number of rings (size 3 to 8) (size 9 to 14) (size 15 to 20)
#    0.000    2.625    0.000    2.250    0.000    5.000 
#    0.000    8.750    0.000    0.000    0.000    0.000 
#    0.000    0.000    0.000    0.000    0.000    0.000 
#
# Total GULP energy -178581.545690 kJ/mol
# GULP energy per Si atom -5580.673303 kJ/mol
# Density = 1.852346 g / cm^3
# Si number density = 18.565713 Si / 1000 Ang^3
#
#
#
# Elastic Constant Matrix: (Units=GPa)
#
#
# Indices 1 2 3 4 5 6 
#
# 1 124.2107 22.1732 56.0301 0.0000 14.1843 0.0000
# 2 22.1732 27.6012 25.1450 0.0000 3.3425 0.0000
# 3 56.0301 25.1450 127.9077 0.0000 17.2960 0.0000
# 4 0.0000 0.0000 0.0000 30.5290 0.0000 5.1576
# 5 14.1843 3.3425 17.2960 0.0000 12.8635 0.0000
# 6 0.0000 0.0000 0.0000 5.1576 0.0000 22.6891
#
#
#
# Elastic Compliance Matrix: (Units=1/GPa)
#
#
# Indices 1 2 3 4 5 6 
#
# 1 0.011113 -0.005491 -0.002841 0.000000 -0.007007 0.000000
# 2 -0.005491 0.046848 -0.007305 0.000000 0.003704 0.000000
# 3 -0.002841 -0.007305 0.012000 0.000000 -0.011105 0.000000
# 4 0.000000 0.000000 0.000000 0.034064 0.000000 -0.007743
# 5 -0.007007 0.003704 -0.011105 0.000000 0.099435 0.000000
# 6 0.000000 0.000000 0.000000 -0.007743 0.000000 0.045834
#
#
# Mechanical properties :
#
#
# Convention : Reuss Voigt Hill
#
# Bulk Modulus (GPa) = 25.84847 54.04625 39.94736
# Shear Modulus (GPa) = 17.03790 24.97439 21.00615
#
# Velocity S-wave (km/s) = 3.03266 3.67166 3.36735
# Velocity P-wave (km/s) = 5.12012 6.86650 6.05658
#
# Compressibility (1/GPa) = 0.03868701
#
# Stress axis : x y z
#
# Youngs Moduli (GPa) = 89.98716 21.34566 83.33048
#
# Poissons Ratio (x) = 0.11720 0.23675
# Poissons Ratio (y) = 0.49408 0.60877
# Poissons Ratio (z) = 0.25566 0.15594
#
# Static dielectric constant tensor:
#      x y z
#    x 1.662780 0.000000 0.005270 
#    y 0.000000 1.627360 0.000000 
#    z 0.005270 0.000000 1.614700 
# 
# From -- ./inp_files/375102.got.cif
#   From: 2010.05.17/outbox.cif.g08.bks.cpg/sg12_188_cif.got.tgz:375102.got - 2010.06.03 13:09:07.
