data_PCOD9185933
_publ_section_title
;
Structure prediction by ZEFSAII (Michael W. Deem and Ramdas Pophale) SiO2 
 PCOD9185933
Probable space group: C 2/M
;
_chemical_formula_sum "Si O2"
_cell_formula_units_Z 64
_cell_length_a 15.025636
_cell_length_b 7.795457
_cell_length_c 30.720043
_cell_angle_alpha 90.000000
_cell_angle_beta 45.814013
_cell_angle_gamma 90.000000
_cell_volume 2580.266332
_symmetry_space_group_name_H-M "C 2/M"
_symmetry_group_IT_number 12
_symmetry_cell_setting 'monoclinic'
loop_
_space_group_symop_operation_xyz
x,y,z
-x,y,-z
-x,-y,-z
x,-y,z
1/2+x,1/2+y,z
1/2-x,1/2+y,-z
1/2-x,1/2-y,-z
1/2+x,1/2-y,z
loop_
_atom_site_type_symbol
_atom_site_label
_atom_site_fract_x
_atom_site_fract_y
_atom_site_fract_z
Si Si1 0.511895 0.304563 0.272456
Si Si2 0.631139 0.208161 0.351889
Si Si3 0.516885 0.197682 0.041665
Si Si4 0.862359 0.704482 0.555130
Si Si5 0.751197 0.296038 0.863446
Si Si6 0.625852 0.202026 0.764761
Si Si7 0.882555 0.692974 0.402583
Si Si8 0.103807 0.708861 0.099878
O O1 0.523899 0.500000 0.283618
O O2 0.640077 0.239489 0.208049
O O3 0.419944 0.299003 0.262570
O O4 0.451293 0.198740 0.332091
O O5 0.677000 0.266970 0.383581
O O6 0.727646 0.267702 0.282321
O O7 0.490411 0.273580 0.395061
O O8 0.628388 0.000000 0.350609
O O9 0.374720 0.201965 0.106278
O O10 0.603478 0.273496 0.050152
O O11 0.556467 0.000000 0.021587
O O12 0.500000 0.282184 0.000000
O O13 0.873521 0.500000 0.554917
O O14 0.754080 0.735023 0.557574
O O15 0.000000 0.773378 0.500000
O O16 0.729916 0.500000 0.872306
O O17 0.799195 0.238963 0.895507
O O18 0.531611 0.256725 0.834537
O O19 0.603464 0.000000 0.765700
O O20 0.865360 0.500000 0.423865
O O21 0.109677 0.500000 0.095851
#
# Coordination Sequence:
#
# PCOD9185933 Si02
#       8
#     8   8   8   8   8   8   8   8
#     4  11  21  36  59  86 119 155 193 240 301 356
#     4  10  22  38  57  86 122 156 193 240 290 346
#     4  10  21  38  59  84 115 154 198 240 285 347
#     4  10  22  42  64  85 116 160 202 243 292 345
#     4  10  21  38  58  83 115 152 193 241 294 348
#     4  10  19  34  58  86 118 154 194 239 292 351
#     4  11  23  38  58  89 122 155 198 243 291 344
#     4   8  18  36  55  80 115 152 188 232 289 345
#
# _framework density 24.803640000000001
#
# number of rings (size 3 to 8) (size 9 to 14) (size 15 to 20)
#    0.000    2.000    1.250    3.000    1.750    2.500 
#    0.000    3.125    0.000    0.000    0.000    0.000 
#    0.000    0.000    0.000    0.000    0.000    0.000 
#
# Total GULP energy -178792.256540 kJ/mol
# GULP energy per Si atom -5587.258017 kJ/mol
# Density = 2.474719 g / cm^3
# Si number density = 24.803640 Si / 1000 Ang^3
#
#
#
# Elastic Constant Matrix: (Units=GPa)
#
#
# Indices 1 2 3 4 5 6 
#
# 1 107.6192 -0.8638 14.7954 -0.0009 -7.6956 -0.0025
# 2 -0.8638 58.4507 -2.3792 -0.0039 0.4087 -0.0074
# 3 14.7954 -2.3792 43.0959 -0.0001 -13.0224 -0.0004
# 4 -0.0009 -0.0039 -0.0001 15.9305 -0.0003 -7.9190
# 5 -7.6956 0.4087 -13.0224 -0.0003 37.5520 -0.0010
# 6 -0.0025 -0.0074 -0.0004 -7.9190 -0.0010 17.3445
#
#
#
# Elastic Compliance Matrix: (Units=1/GPa)
#
#
# Indices 1 2 3 4 5 6 
#
# 1 0.009782 0.000013 -0.003074 0.000002 0.000938 0.000002
# 2 0.000013 0.017148 0.000990 0.000010 0.000159 0.000012
# 3 -0.003074 0.000990 0.026944 0.000001 0.008703 0.000002
# 4 0.000002 0.000010 0.000001 0.081202 0.000002 0.037074
# 5 0.000938 0.000159 0.008703 0.000002 0.029838 0.000003
# 6 0.000002 0.000012 0.000002 0.037074 0.000003 0.074582
#
#
# Mechanical properties :
#
#
# Convention : Reuss Voigt Hill
#
# Bulk Modulus (GPa) = 20.10764 25.80784 22.95774
# Shear Modulus (GPa) = 19.21489 27.33963 23.27726
#
# Velocity S-wave (km/s) = 2.78633 3.32361 3.06676
# Velocity P-wave (km/s) = 4.29835 5.01557 4.67075
#
# Compressibility (1/GPa) = 0.04973234
#
# Stress axis : x y z
#
# Youngs Moduli (GPa) = 102.23031 58.31638 37.11414
#
# Poissons Ratio (x) = -0.00075 0.11409
# Poissons Ratio (y) = -0.00132 -0.03676
# Poissons Ratio (z) = 0.31425 -0.05776
#
# Static dielectric constant tensor:
#      x y z
#    x 1.995940 0.000000 0.004930 
#    y 0.000000 1.900760 0.000000 
#    z 0.004930 0.000000 2.012430 
# 
# From -- ./inp_files/375402.got.cif
#   From: 2010.05.17/outbox.cif.g08.bks.cpg/sg12_188_cif.got.tgz:375402.got - 2010.06.03 13:09:07.
