data_PCOD9185311
_publ_section_title
;
Structure prediction by ZEFSAII (Michael W. Deem and Ramdas Pophale) SiO2 
 PCOD9185311
Probable space group: C 2/M
;
_chemical_formula_sum "Si O2"
_cell_formula_units_Z 56
_cell_length_a 29.319478
_cell_length_b 8.665896
_cell_length_c 19.387424
_cell_angle_alpha 90.000000
_cell_angle_beta 144.317692
_cell_angle_gamma 90.000000
_cell_volume 2873.258252
_symmetry_space_group_name_H-M "C 2/M"
_symmetry_group_IT_number 12
_symmetry_cell_setting 'monoclinic'
loop_
_space_group_symop_operation_xyz
x,y,z
-x,y,-z
-x,-y,-z
x,-y,z
1/2+x,1/2+y,z
1/2-x,1/2+y,-z
1/2-x,1/2-y,-z
1/2+x,1/2-y,z
loop_
_atom_site_type_symbol
_atom_site_label
_atom_site_fract_x
_atom_site_fract_y
_atom_site_fract_z
Si Si1 0.528805 0.319492 0.745553
Si Si2 0.630367 0.815364 0.410913
Si Si3 0.077799 0.820249 0.966558
Si Si4 0.313927 0.313083 0.132116
Si Si5 0.234874 0.183882 0.324713
Si Si6 0.415691 0.815006 0.799842
Si Si7 0.246676 0.317087 0.196658
O O1 0.514955 0.500000 0.713794
O O2 0.446891 0.232216 0.642046
O O3 0.558238 0.308562 0.860940
O O4 0.599648 0.262387 0.785018
O O5 0.708172 0.757935 0.544293
O O6 0.616860 0.762755 0.315688
O O7 0.635011 0.000000 0.414448
O O8 0.001469 0.757400 0.911925
O O9 0.091679 0.000000 0.000444
O O10 0.155493 0.723335 0.074309
O O11 0.312055 0.500000 0.125761
O O12 0.291013 0.267758 0.181501
O O13 0.250000 0.250000 0.000000
O O14 0.149463 0.258393 0.227246
O O15 0.271228 0.230851 0.296258
O O16 0.227267 0.000000 0.320106
O O17 0.422126 0.000000 0.808959
O O18 0.256552 0.500000 0.217513
#
# Coordination Sequence:
#
# PCOD9185311 Si02
#       7
#     8   8   8   8   8   8   8
#     4   9  18  33  56  85 112 140 179 226 274 324
#     4   9  20  37  58  83 110 143 184 229 273 323
#     4  10  19  34  56  83 114 145 181 225 276 329
#     4  10  20  35  57  85 113 143 182 225 273 328
#     4  11  23  39  56  78 111 149 188 227 273 328
#     4  10  20  36  59  85 111 140 183 231 277 327
#     4  11  23  37  55  81 114 149 185 226 275 328
#
# _framework density 19.490068999999998
#
# number of rings (size 3 to 8) (size 9 to 14) (size 15 to 20)
#    0.000    2.000    1.429    2.143    0.000    4.000 
#    0.000    3.571    0.000    4.286    0.000    0.000 
#    0.000    0.000    0.000    0.000    0.000    0.000 
#
# Total GULP energy -156392.712363 kJ/mol
# GULP energy per Si atom -5585.454013 kJ/mol
# Density = 1.944571 g / cm^3
# Si number density = 19.490069 Si / 1000 Ang^3
#
#
#
# Elastic Constant Matrix: (Units=GPa)
#
#
# Indices 1 2 3 4 5 6 
#
# 1 114.7804 8.6030 8.6155 0.0000 15.6828 0.0000
# 2 8.6030 14.6791 -5.2663 0.0000 -1.6431 0.0000
# 3 8.6155 -5.2663 21.8855 0.0000 12.1100 0.0000
# 4 0.0000 0.0000 0.0000 25.2378 0.0000 2.3661
# 5 15.6828 -1.6431 12.1100 0.0000 24.4473 0.0000
# 6 0.0000 0.0000 0.0000 2.3661 0.0000 26.9602
#
#
#
# Elastic Compliance Matrix: (Units=1/GPa)
#
#
# Indices 1 2 3 4 5 6 
#
# 1 0.010275 -0.007632 -0.002687 0.000000 -0.005773 0.000000
# 2 -0.007632 0.080739 0.023035 0.000000 -0.001088 0.000000
# 3 -0.002687 0.023035 0.069544 0.000000 -0.031177 0.000000
# 4 0.000000 0.000000 0.000000 0.039952 0.000000 -0.003506
# 5 -0.005773 -0.001088 -0.031177 0.000000 0.059978 0.000000
# 6 0.000000 0.000000 0.000000 -0.003506 0.000000 0.037399
#
#
# Mechanical properties :
#
#
# Convention : Reuss Voigt Hill
#
# Bulk Modulus (GPa) = 5.37662 19.47213 12.42437
# Shear Modulus (GPa) = 14.94984 24.62193 19.78589
#
# Velocity S-wave (km/s) = 2.77257 3.55816 3.18964
# Velocity P-wave (km/s) = 3.60751 5.18586 4.46695
#
# Compressibility (1/GPa) = 0.18599051
#
# Stress axis : x y z
#
# Youngs Moduli (GPa) = 97.32554 12.38554 14.37939
#
# Poissons Ratio (x) = 0.09452 0.03863
# Poissons Ratio (y) = 0.74278 -0.33123
# Poissons Ratio (z) = 0.26149 -0.28530
#
# Static dielectric constant tensor:
#      x y z
#    x 1.697650 0.000000 -0.026060 
#    y 0.000000 1.663370 0.000000 
#    z -0.026060 0.000000 1.682570 
# 
# From -- ./inp_files/288195.got.cif
#   From: 2010.05.17/outbox.cif.g08.bks.cpg/sg12_145_cif.got.tgz:288195.got - 2010.06.03 13:09:07.
