data_PCOD9185587
_publ_section_title
;
Structure prediction by ZEFSAII (Michael W. Deem and Ramdas Pophale) SiO2 
 PCOD9185587
Probable space group: C 2/M
;
_chemical_formula_sum "Si O2"
_cell_formula_units_Z 64
_cell_length_a 29.398495
_cell_length_b 7.636273
_cell_length_c 22.194654
_cell_angle_alpha 90.000000
_cell_angle_beta 150.194221
_cell_angle_gamma 90.000000
_cell_volume 2476.652273
_symmetry_space_group_name_H-M "C 2/M"
_symmetry_group_IT_number 12
_symmetry_cell_setting 'monoclinic'
loop_
_space_group_symop_operation_xyz
x,y,z
-x,y,-z
-x,-y,-z
x,-y,z
1/2+x,1/2+y,z
1/2-x,1/2+y,-z
1/2-x,1/2-y,-z
1/2+x,1/2-y,z
loop_
_atom_site_type_symbol
_atom_site_label
_atom_site_fract_x
_atom_site_fract_y
_atom_site_fract_z
Si Si1 0.383872 0.702056 0.481542
Si Si2 0.891532 0.289250 0.871485
Si Si3 0.060305 0.206700 0.263237
Si Si4 0.896750 0.298701 0.368945
Si Si5 0.549700 0.284716 0.748111
Si Si6 0.883945 0.287608 0.994984
Si Si7 0.719705 0.299002 0.878376
Si Si8 0.722343 0.299576 0.375539
O O1 0.391331 0.500000 0.474106
O O2 0.351998 0.792854 0.384006
O O3 0.482378 0.767448 0.616459
O O4 0.315597 0.714203 0.459843
O O5 0.879004 0.500000 0.850600
O O6 0.854413 0.234367 0.894260
O O7 0.841438 0.205948 0.757436
O O8 0.000000 0.255939 0.000000
O O9 0.158165 0.279111 0.354344
O O10 0.003582 0.279879 0.254341
O O11 0.074272 0.000000 0.289921
O O12 0.986863 0.229397 0.125632
O O13 0.903186 0.500000 0.356880
O O14 0.839927 0.202034 0.252200
O O15 0.000000 0.230921 0.500000
O O16 0.551921 0.500000 0.752286
O O17 0.651972 0.222651 0.850958
O O18 0.882277 0.500000 0.994409
O O19 0.815580 0.217378 0.967858
O O20 0.737082 0.500000 0.914971
O O21 0.743339 0.500000 0.414259
#
# Coordination Sequence:
#
# PCOD9185587 Si02
#       8
#     8   8   8   8   8   8   8   8
#     4  11  22  38  62  85 112 154 198 235 280 342
#     4  10  19  34  57  83 115 150 187 232 283 347
#     4  10  22  40  59  80 113 154 192 237 292 346
#     4  11  22  36  58  90 125 151 181 233 292 343
#     4   9  20  39  60  82 110 151 200 238 278 340
#     4  10  21  36  57  86 114 144 188 239 285 336
#     4  10  20  37  61  86 115 154 196 234 276 339
#     4  11  23  37  57  86 118 149 188 240 299 349
#
# _framework density 25.841334
#
# number of rings (size 3 to 8) (size 9 to 14) (size 15 to 20)
#    0.000    1.750    2.500    1.875    0.000    4.250 
#    0.000    1.875    0.000    0.000    0.000    0.000 
#    0.000    0.000    0.000    0.000    0.000    0.000 
#
# Total GULP energy -179036.805349 kJ/mol
# GULP energy per Si atom -5594.900167 kJ/mol
# Density = 2.578252 g / cm^3
# Si number density = 25.841334 Si / 1000 Ang^3
#
#
#
# Elastic Constant Matrix: (Units=GPa)
#
#
# Indices 1 2 3 4 5 6 
#
# 1 167.0803 11.9538 13.2061 0.0000 28.3519 0.0000
# 2 11.9538 71.2980 4.6801 0.0000 2.1088 0.0000
# 3 13.2061 4.6801 78.6022 0.0000 18.4856 0.0000
# 4 0.0000 0.0000 0.0000 7.8503 0.0000 3.5951
# 5 28.3519 2.1088 18.4856 0.0000 49.3131 0.0000
# 6 0.0000 0.0000 0.0000 3.5951 0.0000 10.7625
#
#
#
# Elastic Compliance Matrix: (Units=1/GPa)
#
#
# Indices 1 2 3 4 5 6 
#
# 1 0.006707 -0.001001 -0.000187 0.000000 -0.003743 0.000000
# 2 -0.001001 0.014235 -0.000736 0.000000 0.000243 0.000000
# 3 -0.000187 -0.000736 0.013999 0.000000 -0.005109 0.000000
# 4 0.000000 0.000000 0.000000 0.150389 0.000000 -0.050236
# 5 -0.003743 0.000243 -0.005109 0.000000 0.024335 0.000000
# 6 0.000000 0.000000 0.000000 -0.050236 0.000000 0.109696
#
#
# Mechanical properties :
#
#
# Convention : Reuss Voigt Hill
#
# Bulk Modulus (GPa) = 32.16389 41.85117 37.00753
# Shear Modulus (GPa) = 14.98918 32.72787 23.85852
#
# Velocity S-wave (km/s) = 2.41103 3.56264 3.04183
# Velocity P-wave (km/s) = 4.49716 5.75794 5.16615
#
# Compressibility (1/GPa) = 0.03109076
#
# Stress axis : x y z
#
# Youngs Moduli (GPa) = 149.10397 70.25083 71.43361
#
# Poissons Ratio (x) = 0.07035 0.01335
# Poissons Ratio (y) = 0.14932 0.05261
# Poissons Ratio (z) = 0.02787 0.05174
#
# Static dielectric constant tensor:
#      x y z
#    x 2.114520 0.000000 0.003750 
#    y 0.000000 1.938000 0.000000 
#    z 0.003750 0.000000 2.003050 
# 
# From -- ./inp_files/353438.got.cif
#   From: 2010.05.17/outbox.cif.g08.bks.cpg/sg12_177_cif.got.tgz:353438.got - 2010.06.03 13:09:07.
