data_PCOD9185924
_publ_section_title
;
Structure prediction by ZEFSAII (Michael W. Deem and Ramdas Pophale) SiO2 
 PCOD9185924
Probable space group: C 2/M
;
_chemical_formula_sum "Si O2"
_cell_formula_units_Z 56
_cell_length_a 29.751407
_cell_length_b 8.529180
_cell_length_c 11.574073
_cell_angle_alpha 90.000000
_cell_angle_beta 105.883679
_cell_angle_gamma 90.000000
_cell_volume 2824.844186
_symmetry_space_group_name_H-M "C 2/M"
_symmetry_group_IT_number 12
_symmetry_cell_setting 'monoclinic'
loop_
_space_group_symop_operation_xyz
x,y,z
-x,y,-z
-x,-y,-z
x,-y,z
1/2+x,1/2+y,z
1/2-x,1/2+y,-z
1/2-x,1/2-y,-z
1/2+x,1/2-y,z
loop_
_atom_site_type_symbol
_atom_site_label
_atom_site_fract_x
_atom_site_fract_y
_atom_site_fract_z
Si Si1 0.189147 0.809777 0.239798
Si Si2 0.140023 0.810004 0.432087
Si Si3 0.592727 0.311941 0.047057
Si Si4 0.452059 0.811462 0.756626
Si Si5 0.861654 0.186969 0.308002
Si Si6 0.943090 0.687016 0.221238
Si Si7 0.229264 0.687735 0.866041
O O1 0.177534 0.757295 0.361864
O O2 0.144400 0.766434 0.129305
O O3 0.236555 0.755379 0.213277
O O4 0.190343 0.000000 0.242506
O O5 0.089962 0.750506 0.352130
O O6 0.148414 0.757311 0.568560
O O7 0.139172 0.000000 0.430228
O O8 0.591393 0.500000 0.035923
O O9 0.557411 0.257066 0.122518
O O10 0.579763 0.236504 0.916602
O O11 0.502753 0.763801 0.745425
O O12 0.450301 0.000000 0.761754
O O13 0.912518 0.238223 0.300880
O O14 0.822744 0.254801 0.195166
O O15 0.858641 0.000000 0.303262
O O16 0.941359 0.500000 0.231295
O O17 0.229947 0.500000 0.868880
O O18 0.250000 0.750000 0.000000
#
# Coordination Sequence:
#
# PCOD9185924 Si02
#       7
#     8   8   8   8   8   8   8
#     4   8  17  35  58  82 109 144 183 226 275 327
#     4   9  20  40  61  81 109 147 193 238 281 337
#     4  10  19  34  58  86 116 149 188 233 281 337
#     4  10  21  36  56  83 115 149 188 236 286 339
#     4  11  24  40  58  82 113 148 190 240 288 338
#     4  11  23  37  54  80 115 153 191 234 287 343
#     4  11  22  38  61  87 117 150 185 228 281 342
#
# _framework density 19.824100999999999
#
# number of rings (size 3 to 8) (size 9 to 14) (size 15 to 20)
#    0.000    2.000    0.000    4.286    0.000    7.429 
#    0.000    9.286    0.000    0.000    0.000    0.000 
#    0.000    0.000    0.000    0.000    0.000    0.000 
#
# Total GULP energy -156435.563519 kJ/mol
# GULP energy per Si atom -5586.984411 kJ/mol
# Density = 1.977898 g / cm^3
# Si number density = 19.824101 Si / 1000 Ang^3
#
#
#
# Elastic Constant Matrix: (Units=GPa)
#
#
# Indices 1 2 3 4 5 6 
#
# 1 99.3353 10.6489 2.0003 0.0000 -11.4355 0.0000
# 2 10.6489 29.1818 4.7734 0.0000 -3.9246 0.0000
# 3 2.0003 4.7734 60.1611 0.0000 -17.9237 0.0000
# 4 0.0000 0.0000 0.0000 19.6526 0.0000 -0.9526
# 5 -11.4355 -3.9246 -17.9237 0.0000 17.5910 0.0000
# 6 0.0000 0.0000 0.0000 -0.9526 0.0000 27.7582
#
#
#
# Elastic Compliance Matrix: (Units=1/GPa)
#
#
# Indices 1 2 3 4 5 6 
#
# 1 0.011460 -0.003352 0.002702 0.000000 0.009455 0.000000
# 2 -0.003352 0.036326 -0.001444 0.000000 0.004454 0.000000
# 3 0.002702 -0.001444 0.024516 0.000000 0.026414 0.000000
# 4 0.000000 0.000000 0.000000 0.050969 0.000000 0.001749
# 5 0.009455 0.004454 0.026414 0.000000 0.090901 0.000000
# 6 0.000000 0.000000 0.000000 0.001749 0.000000 0.036085
#
#
# Mechanical properties :
#
#
# Convention : Reuss Voigt Hill
#
# Bulk Modulus (GPa) = 14.68122 24.83595 19.75859
# Shear Modulus (GPa) = 18.04066 24.41740 21.22903
#
# Velocity S-wave (km/s) = 3.01995 3.51337 3.27596
# Velocity P-wave (km/s) = 4.42515 5.38644 4.92928
#
# Compressibility (1/GPa) = 0.06811421
#
# Stress axis : x y z
#
# Youngs Moduli (GPa) = 87.25715 27.52816 40.78922
#
# Poissons Ratio (x) = 0.09229 -0.11021
# Poissons Ratio (y) = 0.29253 0.05889
# Poissons Ratio (z) = -0.23576 0.03975
#
# Static dielectric constant tensor:
#      x y z
#    x 1.704390 0.000000 -0.020460 
#    y 0.000000 1.674790 0.000000 
#    z -0.020460 0.000000 1.682150 
# 
# From -- ./inp_files/187777.got.cif
#   From: 2010.05.17/outbox.cif.g08.bks.cpg/sg12_94_cif.got.tgz:187777.got - 2010.06.03 13:09:07.
