data_PCOD9185160
_publ_section_title
;
Structure prediction by ZEFSAII (Michael W. Deem and Ramdas Pophale) SiO2 
 PCOD9185160
Probable space group: C 2/M
;
_chemical_formula_sum "Si O2"
_cell_formula_units_Z 64
_cell_length_a 15.326105
_cell_length_b 9.706446
_cell_length_c 21.241091
_cell_angle_alpha 90.000000
_cell_angle_beta 64.577243
_cell_angle_gamma 90.000000
_cell_volume 2853.881186
_symmetry_space_group_name_H-M "C 2/M"
_symmetry_group_IT_number 12
_symmetry_cell_setting 'monoclinic'
loop_
_space_group_symop_operation_xyz
x,y,z
-x,y,-z
-x,-y,-z
x,-y,z
1/2+x,1/2+y,z
1/2-x,1/2+y,-z
1/2-x,1/2-y,-z
1/2+x,1/2-y,z
loop_
_atom_site_type_symbol
_atom_site_label
_atom_site_fract_x
_atom_site_fract_y
_atom_site_fract_z
Si Si1 0.847722 0.834002 0.056541
Si Si2 0.365387 0.835917 0.847523
Si Si3 0.728525 0.847225 0.257012
Si Si4 0.009283 0.166085 0.102624
Si Si5 0.664428 0.652315 0.467304
Si Si6 0.835498 0.345331 0.309928
Si Si7 0.564857 0.153140 0.410438
Si Si8 0.579388 0.342563 0.619356
O O1 0.736933 0.787887 0.089726
O O2 0.907154 0.795417 0.101408
O O3 0.844565 0.000000 0.058662
O O4 0.912163 0.797916 0.976394
O O5 0.339163 0.819296 0.781972
O O6 0.453531 0.749345 0.848523
O O7 0.379624 0.000000 0.854390
O O8 0.796964 0.723705 0.258124
O O9 0.660156 0.860495 0.338544
O O10 0.774516 0.000000 0.232665
O O11 0.011109 0.000000 0.111837
O O12 0.616607 0.500000 0.473106
O O13 0.752985 0.646427 0.390770
O O14 0.601609 0.781976 0.464088
O O15 0.670436 0.660352 0.541595
O O16 0.872342 0.500000 0.289194
O O17 0.907069 0.240390 0.321168
O O18 0.502905 0.266556 0.393840
O O19 0.521062 0.000000 0.426202
O O20 0.557812 0.500000 0.639404
#
# Coordination Sequence:
#
# PCOD9185160 Si02
#       8
#     8   8   8   8   8   8   8   8
#     4   8  16  32  54  80 113 148 178 217 269 323
#     4  10  19  34  56  79 107 146 186 222 268 320
#     4   9  20  38  54  69  99 138 175 214 259 307
#     4   9  17  32  54  82 114 144 179 222 267 317
#     4   9  19  34  52  74 100 128 161 205 258 317
#     4  10  20  35  54  74  99 130 167 211 256 307
#     4  10  20  34  51  71  98 133 169 211 259 306
#     4  11  21  33  51  76 102 128 162 207 262 319
#
# _framework density 22.425599999999999
#
# number of rings (size 3 to 8) (size 9 to 14) (size 15 to 20)
#    0.000    2.500    0.000    3.000    0.000    4.000 
#    2.250    1.875    0.000    0.000    0.000    0.000 
#    0.000    0.000    0.000    0.000    0.000    0.000 
#
# Total GULP energy -178475.049687 kJ/mol
# GULP energy per Si atom -5577.345303 kJ/mol
# Density = 2.237456 g / cm^3
# Si number density = 22.425600 Si / 1000 Ang^3
#
#
#
# Elastic Constant Matrix: (Units=GPa)
#
#
# Indices 1 2 3 4 5 6 
#
# 1 52.7704 34.7515 11.4091 0.0000 20.6783 0.0000
# 2 34.7515 156.9355 42.6517 0.0000 36.5701 0.0000
# 3 11.4091 42.6517 85.7874 0.0000 19.8632 0.0000
# 4 0.0000 0.0000 0.0000 148.4722 0.0000 -12.3463
# 5 20.6783 36.5701 19.8632 0.0000 43.1918 0.0000
# 6 0.0000 0.0000 0.0000 -12.3463 0.0000 33.2488
#
#
#
# Elastic Compliance Matrix: (Units=1/GPa)
#
#
# Indices 1 2 3 4 5 6 
#
# 1 0.024708 -0.003498 0.000567 0.000000 -0.009128 0.000000
# 2 -0.003498 0.009023 -0.002954 0.000000 -0.004606 0.000000
# 3 0.000567 -0.002954 0.014027 0.000000 -0.004221 0.000000
# 4 0.000000 0.000000 0.000000 0.006950 0.000000 0.002581
# 5 -0.009128 -0.004606 -0.004221 0.000000 0.033364 0.000000
# 6 0.000000 0.000000 0.000000 0.002581 0.000000 0.031035
#
#
# Mechanical properties :
#
#
# Convention : Reuss Voigt Hill
#
# Bulk Modulus (GPa) = 27.78800 52.56865 40.17833
# Shear Modulus (GPa) = 34.99590 58.76129 46.87859
#
# Velocity S-wave (km/s) = 3.95464 5.12442 4.57706
# Velocity P-wave (km/s) = 5.76805 7.64886 6.77405
#
# Compressibility (1/GPa) = 0.03598675
#
# Stress axis : x y z
#
# Youngs Moduli (GPa) = 40.47269 110.82809 71.28862
#
# Poissons Ratio (x) = 0.38771 -0.04040
# Poissons Ratio (y) = 0.14159 0.21061
# Poissons Ratio (z) = -0.02294 0.32742
#
# Static dielectric constant tensor:
#      x y z
#    x 1.908120 0.000000 -0.074300 
#    y 0.000000 1.802340 0.000000 
#    z -0.074300 0.000000 1.871130 
# 
# From -- ./inp_files/314154.got.cif
#   From: 2010.05.17/outbox.cif.g08.bks.cpg/sg12_158_cif.got.tgz:314154.got - 2010.06.03 13:09:07.
