data_PCOD9185566
_publ_section_title
;
Structure prediction by ZEFSAII (Michael W. Deem and Ramdas Pophale) SiO2 
 PCOD9185566
Probable space group: C 2/M
;
_chemical_formula_sum "Si O2"
_cell_formula_units_Z 56
_cell_length_a 13.632814
_cell_length_b 20.034626
_cell_length_c 10.370281
_cell_angle_alpha 90.000000
_cell_angle_beta 102.029245
_cell_angle_gamma 90.000000
_cell_volume 2770.221466
_symmetry_space_group_name_H-M "C 2/M"
_symmetry_group_IT_number 12
_symmetry_cell_setting 'monoclinic'
loop_
_space_group_symop_operation_xyz
x,y,z
-x,y,-z
-x,-y,-z
x,-y,z
1/2+x,1/2+y,z
1/2-x,1/2+y,-z
1/2-x,1/2-y,-z
1/2+x,1/2-y,z
loop_
_atom_site_type_symbol
_atom_site_label
_atom_site_fract_x
_atom_site_fract_y
_atom_site_fract_z
Si Si1 0.383953 0.920056 0.718305
Si Si2 0.421824 0.571464 0.861323
Si Si3 0.196553 0.580942 0.575422
Si Si4 0.881768 0.798777 0.965453
Si Si5 0.778534 0.658709 0.902055
Si Si6 0.422127 0.422699 0.577913
Si Si7 0.613796 0.919492 0.834528
O O1 0.373418 0.901402 0.565085
O O2 0.300712 0.882835 0.780453
O O3 0.494716 0.904089 0.801916
O O4 0.370370 0.000000 0.724994
O O5 0.365384 0.500000 0.849722
O O6 0.469688 0.575212 0.733794
O O7 0.500000 0.569889 0.000000
O O8 0.361845 0.638804 0.866228
O O9 0.199140 0.500000 0.580485
O O10 0.309574 0.603913 0.570055
O O11 0.155462 0.600435 0.704415
O O12 0.835027 0.824792 0.087174
O O13 0.829525 0.731178 0.909041
O O14 0.000000 0.787445 0.000000
O O15 0.830630 0.618270 0.034300
O O16 0.500000 0.390806 0.500000
O O17 0.406834 0.500000 0.530956
O O18 0.623731 0.000000 0.852856
#
# Coordination Sequence:
#
# PCOD9185566 Si02
#       7
#     8   8   8   8   8   8   8
#     4  10  20  34  55  84 113 141 180 232 279 320
#     4   9  18  33  55  80 105 140 184 225 269 322
#     4   9  18  31  49  77 112 146 178 217 274 334
#     4  10  22  38  55  78 112 147 179 222 280 333
#     4  11  22  36  58  82 107 144 188 230 272 324
#     4   9  17  30  49  75 108 143 178 221 272 324
#     4  10  19  34  57  83 111 144 184 229 276 327
#
# _framework density 20.21499
#
# number of rings (size 3 to 8) (size 9 to 14) (size 15 to 20)
#    0.000    2.286    0.000    3.000    0.000    7.429 
#    0.000    4.286    0.000   12.857    0.000    0.000 
#    0.000    0.000    0.000    0.000    0.000    0.000 
#
# Total GULP energy -156077.600749 kJ/mol
# GULP energy per Si atom -5574.200027 kJ/mol
# Density = 2.016898 g / cm^3
# Si number density = 20.214990 Si / 1000 Ang^3
#
#
#
# Elastic Constant Matrix: (Units=GPa)
#
#
# Indices 1 2 3 4 5 6 
#
# 1 81.9103 12.2587 9.5761 0.0000 -14.1108 0.0000
# 2 12.2587 67.7302 20.0775 0.0000 -11.7468 0.0000
# 3 9.5761 20.0775 82.3559 0.0000 -6.0846 0.0000
# 4 0.0000 0.0000 0.0000 12.9716 0.0000 -33.0540
# 5 -14.1108 -11.7468 -6.0846 0.0000 36.2561 0.0000
# 6 0.0000 0.0000 0.0000 -33.0540 0.0000 77.0765
#
#
#
# Elastic Compliance Matrix: (Units=1/GPa)
#
#
# Indices 1 2 3 4 5 6 
#
# 1 0.013305 -0.001351 -0.000878 0.000000 0.004593 0.000000
# 2 -0.001351 0.016833 -0.003628 0.000000 0.004319 0.000000
# 3 -0.000878 -0.003628 0.013180 0.000000 0.000695 0.000000
# 4 0.000000 0.000000 0.000000 -0.830944 0.000000 -0.356347
# 5 0.004593 0.004319 0.000695 0.000000 0.030885 0.000000
# 6 0.000000 0.000000 0.000000 -0.356347 0.000000 -0.139844
#
#
# Mechanical properties :
#
#
# Convention : Reuss Voigt Hill
#
# Bulk Modulus (GPa) = 31.64121 35.09120 33.36621
# Shear Modulus (GPa) = -5.71863 37.93312 16.10724
#
# Velocity S-wave (km/s) = -1.68376 4.33654 2.82582
# Velocity P-wave (km/s) = 3.45055 6.51696 5.21426
#
# Compressibility (1/GPa) = 0.03160435
#
# Stress axis : x y z
#
# Youngs Moduli (GPa) = 75.16199 59.40555 75.87107
#
# Poissons Ratio (x) = 0.08026 0.06664
# Poissons Ratio (y) = 0.10155 0.27523
# Poissons Ratio (z) = 0.06601 0.21550
#
# Static dielectric constant tensor:
#      x y z
#    x 1.789710 0.000000 0.001650 
#    y 0.000000 1.718490 0.000000 
#    z 0.001650 0.000000 1.727260 
# 
# From -- ./inp_files/64093.got.cif
#   From: 2010.05.17/outbox.cif.g08.bks.cpg/sg12_33_cif.got.tgz:64093.got - 2010.06.03 13:09:07.
