data_PCOD9185630
_publ_section_title
;
Structure prediction by ZEFSAII (Michael W. Deem and Ramdas Pophale) SiO2 
 PCOD9185630
Probable space group: C 2/M
;
_chemical_formula_sum "Si O2"
_cell_formula_units_Z 58
_cell_length_a 21.574101
_cell_length_b 7.706205
_cell_length_c 19.587862
_cell_angle_alpha 90.000000
_cell_angle_beta 63.193390
_cell_angle_gamma 90.000000
_cell_volume 2906.598005
_symmetry_space_group_name_H-M "C 2/M"
_symmetry_group_IT_number 12
_symmetry_cell_setting 'monoclinic'
loop_
_space_group_symop_operation_xyz
x,y,z
-x,y,-z
-x,-y,-z
x,-y,z
1/2+x,1/2+y,z
1/2-x,1/2+y,-z
1/2-x,1/2-y,-z
1/2+x,1/2-y,z
loop_
_atom_site_type_symbol
_atom_site_label
_atom_site_fract_x
_atom_site_fract_y
_atom_site_fract_z
Si Si1 0.583206 0.702955 0.016754
Si Si2 0.789408 0.207012 0.694851
Si Si3 0.147746 0.711496 0.128085
Si Si4 0.299431 0.708529 0.538203
Si Si5 0.712429 0.292544 0.867934
Si Si6 0.430967 0.797839 0.699241
Si Si7 0.500000 0.000000 0.000000
Si Si8 0.044412 0.202377 0.540407
O O1 0.564533 0.500000 0.015811
O O2 0.624523 0.716976 0.067351
O O3 0.522670 0.843772 0.043074
O O4 0.638066 0.767350 0.931542
O O5 0.774539 0.268951 0.625559
O O6 0.732719 0.250602 0.780380
O O7 0.863179 0.278740 0.684687
O O8 0.796981 0.000000 0.690043
O O9 0.148267 0.500000 0.125431
O O10 0.224034 0.769835 0.115689
O O11 0.094425 0.766447 0.214378
O O12 0.301279 0.500000 0.539922
O O13 0.250000 0.750000 0.500000
O O14 0.378384 0.775036 0.489322
O O15 0.711410 0.500000 0.875156
O O16 0.496525 0.712235 0.630783
O O17 0.447222 0.000000 0.697769
O O18 0.000000 0.281515 0.500000
O O19 0.054738 0.000000 0.517550
#
# Coordination Sequence:
#
# PCOD9185630 Si02
#       8
#     8   8   8   8   8   8   2   8
#     4  11  23  41  65  92 120 166 214 249 302 364
#     4  10  19  34  57  84 117 157 195 236 302 365
#     4   9  18  36  59  90 130 156 187 256 316 355
#     4  10  22  38  56  81 113 155 198 247 300 358
#     4   9  20  36  60  95 126 149 195 252 306 367
#     4  10  20  33  55  90 122 151 191 245 304 358
#     4  12  26  44  64  82 128 168 216 252 288 362
#     4  10  19  36  58  80 113 152 200 248 296 361
#
# _framework density 19.954599000000002
#
# number of rings (size 3 to 8) (size 9 to 14) (size 15 to 20)
#    0.000    2.069    2.069    2.276    0.966    4.690 
#    0.000    1.379    0.000    1.655    0.000    0.000 
#    0.000    0.000    0.000    0.000    0.000    0.000 
#
# Total GULP energy -161556.396286 kJ/mol
# GULP energy per Si atom -5570.910217 kJ/mol
# Density = 1.990918 g / cm^3
# Si number density = 19.954599 Si / 1000 Ang^3
#
#
#
# Elastic Constant Matrix: (Units=GPa)
#
#
# Indices 1 2 3 4 5 6 
#
# 1 84.1234 9.7431 53.3310 0.0003 10.7148 0.0003
# 2 9.7431 48.2098 -10.3219 0.0007 7.5635 0.0013
# 3 53.3310 -10.3219 96.5668 0.0001 15.5033 0.0003
# 4 0.0003 0.0007 0.0001 25.0588 0.0000 8.2145
# 5 10.7148 7.5635 15.5033 0.0000 16.1663 -0.0001
# 6 0.0003 0.0013 0.0003 8.2145 -0.0001 1.1167
#
#
#
# Elastic Compliance Matrix: (Units=1/GPa)
#
#
# Indices 1 2 3 4 5 6 
#
# 1 0.020184 -0.006907 -0.012123 0.000001 0.001479 -0.000004
# 2 -0.006907 0.026819 0.009409 -0.000007 -0.016993 0.000020
# 3 -0.012123 0.009409 0.020653 -0.000003 -0.016173 0.000009
# 4 0.000001 -0.000007 -0.000003 -0.028273 0.000007 0.207983
# 5 0.001479 -0.016993 -0.016173 0.000007 0.084337 -0.000018
# 6 -0.000004 0.000020 0.000009 0.207983 -0.000018 -0.634462
#
#
# Mechanical properties :
#
#
# Convention : Reuss Voigt Hill
#
# Bulk Modulus (GPa) = 20.65470 37.15606 28.90538
# Shear Modulus (GPa) = -10.51830 20.21153 4.84662
#
# Velocity S-wave (km/s) = -2.29838 3.18602 1.56016
# Velocity P-wave (km/s) = 1.82480 5.67407 4.21456
#
# Compressibility (1/GPa) = 0.04841513
#
# Stress axis : x y z
#
# Youngs Moduli (GPa) = 49.54337 37.28689 48.41922
#
# Poissons Ratio (x) = 0.25754 0.58699
# Poissons Ratio (y) = 0.34219 -0.45559
# Poissons Ratio (z) = 0.60061 -0.35084
#
# Static dielectric constant tensor:
#      x y z
#    x 1.628650 0.000010 0.245000 
#    y 0.000010 1.706780 -0.000020 
#    z 0.245000 -0.000020 0.947520 
# 
# From -- ./inp_files/281151.got.cif
#   From: 2010.05.17/outbox.cif.g08.bks.cpg/sg12_141_cif.got.tgz:281151.got - 2010.06.03 13:09:07.
