data_PCOD9185006
_publ_section_title
;
Structure prediction by ZEFSAII (Michael W. Deem and Ramdas Pophale) SiO2 
 PCOD9185006
Probable space group: C 2/M
;
_chemical_formula_sum "Si O2"
_cell_formula_units_Z 64
_cell_length_a 19.340724
_cell_length_b 8.142371
_cell_length_c 29.489023
_cell_angle_alpha 90.000000
_cell_angle_beta 137.147886
_cell_angle_gamma 90.000000
_cell_volume 3158.363660
_symmetry_space_group_name_H-M "C 2/M"
_symmetry_group_IT_number 12
_symmetry_cell_setting 'monoclinic'
loop_
_space_group_symop_operation_xyz
x,y,z
-x,y,-z
-x,-y,-z
x,-y,z
1/2+x,1/2+y,z
1/2-x,1/2+y,-z
1/2-x,1/2-y,-z
1/2+x,1/2-y,z
loop_
_atom_site_type_symbol
_atom_site_label
_atom_site_fract_x
_atom_site_fract_y
_atom_site_fract_z
Si Si1 0.675886 0.193405 0.372313
Si Si2 0.894639 0.689602 0.470289
Si Si3 0.683526 0.803001 0.845959
Si Si4 0.622113 0.806333 0.712915
Si Si5 0.410566 0.686042 0.576702
Si Si6 0.973540 0.299170 0.778925
Si Si7 0.898143 0.303880 0.927782
Si Si8 0.338900 0.800559 0.798744
O O1 0.788459 0.224544 0.407185
O O2 0.659140 0.271523 0.413669
O O3 0.591249 0.254837 0.296091
O O4 0.659912 0.000000 0.370433
O O5 0.887472 0.500000 0.452511
O O6 0.900003 0.702743 0.527342
O O7 0.000000 0.757592 0.500000
O O8 0.647335 0.764105 0.777241
O O9 0.590491 0.745842 0.832339
O O10 0.795277 0.731314 0.906042
O O11 0.691954 0.000000 0.853065
O O12 0.525929 0.707405 0.649237
O O13 0.725933 0.767441 0.736629
O O14 0.597984 0.000000 0.699021
O O15 0.389497 0.500000 0.551993
O O16 0.973869 0.500000 0.777825
O O17 0.915092 0.249411 0.795943
O O18 0.909475 0.500000 0.929533
O O19 0.877911 0.242644 0.866849
O O20 0.000000 0.237329 0.000000
O O21 0.332717 0.000000 0.796340
#
# Coordination Sequence:
#
# PCOD9185006 Si02
#       8
#     8   8   8   8   8   8   8   8
#     4  11  22  40  62  84 113 148 188 235 289 344
#     4  11  26  45  61  83 115 148 187 237 290 338
#     4   9  17  33  55  79 107 141 182 225 272 327
#     4  10  19  34  55  81 111 143 180 231 284 328
#     4  12  24  39  61  85 111 148 192 231 280 344
#     4   9  18  34  56  82 111 143 181 231 282 330
#     4   9  18  33  53  79 113 150 187 228 273 323
#     4   9  18  33  54  80 110 148 190 227 274 335
#
# _framework density 20.263656999999998
#
# number of rings (size 3 to 8) (size 9 to 14) (size 15 to 20)
#    0.000    2.000    1.250    2.625    1.750    1.750 
#    0.000    1.875    0.000    0.000    0.000    0.000 
#    0.000    0.000    0.000    0.000    0.000    0.000 
#
# Total GULP energy -178707.345544 kJ/mol
# GULP energy per Si atom -5584.604548 kJ/mol
# Density = 2.021754 g / cm^3
# Si number density = 20.263657 Si / 1000 Ang^3
#
#
#
# Elastic Constant Matrix: (Units=GPa)
#
#
# Indices 1 2 3 4 5 6 
#
# 1 135.7985 -3.3335 31.3454 0.0000 27.8741 0.0000
# 2 -3.3335 12.8399 -1.5530 0.0000 0.4401 -0.0002
# 3 31.3454 -1.5530 77.9240 0.0000 26.4175 0.0000
# 4 0.0000 0.0000 0.0000 15.5240 0.0000 7.2965
# 5 27.8741 0.4401 26.4175 0.0000 27.1534 0.0000
# 6 0.0000 -0.0002 0.0000 7.2965 0.0000 23.3393
#
#
#
# Elastic Compliance Matrix: (Units=1/GPa)
#
#
# Indices 1 2 3 4 5 6 
#
# 1 0.009451 0.002685 -0.000663 0.000000 -0.009100 0.000000
# 2 0.002685 0.079148 0.002785 0.000000 -0.006749 0.000001
# 3 -0.000663 0.002785 0.019308 0.000000 -0.018149 0.000000
# 4 0.000000 0.000000 0.000000 0.075512 0.000000 -0.023607
# 5 -0.009100 -0.006749 -0.018149 0.000000 0.063936 0.000000
# 6 0.000000 0.000001 0.000000 -0.023607 0.000000 0.050227
#
#
# Mechanical properties :
#
#
# Convention : Reuss Voigt Hill
#
# Bulk Modulus (GPa) = 8.50907 31.05336 19.78122
# Shear Modulus (GPa) = 15.28395 26.54357 20.91376
#
# Velocity S-wave (km/s) = 2.74935 3.62319 3.21609
# Velocity P-wave (km/s) = 3.77980 5.73248 4.85531
#
# Compressibility (1/GPa) = 0.11752162
#
# Stress axis : x y z
#
# Youngs Moduli (GPa) = 105.81240 12.63459 51.79160
#
# Poissons Ratio (x) = -0.03393 0.03434
# Poissons Ratio (y) = -0.28413 -0.14425
# Poissons Ratio (z) = 0.07016 -0.03519
#
# Static dielectric constant tensor:
#      x y z
#    x 1.726030 0.000000 0.012330 
#    y 0.000000 1.711380 0.000000 
#    z 0.012330 0.000000 1.713270 
# 
# From -- ./inp_files/378436.got.cif
#   From: 2010.05.17/outbox.cif.g08.bks.cpg/sg12_190_cif.got.tgz:378436.got - 2010.06.03 13:09:07.
