data_PCOD9185556
_publ_section_title
;
Structure prediction by ZEFSAII (Michael W. Deem and Ramdas Pophale) SiO2 
 PCOD9185556
Probable space group: C 2/M
;
_chemical_formula_sum "Si O2"
_cell_formula_units_Z 48
_cell_length_a 25.962687
_cell_length_b 8.068074
_cell_length_c 21.172239
_cell_angle_alpha 90.000000
_cell_angle_beta 35.206515
_cell_angle_gamma 90.000000
_cell_volume 2556.846258
_symmetry_space_group_name_H-M "C 2/M"
_symmetry_group_IT_number 12
_symmetry_cell_setting 'monoclinic'
loop_
_space_group_symop_operation_xyz
x,y,z
-x,y,-z
-x,-y,-z
x,-y,z
1/2+x,1/2+y,z
1/2-x,1/2+y,-z
1/2-x,1/2-y,-z
1/2+x,1/2-y,z
loop_
_atom_site_type_symbol
_atom_site_label
_atom_site_fract_x
_atom_site_fract_y
_atom_site_fract_z
Si Si1 0.810471 0.297056 0.258573
Si Si2 0.691710 0.800326 0.880643
Si Si3 0.195524 0.197572 0.492281
Si Si4 0.499967 0.202453 0.875999
Si Si5 0.309357 0.802034 0.880407
Si Si6 0.002805 0.300118 0.727217
O O1 0.808968 0.500000 0.260546
O O2 0.787010 0.241879 0.211433
O O3 0.744632 0.238938 0.379993
O O4 0.911561 0.247215 0.175064
O O5 0.762480 0.754550 0.863225
O O6 0.687236 0.000000 0.883143
O O7 0.593197 0.741174 0.000591
O O8 0.250000 0.250000 0.500000
O O9 0.093211 0.250782 0.601761
O O10 0.198772 0.000000 0.486642
O O11 0.506492 0.256261 0.796567
O O12 0.498853 0.000000 0.877283
O O13 0.410596 0.739495 0.788657
O O14 0.312414 0.000000 0.877115
O O15 0.250000 0.750000 0.000000
O O16 0.999813 0.500000 0.731812
#
# Coordination Sequence:
#
# PCOD9185556 Si02
#       6
#     8   8   8   8   8   8
#     4   9  18  32  54  82 111 141 182 223 268 329
#     4  10  19  34  57  83 109 144 181 223 276 327
#     4  11  21  35  56  83 112 146 184 227 272 322
#     4   9  15  29  54  82 109 137 174 222 273 326
#     4  11  22  37  57  81 111 145 183 227 273 327
#     4  10  20  36  56  80 108 142 185 228 269 323
#
# _framework density 18.773126999999999
#
# number of rings (size 3 to 8) (size 9 to 14) (size 15 to 20)
#    0.000    2.000    3.333    1.500    0.000    3.333 
#    0.000    2.500    0.000    6.000    0.000    0.000 
#    0.000    0.000    0.000    0.000    0.000    0.000 
#
# Total GULP energy -133986.233096 kJ/mol
# GULP energy per Si atom -5582.759712 kJ/mol
# Density = 1.873040 g / cm^3
# Si number density = 18.773127 Si / 1000 Ang^3
#
#
#
# Elastic Constant Matrix: (Units=GPa)
#
#
# Indices 1 2 3 4 5 6 
#
# 1 191.3120 10.8004 109.3391 -0.0009 6.1436 0.0006
# 2 10.8004 11.3145 14.0342 0.0019 2.8144 -0.0013
# 3 109.3391 14.0342 141.6745 0.0015 -4.8226 -0.0010
# 4 -0.0009 0.0019 0.0015 22.5255 -0.0001 -2.7230
# 5 6.1436 2.8144 -4.8226 -0.0001 35.5223 -0.0004
# 6 0.0006 -0.0013 -0.0010 -2.7230 -0.0004 26.1185
#
#
#
# Elastic Compliance Matrix: (Units=1/GPa)
#
#
# Indices 1 2 3 4 5 6 
#
# 1 0.009608 0.000948 -0.007603 0.000001 -0.002769 0.000000
# 2 0.000948 0.104068 -0.011380 -0.000008 -0.009954 0.000004
# 3 -0.007603 -0.011380 0.014195 0.000000 0.004144 0.000000
# 4 0.000001 -0.000008 0.000000 0.044961 0.000001 0.004687
# 5 -0.002769 -0.009954 0.004144 0.000001 0.029981 0.000000
# 6 0.000000 0.000004 0.000000 0.004687 0.000000 0.038776
#
#
# Mechanical properties :
#
#
# Convention : Reuss Voigt Hill
#
# Bulk Modulus (GPa) = 10.89308 68.07202 39.48255
# Shear Modulus (GPa) = 16.22021 30.84175 23.53098
#
# Velocity S-wave (km/s) = 2.94260 4.05763 3.54424
# Velocity P-wave (km/s) = 4.16656 7.63489 6.15027
#
# Compressibility (1/GPa) = 0.09180140
#
# Stress axis : x y z
#
# Youngs Moduli (GPa) = 104.08185 9.60911 70.44954
#
# Poissons Ratio (x) = -0.00911 0.53564
# Poissons Ratio (y) = -0.09870 0.80168
# Poissons Ratio (z) = 0.79135 0.10935
#
# Static dielectric constant tensor:
#      x y z
#    x 1.624440 0.000000 0.014780 
#    y 0.000000 1.681610 0.000000 
#    z 0.014780 0.000000 1.659560 
# 
# From -- ./inp_files/327172.got.cif
#   From: 2010.05.17/outbox.cif.g08.bks.cpg/sg12_164_cif.got.tgz:327172.got - 2010.06.03 13:09:07.
