data_PCOD9185327
_publ_section_title
;
Structure prediction by ZEFSAII (Michael W. Deem and Ramdas Pophale) SiO2 
 PCOD9185327
Probable space group: C 2/M
;
_chemical_formula_sum "Si O2"
_cell_formula_units_Z 64
_cell_length_a 32.417649
_cell_length_b 8.622095
_cell_length_c 19.103933
_cell_angle_alpha 90.000000
_cell_angle_beta 139.286638
_cell_angle_gamma 90.000000
_cell_volume 3482.955827
_symmetry_space_group_name_H-M "C 2/M"
_symmetry_group_IT_number 12
_symmetry_cell_setting 'monoclinic'
loop_
_space_group_symop_operation_xyz
x,y,z
-x,y,-z
-x,-y,-z
x,-y,z
1/2+x,1/2+y,z
1/2-x,1/2+y,-z
1/2-x,1/2-y,-z
1/2+x,1/2-y,z
loop_
_atom_site_type_symbol
_atom_site_label
_atom_site_fract_x
_atom_site_fract_y
_atom_site_fract_z
Si Si1 0.746665 0.185104 0.777756
Si Si2 0.718968 0.185774 0.030108
Si Si3 0.888091 0.812699 0.915663
Si Si4 0.557001 0.815149 0.315213
Si Si5 0.092279 0.819443 0.208790
Si Si6 0.277273 0.178018 0.605166
Si Si7 0.342620 0.324257 0.447372
Si Si8 0.420564 0.186785 0.105798
O O1 0.747084 0.253074 0.856279
O O2 0.814220 0.239243 0.830115
O O3 0.684729 0.234377 0.654832
O O4 0.749742 0.000000 0.784446
O O5 0.721007 0.000000 0.032029
O O6 0.750000 0.250000 0.000000
O O7 0.645355 0.234873 0.943699
O O8 0.922856 0.759226 0.889053
O O9 0.888092 0.000000 0.913193
O O10 0.922131 0.757046 0.029828
O O11 0.573511 0.762546 0.256972
O O12 0.602401 0.744957 0.432918
O O13 0.483446 0.770158 0.228843
O O14 0.563265 0.000000 0.326653
O O15 0.167861 0.795006 0.302672
O O16 0.074427 0.000000 0.191412
O O17 0.250000 0.250000 0.500000
O O18 0.219442 0.172521 0.583658
O O19 0.300971 0.000000 0.626669
O O20 0.359413 0.500000 0.449491
O O21 0.419952 0.000000 0.097974
#
# Coordination Sequence:
#
# PCOD9185327 Si02
#       8
#     8   8   8   8   8   8   8   8
#     4  10  19  34  56  84 114 144 178 221 271 323
#     4  10  20  38  64  93 117 138 169 213 267 328
#     4   9  19  33  52  75 103 140 183 230 278 318
#     4  11  23  37  52  73 104 149 193 228 269 320
#     4  11  21  33  48  72 104 142 190 238 280 318
#     4  11  21  31  47  70 101 140 188 238 282 318
#     4  11  22  34  51  77 108 145 185 229 276 320
#     4   9  21  39  57  78 108 142 179 220 267 326
#
# _framework density 18.375197
#
# number of rings (size 3 to 8) (size 9 to 14) (size 15 to 20)
#    0.000    1.750    2.500    2.250    0.000    4.500 
#    0.000    2.500    0.000    0.750    0.000    5.250 
#    0.000    0.000    0.000    0.000    0.000    0.000 
#
# Total GULP energy -178451.686677 kJ/mol
# GULP energy per Si atom -5576.615209 kJ/mol
# Density = 1.833337 g / cm^3
# Si number density = 18.375197 Si / 1000 Ang^3
#
#
#
# Elastic Constant Matrix: (Units=GPa)
#
#
# Indices 1 2 3 4 5 6 
#
# 1 72.1268 24.5358 60.6727 0.0000 -17.4607 0.0000
# 2 24.5358 46.8683 31.2096 0.0000 -4.6341 0.0000
# 3 60.6727 31.2096 132.0711 0.0000 -0.2767 0.0000
# 4 0.0000 0.0000 0.0000 26.3220 0.0000 -4.7035
# 5 -17.4607 -4.6341 -0.2767 0.0000 21.6240 0.0000
# 6 0.0000 0.0000 0.0000 -4.7035 0.0000 21.9409
#
#
#
# Elastic Compliance Matrix: (Units=1/GPa)
#
#
# Indices 1 2 3 4 5 6 
#
# 1 0.034187 -0.005800 -0.014280 0.000000 0.026180 0.000000
# 2 -0.005800 0.026939 -0.003699 0.000000 0.001043 0.000000
# 3 -0.014280 -0.003699 0.014981 0.000000 -0.012132 0.000000
# 4 0.000000 0.000000 0.000000 0.039504 0.000000 0.008469
# 5 0.026180 0.001043 -0.012132 0.000000 0.067452 0.000000
# 6 0.000000 0.000000 0.000000 0.008469 0.000000 0.047392
#
#
# Mechanical properties :
#
#
# Convention : Reuss Voigt Hill
#
# Bulk Modulus (GPa) = 35.02781 53.76692 44.39737
# Shear Modulus (GPa) = 17.38945 22.95393 20.17169
#
# Velocity S-wave (km/s) = 3.07962 3.53821 3.31685
# Velocity P-wave (km/s) = 5.63466 6.78351 6.23560
#
# Compressibility (1/GPa) = 0.02854874
#
# Stress axis : x y z
#
# Youngs Moduli (GPa) = 29.25061 37.12077 66.75268
#
# Poissons Ratio (x) = 0.21529 0.95324
# Poissons Ratio (y) = 0.16964 0.24695
# Poissons Ratio (z) = 0.41770 0.13733
#
# Static dielectric constant tensor:
#      x y z
#    x 1.637840 0.000000 0.000830 
#    y 0.000000 1.644020 0.000000 
#    z 0.000830 0.000000 1.688890 
# 
# From -- ./inp_files/295773.got.cif
#   From: 2010.05.17/outbox.cif.g08.bks.cpg/sg12_148_cif.got.tgz:295773.got - 2010.06.03 13:09:07.
