data_PCOD9185204
_publ_section_title
;
Structure prediction by ZEFSAII (Michael W. Deem and Ramdas Pophale) SiO2 
 PCOD9185204
Probable space group: C 2/M
;
_chemical_formula_sum "Si O2"
_cell_formula_units_Z 58
_cell_length_a 26.581525
_cell_length_b 12.675725
_cell_length_c 16.095834
_cell_angle_alpha 90.000000
_cell_angle_beta 147.478564
_cell_angle_gamma 90.000000
_cell_volume 2915.665182
_symmetry_space_group_name_H-M "C 2/M"
_symmetry_group_IT_number 12
_symmetry_cell_setting 'monoclinic'
loop_
_space_group_symop_operation_xyz
x,y,z
-x,y,-z
-x,-y,-z
x,-y,z
1/2+x,1/2+y,z
1/2-x,1/2+y,-z
1/2-x,1/2-y,-z
1/2+x,1/2-y,z
loop_
_atom_site_type_symbol
_atom_site_label
_atom_site_fract_x
_atom_site_fract_y
_atom_site_fract_z
Si Si1 0.105889 0.186578 0.790430
Si Si2 0.500000 0.000000 0.500000
Si Si3 0.222390 0.623626 0.374464
Si Si4 0.934516 0.119189 0.079653
Si Si5 0.784264 0.260586 0.805588
Si Si6 0.429144 0.197187 0.513174
Si Si7 0.202085 0.381243 0.008083
Si Si8 0.101312 0.731889 0.338332
O O1 0.089647 0.129290 0.855844
O O2 0.186966 0.126963 0.854658
O O3 0.007559 0.211548 0.610800
O O4 0.149994 0.301878 0.873148
O O5 0.458794 0.093549 0.505169
O O6 0.234561 0.500000 0.377518
O O7 0.194598 0.683417 0.251520
O O8 0.146942 0.647548 0.340688
O O9 0.319617 0.678773 0.536239
O O10 0.014134 0.206662 0.177478
O O11 0.963480 0.000000 0.101238
O O12 0.843652 0.154621 0.901972
O O13 0.674138 0.234530 0.657194
O O14 0.812925 0.337044 0.920875
O O15 0.425205 0.184839 0.608480
O O16 0.169342 0.500000 0.951014
#
# Coordination Sequence:
#
# PCOD9185204 Si02
#       8
#     8   2   8   8   8   8   8   8
#     4   9  20  37  55  81 113 150 201 237 283 366
#     4  12  24  32  60  88 118 160 188 226 328 346
#     4  10  20  39  65  87 116 160 194 251 308 352
#     4  10  20  38  61  84 118 159 195 248 302 352
#     4  10  22  38  55  86 121 145 200 248 294 353
#     4  10  22  39  54  83 120 150 192 244 286 361
#     4  10  19  34  56  80 111 149 188 243 291 350
#     4   9  21  40  61  89 118 148 211 247 286 368
#
# _framework density 19.892544999999998
#
# number of rings (size 3 to 8) (size 9 to 14) (size 15 to 20)
#    0.000    2.207    0.000    2.069    2.897    0.552 
#    0.000    6.897    0.000    0.000    0.000    0.000 
#    0.000    0.000    0.000    0.000    0.000    0.000 
#
# Total GULP energy -161665.778548 kJ/mol
# GULP energy per Si atom -5574.682019 kJ/mol
# Density = 1.984727 g / cm^3
# Si number density = 19.892545 Si / 1000 Ang^3
#
#
#
# Elastic Constant Matrix: (Units=GPa)
#
#
# Indices 1 2 3 4 5 6 
#
# 1 77.9574 20.6750 10.7432 0.0000 6.5490 0.0000
# 2 20.6750 102.6977 17.0218 0.0000 -7.4598 0.0000
# 3 10.7432 17.0218 76.3743 0.0000 5.0388 0.0000
# 4 0.0000 0.0000 0.0000 8.5207 0.0000 1.2912
# 5 6.5490 -7.4598 5.0388 0.0000 20.9725 0.0000
# 6 0.0000 0.0000 0.0000 1.2912 0.0000 10.7050
#
#
#
# Elastic Compliance Matrix: (Units=1/GPa)
#
#
# Indices 1 2 3 4 5 6 
#
# 1 0.014226 -0.003090 -0.000962 0.000000 -0.005310 0.000000
# 2 -0.003090 0.011161 -0.002417 0.000000 0.005515 0.000000
# 3 -0.000962 -0.002417 0.014027 0.000000 -0.003929 0.000000
# 4 0.000000 0.000000 0.000000 0.119546 0.000000 -0.014419
# 5 -0.005310 0.005515 -0.003929 0.000000 0.052246 0.000000
# 6 0.000000 0.000000 0.000000 -0.014419 0.000000 0.095153
#
#
# Mechanical properties :
#
#
# Convention : Reuss Voigt Hill
#
# Bulk Modulus (GPa) = 37.77103 39.32327 38.54715
# Shear Modulus (GPa) = 15.23832 21.94560 18.59196
#
# Velocity S-wave (km/s) = 2.77073 3.32506 3.06047
# Velocity P-wave (km/s) = 5.40968 5.87811 5.64875
#
# Compressibility (1/GPa) = 0.02647532
#
# Stress axis : x y z
#
# Youngs Moduli (GPa) = 70.29515 89.60091 71.29336
#
# Poissons Ratio (x) = 0.27688 0.06858
# Poissons Ratio (y) = 0.21723 0.17229
# Poissons Ratio (z) = 0.06762 0.21653
#
# Static dielectric constant tensor:
#      x y z
#    x 1.709070 0.000000 0.007630 
#    y 0.000000 1.653390 0.000000 
#    z 0.007630 0.000000 1.722690 
# 
# From -- ./inp_files/296307.got.cif
#   From: 2010.05.17/outbox.cif.g08.bks.cpg/sg12_149_cif.got.tgz:296307.got - 2010.06.03 13:09:07.
