data_PCOD9185231
_publ_section_title
;
Structure prediction by ZEFSAII (Michael W. Deem and Ramdas Pophale) SiO2 
 PCOD9185231
Probable space group: C 2/M
;
_chemical_formula_sum "Si O2"
_cell_formula_units_Z 48
_cell_length_a 24.485474
_cell_length_b 11.608270
_cell_length_c 25.721946
_cell_angle_alpha 90.000000
_cell_angle_beta 22.298943
_cell_angle_gamma 90.000000
_cell_volume 2774.098708
_symmetry_space_group_name_H-M "C 2/M"
_symmetry_group_IT_number 12
_symmetry_cell_setting 'monoclinic'
loop_
_space_group_symop_operation_xyz
x,y,z
-x,y,-z
-x,-y,-z
x,-y,z
1/2+x,1/2+y,z
1/2-x,1/2+y,-z
1/2-x,1/2-y,-z
1/2+x,1/2-y,z
loop_
_atom_site_type_symbol
_atom_site_label
_atom_site_fract_x
_atom_site_fract_y
_atom_site_fract_z
Si Si1 0.585109 0.225381 0.581971
Si Si2 0.772415 0.500000 0.723340
Si Si3 0.118606 0.362425 0.667633
Si Si4 0.307066 0.362291 0.789056
Si Si5 0.014647 0.362836 0.107446
Si Si6 0.438551 0.000000 0.467675
Si Si7 0.353168 0.248967 0.160639
O O1 0.731685 0.298980 0.451041
O O2 0.567305 0.183300 0.657080
O O3 0.450268 0.301655 0.683056
O O4 0.592820 0.113393 0.538426
O O5 0.846821 0.500000 0.601314
O O6 0.682474 0.383375 0.807294
O O7 0.896063 0.500000 0.658481
O O8 0.141122 0.500000 0.644856
O O9 0.007313 0.339077 0.812446
O O10 0.321144 0.500000 0.776457
O O11 0.267903 0.317101 0.765788
O O12 0.170612 0.331370 0.946459
O O13 0.998081 0.500000 0.113636
O O14 0.888913 0.299761 0.185882
O O15 0.500000 0.227639 0.000000
#
# Coordination Sequence:
#
# PCOD9185231 Si02
#       7
#     8   4   8   8   8   4   8
#     4  11  21  37  57  78 108 142 183 219 267 319
#     4  11  21  34  54  80 111 143 178 214 266 323
#     4  10  21  37  58  79 105 141 180 225 266 315
#     4  10  20  35  57  81 108 141 177 221 269 318
#     4   9  19  36  56  81 109 139 178 221 267 313
#     4  11  22  36  54  78 110 146 176 218 269 318
#     4  10  19  34  56  81 110 142 176 218 268 320
#
# _framework density 17.302916
#
# number of rings (size 3 to 8) (size 9 to 14) (size 15 to 20)
#    0.000    1.833    2.500    2.250    0.000    2.667 
#    0.000    0.000    0.000    4.000    0.000    0.000 
#    0.000    0.000    0.000    0.000    0.000    0.000 
#
# Total GULP energy -133913.352128 kJ/mol
# GULP energy per Si atom -5579.723005 kJ/mol
# Density = 1.726353 g / cm^3
# Si number density = 17.302916 Si / 1000 Ang^3
#
#
#
# Elastic Constant Matrix: (Units=GPa)
#
#
# Indices 1 2 3 4 5 6 
#
# 1 83.1126 30.4599 16.5601 -0.0003 -10.7513 0.0003
# 2 30.4599 76.1868 14.4866 -0.0001 -10.7755 0.0001
# 3 16.5601 14.4866 21.7715 0.0022 -14.3607 -0.0006
# 4 -0.0003 -0.0001 0.0022 17.8161 -0.0004 -3.2779
# 5 -10.7513 -10.7755 -14.3607 -0.0004 28.7200 0.0002
# 6 0.0003 0.0001 -0.0006 -3.2779 0.0002 30.0509
#
#
#
# Elastic Compliance Matrix: (Units=1/GPa)
#
#
# Indices 1 2 3 4 5 6 
#
# 1 0.015427 -0.004514 -0.009010 0.000001 -0.000424 0.000000
# 2 -0.004514 0.016365 -0.006745 0.000001 0.001078 0.000000
# 3 -0.009010 -0.006745 0.079648 -0.000009 0.033923 0.000000
# 4 0.000001 0.000001 -0.000009 0.057279 -0.000003 0.006248
# 5 -0.000424 0.001078 0.033923 -0.000003 0.052027 0.000000
# 6 0.000000 0.000000 0.000000 0.006248 0.000000 0.033958
#
#
# Mechanical properties :
#
#
# Convention : Reuss Voigt Hill
#
# Bulk Modulus (GPa) = 14.10384 33.78712 23.94548
# Shear Modulus (GPa) = 15.68005 23.28834 19.48419
#
# Velocity S-wave (km/s) = 3.01360 3.67266 3.35933
# Velocity P-wave (km/s) = 4.50309 6.12811 5.37734
#
# Compressibility (1/GPa) = 0.07090266
#
# Stress axis : x y z
#
# Youngs Moduli (GPa) = 64.82259 61.10431 12.55519
#
# Poissons Ratio (x) = 0.27585 0.11312
# Poissons Ratio (y) = 0.29264 0.08468
# Poissons Ratio (z) = 0.58403 0.41213
#
# Static dielectric constant tensor:
#      x y z
#    x 1.584020 0.000000 0.010530 
#    y 0.000000 1.556130 0.000000 
#    z 0.010530 0.000000 1.571160 
# 
# From -- ./inp_files/94481.got.cif
#   From: 2010.05.17/outbox.cif.g08.bks.cpg/sg12_48_cif.got.tgz:94481.got - 2010.06.03 13:09:07.
