data_PCOD9185511
_publ_section_title
;
Structure prediction by ZEFSAII (Michael W. Deem and Ramdas Pophale) SiO2 
 PCOD9185511
Probable space group: C 2/M
;
_chemical_formula_sum "Si O2"
_cell_formula_units_Z 56
_cell_length_a 7.703846
_cell_length_b 27.556205
_cell_length_c 13.038629
_cell_angle_alpha 90.000000
_cell_angle_beta 112.318742
_cell_angle_gamma 90.000000
_cell_volume 2560.594585
_symmetry_space_group_name_H-M "C 2/M"
_symmetry_group_IT_number 12
_symmetry_cell_setting 'monoclinic'
loop_
_space_group_symop_operation_xyz
x,y,z
-x,y,-z
-x,-y,-z
x,-y,z
1/2+x,1/2+y,z
1/2-x,1/2+y,-z
1/2-x,1/2-y,-z
1/2+x,1/2-y,z
loop_
_atom_site_type_symbol
_atom_site_label
_atom_site_fract_x
_atom_site_fract_y
_atom_site_fract_z
Si Si1 0.774024 0.293512 0.858451
Si Si2 0.178201 0.118076 0.738548
Si Si3 0.788318 0.053510 0.071437
Si Si4 0.724586 0.419562 0.154218
Si Si5 0.790931 0.312559 0.093883
Si Si6 0.426292 0.056553 0.642816
Si Si7 0.121377 0.053807 0.421215
O O1 0.658344 0.324959 0.751230
O O2 0.762523 0.235570 0.855346
O O3 0.986604 0.309253 0.879166
O O4 0.710172 0.307908 0.959912
O O5 0.263968 0.095516 0.861972
O O6 0.317698 0.097336 0.684432
O O7 0.978423 0.093834 0.669538
O O8 0.014060 0.060258 0.114420
O O9 0.745017 0.000000 0.101655
O O10 0.704041 0.059693 0.939475
O O11 0.730328 0.361679 0.136172
O O12 0.858132 0.435263 0.277384
O O13 0.330132 0.061467 0.509819
O O14 0.383340 0.000000 0.661970
O O15 0.000000 0.053146 0.500000
O O16 0.103788 0.000000 0.371322
#
# Coordination Sequence:
#
# PCOD9185511 Si02
#       7
#     8   8   8   8   8   8   8
#     4  10  21  35  55  79 106 140 181 228 278 322
#     4  11  19  34  55  82 107 140 184 229 265 322
#     4  11  23  34  50  79 117 154 177 212 272 332
#     4  11  21  36  52  75 113 148 184 215 272 329
#     4  10  21  36  54  79 107 139 184 225 273 328
#     4  10  19  34  57  82 109 143 182 227 269 324
#     4   8  16  31  53  81 109 139 180 225 273 318
#
# _framework density 21.86992
#
# number of rings (size 3 to 8) (size 9 to 14) (size 15 to 20)
#    0.000    1.857    2.857    3.857    2.000    1.714 
#    0.000    2.143    0.000    3.429    0.000    0.000 
#    0.000    0.000    0.000    0.000    0.000    0.000 
#
# Total GULP energy -156422.407451 kJ/mol
# GULP energy per Si atom -5586.514552 kJ/mol
# Density = 2.182014 g / cm^3
# Si number density = 21.869920 Si / 1000 Ang^3
#
#
#
# Elastic Constant Matrix: (Units=GPa)
#
#
# Indices 1 2 3 4 5 6 
#
# 1 68.5300 10.6596 13.4364 0.0000 21.5477 0.0000
# 2 10.6596 160.9479 34.1015 0.0000 4.5249 0.0000
# 3 13.4364 34.1015 88.7762 0.0000 25.6863 0.0000
# 4 0.0000 0.0000 0.0000 38.0298 0.0000 -9.9353
# 5 21.5477 4.5249 25.6863 0.0000 28.5994 0.0000
# 6 0.0000 0.0000 0.0000 -9.9353 0.0000 22.8135
#
#
#
# Elastic Compliance Matrix: (Units=1/GPa)
#
#
# Indices 1 2 3 4 5 6 
#
# 1 0.019575 -0.001330 0.002371 0.000000 -0.016667 0.000000
# 2 -0.001330 0.006916 -0.003282 0.000000 0.002855 0.000000
# 3 0.002371 -0.003282 0.016933 0.000000 -0.016475 0.000000
# 4 0.000000 0.000000 0.000000 0.029671 0.000000 0.012922
# 5 -0.016667 0.002855 -0.016475 0.000000 0.061869 0.000000
# 6 0.000000 0.000000 0.000000 0.012922 0.000000 0.049461
#
#
# Mechanical properties :
#
#
# Convention : Reuss Voigt Hill
#
# Bulk Modulus (GPa) = 25.67922 48.29434 36.98678
# Shear Modulus (GPa) = 24.76630 35.22566 29.99598
#
# Velocity S-wave (km/s) = 3.36882 4.01769 3.70748
# Velocity P-wave (km/s) = 5.18645 6.60704 5.93937
#
# Compressibility (1/GPa) = 0.03894199
#
# Stress axis : x y z
#
# Youngs Moduli (GPa) = 51.08601 144.58573 59.05667
#
# Poissons Ratio (x) = 0.19232 -0.14001
# Poissons Ratio (y) = 0.06795 0.19380
# Poissons Ratio (z) = -0.12111 0.47447
#
# Static dielectric constant tensor:
#      x y z
#    x 1.920480 0.000000 0.001180 
#    y 0.000000 1.769960 0.000000 
#    z 0.001180 0.000000 1.825440 
# 
# From -- ./inp_files/198947.got.cif
#   From: 2010.05.17/outbox.cif.g08.bks.cpg/sg12_100_cif.got.tgz:198947.got - 2010.06.03 13:09:07.
