data_PCOD9185980
_publ_section_title
;
Structure prediction by ZEFSAII (Michael W. Deem and Ramdas Pophale) SiO2 
 PCOD9185980
Probable space group: C 2/M
;
_chemical_formula_sum "Si O2"
_cell_formula_units_Z 40
_cell_length_a 15.065343
_cell_length_b 26.776318
_cell_length_c 7.340934
_cell_angle_alpha 90.000000
_cell_angle_beta 37.171511
_cell_angle_gamma 90.000000
_cell_volume 1789.221328
_symmetry_space_group_name_H-M "C 2/M"
_symmetry_group_IT_number 12
_symmetry_cell_setting 'monoclinic'
loop_
_space_group_symop_operation_xyz
x,y,z
-x,y,-z
-x,-y,-z
x,-y,z
1/2+x,1/2+y,z
1/2-x,1/2+y,-z
1/2-x,1/2-y,-z
1/2+x,1/2-y,z
loop_
_atom_site_type_symbol
_atom_site_label
_atom_site_fract_x
_atom_site_fract_y
_atom_site_fract_z
Si Si1 0.339637 0.107498 0.850957
Si Si2 0.967690 0.891749 0.837254
Si Si3 0.839420 0.500000 0.854397
Si Si4 0.336001 0.216273 0.007161
Si Si5 0.533950 0.500000 0.159412
Si Si6 0.583226 0.286552 0.669574
O O1 0.500000 0.106936 0.500000
O O2 0.205136 0.111241 0.927205
O O3 0.324945 0.053702 0.974392
O O4 0.334200 0.158036 0.971305
O O5 0.000000 0.893805 0.000000
O O6 0.040532 0.840423 0.649217
O O7 0.020329 0.946148 0.678874
O O8 0.000000 0.500000 0.500000
O O9 0.708432 0.500000 0.918692
O O10 0.252369 0.221263 0.337858
O O11 0.250000 0.250000 0.000000
O O12 0.498116 0.238584 0.733152
O O13 0.500000 0.500000 0.000000
O O14 0.500000 0.291584 0.000000
#
# Coordination Sequence:
#
# PCOD9185980 Si02
#       6
#     8   8   4   8   4   8
#     4  10  19  34  58  88 120 157 199 244 299 354
#     4   9  18  33  56  82 120 153 197 237 295 345
#     4   8  16  30  51  83 119 152 193 243 292 351
#     4  12  23  38  61  87 119 156 200 247 302 357
#     4   8  14  28  51  81 109 155 191 235 282 353
#     4  11  24  41  59  84 119 158 202 247 297 359
#
# _framework density 22.356092
#
# number of rings (size 3 to 8) (size 9 to 14) (size 15 to 20)
#    0.000    2.000    2.000    2.400    0.000    0.000 
#    0.000    1.000    0.000    3.600    0.000    0.700 
#    0.000    0.000    0.000    0.000    0.000    0.000 
#
# Total GULP energy -111336.439949 kJ/mol
# GULP energy per Si atom -5566.821997 kJ/mol
# Density = 2.230521 g / cm^3
# Si number density = 22.356092 Si / 1000 Ang^3
#
#
#
# Elastic Constant Matrix: (Units=GPa)
#
#
# Indices 1 2 3 4 5 6 
#
# 1 27.2622 25.9625 11.6051 0.0000 6.8369 0.0000
# 2 25.9625 224.5886 40.4332 0.0000 4.7998 0.0000
# 3 11.6051 40.4332 120.7490 0.0000 -8.8739 0.0000
# 4 0.0000 0.0000 0.0000 8.6307 0.0000 -8.2676
# 5 6.8369 4.7998 -8.8739 0.0000 31.9642 0.0000
# 6 0.0000 0.0000 0.0000 -8.2676 0.0000 23.3777
#
#
#
# Elastic Compliance Matrix: (Units=1/GPa)
#
#
# Indices 1 2 3 4 5 6 
#
# 1 0.044816 -0.004322 -0.003590 0.000000 -0.009933 0.000000
# 2 -0.004322 0.005199 -0.001342 0.000000 -0.000229 0.000000
# 3 -0.003590 -0.001342 0.009338 0.000000 0.003562 0.000000
# 4 0.000000 0.000000 0.000000 0.175228 0.000000 0.061970
# 5 -0.009933 -0.000229 0.003562 0.000000 0.034433 0.000000
# 6 0.000000 0.000000 0.000000 0.061970 0.000000 0.064692
#
#
# Mechanical properties :
#
#
# Convention : Reuss Voigt Hill
#
# Bulk Modulus (GPa) = 24.48335 58.73349 41.60842
# Shear Modulus (GPa) = 13.66761 32.43447 23.05104
#
# Velocity S-wave (km/s) = 2.47525 3.81308 3.21454
# Velocity P-wave (km/s) = 4.37544 6.76129 5.69471
#
# Compressibility (1/GPa) = 0.04084409
#
# Stress axis : x y z
#
# Youngs Moduli (GPa) = 22.31338 192.35346 107.09060
#
# Poissons Ratio (x) = 0.83138 0.38445
# Poissons Ratio (y) = 0.09644 0.14374
# Poissons Ratio (z) = 0.08010 0.25818
#
# Static dielectric constant tensor:
#      x y z
#    x 1.885540 0.000000 0.063030 
#    y 0.000000 1.922860 0.000000 
#    z 0.063030 0.000000 1.846000 
# 
# From -- ./inp_files/79785.got.cif
#   From: 2010.05.17/outbox.cif.g08.bks.cpg/sg12_40_cif.got.tgz:79785.got - 2010.06.03 13:09:07.
