data_PCOD9185617
_publ_section_title
;
Structure prediction by ZEFSAII (Michael W. Deem and Ramdas Pophale) SiO2 
 PCOD9185617
Probable space group: C 2/M
;
_chemical_formula_sum "Si O2"
_cell_formula_units_Z 64
_cell_length_a 23.691670
_cell_length_b 25.516973
_cell_length_c 11.432347
_cell_angle_alpha 90.000000
_cell_angle_beta 26.757451
_cell_angle_gamma 90.000000
_cell_volume 3111.571370
_symmetry_space_group_name_H-M "C 2/M"
_symmetry_group_IT_number 12
_symmetry_cell_setting 'monoclinic'
loop_
_space_group_symop_operation_xyz
x,y,z
-x,y,-z
-x,-y,-z
x,-y,z
1/2+x,1/2+y,z
1/2-x,1/2+y,-z
1/2-x,1/2-y,-z
1/2+x,1/2-y,z
loop_
_atom_site_type_symbol
_atom_site_label
_atom_site_fract_x
_atom_site_fract_y
_atom_site_fract_z
Si Si1 0.097273 0.832085 0.515561
Si Si2 0.013123 0.942498 0.334501
Si Si3 0.195067 0.654427 0.053563
Si Si4 0.723212 0.815036 0.416411
Si Si5 0.739861 0.899508 0.215469
Si Si6 0.677218 0.796004 0.748981
Si Si7 0.987426 0.275470 0.726345
Si Si8 0.970249 0.441405 0.693978
O O1 0.190639 0.818433 0.448921
O O2 0.991219 0.787280 0.711865
O O3 0.049293 0.891243 0.605496
O O4 0.180983 0.827385 0.243026
O O5 0.000000 0.936850 0.500000
O O6 0.960716 0.000000 0.402076
O O7 0.156594 0.939551 0.024051
O O8 0.220830 0.637651 0.137542
O O9 0.089246 0.698638 0.236532
O O10 0.136514 0.602659 0.097732
O O11 0.782382 0.865935 0.248829
O O12 0.651688 0.822461 0.671935
O O13 0.814738 0.767236 0.279127
O O14 0.629207 0.793030 0.490504
O O15 0.604042 0.923686 0.498105
O O16 0.583638 0.799783 0.029964
O O17 0.933840 0.500000 0.798659
O O18 0.000000 0.443066 0.500000
#
# Coordination Sequence:
#
# PCOD9185617 Si02
#       8
#     8   8   8   8   8   8   8   8
#     4  10  21  39  58  85 117 157 201 243 295 354
#     4  11  23  40  60  85 119 158 199 245 295 357
#     4  10  20  36  55  88 124 155 190 237 303 357
#     4  10  19  34  57  84 114 156 193 242 285 347
#     4  11  20  36  58  86 120 153 194 242 295 358
#     4   9  20  36  56  82 114 152 203 237 288 343
#     4  10  19  36  56  85 119 156 190 239 294 354
#     4   9  18  32  55  82 114 153 194 237 287 347
#
# _framework density 20.568387000000001
#
# number of rings (size 3 to 8) (size 9 to 14) (size 15 to 20)
#    0.000    2.000    2.500    1.500    0.000    1.000 
#    4.500    5.625    0.000    2.250    0.000    1.750 
#    0.000    0.000    0.000    0.000    0.000    0.000 
#
# Total GULP energy -178468.455919 kJ/mol
# GULP energy per Si atom -5577.139247 kJ/mol
# Density = 2.052157 g / cm^3
# Si number density = 20.568387 Si / 1000 Ang^3
#
#
#
# Elastic Constant Matrix: (Units=GPa)
#
#
# Indices 1 2 3 4 5 6 
#
# 1 47.4523 48.3670 16.5439 0.0006 3.5660 -0.0005
# 2 48.3670 133.5235 19.2098 0.0006 2.9138 0.0000
# 3 16.5439 19.2098 48.1738 0.0012 12.9887 -0.0002
# 4 0.0006 0.0006 0.0012 20.8595 -0.0011 -4.8228
# 5 3.5660 2.9138 12.9887 -0.0011 23.2676 0.0005
# 6 -0.0005 0.0000 -0.0002 -4.8228 0.0005 15.4039
#
#
#
# Elastic Compliance Matrix: (Units=1/GPa)
#
#
# Indices 1 2 3 4 5 6 
#
# 1 0.035832 -0.011887 -0.007635 0.000000 0.000259 0.000001
# 2 -0.011887 0.011905 -0.000888 0.000000 0.000827 0.000000
# 3 -0.007635 -0.000888 0.027533 -0.000002 -0.014088 0.000000
# 4 0.000000 0.000000 -0.000002 0.051681 0.000003 0.016181
# 5 0.000259 0.000827 -0.014088 0.000003 0.050699 -0.000001
# 6 0.000001 0.000000 0.000000 0.016181 -0.000001 0.069985
#
#
# Mechanical properties :
#
#
# Convention : Reuss Voigt Hill
#
# Bulk Modulus (GPa) = 29.02780 44.15455 36.59118
# Shear Modulus (GPa) = 16.67004 21.57479 19.12241
#
# Velocity S-wave (km/s) = 2.84996 3.24223 3.05240
# Velocity P-wave (km/s) = 4.99732 5.96069 5.50014
#
# Compressibility (1/GPa) = 0.03444974
#
# Stress axis : x y z
#
# Youngs Moduli (GPa) = 27.90764 83.99902 36.32017
#
# Poissons Ratio (x) = 0.99849 0.27732
# Poissons Ratio (y) = 0.33174 0.03225
# Poissons Ratio (z) = 0.21309 0.07458
#
# Static dielectric constant tensor:
#      x y z
#    x 1.769620 0.000000 -0.014190 
#    y 0.000000 1.764550 0.000000 
#    z -0.014190 0.000000 1.825870 
# 
# From -- ./inp_files/178385.got.cif
#   From: 2010.05.17/outbox.cif.g08.bks.cpg/sg12_90_cif.got.tgz:178385.got - 2010.06.03 13:09:07.
