data_PCOD9185546
_publ_section_title
;
Structure prediction by ZEFSAII (Michael W. Deem and Ramdas Pophale) SiO2 
 PCOD9185546
Probable space group: C 2/M
;
_chemical_formula_sum "Si O2"
_cell_formula_units_Z 40
_cell_length_a 14.154961
_cell_length_b 9.690444
_cell_length_c 14.646173
_cell_angle_alpha 90.000000
_cell_angle_beta 94.793091
_cell_angle_gamma 90.000000
_cell_volume 2001.958629
_symmetry_space_group_name_H-M "C 2/M"
_symmetry_group_IT_number 12
_symmetry_cell_setting 'monoclinic'
loop_
_space_group_symop_operation_xyz
x,y,z
-x,y,-z
-x,-y,-z
x,-y,z
1/2+x,1/2+y,z
1/2-x,1/2+y,-z
1/2-x,1/2-y,-z
1/2+x,1/2-y,z
loop_
_atom_site_type_symbol
_atom_site_label
_atom_site_fract_x
_atom_site_fract_y
_atom_site_fract_z
Si Si1 0.012711 0.665262 0.103093
Si Si2 0.875120 0.341524 0.255368
Si Si3 0.668426 0.157944 0.447961
Si Si4 0.007870 0.844279 0.379228
Si Si5 0.838247 0.763754 0.745187
O O1 0.013723 0.500000 0.097207
O O2 0.109526 0.707989 0.161324
O O3 0.925972 0.699426 0.164530
O O4 0.000000 0.722000 0.000000
O O5 0.903310 0.500000 0.277725
O O6 0.762273 0.331201 0.242319
O O7 0.919075 0.242659 0.335779
O O8 0.750000 0.250000 0.500000
O O9 0.574184 0.251172 0.450118
O O10 0.681342 0.155043 0.338646
O O11 0.663981 0.000000 0.481828
O O12 0.081478 0.853916 0.299022
O O13 0.983351 0.000000 0.404276
#
# Coordination Sequence:
#
# PCOD9185546 Si02
#       5
#     8   8   8   8   8
#     4   9  18  34  56  83 114 148 186 232 283 334
#     4  10  19  34  57  82 113 152 189 229 279 335
#     4  10  20  35  58  84 113 150 186 229 281 332
#     4   9  19  34  54  80 111 146 183 230 277 327
#     4   9  20  33  57  80 113 147 191 228 278 331
#
# _framework density 19.980432
#
# number of rings (size 3 to 8) (size 9 to 14) (size 15 to 20)
#    1.200    1.400    0.000    2.400    0.000    2.400 
#    0.000    1.000    0.000   19.800    0.000    0.000 
#    0.000    0.000    0.000    0.000    0.000    0.000 
#
# Total GULP energy -111341.521840 kJ/mol
# GULP energy per Si atom -5567.076092 kJ/mol
# Density = 1.993496 g / cm^3
# Si number density = 19.980432 Si / 1000 Ang^3
#
#
#
# Elastic Constant Matrix: (Units=GPa)
#
#
# Indices 1 2 3 4 5 6 
#
# 1 116.9596 17.7636 43.0299 0.0000 10.5948 0.0000
# 2 17.7636 86.6459 27.1746 0.0000 -1.0430 0.0000
# 3 43.0299 27.1746 125.3013 0.0000 21.5005 0.0000
# 4 0.0000 0.0000 0.0000 14.2067 0.0000 5.3122
# 5 10.5948 -1.0430 21.5005 0.0000 22.8839 0.0000
# 6 0.0000 0.0000 0.0000 5.3122 0.0000 16.5043
#
#
#
# Elastic Compliance Matrix: (Units=1/GPa)
#
#
# Indices 1 2 3 4 5 6 
#
# 1 0.009947 -0.001181 -0.002814 0.000000 -0.002015 0.000000
# 2 -0.001181 0.012789 -0.003054 0.000000 0.003999 0.000000
# 3 -0.002814 -0.003054 0.011219 0.000000 -0.009377 0.000000
# 4 0.000000 0.000000 0.000000 0.080020 0.000000 -0.025756
# 5 -0.002015 0.003999 -0.009377 0.000000 0.053624 0.000000
# 6 0.000000 0.000000 0.000000 -0.025756 0.000000 0.068880
#
#
# Mechanical properties :
#
#
# Convention : Reuss Voigt Hill
#
# Bulk Modulus (GPa) = 50.36203 56.09366 53.22785
# Shear Modulus (GPa) = 19.44035 26.78156 23.11095
#
# Velocity S-wave (km/s) = 3.12263 3.66510 3.40469
# Velocity P-wave (km/s) = 6.18559 6.78571 6.49259
#
# Compressibility (1/GPa) = 0.01985623
#
# Stress axis : x y z
#
# Youngs Moduli (GPa) = 100.53096 78.18953 89.13847
#
# Poissons Ratio (x) = 0.09234 0.25084
# Poissons Ratio (y) = 0.11873 0.27226
# Poissons Ratio (z) = 0.28290 0.23882
#
# Static dielectric constant tensor:
#      x y z
#    x 1.695140 0.000000 -0.045010 
#    y 0.000000 1.707370 0.000000 
#    z -0.045010 0.000000 1.784050 
# 
# From -- ./inp_files/211367.got.cif
#   From: 2010.05.17/outbox.cif.g08.bks.cpg/sg12_106_cif.got.tgz:211367.got - 2010.06.03 13:09:07.
