data_PCOD9185258
_publ_section_title
;
Structure prediction by ZEFSAII (Michael W. Deem and Ramdas Pophale) SiO2 
 PCOD9185258
Probable space group: C 2/M
;
_chemical_formula_sum "Si O2"
_cell_formula_units_Z 56
_cell_length_a 23.189036
_cell_length_b 8.568681
_cell_length_c 16.026062
_cell_angle_alpha 90.000000
_cell_angle_beta 117.387345
_cell_angle_gamma 90.000000
_cell_volume 2827.456053
_symmetry_space_group_name_H-M "C 2/M"
_symmetry_group_IT_number 12
_symmetry_cell_setting 'monoclinic'
loop_
_space_group_symop_operation_xyz
x,y,z
-x,y,-z
-x,-y,-z
x,-y,z
1/2+x,1/2+y,z
1/2-x,1/2+y,-z
1/2-x,1/2-y,-z
1/2+x,1/2-y,z
loop_
_atom_site_type_symbol
_atom_site_label
_atom_site_fract_x
_atom_site_fract_y
_atom_site_fract_z
Si Si1 0.822561 0.313087 0.215908
Si Si2 0.816540 0.312354 0.877343
Si Si3 0.817423 0.314394 0.407401
Si Si4 0.178063 0.685727 0.313548
Si Si5 0.548126 0.190523 0.958872
Si Si6 0.459440 0.810922 0.234086
Si Si7 0.413507 0.683958 0.605763
O O1 0.819411 0.500000 0.207315
O O2 0.753505 0.247369 0.140804
O O3 0.829687 0.273335 0.318757
O O4 0.886745 0.261018 0.210324
O O5 0.815009 0.500000 0.877829
O O6 0.826976 0.266546 0.787093
O O7 0.878399 0.259716 0.971648
O O8 0.806386 0.500000 0.405693
O O9 0.751353 0.227124 0.389549
O O10 0.876767 0.266736 0.505116
O O11 0.167116 0.500000 0.312044
O O12 0.127328 0.770985 0.338835
O O13 0.527103 0.237372 0.852410
O O14 0.547655 0.000000 0.959685
O O15 0.500000 0.242912 0.000000
O O16 0.513707 0.743029 0.330845
O O17 0.462305 0.000000 0.240299
O O18 0.412262 0.500000 0.591992
#
# Coordination Sequence:
#
# PCOD9185258 Si02
#       7
#     8   8   8   8   8   8   8
#     4   9  20  37  56  79 107 141 180 222 267 317
#     4   9  18  33  57  84 109 142 180 219 262 313
#     4  10  20  36  56  78 107 142 180 221 268 321
#     4  10  19  34  56  82 111 142 178 219 266 319
#     4   9  17  32  56  84 110 139 178 219 261 314
#     4  10  21  38  57  77 106 144 184 222 263 316
#     4  12  24  36  52  78 109 141 180 225 275 321
#
# _framework density 19.805789000000001
#
# number of rings (size 3 to 8) (size 9 to 14) (size 15 to 20)
#    0.000    2.143    0.000    3.429    0.000    5.143 
#    0.000    3.571    0.000    1.714    0.000    0.000 
#    0.000    0.000    0.000    0.000    0.000    0.000 
#
# Total GULP energy -156414.103174 kJ/mol
# GULP energy per Si atom -5586.217970 kJ/mol
# Density = 1.976071 g / cm^3
# Si number density = 19.805789 Si / 1000 Ang^3
#
#
#
# Elastic Constant Matrix: (Units=GPa)
#
#
# Indices 1 2 3 4 5 6 
#
# 1 73.3740 -0.1138 -2.9878 0.0000 11.7741 0.0000
# 2 -0.1138 8.5190 -2.7993 0.0000 -2.6012 0.0000
# 3 -2.9878 -2.7993 50.9788 0.0000 27.3894 0.0000
# 4 0.0000 0.0000 0.0000 15.7401 0.0000 7.5175
# 5 11.7741 -2.6012 27.3894 0.0000 28.8190 0.0000
# 6 0.0000 0.0000 0.0000 7.5175 0.0000 27.1641
#
#
#
# Elastic Compliance Matrix: (Units=1/GPa)
#
#
# Indices 1 2 3 4 5 6 
#
# 1 0.016546 -0.001525 0.009383 0.000000 -0.015815 0.000000
# 2 -0.001525 0.120914 0.000719 0.000000 0.010853 0.000000
# 3 0.009383 0.000719 0.045425 0.000000 -0.046940 0.000000
# 4 0.000000 0.000000 0.000000 0.073208 0.000000 -0.020260
# 5 -0.015815 0.010853 -0.046940 0.000000 0.086752 0.000000
# 6 0.000000 0.000000 0.000000 -0.020260 0.000000 0.042420
#
#
# Mechanical properties :
#
#
# Convention : Reuss Voigt Hill
#
# Bulk Modulus (GPa) = 4.99897 13.45222 9.22559
# Shear Modulus (GPa) = 11.49980 23.59614 17.54797
#
# Velocity S-wave (km/s) = 2.41224 3.45538 2.97981
# Velocity P-wave (km/s) = 3.20749 4.76721 4.06290
#
# Compressibility (1/GPa) = 0.20004134
#
# Stress axis : x y z
#
# Youngs Moduli (GPa) = 60.43621 8.27035 22.01428
#
# Poissons Ratio (x) = 0.01261 -0.20656
# Poissons Ratio (y) = 0.09214 -0.01584
# Poissons Ratio (z) = -0.56708 -0.00595
#
# Static dielectric constant tensor:
#      x y z
#    x 1.687710 0.000000 -0.006580 
#    y 0.000000 1.671230 0.000000 
#    z -0.006580 0.000000 1.693280 
# 
# From -- ./inp_files/239048.got.cif
#   From: 2010.05.17/outbox.cif.g08.bks.cpg/sg12_120_cif.got.tgz:239048.got - 2010.06.03 13:09:07.
