data_PCOD9185847
_publ_section_title
;
Structure prediction by ZEFSAII (Michael W. Deem and Ramdas Pophale) SiO2 
 PCOD9185847
Probable space group: C 2/M
;
_chemical_formula_sum "Si O2"
_cell_formula_units_Z 56
_cell_length_a 5.604264
_cell_length_b 32.716674
_cell_length_c 16.230903
_cell_angle_alpha 90.000000
_cell_angle_beta 51.781730
_cell_angle_gamma 90.000000
_cell_volume 2338.109622
_symmetry_space_group_name_H-M "C 2/M"
_symmetry_group_IT_number 12
_symmetry_cell_setting 'monoclinic'
loop_
_space_group_symop_operation_xyz
x,y,z
-x,y,-z
-x,-y,-z
x,-y,z
1/2+x,1/2+y,z
1/2-x,1/2+y,-z
1/2-x,1/2-y,-z
1/2+x,1/2-y,z
loop_
_atom_site_type_symbol
_atom_site_label
_atom_site_fract_x
_atom_site_fract_y
_atom_site_fract_z
Si Si1 0.147218 0.762042 0.860243
Si Si2 0.496189 0.644417 0.402380
Si Si3 0.434165 0.000000 0.896264
Si Si4 0.169706 0.000000 0.765850
Si Si5 0.098530 0.915882 0.708749
Si Si6 0.433879 0.911020 0.922097
Si Si7 0.357816 0.730204 0.375067
Si Si8 0.311939 0.146206 0.802284
O O1 0.325484 0.757899 0.907928
O O2 0.396071 0.737975 0.750357
O O3 0.149590 0.810254 0.840057
O O4 0.500000 0.643614 0.500000
O O5 0.374215 0.602766 0.387805
O O6 0.318327 0.683122 0.405173
O O7 0.833541 0.652731 0.294255
O O8 0.334054 0.000000 0.820399
O O9 0.307613 0.042887 0.958949
O O10 0.796463 0.000000 0.843130
O O11 0.252688 0.041440 0.699307
O O12 0.201692 0.881723 0.751283
O O13 0.742465 0.919622 0.805443
O O14 0.273167 0.879467 0.894858
O O15 0.500000 0.894846 0.000000
O O16 0.044207 0.748382 0.408765
#
# Coordination Sequence:
#
# PCOD9185847 Si02
#       8
#     8   8   4   4   8   8   8   8
#     4  10  19  34  58  84 114 160 205 248 308 363
#     4  11  24  38  58  89 123 163 209 259 309 364
#     4  10  19  40  62 100 129 161 189 251 308 386
#     4  10  20  40  66  91 124 164 206 245 306 376
#     4  10  22  40  62  89 122 164 201 253 306 369
#     4  10  22  38  62  96 129 160 197 246 310 375
#     4  10  19  36  55  85 121 156 199 250 313 369
#     4  11  21  38  62  85 124 162 204 254 306 369
#
# _framework density 23.950973000000001
#
# number of rings (size 3 to 8) (size 9 to 14) (size 15 to 20)
#    0.000    1.714    4.286    1.929    2.000    1.714 
#    0.000    1.786    0.000    1.714    0.000    0.000 
#    0.000    0.000    0.000    0.000    0.000    0.000 
#
# Total GULP energy -156514.083998 kJ/mol
# GULP energy per Si atom -5589.788714 kJ/mol
# Density = 2.389646 g / cm^3
# Si number density = 23.950973 Si / 1000 Ang^3
#
#
#
# Elastic Constant Matrix: (Units=GPa)
#
#
# Indices 1 2 3 4 5 6 
#
# 1 122.7957 24.7079 13.7474 0.0000 0.3061 0.0000
# 2 24.7079 154.1409 10.5280 0.0000 23.7094 0.0000
# 3 13.7474 10.5280 74.2025 0.0000 26.7709 0.0000
# 4 0.0000 0.0000 0.0000 -8.3953 0.0000 18.3222
# 5 0.3061 23.7094 26.7709 0.0000 55.0278 0.0000
# 6 0.0000 0.0000 0.0000 18.3222 0.0000 35.8540
#
#
#
# Elastic Compliance Matrix: (Units=1/GPa)
#
#
# Indices 1 2 3 4 5 6 
#
# 1 0.008658 -0.001492 -0.001949 0.000000 0.001543 0.000000
# 2 -0.001492 0.007206 0.000450 0.000000 -0.003316 0.000000
# 3 -0.001949 0.000450 0.016786 0.000000 -0.008350 0.000000
# 4 0.000000 0.000000 0.000000 -0.056312 0.000000 0.028776
# 5 0.001543 -0.003316 -0.008350 0.000000 0.023655 0.000000
# 6 0.000000 0.000000 0.000000 0.028776 0.000000 0.013185
#
#
# Mechanical properties :
#
#
# Convention : Reuss Voigt Hill
#
# Bulk Modulus (GPa) = 37.49732 49.90063 43.69898
# Shear Modulus (GPa) = 178.25192 36.64103 107.44647
#
# Velocity S-wave (km/s) = 8.63627 3.91555 6.70510
# Velocity P-wave (km/s) = 10.73018 6.42820 8.84473
#
# Compressibility (1/GPa) = 0.02666857
#
# Stress axis : x y z
#
# Youngs Moduli (GPa) = 115.49763 138.77380 59.57265
#
# Poissons Ratio (x) = 0.20706 0.11611
# Poissons Ratio (y) = 0.17233 -0.02682
# Poissons Ratio (z) = 0.22511 -0.06248
#
# Static dielectric constant tensor:
#      x y z
#    x 2.317940 0.000000 -0.612910 
#    y 0.000000 1.943730 0.000000 
#    z -0.612910 0.000000 3.069950 
# 
# From -- ./inp_files/253987.got.cif
#   From: 2010.05.17/outbox.cif.g08.bks.cpg/sg12_127_cif.got.tgz:253987.got - 2010.06.03 13:09:07.
