data_PCOD9185855
_publ_section_title
;
Structure prediction by ZEFSAII (Michael W. Deem and Ramdas Pophale) SiO2 
 PCOD9185855
Probable space group: C 2/M
;
_chemical_formula_sum "Si O2"
_cell_formula_units_Z 56
_cell_length_a 22.618524
_cell_length_b 17.868892
_cell_length_c 16.078115
_cell_angle_alpha 90.000000
_cell_angle_beta 23.198627
_cell_angle_gamma 90.000000
_cell_volume 2559.793423
_symmetry_space_group_name_H-M "C 2/M"
_symmetry_group_IT_number 12
_symmetry_cell_setting 'monoclinic'
loop_
_space_group_symop_operation_xyz
x,y,z
-x,y,-z
-x,-y,-z
x,-y,z
1/2+x,1/2+y,z
1/2-x,1/2+y,-z
1/2-x,1/2-y,-z
1/2+x,1/2-y,z
loop_
_atom_site_type_symbol
_atom_site_label
_atom_site_fract_x
_atom_site_fract_y
_atom_site_fract_z
Si Si1 0.590064 0.084836 0.631929
Si Si2 0.253242 0.415680 0.859535
Si Si3 0.593388 0.272271 0.293714
Si Si4 0.124887 0.246191 0.575477
Si Si5 0.629505 0.701745 0.983557
Si Si6 0.143607 0.584018 0.366287
Si Si7 0.157682 0.339310 0.822350
O O1 0.658983 0.168280 0.560755
O O2 0.600117 0.081822 0.518960
O O3 0.644803 0.000000 0.589109
O O4 0.419279 0.090195 0.886078
O O5 0.304562 0.500000 0.802724
O O6 0.353066 0.357935 0.782160
O O7 0.250464 0.391264 0.765819
O O8 0.500000 0.269286 0.500000
O O9 0.488797 0.244817 0.355657
O O10 0.746024 0.226335 0.109185
O O11 0.254857 0.195102 0.368697
O O12 0.030007 0.201153 0.766500
O O13 0.705859 0.630915 0.842304
O O14 0.622734 0.767260 0.924605
O O15 0.170551 0.500000 0.301031
O O16 0.000000 0.612681 0.500000
O O17 0.000000 0.375222 0.000000
#
# Coordination Sequence:
#
# PCOD9185855 Si02
#       7
#     8   8   8   8   8   8   8
#     4  10  19  34  58  84 116 157 193 231 286 353
#     4  10  22  40  59  88 120 153 196 244 299 354
#     4  11  19  34  58  87 118 158 184 234 296 357
#     4  12  21  37  60  89 119 151 197 245 297 355
#     4  11  21  35  58  86 120 154 190 249 294 354
#     4  10  20  33  53  86 125 160 190 227 286 360
#     4  11  24  42  62  86 110 156 208 251 297 345
#
# _framework density 21.876764999999999
#
# number of rings (size 3 to 8) (size 9 to 14) (size 15 to 20)
#    0.000    1.286    7.143    1.714    2.000    1.143 
#    0.000    0.714    0.000    1.714    0.000    0.000 
#    0.000    0.000    0.000    0.000    0.000    0.000 
#
# Total GULP energy -156348.453300 kJ/mol
# GULP energy per Si atom -5583.873332 kJ/mol
# Density = 2.182697 g / cm^3
# Si number density = 21.876765 Si / 1000 Ang^3
#
#
#
# Elastic Constant Matrix: (Units=GPa)
#
#
# Indices 1 2 3 4 5 6 
#
# 1 71.1512 -1.2834 14.9350 -0.0002 -1.9810 0.0002
# 2 -1.2834 119.2138 27.7256 0.0001 3.3593 0.0001
# 3 14.9350 27.7256 103.2409 -0.0003 18.2816 0.0010
# 4 -0.0002 0.0001 -0.0003 21.3745 0.0005 -2.9091
# 5 -1.9810 3.3593 18.2816 0.0005 31.9815 -0.0004
# 6 0.0002 0.0001 0.0010 -2.9091 -0.0004 -46.5702
#
#
#
# Elastic Compliance Matrix: (Units=1/GPa)
#
#
# Indices 1 2 3 4 5 6 
#
# 1 0.014712 0.000730 -0.002751 0.000000 0.002407 0.000000
# 2 0.000730 0.008990 -0.002627 0.000000 0.000602 0.000000
# 3 -0.002751 -0.002627 0.011984 0.000000 -0.006745 0.000000
# 4 0.000000 0.000000 0.000000 0.046390 -0.000001 -0.002898
# 5 0.002407 0.000602 -0.006745 -0.000001 0.035209 0.000000
# 6 0.000000 0.000000 0.000000 -0.002898 0.000000 -0.021292
#
#
# Mechanical properties :
#
#
# Convention : Reuss Voigt Hill
#
# Bulk Modulus (GPa) = 37.89029 41.81782 39.85406
# Shear Modulus (GPa) = 43.82697 18.17239 30.99968
#
# Velocity S-wave (km/s) = 4.48074 2.88526 3.76841
# Velocity P-wave (km/s) = 6.64281 5.50058 6.09849
#
# Compressibility (1/GPa) = 0.02639198
#
# Stress axis : x y z
#
# Youngs Moduli (GPa) = 67.97110 111.23410 83.44654
#
# Poissons Ratio (x) = -0.08123 0.22953
# Poissons Ratio (y) = -0.04964 0.21918
# Poissons Ratio (z) = 0.18696 0.29217
#
# Static dielectric constant tensor:
#      x y z
#    x 1.833070 0.000000 -0.003000 
#    y 0.000000 1.838780 0.000000 
#    z -0.003000 0.000000 1.812690 
# 
# From -- ./inp_files/293860.got.cif
#   From: 2010.05.17/outbox.cif.g08.bks.cpg/sg12_147_cif.got.tgz:293860.got - 2010.06.03 13:09:07.
