data_PCOD9185431
_publ_section_title
;
Structure prediction by ZEFSAII (Michael W. Deem and Ramdas Pophale) SiO2 
 PCOD9185431
Probable space group: C 2/M
;
_chemical_formula_sum "Si O2"
_cell_formula_units_Z 64
_cell_length_a 28.782396
_cell_length_b 8.746196
_cell_length_c 14.605412
_cell_angle_alpha 90.000000
_cell_angle_beta 105.479147
_cell_angle_gamma 90.000000
_cell_volume 3543.351873
_symmetry_space_group_name_H-M "C 2/M"
_symmetry_group_IT_number 12
_symmetry_cell_setting 'monoclinic'
loop_
_space_group_symop_operation_xyz
x,y,z
-x,y,-z
-x,-y,-z
x,-y,z
1/2+x,1/2+y,z
1/2-x,1/2+y,-z
1/2-x,1/2-y,-z
1/2+x,1/2-y,z
loop_
_atom_site_type_symbol
_atom_site_label
_atom_site_fract_x
_atom_site_fract_y
_atom_site_fract_z
Si Si1 0.938647 0.181687 0.791813
Si Si2 0.803565 0.683685 0.028034
Si Si3 0.137160 0.184210 0.391035
Si Si4 0.955998 0.681171 0.142474
Si Si5 0.664317 0.314465 0.609604
Si Si6 0.886201 0.682334 0.934236
Si Si7 0.233791 0.683215 0.393476
Si Si8 0.125426 0.183532 0.781844
O O1 0.912996 0.225575 0.682794
O O2 0.901998 0.228193 0.852988
O O3 0.989423 0.263324 0.833527
O O4 0.946120 0.000000 0.796623
O O5 0.802212 0.500000 0.032137
O O6 0.834215 0.747100 0.129588
O O7 0.750000 0.750000 0.000000
O O8 0.835238 0.723947 0.954358
O O9 0.144449 0.237394 0.499989
O O10 0.180936 0.249374 0.352824
O O11 0.141284 0.000000 0.393064
O O12 0.954098 0.500000 0.156276
O O13 0.925879 0.763857 0.206121
O O14 0.926876 0.711895 0.033205
O O15 0.662289 0.500000 0.606319
O O16 0.721187 0.274207 0.647314
O O17 0.635493 0.263762 0.683488
O O18 0.885820 0.500000 0.915267
O O19 0.230982 0.500000 0.395664
O O20 0.250000 0.750000 0.500000
O O21 0.128701 0.000000 0.786933
#
# Coordination Sequence:
#
# PCOD9185431 Si02
#       8
#     8   8   8   8   8   8   8   8
#     4  11  22  34  54  81 105 133 172 220 265 304
#     4  10  21  37  55  79 112 145 174 210 257 306
#     4   9  19  35  50  73 108 138 170 212 257 305
#     4  10  21  38  56  75 103 137 171 212 264 319
#     4   8  16  32  53  74 101 138 174 208 251 308
#     4   9  20  37  55  75 103 139 173 208 259 319
#     4   9  16  29  49  72  99 133 170 206 248 297
#     4  10  19  34  57  80 101 134 179 219 257 306
#
# _framework density 18.061995
#
# number of rings (size 3 to 8) (size 9 to 14) (size 15 to 20)
#    0.000    2.500    0.000    3.750    0.000    6.500 
#    0.000   10.625    0.000    3.750    0.000    0.000 
#    0.000    0.000    0.000    0.000    0.000    0.000 
#
# Total GULP energy -178429.080357 kJ/mol
# GULP energy per Si atom -5575.908761 kJ/mol
# Density = 1.802089 g / cm^3
# Si number density = 18.061995 Si / 1000 Ang^3
#
#
#
# Elastic Constant Matrix: (Units=GPa)
#
#
# Indices 1 2 3 4 5 6 
#
# 1 105.9046 29.4784 44.6379 0.0000 1.9259 0.0000
# 2 29.4784 31.9795 25.0320 0.0000 0.1928 0.0000
# 3 44.6379 25.0320 60.4989 0.0000 -15.4943 0.0000
# 4 0.0000 0.0000 0.0000 14.2218 0.0000 -2.6250
# 5 1.9259 0.1928 -15.4943 0.0000 26.4812 0.0000
# 6 0.0000 0.0000 0.0000 -2.6250 0.0000 33.0460
#
#
#
# Elastic Compliance Matrix: (Units=1/GPa)
#
#
# Indices 1 2 3 4 5 6 
#
# 1 0.016003 -0.005764 -0.011421 0.000000 -0.007804 0.000000
# 2 -0.005764 0.052876 -0.020721 0.000000 -0.012090 0.000000
# 3 -0.011421 -0.020721 0.039735 0.000000 0.024231 0.000000
# 4 0.000000 0.000000 0.000000 0.071361 0.000000 0.005668
# 5 -0.007804 -0.012090 0.024231 0.000000 0.052596 0.000000
# 6 0.000000 0.000000 0.000000 0.005668 0.000000 0.030711
#
#
# Mechanical properties :
#
#
# Convention : Reuss Voigt Hill
#
# Bulk Modulus (GPa) = 30.48689 44.07551 37.28120
# Shear Modulus (GPa) = 14.28454 21.36546 17.82500
#
# Velocity S-wave (km/s) = 2.81528 3.44306 3.14487
# Velocity P-wave (km/s) = 5.24246 6.34520 5.82000
#
# Compressibility (1/GPa) = 0.03280098
#
# Stress axis : x y z
#
# Youngs Moduli (GPa) = 62.48931 18.91219 25.16644
#
# Poissons Ratio (x) = 0.10901 0.28743
# Poissons Ratio (y) = 0.36020 0.52148
# Poissons Ratio (z) = 0.71369 0.39188
#
# Static dielectric constant tensor:
#      x y z
#    x 1.617330 0.000000 -0.005960 
#    y 0.000000 1.606780 0.000000 
#    z -0.005960 0.000000 1.617350 
# 
# From -- ./inp_files/244039.got.cif
#   From: 2010.05.17/outbox.cif.g08.bks.cpg/sg12_123_cif.got.tgz:244039.got - 2010.06.03 13:09:07.
