data_PCOD9185744
_publ_section_title
;
Structure prediction by ZEFSAII (Michael W. Deem and Ramdas Pophale) SiO2 
 PCOD9185744
Probable space group: C 2/M
;
_chemical_formula_sum "Si O2"
_cell_formula_units_Z 56
_cell_length_a 23.065862
_cell_length_b 24.661724
_cell_length_c 7.278421
_cell_angle_alpha 90.000000
_cell_angle_beta 137.980504
_cell_angle_gamma 90.000000
_cell_volume 2771.438573
_symmetry_space_group_name_H-M "C 2/M"
_symmetry_group_IT_number 12
_symmetry_cell_setting 'monoclinic'
loop_
_space_group_symop_operation_xyz
x,y,z
-x,y,-z
-x,-y,-z
x,-y,z
1/2+x,1/2+y,z
1/2-x,1/2+y,-z
1/2-x,1/2-y,-z
1/2+x,1/2-y,z
loop_
_atom_site_type_symbol
_atom_site_label
_atom_site_fract_x
_atom_site_fract_y
_atom_site_fract_z
Si Si1 0.845705 0.235465 0.803153
Si Si2 0.357784 0.354041 0.564940
Si Si3 0.151189 0.645527 0.122615
Si Si4 0.872656 0.062325 0.900939
Si Si5 0.596558 0.657174 0.750895
Si Si6 0.897620 0.558808 0.282182
Si Si7 0.663107 0.940122 0.444237
O O1 0.750000 0.250000 0.500000
O O2 0.891343 0.199124 0.753475
O O3 0.884742 0.293961 0.944021
O O4 0.846823 0.197593 0.987942
O O5 0.255350 0.352418 0.362508
O O6 0.391196 0.407135 0.751604
O O7 0.370910 0.352475 0.378877
O O8 0.125859 0.607751 0.233694
O O9 0.129081 0.611317 0.891976
O O10 0.767889 0.062195 0.682386
O O11 0.901909 0.000000 0.974386
O O12 0.908557 0.101112 0.146091
O O13 0.500000 0.680206 0.500000
O O14 0.860478 0.500000 0.129860
O O15 0.868553 0.564676 0.422983
O O16 0.000000 0.555440 0.500000
O O17 0.636677 0.000000 0.313457
#
# Coordination Sequence:
#
# PCOD9185744 Si02
#       7
#     8   8   8   8   8   8   8
#     4   9  21  38  57  82 108 141 187 235 280 331
#     4   9  20  38  58  80 111 145 183 233 284 330
#     4  10  19  34  58  79  99 139 188 225 268 324
#     4   9  19  36  58  85 111 141 187 232 276 337
#     4  11  23  38  57  83 116 151 185 231 290 341
#     4  10  21  34  49  76 112 143 174 220 277 330
#     4   9  18  34  55  78 106 138 177 226 271 323
#
# _framework density 20.206112000000001
#
# number of rings (size 3 to 8) (size 9 to 14) (size 15 to 20)
#    0.000    2.429    0.000    2.143    0.000    8.286 
#    0.000    4.286    0.000    0.000    0.000    0.000 
#    0.000    0.000    0.000    0.000    0.000    0.000 
#
# Total GULP energy -156100.122059 kJ/mol
# GULP energy per Si atom -5575.004359 kJ/mol
# Density = 2.016012 g / cm^3
# Si number density = 20.206112 Si / 1000 Ang^3
#
#
#
# Elastic Constant Matrix: (Units=GPa)
#
#
# Indices 1 2 3 4 5 6 
#
# 1 -1204.7434 51.6738 950.0495 0.0000 845.4390 0.0000
# 2 51.6738 173.5443 58.7253 0.0000 -42.8844 0.0000
# 3 950.0495 58.7253 -560.4696 0.0000 -672.2807 0.0000
# 4 0.0000 0.0000 0.0000 33.7741 0.0000 -2.6930
# 5 845.4390 -42.8844 -672.2807 0.0000 -560.5260 0.0000
# 6 0.0000 0.0000 0.0000 -2.6930 0.0000 27.1419
#
#
#
# Elastic Compliance Matrix: (Units=1/GPa)
#
#
# Indices 1 2 3 4 5 6 
#
# 1 0.019277 -0.002366 0.006075 0.000000 0.021971 0.000000
# 2 -0.002366 0.008136 -0.004261 0.000000 0.000919 0.000000
# 3 0.006075 -0.004261 0.007557 0.000000 0.000425 0.000000
# 4 0.000000 0.000000 0.000000 0.029845 0.000000 0.002961
# 5 0.021971 0.000919 0.000425 0.000000 0.030776 0.000000
# 6 0.000000 0.000000 0.000000 0.002961 0.000000 0.037137
#
#
# Mechanical properties :
#
#
# Convention : Reuss Voigt Hill
#
# Bulk Modulus (GPa) = 29.52899 58.80316 44.16607
# Shear Modulus (GPa) = 34.45399 -276.72982 -121.13791
#
# Velocity S-wave (km/s) = 4.13380 -11.71541 -7.75121
# Velocity P-wave (km/s) = 6.11801 12.40307 7.62910
#
# Compressibility (1/GPa) = 0.03386503
#
# Stress axis : x y z
#
# Youngs Moduli (GPa) = 51.87406 122.91409 132.32839
#
# Poissons Ratio (x) = 0.29084 -0.80385
# Poissons Ratio (y) = 0.12275 0.56385
# Poissons Ratio (z) = -0.31512 0.52374
#
# Static dielectric constant tensor:
#      x y z
#    x 1.696290 0.000000 -0.010710 
#    y 0.000000 1.769230 0.000000 
#    z -0.010710 0.000000 1.778720 
# 
# From -- ./inp_files/29630.got.cif
#   From: 2010.05.17/outbox.cif.g08.bks.cpg/sg12_15_cif.got.tgz:29630.got - 2010.06.03 13:09:07.
