data_PCOD9185213
_publ_section_title
;
Structure prediction by ZEFSAII (Michael W. Deem and Ramdas Pophale) SiO2 
 PCOD9185213
Probable space group: C 2/M
;
_chemical_formula_sum "Si O2"
_cell_formula_units_Z 64
_cell_length_a 25.357682
_cell_length_b 7.987735
_cell_length_c 14.714230
_cell_angle_alpha 90.000000
_cell_angle_beta 88.510454
_cell_angle_gamma 90.000000
_cell_volume 2979.366706
_symmetry_space_group_name_H-M "C 2/M"
_symmetry_group_IT_number 12
_symmetry_cell_setting 'monoclinic'
loop_
_space_group_symop_operation_xyz
x,y,z
-x,y,-z
-x,-y,-z
x,-y,z
1/2+x,1/2+y,z
1/2-x,1/2+y,-z
1/2-x,1/2-y,-z
1/2+x,1/2-y,z
loop_
_atom_site_type_symbol
_atom_site_label
_atom_site_fract_x
_atom_site_fract_y
_atom_site_fract_z
Si Si1 0.112619 0.809505 0.632498
Si Si2 0.083458 0.806161 0.261171
Si Si3 0.945439 0.799072 0.046580
Si Si4 0.691248 0.300998 0.783391
Si Si5 0.057677 0.304445 0.461267
Si Si6 0.029780 0.313878 0.761988
Si Si7 0.803300 0.796462 0.818017
Si Si8 0.169189 0.798039 0.988274
O O1 0.154872 0.736060 0.702717
O O2 0.099914 0.716936 0.539799
O O3 0.057308 0.807838 0.689730
O O4 0.127876 0.000000 0.610292
O O5 0.076111 0.788502 0.369786
O O6 0.032058 0.717174 0.222908
O O7 0.140513 0.744164 0.226219
O O8 0.079862 0.000000 0.233486
O O9 0.892961 0.765760 0.992299
O O10 0.941872 0.713541 0.144000
O O11 0.947865 0.000000 0.061256
O O12 0.000000 0.745258 0.000000
O O13 0.679485 0.500000 0.788040
O O14 0.753079 0.270867 0.766330
O O15 0.680849 0.232883 0.886269
O O16 0.052033 0.500000 0.437768
O O17 0.000000 0.247033 0.500000
O O18 0.038411 0.500000 0.726103
O O19 0.801448 0.000000 0.817252
O O20 0.800479 0.736955 0.923762
O O21 0.176367 0.000000 0.985172
#
# Coordination Sequence:
#
# PCOD9185213 Si02
#       8
#     8   8   8   8   8   8   8   8
#     4  11  22  39  63  89 117 156 201 240 287 358
#     4  11  23  40  62  88 119 160 203 242 293 363
#     4  10  19  34  56  80 115 162 204 243 293 357
#     4  10  21  38  61  87 119 158 202 247 294 347
#     4  11  23  39  62  94 124 151 190 246 306 355
#     4  12  23  35  55  86 123 156 192 245 302 352
#     4  10  22  39  61  88 118 155 203 250 295 348
#     4   9  17  34  57  85 118 154 201 246 287 346
#
# _framework density 21.481075000000001
#
# number of rings (size 3 to 8) (size 9 to 14) (size 15 to 20)
#    0.000    1.500    2.500    3.375    0.000    4.750 
#    0.000    1.250    0.000    0.000    0.000    0.000 
#    0.000    0.000    0.000    0.000    0.000    0.000 
#
# Total GULP energy -178770.142803 kJ/mol
# GULP energy per Si atom -5586.566963 kJ/mol
# Density = 2.143218 g / cm^3
# Si number density = 21.481075 Si / 1000 Ang^3
#
#
#
# Elastic Constant Matrix: (Units=GPa)
#
#
# Indices 1 2 3 4 5 6 
#
# 1 109.2257 -3.5665 28.7537 0.0000 21.3714 0.0000
# 2 -3.5665 23.9815 -0.9895 0.0000 3.8581 0.0000
# 3 28.7537 -0.9895 78.8393 0.0000 23.3644 0.0000
# 4 0.0000 0.0000 0.0000 -13.0530 0.0000 -1.5999
# 5 21.3714 3.8581 23.3644 0.0000 35.5670 0.0000
# 6 0.0000 0.0000 0.0000 -1.5999 0.0000 21.7842
#
#
#
# Elastic Compliance Matrix: (Units=1/GPa)
#
#
# Indices 1 2 3 4 5 6 
#
# 1 0.010884 0.002361 -0.002392 0.000000 -0.005225 0.000000
# 2 0.002361 0.043307 0.001857 0.000000 -0.007336 0.000000
# 3 -0.002392 0.001857 0.016408 0.000000 -0.009543 0.000000
# 4 0.000000 0.000000 0.000000 -0.075927 0.000000 -0.005576
# 5 -0.005225 -0.007336 -0.009543 0.000000 0.038320 0.000000
# 6 0.000000 0.000000 0.000000 -0.005576 0.000000 0.045495
#
#
# Mechanical properties :
#
#
# Convention : Reuss Voigt Hill
#
# Bulk Modulus (GPa) = 13.46803 28.93798 21.20300
# Shear Modulus (GPa) = 50.20808 21.38288 35.79548
#
# Velocity S-wave (km/s) = 4.83983 3.15846 4.08655
# Velocity P-wave (km/s) = 6.12497 5.17705 5.67085
#
# Compressibility (1/GPa) = 0.07424993
#
# Stress axis : x y z
#
# Youngs Moduli (GPa) = 91.87475 23.09118 60.94737
#
# Poissons Ratio (x) = -0.05451 0.14576
# Poissons Ratio (y) = -0.21688 -0.11315
# Poissons Ratio (z) = 0.21972 -0.04287
#
# Static dielectric constant tensor:
#      x y z
#    x 1.782230 0.000000 -0.000640 
#    y 0.000000 1.774950 0.000000 
#    z -0.000640 0.000000 1.781460 
# 
# From -- ./inp_files/238801.got.cif
#   From: 2010.05.17/outbox.cif.g08.bks.cpg/sg12_120_cif.got.tgz:238801.got - 2010.06.03 13:09:07.
