data_PCOD9185951
_publ_section_title
;
Structure prediction by ZEFSAII (Michael W. Deem and Ramdas Pophale) SiO2 
 PCOD9185951
Probable space group: C 2/M
;
_chemical_formula_sum "Si O2"
_cell_formula_units_Z 48
_cell_length_a 30.164266
_cell_length_b 9.119361
_cell_length_c 14.256968
_cell_angle_alpha 90.000000
_cell_angle_beta 38.619370
_cell_angle_gamma 90.000000
_cell_volume 2447.760852
_symmetry_space_group_name_H-M "C 2/M"
_symmetry_group_IT_number 12
_symmetry_cell_setting 'monoclinic'
loop_
_space_group_symop_operation_xyz
x,y,z
-x,y,-z
-x,-y,-z
x,-y,z
1/2+x,1/2+y,z
1/2-x,1/2+y,-z
1/2-x,1/2-y,-z
1/2+x,1/2-y,z
loop_
_atom_site_type_symbol
_atom_site_label
_atom_site_fract_x
_atom_site_fract_y
_atom_site_fract_z
Si Si1 0.773415 0.671180 0.623997
Si Si2 0.103609 0.171503 0.889774
Si Si3 0.141475 0.673141 0.150022
Si Si4 0.973706 0.675019 0.811507
Si Si5 0.289574 0.672459 0.793811
Si Si6 0.604868 0.325355 0.674983
O O1 0.791998 0.500000 0.587966
O O2 0.688902 0.684124 0.751773
O O3 0.793059 0.737489 0.692570
O O4 0.818194 0.759767 0.473710
O O5 0.081747 0.209528 0.819829
O O6 0.084752 0.000000 0.938584
O O7 0.070344 0.270783 0.025079
O O8 0.137981 0.500000 0.179409
O O9 0.072439 0.713834 0.203893
O O10 0.156142 0.766912 0.218229
O O11 0.210759 0.692314 0.968880
O O12 0.981925 0.500000 0.800039
O O13 0.049089 0.753960 0.695905
O O14 0.299937 0.500000 0.759296
O O15 0.606337 0.500000 0.663697
#
# Coordination Sequence:
#
# PCOD9185951 Si02
#       6
#     8   8   8   8   8   8
#     4  11  22  38  60  86 116 152 193 237 288 341
#     4  10  22  39  60  85 114 152 196 240 284 336
#     4   9  19  35  56  85 116 147 186 234 283 336
#     4  11  22  38  60  87 118 152 192 236 285 340
#     4  10  19  34  58  87 115 147 187 234 286 339
#     4  11  24  40  57  82 119 156 193 238 287 339
#
# _framework density 19.609759
#
# number of rings (size 3 to 8) (size 9 to 14) (size 15 to 20)
#    0.000    1.667    1.667    3.000    0.000    6.000 
#    0.000    0.833    0.000    5.000    0.000    0.000 
#    0.000    0.000    0.000    0.000    0.000    0.000 
#
# Total GULP energy -134162.193130 kJ/mol
# GULP energy per Si atom -5590.091380 kJ/mol
# Density = 1.956513 g / cm^3
# Si number density = 19.609759 Si / 1000 Ang^3
#
#
#
# Elastic Constant Matrix: (Units=GPa)
#
#
# Indices 1 2 3 4 5 6 
#
# 1 100.5611 34.5626 -2.5716 0.0000 -7.7339 0.0000
# 2 34.5626 52.3408 12.6918 -0.0002 -4.5267 0.0000
# 3 -2.5716 12.6918 24.4402 -0.0001 -6.1052 0.0000
# 4 0.0000 -0.0002 -0.0001 32.6541 0.0000 1.5379
# 5 -7.7339 -4.5267 -6.1052 0.0000 20.8614 0.0000
# 6 0.0000 0.0000 0.0000 1.5379 0.0000 29.3957
#
#
#
# Elastic Compliance Matrix: (Units=1/GPa)
#
#
# Indices 1 2 3 4 5 6 
#
# 1 0.014419 -0.011152 0.008673 0.000000 0.005464 0.000000
# 2 -0.011152 0.030529 -0.017699 0.000000 -0.002690 0.000000
# 3 0.008673 -0.017699 0.054875 0.000000 0.015434 0.000000
# 4 0.000000 0.000000 0.000000 0.030700 0.000000 -0.001606
# 5 0.005464 -0.002690 0.015434 0.000000 0.053894 0.000000
# 6 0.000000 0.000000 0.000000 -0.001606 0.000000 0.034103
#
#
# Mechanical properties :
#
#
# Convention : Reuss Voigt Hill
#
# Bulk Modulus (GPa) = 16.81573 29.63420 23.22497
# Shear Modulus (GPa) = 17.94058 25.42620 21.68339
#
# Velocity S-wave (km/s) = 3.02798 3.60475 3.32888
# Velocity P-wave (km/s) = 4.56275 5.69828 5.16184
#
# Compressibility (1/GPa) = 0.05946812
#
# Stress axis : x y z
#
# Youngs Moduli (GPa) = 69.35206 32.75597 18.22311
#
# Poissons Ratio (x) = 0.36530 -0.15806
# Poissons Ratio (y) = 0.77342 0.32253
# Poissons Ratio (z) = -0.60152 0.57974
#
# Static dielectric constant tensor:
#      x y z
#    x 1.678690 0.000000 -0.019910 
#    y 0.000000 1.644320 0.000000 
#    z -0.019910 0.000000 1.693720 
# 
# From -- ./inp_files/244587.got.cif
#   From: 2010.05.17/outbox.cif.g08.bks.cpg/sg12_123_cif.got.tgz:244587.got - 2010.06.03 13:09:07.
