data_PCOD9185063
_publ_section_title
;
Structure prediction by ZEFSAII (Michael W. Deem and Ramdas Pophale) SiO2 
 PCOD9185063
Probable space group: C 2/M
;
_chemical_formula_sum "Si O2"
_cell_formula_units_Z 60
_cell_length_a 11.415950
_cell_length_b 26.595799
_cell_length_c 8.603013
_cell_angle_alpha 90.000000
_cell_angle_beta 110.362743
_cell_angle_gamma 90.000000
_cell_volume 2448.786212
_symmetry_space_group_name_H-M "C 2/M"
_symmetry_group_IT_number 12
_symmetry_cell_setting 'monoclinic'
loop_
_space_group_symop_operation_xyz
x,y,z
-x,y,-z
-x,-y,-z
x,-y,z
1/2+x,1/2+y,z
1/2-x,1/2+y,-z
1/2-x,1/2-y,-z
1/2+x,1/2-y,z
loop_
_atom_site_type_symbol
_atom_site_label
_atom_site_fract_x
_atom_site_fract_y
_atom_site_fract_z
Si Si1 0.000000 0.377997 0.000000
Si Si2 0.795589 0.692911 0.832399
Si Si3 0.801008 0.629194 0.373832
Si Si4 0.322052 0.555124 0.093944
Si Si5 0.136868 0.833725 0.015670
Si Si6 0.147244 0.107195 0.583851
Si Si7 0.064185 0.444258 0.782016
Si Si8 0.890729 0.726897 0.572381
O O1 0.883158 0.342945 0.976875
O O2 0.968291 0.411661 0.836963
O O3 0.691026 0.705510 0.913379
O O4 0.712764 0.657197 0.682168
O O5 0.891560 0.722893 0.763161
O O6 0.704143 0.600894 0.440202
O O7 0.887822 0.587689 0.337925
O O8 0.876446 0.670253 0.504703
O O9 0.726019 0.659726 0.206080
O O10 0.379565 0.500000 0.083599
O O11 0.376111 0.608460 0.056538
O O12 0.324651 0.563436 0.279918
O O13 0.184076 0.553050 0.954186
O O14 0.000000 0.817703 0.000000
O O15 0.000000 0.114329 0.500000
O O16 0.021470 0.500000 0.726452
O O17 0.750000 0.750000 0.500000
O O18 0.000000 0.747641 0.500000
#
# Coordination Sequence:
#
# PCOD9185063 Si02
#       8
#     4   8   8   8   8   8   8   8
#     4  12  17  38  68  88 128 170 222 262 329 380
#     4  10  22  39  68  97 124 176 213 268 337 398
#     4  10  20  38  62  92 130 171 215 277 331 389
#     4   9  18  33  48  78 121 170 224 272 327 383
#     4  10  19  36  60  91 123 170 222 269 321 390
#     4  10  19  34  55  83 120 168 219 264 320 392
#     4  10  20  34  59  90 125 172 225 273 323 386
#     4  11  26  46  72 101 136 173 221 274 346 418
#
# _framework density 24.501936000000001
#
# number of rings (size 3 to 8) (size 9 to 14) (size 15 to 20)
#    0.000    1.867    4.000    2.600    0.000    4.267 
#    0.000    3.333    1.467    3.600    0.000    0.000 
#    0.000    0.000    0.000    0.000    0.000    0.000 
#
# Total GULP energy -167271.642278 kJ/mol
# GULP energy per Si atom -5575.721409 kJ/mol
# Density = 2.444617 g / cm^3
# Si number density = 24.501936 Si / 1000 Ang^3
#
#
#
# Elastic Constant Matrix: (Units=GPa)
#
#
# Indices 1 2 3 4 5 6 
#
# 1 165.2743 31.2609 33.0989 0.0000 -35.3804 0.0000
# 2 31.2609 84.1687 15.1986 0.0000 -8.2676 0.0000
# 3 33.0989 15.1986 81.7512 0.0000 -18.1835 0.0000
# 4 0.0000 0.0000 0.0000 14.7328 0.0000 2.6289
# 5 -35.3804 -8.2676 -18.1835 0.0000 46.9413 0.0000
# 6 0.0000 0.0000 0.0000 2.6289 0.0000 11.2849
#
#
#
# Elastic Compliance Matrix: (Units=1/GPa)
#
#
# Indices 1 2 3 4 5 6 
#
# 1 0.007835 -0.002126 -0.001693 0.000000 0.004876 0.000000
# 2 -0.002126 0.012955 -0.001528 0.000000 0.000088 0.000000
# 3 -0.001693 -0.001528 0.014070 0.000000 0.003905 0.000000
# 4 0.000000 0.000000 0.000000 0.070820 0.000000 -0.016498
# 5 0.004876 0.000088 0.003905 0.000000 0.026506 0.000000
# 6 0.000000 0.000000 0.000000 -0.016498 0.000000 0.092457
#
#
# Mechanical properties :
#
#
# Convention : Reuss Voigt Hill
#
# Bulk Modulus (GPa) = 41.37829 54.47899 47.92864
# Shear Modulus (GPa) = 20.54295 31.36753 25.95524
#
# Velocity S-wave (km/s) = 2.89869 3.58188 3.25824
# Velocity P-wave (km/s) = 5.30355 6.27609 5.81020
#
# Compressibility (1/GPa) = 0.02416726
#
# Stress axis : x y z
#
# Youngs Moduli (GPa) = 127.62794 77.19065 71.07135
#
# Poissons Ratio (x) = 0.16407 0.12030
# Poissons Ratio (y) = 0.27128 0.10863
# Poissons Ratio (z) = 0.21604 0.11798
#
# Static dielectric constant tensor:
#      x y z
#    x 2.006940 0.000000 -0.050500 
#    y 0.000000 1.976880 0.000000 
#    z -0.050500 0.000000 2.037590 
# 
# From -- ./inp_files/54766.got.cif
#   From: 2010.05.17/outbox.cif.g08.bks.cpg/sg12_28_cif.got.tgz:54766.got - 2010.06.03 13:09:07.
