data_PCOD9185520
_publ_section_title
;
Structure prediction by ZEFSAII (Michael W. Deem and Ramdas Pophale) SiO2 
 PCOD9185520
Probable space group: C 2/M
;
_chemical_formula_sum "Si O2"
_cell_formula_units_Z 64
_cell_length_a 15.992069
_cell_length_b 7.705721
_cell_length_c 32.069275
_cell_angle_alpha 90.000000
_cell_angle_beta 129.630102
_cell_angle_gamma 90.000000
_cell_volume 3043.675340
_symmetry_space_group_name_H-M "C 2/M"
_symmetry_group_IT_number 12
_symmetry_cell_setting 'monoclinic'
loop_
_space_group_symop_operation_xyz
x,y,z
-x,y,-z
-x,-y,-z
x,-y,z
1/2+x,1/2+y,z
1/2-x,1/2+y,-z
1/2-x,1/2-y,-z
1/2+x,1/2-y,z
loop_
_atom_site_type_symbol
_atom_site_label
_atom_site_fract_x
_atom_site_fract_y
_atom_site_fract_z
Si Si1 0.447360 0.200249 0.441934
Si Si2 0.744543 0.286588 0.325195
Si Si3 0.862838 0.207637 0.558208
Si Si4 0.670312 0.294035 0.133746
Si Si5 0.687413 0.207766 0.744413
Si Si6 0.934700 0.791374 0.671290
Si Si7 0.748376 0.205269 0.067547
Si Si8 0.076475 0.789742 0.942358
O O1 0.500000 0.281825 0.500000
O O2 0.339045 0.273753 0.386853
O O3 0.539554 0.206689 0.436210
O O4 0.420285 0.000000 0.444327
O O5 0.748530 0.500000 0.325728
O O6 0.770542 0.226023 0.286897
O O7 0.630418 0.232082 0.308660
O O8 0.750000 0.250000 0.500000
O O9 0.872536 0.264641 0.609330
O O10 0.878014 0.000000 0.561703
O O11 0.660163 0.500000 0.137349
O O12 0.743941 0.222957 0.194677
O O13 0.726081 0.272003 0.106626
O O14 0.546885 0.224847 0.094989
O O15 0.559766 0.240512 0.708839
O O16 0.701171 0.000000 0.747894
O O17 0.931047 0.000000 0.670432
O O18 0.852969 0.272881 0.075009
O O19 0.761807 0.000000 0.075410
O O20 0.644886 0.241603 0.005124
O O21 0.074880 0.000000 0.940375
#
# Coordination Sequence:
#
# PCOD9185520 Si02
#       8
#     8   8   8   8   8   8   8   8
#     4  10  19  34  57  82 110 143 182 227 278 339
#     4   9  18  35  58  79 105 144 184 222 274 336
#     4  11  22  35  54  82 115 146 181 227 281 341
#     4  10  21  36  55  79 110 149 191 230 275 334
#     4  10  21  38  58  80 107 145 192 235 275 329
#     4  10  21  38  59  82 109 143 183 229 281 335
#     4  10  20  34  56  86 115 146 186 233 281 327
#     4   9  19  36  56  80 114 153 187 225 276 334
#
# _framework density 21.027208999999999
#
# number of rings (size 3 to 8) (size 9 to 14) (size 15 to 20)
#    0.000    2.125    1.250    1.875    0.000    6.750 
#    0.000    3.750    0.000    0.000    0.000    0.000 
#    0.000    0.000    0.000    0.000    0.000    0.000 
#
# Total GULP energy -178693.280950 kJ/mol
# GULP energy per Si atom -5584.165030 kJ/mol
# Density = 2.097935 g / cm^3
# Si number density = 21.027209 Si / 1000 Ang^3
#
#
#
# Elastic Constant Matrix: (Units=GPa)
#
#
# Indices 1 2 3 4 5 6 
#
# 1 132.3259 -10.1334 56.9042 0.0000 -25.6995 0.0000
# 2 -10.1334 26.9415 -11.7417 0.0000 1.6640 0.0000
# 3 56.9042 -11.7417 92.9584 0.0000 -23.4246 0.0000
# 4 0.0000 0.0000 0.0000 -4.9523 0.0000 -1.6427
# 5 -25.6995 1.6640 -23.4246 0.0000 18.8971 0.0000
# 6 0.0000 0.0000 0.0000 -1.6427 0.0000 23.8314
#
#
#
# Elastic Compliance Matrix: (Units=1/GPa)
#
#
# Indices 1 2 3 4 5 6 
#
# 1 0.011507 0.001852 -0.004228 0.000000 0.010244 0.000000
# 2 0.001852 0.039778 0.005297 0.000000 0.005583 0.000000
# 3 -0.004228 0.005297 0.018103 0.000000 0.016223 0.000000
# 4 0.000000 0.000000 0.000000 -0.197411 0.000000 -0.013607
# 5 0.010244 0.005583 0.016223 0.000000 0.086469 0.000000
# 6 0.000000 0.000000 0.000000 -0.013607 0.000000 0.041024
#
#
# Mechanical properties :
#
#
# Convention : Reuss Voigt Hill
#
# Bulk Modulus (GPa) = 13.29241 35.80933 24.55087
# Shear Modulus (GPa) = 267.32144 22.03500 144.67822
#
# Velocity S-wave (km/s) = 11.28748 3.24068 8.30389
# Velocity P-wave (km/s) = 13.27447 5.57402 10.18040
#
# Compressibility (1/GPa) = 0.07523088
#
# Stress axis : x y z
#
# Youngs Moduli (GPa) = 86.90415 25.13947 55.23886
#
# Poissons Ratio (x) = -0.04657 0.23357
# Poissons Ratio (y) = -0.16099 -0.29262
# Poissons Ratio (z) = 0.36747 -0.13317
#
# Static dielectric constant tensor:
#      x y z
#    x 1.751350 0.000000 -0.011000 
#    y 0.000000 1.701680 0.000000 
#    z -0.011000 0.000000 1.743550 
# 
# From -- ./inp_files/375633.got.cif
#   From: 2010.05.17/outbox.cif.g08.bks.cpg/sg12_188_cif.got.tgz:375633.got - 2010.06.03 13:09:07.
