data_PCOD9185438
_publ_section_title
;
Structure prediction by ZEFSAII (Michael W. Deem and Ramdas Pophale) SiO2 
 PCOD9185438
Probable space group: C 2/M
;
_chemical_formula_sum "Si O2"
_cell_formula_units_Z 50
_cell_length_a 24.282456
_cell_length_b 7.509386
_cell_length_c 15.347873
_cell_angle_alpha 90.000000
_cell_angle_beta 128.710799
_cell_angle_gamma 90.000000
_cell_volume 2183.804855
_symmetry_space_group_name_H-M "C 2/M"
_symmetry_group_IT_number 12
_symmetry_cell_setting 'monoclinic'
loop_
_space_group_symop_operation_xyz
x,y,z
-x,y,-z
-x,-y,-z
x,-y,z
1/2+x,1/2+y,z
1/2-x,1/2+y,-z
1/2-x,1/2-y,-z
1/2+x,1/2-y,z
loop_
_atom_site_type_symbol
_atom_site_label
_atom_site_fract_x
_atom_site_fract_y
_atom_site_fract_z
Si Si1 0.500000 0.000000 0.000000
Si Si2 0.088864 0.295834 0.360312
Si Si3 0.564249 0.295775 0.845063
Si Si4 0.829149 0.283320 0.202204
Si Si5 0.174744 0.205309 0.080371
Si Si6 0.872560 0.302736 0.785024
Si Si7 0.922851 0.282616 0.458099
O O1 0.548834 0.846786 0.099996
O O2 0.114010 0.500000 0.390367
O O3 0.005292 0.299678 0.256950
O O4 0.123166 0.218211 0.306309
O O5 0.094955 0.216207 0.462587
O O6 0.542740 0.500000 0.841196
O O7 0.622700 0.288270 0.827264
O O8 0.605005 0.211589 0.967908
O O9 0.829450 0.500000 0.196881
O O10 0.748599 0.219105 0.120713
O O11 0.865336 0.234530 0.329294
O O12 0.168539 0.209742 0.177846
O O13 0.173254 0.000000 0.050347
O O14 0.839522 0.500000 0.744041
O O15 0.925671 0.500000 0.465598
O O16 0.000000 0.225270 0.500000
#
# Coordination Sequence:
#
# PCOD9185438 Si02
#       7
#     2   8   8   8   8   8   8
#     4   8  16  32  50  76 102 136 176 204 260 288
#     4  10  19  34  57  80 105 135 178 223 262 311
#     4  11  22  33  50  80 111 138 173 216 272 317
#     4  10  20  37  56  76 104 142 183 216 259 319
#     4  10  22  36  52  76 111 147 174 212 265 323
#     4   9  19  33  54  78 106 137 182 214 259 306
#     4   9  16  31  56  82  98 130 180 226 262 303
#
# _framework density 22.895817000000001
#
# number of rings (size 3 to 8) (size 9 to 14) (size 15 to 20)
#    0.480    1.760    1.600    1.920    0.000    1.920 
#    0.000    4.400    0.000    0.000    0.000    0.000 
#    0.000    0.000    0.000    0.000    0.000    0.000 
#
# Total GULP energy -139245.641135 kJ/mol
# GULP energy per Si atom -5569.825645 kJ/mol
# Density = 2.284371 g / cm^3
# Si number density = 22.895817 Si / 1000 Ang^3
#
#
#
# Elastic Constant Matrix: (Units=GPa)
#
#
# Indices 1 2 3 4 5 6 
#
# 1 54.3158 -15.3090 9.4965 0.0000 -28.8015 0.0000
# 2 -15.3090 63.4423 1.0292 0.0000 0.7242 0.0000
# 3 9.4965 1.0292 71.4612 0.0000 -35.0778 0.0000
# 4 0.0000 0.0000 0.0000 1.7966 0.0000 -5.8182
# 5 -28.8015 0.7242 -35.0778 0.0000 46.4725 0.0000
# 6 0.0000 0.0000 0.0000 -5.8182 0.0000 8.7439
#
#
#
# Elastic Compliance Matrix: (Units=1/GPa)
#
#
# Indices 1 2 3 4 5 6 
#
# 1 0.033503 0.007629 0.008851 0.000000 0.027326 0.000000
# 2 0.007629 0.017516 0.001463 0.000000 0.005559 0.000000
# 3 0.008851 0.001463 0.024588 0.000000 0.024022 0.000000
# 4 0.000000 0.000000 0.000000 -0.481966 0.000000 -0.320700
# 5 0.027326 0.005559 0.024022 0.000000 0.056499 0.000000
# 6 0.000000 0.000000 0.000000 -0.320700 0.000000 -0.099029
#
#
# Mechanical properties :
#
#
# Convention : Reuss Voigt Hill
#
# Bulk Modulus (GPa) = 8.96914 19.96140 14.46527
# Shear Modulus (GPa) = -11.17041 24.33612 6.58286
#
# Velocity S-wave (km/s) = -2.21120 3.26376 1.69746
# Velocity P-wave (km/s) = 1.61038 4.78959 3.18958
#
# Compressibility (1/GPa) = 0.11149340
#
# Stress axis : x y z
#
# Youngs Moduli (GPa) = 29.84765 57.09026 40.67074
#
# Poissons Ratio (x) = -0.43555 -0.35998
# Poissons Ratio (y) = -0.22771 -0.05949
# Poissons Ratio (z) = -0.26419 -0.08351
#
# Static dielectric constant tensor:
#      x y z
#    x 1.868310 0.000000 -0.022430 
#    y 0.000000 2.102760 0.000000 
#    z -0.022430 0.000000 1.859020 
# 
# From -- ./inp_files/244371.got.cif
#   From: 2010.05.17/outbox.cif.g08.bks.cpg/sg12_123_cif.got.tgz:244371.got - 2010.06.03 13:09:07.
