data_PCOD9185218
_publ_section_title
;
Structure prediction by ZEFSAII (Michael W. Deem and Ramdas Pophale) SiO2 
 PCOD9185218
Probable space group: C 2/M
;
_chemical_formula_sum "Si O2"
_cell_formula_units_Z 56
_cell_length_a 20.685928
_cell_length_b 9.601692
_cell_length_c 17.700445
_cell_angle_alpha 90.000000
_cell_angle_beta 60.589977
_cell_angle_gamma 90.000000
_cell_volume 3062.590271
_symmetry_space_group_name_H-M "C 2/M"
_symmetry_group_IT_number 12
_symmetry_cell_setting 'monoclinic'
loop_
_space_group_symop_operation_xyz
x,y,z
-x,y,-z
-x,-y,-z
x,-y,z
1/2+x,1/2+y,z
1/2-x,1/2+y,-z
1/2-x,1/2-y,-z
1/2+x,1/2-y,z
loop_
_atom_site_type_symbol
_atom_site_label
_atom_site_fract_x
_atom_site_fract_y
_atom_site_fract_z
Si Si1 0.414821 0.166344 0.034443
Si Si2 0.832172 0.843310 0.371008
Si Si3 0.155963 0.342864 0.500237
Si Si4 0.580971 0.339871 0.416418
Si Si5 0.143004 0.335092 0.254371
Si Si6 0.175504 0.665893 0.062480
Si Si7 0.812487 0.165078 0.207539
O O1 0.361324 0.246261 0.122410
O O2 0.408754 0.000000 0.050179
O O3 0.500000 0.206674 0.000000
O O4 0.385841 0.194879 0.966331
O O5 0.865639 0.731274 0.408984
O O6 0.745087 0.851836 0.442799
O O7 0.833836 0.804772 0.281998
O O8 0.863273 0.000000 0.363546
O O9 0.126401 0.500000 0.510681
O O10 0.130562 0.246085 0.446627
O O11 0.500000 0.339135 0.500000
O O12 0.605551 0.500000 0.394394
O O13 0.586890 0.259576 0.333788
O O14 0.126755 0.500000 0.272842
O O15 0.147751 0.301875 0.162834
O O16 0.225414 0.309732 0.241461
O O17 0.192041 0.500000 0.051425
O O18 0.250000 0.750000 0.000000
O O19 0.824286 0.000000 0.188286
#
# Coordination Sequence:
#
# PCOD9185218 Si02
#       7
#     8   8   8   8   8   8   8
#     4  10  22  39  57  83 122 157 190 237 294 353
#     4   9  18  33  53  80 112 141 178 230 281 331
#     4  10  19  34  56  81 108 143 184 228 280 335
#     4  11  24  40  57  80 115 154 194 243 297 349
#     4  10  20  37  60  86 113 146 198 249 291 348
#     4  10  20  36  61  89 118 153 194 246 294 347
#     4  10  19  35  59  85 113 146 188 239 288 344
#
# _framework density 18.285174999999999
#
# number of rings (size 3 to 8) (size 9 to 14) (size 15 to 20)
#    0.000    2.000    2.857    0.857    0.000    3.714 
#    2.571    0.000    0.000    0.000    0.000    0.000 
#    0.000    0.000    0.000    0.000    0.000    0.000 
#
# Total GULP energy -156236.927866 kJ/mol
# GULP energy per Si atom -5579.890281 kJ/mol
# Density = 1.824356 g / cm^3
# Si number density = 18.285175 Si / 1000 Ang^3
#
#
#
# Elastic Constant Matrix: (Units=GPa)
#
#
# Indices 1 2 3 4 5 6 
#
# 1 56.4106 38.2403 39.3367 0.0000 13.0610 0.0000
# 2 38.2403 88.6116 74.5316 0.0000 14.0366 0.0000
# 3 39.3367 74.5316 134.6018 0.0000 29.1652 0.0000
# 4 0.0000 0.0000 0.0000 36.1860 0.0000 3.4196
# 5 13.0610 14.0366 29.1652 0.0000 27.4923 0.0000
# 6 0.0000 0.0000 0.0000 3.4196 0.0000 -6.1327
#
#
#
# Elastic Compliance Matrix: (Units=1/GPa)
#
#
# Indices 1 2 3 4 5 6 
#
# 1 0.026403 -0.009474 -0.001039 0.000000 -0.006604 0.000000
# 2 -0.009474 0.024617 -0.011834 0.000000 0.004487 0.000000
# 3 -0.001039 -0.011834 0.016711 0.000000 -0.011192 0.000000
# 4 0.000000 0.000000 0.000000 0.026252 0.000000 0.014638
# 5 -0.006604 0.004487 -0.011192 0.000000 0.049093 0.000000
# 6 0.000000 0.000000 0.000000 0.014638 0.000000 -0.154898
#
#
# Mechanical properties :
#
#
# Convention : Reuss Voigt Hill
#
# Bulk Modulus (GPa) = 43.41065 64.87123 54.14094
# Shear Modulus (GPa) = 123.29852 20.01015 71.65433
#
# Velocity S-wave (km/s) = 8.22054 3.31167 6.26675
# Velocity P-wave (km/s) = 10.67218 7.08360 9.05739
#
# Compressibility (1/GPa) = 0.02303582
#
# Stress axis : x y z
#
# Youngs Moduli (GPa) = 37.87398 40.62261 59.84104
#
# Poissons Ratio (x) = 0.38486 0.06220
# Poissons Ratio (y) = 0.35882 0.70817
# Poissons Ratio (z) = 0.03936 0.48074
#
# Static dielectric constant tensor:
#      x y z
#    x 1.632720 0.000000 0.013670 
#    y 0.000000 1.628700 0.000000 
#    z 0.013670 0.000000 1.612850 
# 
# From -- ./inp_files/281040.got.cif
#   From: 2010.05.17/outbox.cif.g08.bks.cpg/sg12_141_cif.got.tgz:281040.got - 2010.06.03 13:09:07.
