data_PCOD9185019
_publ_section_title
;
Structure prediction by ZEFSAII (Michael W. Deem and Ramdas Pophale) SiO2 
 PCOD9185019
Probable space group: C 2/M
;
_chemical_formula_sum "Si O2"
_cell_formula_units_Z 56
_cell_length_a 16.131857
_cell_length_b 19.511650
_cell_length_c 14.488467
_cell_angle_alpha 90.000000
_cell_angle_beta 40.123357
_cell_angle_gamma 90.000000
_cell_volume 2938.868720
_symmetry_space_group_name_H-M "C 2/M"
_symmetry_group_IT_number 12
_symmetry_cell_setting 'monoclinic'
loop_
_space_group_symop_operation_xyz
x,y,z
-x,y,-z
-x,-y,-z
x,-y,z
1/2+x,1/2+y,z
1/2-x,1/2+y,-z
1/2-x,1/2-y,-z
1/2+x,1/2-y,z
loop_
_atom_site_type_symbol
_atom_site_label
_atom_site_fract_x
_atom_site_fract_y
_atom_site_fract_z
Si Si1 0.405940 0.688990 0.931031
Si Si2 0.535058 0.241237 0.651720
Si Si3 0.906459 0.380833 0.653364
Si Si4 0.956972 0.582231 0.138283
Si Si5 0.308549 0.922411 0.928474
Si Si6 0.170065 0.195480 0.801170
Si Si7 0.257818 0.180235 0.392020
O O1 0.438808 0.737657 0.816589
O O2 0.544087 0.667703 0.855891
O O3 0.311115 0.629364 0.977408
O O4 0.347868 0.718571 0.076438
O O5 0.466114 0.192418 0.636886
O O6 0.650661 0.196814 0.598398
O O7 0.609542 0.308432 0.548526
O O8 0.875032 0.421752 0.771728
O O9 0.774282 0.363541 0.715741
O O10 0.000000 0.413468 0.500000
O O11 0.945553 0.500000 0.147831
O O12 0.078065 0.600999 0.099834
O O13 0.824143 0.614637 0.288342
O O14 0.000000 0.605793 0.000000
O O15 0.269506 0.000000 0.986497
O O16 0.217669 0.259221 0.701841
#
# Coordination Sequence:
#
# PCOD9185019 Si02
#       7
#     8   8   8   8   8   8   8
#     4   9  20  36  53  81 114 146 190 233 278 341
#     4  10  20  33  53  84 113 148 179 233 289 338
#     4  11  20  35  56  86 118 146 184 235 280 346
#     4  10  22  38  59  85 111 150 198 239 278 333
#     4  10  22  40  58  78 113 157 195 233 276 334
#     4   9  19  33  53  84 115 144 182 236 287 335
#     4  10  19  34  55  81 116 146 184 230 288 338
#
# _framework density 19.054952
#
# number of rings (size 3 to 8) (size 9 to 14) (size 15 to 20)
#    0.000    2.143    2.857    0.000    4.000    3.714 
#    0.000    6.429    0.000    0.000    0.000    5.000 
#    0.000    0.000    0.000    0.000    0.000    0.000 
#
# Total GULP energy -156024.798454 kJ/mol
# GULP energy per Si atom -5572.314231 kJ/mol
# Density = 1.901158 g / cm^3
# Si number density = 19.054952 Si / 1000 Ang^3
#
#
#
# Elastic Constant Matrix: (Units=GPa)
#
#
# Indices 1 2 3 4 5 6 
#
# 1 56.8767 19.1860 5.1837 0.0004 8.2611 -0.0001
# 2 19.1860 48.4921 22.2958 0.0001 4.3299 0.0000
# 3 5.1837 22.2958 76.7247 0.0003 2.7916 -0.0001
# 4 0.0004 0.0001 0.0003 -19.2855 -0.0003 12.0459
# 5 8.2611 4.3299 2.7916 -0.0003 11.0717 0.0001
# 6 -0.0001 0.0000 -0.0001 12.0459 0.0001 13.6613
#
#
#
# Elastic Compliance Matrix: (Units=1/GPa)
#
#
# Indices 1 2 3 4 5 6 
#
# 1 0.022214 -0.008199 0.001381 0.000000 -0.013716 0.000000
# 2 -0.008199 0.027486 -0.007332 0.000000 -0.002783 0.000000
# 3 0.001381 -0.007332 0.015143 0.000000 -0.001981 0.000000
# 4 0.000000 0.000000 0.000000 -0.033437 -0.000001 0.029483
# 5 -0.013716 -0.002783 -0.001981 -0.000001 0.102143 0.000001
# 6 0.000000 0.000000 0.000000 0.029483 0.000001 0.047203
#
#
# Mechanical properties :
#
#
# Convention : Reuss Voigt Hill
#
# Bulk Modulus (GPa) = 27.36569 30.60273 28.98421
# Shear Modulus (GPa) = 22.60068 10.11802 16.35935
#
# Velocity S-wave (km/s) = 3.44769 2.30683 2.93326
# Velocity P-wave (km/s) = 5.49921 4.81564 5.16874
#
# Compressibility (1/GPa) = 0.03654210
#
# Stress axis : x y z
#
# Youngs Moduli (GPa) = 45.01645 36.38272 66.03693
#
# Poissons Ratio (x) = 0.29831 -0.09119
# Poissons Ratio (y) = 0.36910 0.48418
# Poissons Ratio (z) = -0.06216 0.26676
#
# Static dielectric constant tensor:
#      x y z
#    x 1.672470 0.000000 -0.003600 
#    y 0.000000 1.655770 0.000000 
#    z -0.003600 0.000000 1.728370 
# 
# From -- ./inp_files/226536.got.cif
#   From: 2010.05.17/outbox.cif.g08.bks.cpg/sg12_114_cif.got.tgz:226536.got - 2010.06.03 13:09:07.
