data_PCOD9185246
_publ_section_title
;
Structure prediction by ZEFSAII (Michael W. Deem and Ramdas Pophale) SiO2 
 PCOD9185246
Probable space group: C 2/M
;
_chemical_formula_sum "Si O2"
_cell_formula_units_Z 56
_cell_length_a 28.325708
_cell_length_b 12.851393
_cell_length_c 8.842204
_cell_angle_alpha 90.000000
_cell_angle_beta 64.511034
_cell_angle_gamma 90.000000
_cell_volume 2905.491706
_symmetry_space_group_name_H-M "C 2/M"
_symmetry_group_IT_number 12
_symmetry_cell_setting 'monoclinic'
loop_
_space_group_symop_operation_xyz
x,y,z
-x,y,-z
-x,-y,-z
x,-y,z
1/2+x,1/2+y,z
1/2-x,1/2+y,-z
1/2-x,1/2-y,-z
1/2+x,1/2-y,z
loop_
_atom_site_type_symbol
_atom_site_label
_atom_site_fract_x
_atom_site_fract_y
_atom_site_fract_z
Si Si1 0.791118 0.697464 0.330549
Si Si2 0.783472 0.795258 0.815862
Si Si3 0.966126 0.118559 0.197608
Si Si4 0.452113 0.779937 0.476065
Si Si5 0.634902 0.616355 0.857390
Si Si6 0.654977 0.882186 0.458626
Si Si7 0.108281 0.116098 0.234203
O O1 0.750000 0.750000 0.500000
O O2 0.756249 0.648747 0.245674
O O3 0.824426 0.791059 0.212386
O O4 0.827841 0.630703 0.389717
O O5 0.811496 0.700009 0.686690
O O6 0.830776 0.866028 0.809033
O O7 0.750000 0.750000 0.000000
O O8 0.973257 0.206810 0.311902
O O9 0.905931 0.122794 0.223956
O O10 0.976836 0.000000 0.236532
O O11 0.000000 0.135137 0.000000
O O12 0.500000 0.831607 0.500000
O O13 0.405940 0.853332 0.479272
O O14 0.424466 0.700754 0.631197
O O15 0.658887 0.500000 0.822250
O O16 0.604594 0.625646 0.058242
O O17 0.665170 0.000000 0.395718
O O18 0.092330 0.000000 0.301238
#
# Coordination Sequence:
#
# PCOD9185246 Si02
#       7
#     8   8   8   8   8   8   8
#     4  10  20  36  56  81 113 154 193 233 278 338
#     4  10  20  36  60  87 118 151 192 236 284 338
#     4  10  20  34  56  86 115 148 185 225 286 355
#     4  11  22  38  60  84 112 151 186 242 289 344
#     4  10  19  34  56  81 114 150 183 225 283 348
#     4  10  23  41  59  82 113 155 200 240 282 334
#     4  10  21  35  55  88 121 147 182 231 288 349
#
# _framework density 19.273845999999999
#
# number of rings (size 3 to 8) (size 9 to 14) (size 15 to 20)
#    0.000    1.857    2.857    1.286    0.000    6.000 
#    0.000    0.000    0.000    0.429    0.000    0.000 
#    0.000    0.000    0.000    0.000    0.000    0.000 
#
# Total GULP energy -156269.387552 kJ/mol
# GULP energy per Si atom -5581.049555 kJ/mol
# Density = 1.922998 g / cm^3
# Si number density = 19.273846 Si / 1000 Ang^3
#
#
#
# Elastic Constant Matrix: (Units=GPa)
#
#
# Indices 1 2 3 4 5 6 
#
# 1 127.6054 10.2025 9.2245 0.0000 17.5557 0.0000
# 2 10.2025 50.4147 -0.5559 0.0000 4.1616 0.0000
# 3 9.2245 -0.5559 50.5784 0.0000 5.6062 0.0000
# 4 0.0000 0.0000 0.0000 18.4906 0.0000 -0.3798
# 5 17.5557 4.1616 5.6062 0.0000 32.3069 0.0000
# 6 0.0000 0.0000 0.0000 -0.3798 0.0000 7.8129
#
#
#
# Elastic Compliance Matrix: (Units=1/GPa)
#
#
# Indices 1 2 3 4 5 6 
#
# 1 0.008622 -0.001401 -0.001110 0.000000 -0.004312 0.000000
# 2 -0.001401 0.020290 0.000697 0.000000 -0.001973 0.000000
# 3 -0.001110 0.000697 0.020315 0.000000 -0.003012 0.000000
# 4 0.000000 0.000000 0.000000 0.054136 0.000000 0.002631
# 5 -0.004312 -0.001973 -0.003012 0.000000 0.034073 0.000000
# 6 0.000000 0.000000 0.000000 0.002631 0.000000 0.128121
#
#
# Mechanical properties :
#
#
# Convention : Reuss Voigt Hill
#
# Bulk Modulus (GPa) = 21.93014 29.59342 25.76178
# Shear Modulus (GPa) = 17.58184 25.70389 21.64287
#
# Velocity S-wave (km/s) = 3.02356 3.65583 3.35463
# Velocity P-wave (km/s) = 4.85717 5.76261 5.32915
#
# Compressibility (1/GPa) = 0.04559935
#
# Stress axis : x y z
#
# Youngs Moduli (GPa) = 115.97979 49.28629 49.22415
#
# Poissons Ratio (x) = 0.06906 0.05464
# Poissons Ratio (y) = 0.16251 -0.03432
# Poissons Ratio (z) = 0.12873 -0.03436
#
# Static dielectric constant tensor:
#      x y z
#    x 1.716660 0.000000 0.033280 
#    y 0.000000 1.620790 0.000000 
#    z 0.033280 0.000000 1.632720 
# 
# From -- ./inp_files/103118.got.cif
#   From: 2010.05.17/outbox.cif.g08.bks.cpg/sg12_52_cif.got.tgz:103118.got - 2010.06.03 13:09:07.
