data_PCOD9185716
_publ_section_title
;
Structure prediction by ZEFSAII (Michael W. Deem and Ramdas Pophale) SiO2 
 PCOD9185716
Probable space group: C 2/M
;
_chemical_formula_sum "Si O2"
_cell_formula_units_Z 48
_cell_length_a 24.505114
_cell_length_b 8.032585
_cell_length_c 11.713392
_cell_angle_alpha 90.000000
_cell_angle_beta 111.508435
_cell_angle_gamma 90.000000
_cell_volume 2145.099523
_symmetry_space_group_name_H-M "C 2/M"
_symmetry_group_IT_number 12
_symmetry_cell_setting 'monoclinic'
loop_
_space_group_symop_operation_xyz
x,y,z
-x,y,-z
-x,-y,-z
x,-y,z
1/2+x,1/2+y,z
1/2-x,1/2+y,-z
1/2-x,1/2-y,-z
1/2+x,1/2-y,z
loop_
_atom_site_type_symbol
_atom_site_label
_atom_site_fract_x
_atom_site_fract_y
_atom_site_fract_z
Si Si1 0.692267 0.299837 0.024771
Si Si2 0.368876 0.805843 0.389994
Si Si3 0.078076 0.196009 0.800389
Si Si4 0.471615 0.806643 0.860359
Si Si5 0.734176 0.703717 0.302144
Si Si6 0.130477 0.194207 0.368292
O O1 0.689262 0.500000 0.023776
O O2 0.633973 0.240598 0.916323
O O3 0.750000 0.250000 0.000000
O O4 0.701570 0.243095 0.161175
O O5 0.405612 0.718774 0.319385
O O6 0.301547 0.741299 0.345370
O O7 0.392239 0.784031 0.535970
O O8 0.366498 0.000000 0.357941
O O9 0.020869 0.288505 0.800838
O O10 0.069498 0.000000 0.816639
O O11 0.414426 0.714365 0.770486
O O12 0.456534 0.000000 0.866565
O O13 0.500000 0.741530 0.000000
O O14 0.734618 0.500000 0.306472
O O15 0.693740 0.761233 0.375726
O O16 0.135863 0.000000 0.400297
#
# Coordination Sequence:
#
# PCOD9185716 Si02
#       6
#     8   8   8   8   8   8
#     4  10  19  34  57  88 122 156 197 243 298 358
#     4  11  22  39  62  90 128 166 205 253 307 365
#     4  11  23  39  63  94 126 163 207 254 305 363
#     4  11  25  45  67  92 122 158 203 253 308 368
#     4   9  19  36  60  89 125 164 201 248 305 362
#     4  11  23  41  64  90 123 163 209 255 304 365
#
# _framework density 22.376583
#
# number of rings (size 3 to 8) (size 9 to 14) (size 15 to 20)
#    0.000    1.500    1.667    3.500    0.000    4.000 
#    0.000    7.500    0.000    0.000    0.000    0.000 
#    0.000    0.000    0.000    0.000    0.000    0.000 
#
# Total GULP energy -134226.912482 kJ/mol
# GULP energy per Si atom -5592.788020 kJ/mol
# Density = 2.232565 g / cm^3
# Si number density = 22.376583 Si / 1000 Ang^3
#
#
#
# Elastic Constant Matrix: (Units=GPa)
#
#
# Indices 1 2 3 4 5 6 
#
# 1 88.4211 -6.2965 15.6933 0.0000 -8.7259 0.0000
# 2 -6.2965 31.8756 -4.1364 0.0000 1.5875 0.0000
# 3 15.6933 -4.1364 95.0767 0.0000 -11.8377 0.0000
# 4 0.0000 0.0000 0.0000 21.3386 0.0000 2.6468
# 5 -8.7259 1.5875 -11.8377 0.0000 33.6492 0.0000
# 6 0.0000 0.0000 0.0000 2.6468 0.0000 16.4291
#
#
#
# Elastic Compliance Matrix: (Units=1/GPa)
#
#
# Indices 1 2 3 4 5 6 
#
# 1 0.011978 0.002038 -0.001583 0.000000 0.002453 0.000000
# 2 0.002038 0.031933 0.000974 0.000000 -0.000635 0.000000
# 3 -0.001583 0.000974 0.011258 0.000000 0.003504 0.000000
# 4 0.000000 0.000000 0.000000 0.047819 0.000000 -0.007704
# 5 0.002453 -0.000635 0.003504 0.000000 0.031617 0.000000
# 6 0.000000 0.000000 0.000000 -0.007704 0.000000 0.062109
#
#
# Mechanical properties :
#
#
# Convention : Reuss Voigt Hill
#
# Bulk Modulus (GPa) = 17.23354 25.09935 21.16644
# Shear Modulus (GPa) = 23.45253 28.29092 25.87173
#
# Velocity S-wave (km/s) = 3.24092 3.55957 3.40398
# Velocity P-wave (km/s) = 4.66080 5.30426 4.99291
#
# Compressibility (1/GPa) = 0.05802640
#
# Stress axis : x y z
#
# Youngs Moduli (GPa) = 83.48852 31.31593 88.82786
#
# Poissons Ratio (x) = -0.06383 0.14061
# Poissons Ratio (y) = -0.17018 -0.08649
# Poissons Ratio (z) = 0.13216 -0.03049
#
# Static dielectric constant tensor:
#      x y z
#    x 1.802890 0.000000 0.018660 
#    y 0.000000 1.774590 0.000000 
#    z 0.018660 0.000000 1.844450 
# 
# From -- ./inp_files/173026.got.cif
#   From: 2010.05.17/outbox.cif.g08.bks.cpg/sg12_87_cif.got.tgz:173026.got - 2010.06.03 13:09:07.
