data_PCOD9185017
_publ_section_title
;
Structure prediction by ZEFSAII (Michael W. Deem and Ramdas Pophale) SiO2 
 PCOD9185017
Probable space group: C 2/M
;
_chemical_formula_sum "Si O2"
_cell_formula_units_Z 48
_cell_length_a 27.370215
_cell_length_b 9.895787
_cell_length_c 14.191898
_cell_angle_alpha 90.000000
_cell_angle_beta 37.817382
_cell_angle_gamma 90.000000
_cell_volume 2356.858181
_symmetry_space_group_name_H-M "C 2/M"
_symmetry_group_IT_number 12
_symmetry_cell_setting 'monoclinic'
loop_
_space_group_symop_operation_xyz
x,y,z
-x,y,-z
-x,-y,-z
x,-y,z
1/2+x,1/2+y,z
1/2-x,1/2+y,-z
1/2-x,1/2-y,-z
1/2+x,1/2-y,z
loop_
_atom_site_type_symbol
_atom_site_label
_atom_site_fract_x
_atom_site_fract_y
_atom_site_fract_z
Si Si1 0.155631 0.650356 0.688776
Si Si2 0.916768 0.340777 0.675227
Si Si3 0.102626 0.656974 0.073854
Si Si4 0.336350 0.647556 0.473006
Si Si5 0.792511 0.843845 0.758994
Si Si6 0.075730 0.846783 0.952911
O O1 0.120705 0.500000 0.753031
O O2 0.250728 0.634356 0.551883
O O3 0.128273 0.723834 0.634634
O O4 0.135033 0.751250 0.804529
O O5 0.904225 0.500000 0.674686
O O6 0.919716 0.324780 0.783227
O O7 0.844741 0.255294 0.742205
O O8 0.000000 0.299983 0.500000
O O9 0.086387 0.500000 0.071539
O O10 0.198050 0.678392 0.915475
O O11 0.060783 0.766762 0.071769
O O12 0.377307 0.500000 0.398096
O O13 0.319025 0.670031 0.609352
O O14 0.807595 0.000000 0.762859
O O15 0.104538 0.000000 0.924452
O O16 0.000000 0.853081 0.000000
#
# Coordination Sequence:
#
# PCOD9185017 Si02
#       6
#     8   8   8   8   8   8
#     4  10  19  34  55  81 115 154 193 234 287 345
#     4  10  23  41  61  89 123 155 195 248 303 361
#     4  10  21  41  64  87 119 156 201 252 298 358
#     4   9  18  33  54  83 117 148 187 239 287 340
#     4  10  20  37  62  90 119 156 201 248 297 351
#     4  11  24  39  57  85 120 156 199 248 297 353
#
# _framework density 20.366095999999999
#
# number of rings (size 3 to 8) (size 9 to 14) (size 15 to 20)
#    0.000    2.000    1.667    1.500    0.000    5.667 
#    0.000    3.333    0.000    0.000    0.000    0.000 
#    0.000    0.000    0.000    0.000    0.000    0.000 
#
# Total GULP energy -133945.327349 kJ/mol
# GULP energy per Si atom -5581.055306 kJ/mol
# Density = 2.031974 g / cm^3
# Si number density = 20.366096 Si / 1000 Ang^3
#
#
#
# Elastic Constant Matrix: (Units=GPa)
#
#
# Indices 1 2 3 4 5 6 
#
# 1 62.9860 63.8027 27.5486 0.0000 14.2250 0.0000
# 2 63.8027 151.0917 48.7592 0.0001 14.8803 0.0000
# 3 27.5486 48.7592 56.0031 0.0000 13.8124 0.0000
# 4 0.0000 0.0001 0.0000 5.6250 0.0000 7.1986
# 5 14.2250 14.8803 13.8124 0.0000 26.6008 0.0000
# 6 0.0000 0.0000 0.0000 7.1986 0.0000 32.0252
#
#
#
# Elastic Compliance Matrix: (Units=1/GPa)
#
#
# Indices 1 2 3 4 5 6 
#
# 1 0.030232 -0.010861 -0.003356 0.000000 -0.008348 0.000000
# 2 -0.010861 0.013136 -0.006554 0.000000 0.001863 0.000000
# 3 -0.003356 -0.006554 0.027372 0.000000 -0.008752 0.000000
# 4 0.000000 0.000000 0.000000 0.249568 0.000000 -0.056098
# 5 -0.008348 0.001863 -0.008752 0.000000 0.045560 0.000000
# 6 0.000000 0.000000 0.000000 -0.056098 0.000000 0.043835
#
#
# Mechanical properties :
#
#
# Convention : Reuss Voigt Hill
#
# Bulk Modulus (GPa) = 34.24940 61.14467 47.69704
# Shear Modulus (GPa) = 10.84652 21.51490 16.18071
#
# Velocity S-wave (km/s) = 2.31027 3.25377 2.82173
# Velocity P-wave (km/s) = 4.89590 6.64861 5.83840
#
# Compressibility (1/GPa) = 0.02919759
#
# Stress axis : x y z
#
# Youngs Moduli (GPa) = 33.07797 76.12418 36.53378
#
# Poissons Ratio (x) = 0.82677 0.12262
# Poissons Ratio (y) = 0.35925 0.23945
# Poissons Ratio (z) = 0.11102 0.49892
#
# Static dielectric constant tensor:
#      x y z
#    x 1.702980 0.000000 -0.000580 
#    y 0.000000 1.774030 0.000000 
#    z -0.000580 0.000000 1.769890 
# 
# From -- ./inp_files/244603.got.cif
#   From: 2010.05.17/outbox.cif.g08.bks.cpg/sg12_123_cif.got.tgz:244603.got - 2010.06.03 13:09:07.
