data_PCOD9185516
_publ_section_title
;
Structure prediction by ZEFSAII (Michael W. Deem and Ramdas Pophale) SiO2 
 PCOD9185516
Probable space group: C 2/M
;
_chemical_formula_sum "Si O2"
_cell_formula_units_Z 56
_cell_length_a 8.402616
_cell_length_b 19.243291
_cell_length_c 22.766034
_cell_angle_alpha 90.000000
_cell_angle_beta 52.004187
_cell_angle_gamma 90.000000
_cell_volume 2900.936230
_symmetry_space_group_name_H-M "C 2/M"
_symmetry_group_IT_number 12
_symmetry_cell_setting 'monoclinic'
loop_
_space_group_symop_operation_xyz
x,y,z
-x,y,-z
-x,-y,-z
x,-y,z
1/2+x,1/2+y,z
1/2-x,1/2+y,-z
1/2-x,1/2-y,-z
1/2+x,1/2-y,z
loop_
_atom_site_type_symbol
_atom_site_label
_atom_site_fract_x
_atom_site_fract_y
_atom_site_fract_z
Si Si1 0.198780 0.420261 0.804433
Si Si2 0.853893 0.327447 0.087539
Si Si3 0.780299 0.327280 0.520229
Si Si4 0.080023 0.582108 0.615017
Si Si5 0.135618 0.917316 0.657492
Si Si6 0.908519 0.779182 0.183173
Si Si7 0.022045 0.333842 0.741660
O O1 0.185298 0.500000 0.796099
O O2 0.127400 0.401472 0.885606
O O3 0.434699 0.400730 0.740505
O O4 0.062987 0.383270 0.786983
O O5 0.896094 0.275462 0.132227
O O6 0.620358 0.316434 0.125765
O O7 0.000000 0.316043 0.000000
O O8 0.750000 0.250000 0.500000
O O9 0.641767 0.361537 0.602717
O O10 0.000000 0.324902 0.500000
O O11 0.789172 0.384233 0.466595
O O12 0.119068 0.500000 0.616132
O O13 0.845156 0.588210 0.646426
O O14 0.118578 0.630272 0.662991
O O15 0.125648 0.000000 0.641113
O O16 0.712030 0.825523 0.220690
O O17 0.904547 0.739882 0.247516
#
# Coordination Sequence:
#
# PCOD9185516 Si02
#       7
#     8   8   8   8   8   8   8
#     4  10  21  36  55  79 107 142 181 223 269 319
#     4  10  19  34  57  82 110 140 175 220 270 326
#     4  10  22  36  53  79 110 143 181 228 274 316
#     4  10  20  35  57  81 107 144 184 223 271 325
#     4   9  19  38  59  78 106 144 185 224 269 328
#     4   9  20  35  54  82 110 142 178 219 270 322
#     4  10  20  35  55  79 110 141 179 225 266 319
#
# _framework density 19.304112
#
# number of rings (size 3 to 8) (size 9 to 14) (size 15 to 20)
#    0.000    2.286    0.000    2.143    0.000    8.857 
#    0.000    0.714    0.000    4.286    0.000    0.000 
#    0.000    0.000    0.000    0.000    0.000    0.000 
#
# Total GULP energy -156062.645502 kJ/mol
# GULP energy per Si atom -5573.665911 kJ/mol
# Density = 1.926018 g / cm^3
# Si number density = 19.304112 Si / 1000 Ang^3
#
#
#
# Elastic Constant Matrix: (Units=GPa)
#
#
# Indices 1 2 3 4 5 6 
#
# 1 45.7987 4.6235 -5.2033 0.0000 3.1997 0.0001
# 2 4.6235 57.5664 20.5820 0.0000 -0.8190 0.0000
# 3 -5.2033 20.5820 58.6032 0.0000 20.1843 0.0001
# 4 0.0000 0.0000 0.0000 22.2222 0.0000 -1.9706
# 5 3.1997 -0.8190 20.1843 0.0000 15.7922 -0.0001
# 6 0.0001 0.0000 0.0001 -1.9706 -0.0001 13.6946
#
#
#
# Elastic Compliance Matrix: (Units=1/GPa)
#
#
# Indices 1 2 3 4 5 6 
#
# 1 0.025149 -0.006345 0.011308 0.000000 -0.019877 0.000000
# 2 -0.006345 0.024715 -0.018092 0.000000 0.025692 0.000000
# 3 0.011308 -0.018092 0.045614 0.000000 -0.061530 -0.000001
# 4 0.000000 0.000000 0.000000 0.045582 0.000000 0.006559
# 5 -0.019877 0.025692 -0.061530 0.000000 0.147325 0.000001
# 6 0.000000 0.000000 -0.000001 0.006559 0.000001 0.073965
#
#
# Mechanical properties :
#
#
# Convention : Reuss Voigt Hill
#
# Bulk Modulus (GPa) = 14.44717 22.44140 18.44429
# Shear Modulus (GPa) = 12.14526 19.80621 15.97573
#
# Velocity S-wave (km/s) = 2.51102 3.20661 2.87989
# Velocity P-wave (km/s) = 3.98838 5.03590 4.54243
#
# Compressibility (1/GPa) = 0.06921769
#
# Stress axis : x y z
#
# Youngs Moduli (GPa) = 39.76361 40.46119 21.92286
#
# Poissons Ratio (x) = 0.25675 -0.24789
# Poissons Ratio (y) = 0.25232 0.39664
# Poissons Ratio (z) = -0.44963 0.73204
#
# Static dielectric constant tensor:
#      x y z
#    x 1.677260 0.000000 0.008090 
#    y 0.000000 1.712430 0.000000 
#    z 0.008090 0.000000 1.651660 
# 
# From -- ./inp_files/301663.got.cif
#   From: 2010.05.17/outbox.cif.g08.bks.cpg/sg12_151_cif.got.tgz:301663.got - 2010.06.03 13:09:07.
