data_PCOD9185485
_publ_section_title
;
Structure prediction by ZEFSAII (Michael W. Deem and Ramdas Pophale) SiO2 
 PCOD9185485
Probable space group: C 2/M
;
_chemical_formula_sum "Si O2"
_cell_formula_units_Z 64
_cell_length_a 29.380771
_cell_length_b 7.606370
_cell_length_c 14.481816
_cell_angle_alpha 90.000000
_cell_angle_beta 61.570803
_cell_angle_gamma 90.000000
_cell_volume 2846.119485
_symmetry_space_group_name_H-M "C 2/M"
_symmetry_group_IT_number 12
_symmetry_cell_setting 'monoclinic'
loop_
_space_group_symop_operation_xyz
x,y,z
-x,y,-z
-x,-y,-z
x,-y,z
1/2+x,1/2+y,z
1/2-x,1/2+y,-z
1/2-x,1/2-y,-z
1/2+x,1/2-y,z
loop_
_atom_site_type_symbol
_atom_site_label
_atom_site_fract_x
_atom_site_fract_y
_atom_site_fract_z
Si Si1 0.483951 0.284268 0.411914
Si Si2 0.930233 0.211554 0.818534
Si Si3 0.758967 0.210830 0.097532
Si Si4 0.627807 0.699873 0.468342
Si Si5 0.351280 0.792451 0.745656
Si Si6 0.055348 0.784471 0.984117
Si Si7 0.165082 0.790801 0.827352
Si Si8 0.758187 0.791761 0.599173
O O1 0.500000 0.228189 0.500000
O O2 0.483062 0.500000 0.413473
O O3 0.524971 0.227758 0.295093
O O4 0.425817 0.222303 0.443436
O O5 0.876969 0.261448 0.819705
O O6 0.936648 0.271079 0.917182
O O7 0.931974 0.000000 0.819080
O O8 0.707302 0.274743 0.198212
O O9 0.808797 0.278782 0.103198
O O10 0.759676 0.000000 0.104894
O O11 0.750000 0.250000 0.000000
O O12 0.630615 0.500000 0.501213
O O13 0.619550 0.698861 0.365659
O O14 0.684570 0.781523 0.429735
O O15 0.352239 0.000000 0.726150
O O16 0.053697 0.000000 0.984502
O O17 0.106117 0.726183 0.877209
O O18 0.000000 0.724111 0.000000
O O19 0.208269 0.765905 0.706668
O O20 0.159837 0.000000 0.842116
O O21 0.750000 0.750000 0.500000
O O22 0.760662 0.000000 0.610870
#
# Coordination Sequence:
#
# PCOD9185485 Si02
#       8
#     8   8   8   8   8   8   8   8
#     4   9  16  29  53  83 111 143 188 239 280 326
#     4  10  19  34  57  81 112 150 192 238 284 341
#     4  10  21  34  52  81 114 151 188 230 285 339
#     4  10  20  36  57  82 110 148 193 232 279 335
#     4  11  21  33  52  80 116 148 181 229 285 342
#     4   9  19  35  59  88 111 145 197 248 290 329
#     4  10  20  38  60  84 118 151 191 243 293 344
#     4  11  24  40  62  89 117 152 195 239 288 347
#
# _framework density 22.486758999999999
#
# number of rings (size 3 to 8) (size 9 to 14) (size 15 to 20)
#    0.000    2.000    2.500    1.500    0.000    4.000 
#    0.000    5.625    0.000    3.000    0.000    0.000 
#    0.000    0.000    0.000    0.000    0.000    0.000 
#
# Total GULP energy -178629.835392 kJ/mol
# GULP energy per Si atom -5582.182356 kJ/mol
# Density = 2.243558 g / cm^3
# Si number density = 22.486759 Si / 1000 Ang^3
#
#
#
# Elastic Constant Matrix: (Units=GPa)
#
#
# Indices 1 2 3 4 5 6 
#
# 1 178.6801 7.5548 63.6031 0.0000 -26.2112 0.0000
# 2 7.5548 48.6935 -0.5491 0.0000 -6.8196 0.0000
# 3 63.6031 -0.5491 91.8060 0.0000 -16.5512 0.0000
# 4 0.0000 0.0000 0.0000 14.6648 0.0000 0.7297
# 5 -26.2112 -6.8196 -16.5512 0.0000 43.3982 0.0000
# 6 0.0000 0.0000 0.0000 0.7297 0.0000 13.9387
#
#
#
# Elastic Compliance Matrix: (Units=1/GPa)
#
#
# Indices 1 2 3 4 5 6 
#
# 1 0.007775 -0.000886 -0.004908 0.000000 0.002685 0.000000
# 2 -0.000886 0.021151 0.001335 0.000000 0.003298 0.000000
# 3 -0.004908 0.001335 0.014823 0.000000 0.002899 0.000000
# 4 0.000000 0.000000 0.000000 0.068368 0.000000 -0.003579
# 5 0.002685 0.003298 0.002899 0.000000 0.026288 0.000000
# 6 0.000000 0.000000 0.000000 -0.003579 0.000000 0.071930
#
#
# Mechanical properties :
#
#
# Convention : Reuss Voigt Hill
#
# Bulk Modulus (GPa) = 28.70959 51.15527 39.93243
# Shear Modulus (GPa) = 21.65785 30.97172 26.31479
#
# Velocity S-wave (km/s) = 3.10681 3.71527 3.42458
# Velocity P-wave (km/s) = 5.06604 6.41894 5.78219
#
# Compressibility (1/GPa) = 0.03483157
#
# Stress axis : x y z
#
# Youngs Moduli (GPa) = 128.62027 47.27929 67.46203
#
# Poissons Ratio (x) = 0.04187 0.33108
# Poissons Ratio (y) = 0.11390 -0.09003
# Poissons Ratio (z) = 0.63122 -0.06310
#
# Static dielectric constant tensor:
#      x y z
#    x 1.859380 0.000000 -0.031100 
#    y 0.000000 1.857710 0.000000 
#    z -0.031100 0.000000 1.829140 
# 
# From -- ./inp_files/249104.got.cif
#   From: 2010.05.17/outbox.cif.g08.bks.cpg/sg12_125_cif.got.tgz:249104.got - 2010.06.03 13:09:07.
