data_PCOD9185841
_publ_section_title
;
Structure prediction by ZEFSAII (Michael W. Deem and Ramdas Pophale) SiO2 
 PCOD9185841
Probable space group: C 2/M
;
_chemical_formula_sum "Si O2"
_cell_formula_units_Z 56
_cell_length_a 25.071774
_cell_length_b 19.088763
_cell_length_c 7.583387
_cell_angle_alpha 90.000000
_cell_angle_beta 43.787118
_cell_angle_gamma 90.000000
_cell_volume 2511.424722
_symmetry_space_group_name_H-M "C 2/M"
_symmetry_group_IT_number 12
_symmetry_cell_setting 'monoclinic'
loop_
_space_group_symop_operation_xyz
x,y,z
-x,y,-z
-x,-y,-z
x,-y,z
1/2+x,1/2+y,z
1/2-x,1/2+y,-z
1/2-x,1/2-y,-z
1/2+x,1/2-y,z
loop_
_atom_site_type_symbol
_atom_site_label
_atom_site_fract_x
_atom_site_fract_y
_atom_site_fract_z
Si Si1 0.989387 0.334225 0.815647
Si Si2 0.724350 0.697385 0.317159
Si Si3 0.216819 0.164166 0.912128
Si Si4 0.945326 0.806956 0.289393
Si Si5 0.666123 0.080510 0.892453
Si Si6 0.587219 0.422622 0.352106
Si Si7 0.138335 0.421542 0.375719
O O1 0.009695 0.254253 0.710057
O O2 0.057514 0.382026 0.577368
O O3 0.000000 0.330397 0.000000
O O4 0.908633 0.372479 0.975123
O O5 0.721147 0.683351 0.112046
O O6 0.638346 0.720238 0.575293
O O7 0.758826 0.628211 0.324968
O O8 0.781069 0.763738 0.199351
O O9 0.141041 0.117001 0.082777
O O10 0.294069 0.120647 0.688875
O O11 0.920980 0.874190 0.458266
O O12 0.000000 0.827237 0.000000
O O13 0.665189 0.000000 0.826742
O O14 0.662562 0.074740 0.113572
O O15 0.500000 0.429033 0.500000
O O16 0.620165 0.500000 0.308730
O O17 0.130159 0.500000 0.465139
#
# Coordination Sequence:
#
# PCOD9185841 Si02
#       7
#     8   8   8   8   8   8   8
#     4  11  23  38  55  85 121 158 197 237 297 363
#     4   9  18  35  59  86 112 148 202 239 290 351
#     4   9  17  33  57  86 113 148 189 247 299 345
#     4  10  22  40  60  86 117 161 202 241 293 358
#     4  10  22  37  59  89 117 151 198 251 300 355
#     4  10  22  37  58  89 118 149 196 250 303 353
#     4  10  19  34  58  84 113 149 195 247 298 358
#
# _framework density 22.298100000000002
#
# number of rings (size 3 to 8) (size 9 to 14) (size 15 to 20)
#    0.000    2.143    1.429    1.286    4.000    6.000 
#    0.000    4.286    0.000    1.714    0.000    0.000 
#    0.000    0.000    0.000    0.000    0.000    0.000 
#
# Total GULP energy -156270.354223 kJ/mol
# GULP energy per Si atom -5581.084079 kJ/mol
# Density = 2.224735 g / cm^3
# Si number density = 22.298100 Si / 1000 Ang^3
#
#
#
# Elastic Constant Matrix: (Units=GPa)
#
#
# Indices 1 2 3 4 5 6 
#
# 1 41.4721 23.1650 5.9872 0.0000 -14.6966 0.0000
# 2 23.1650 150.6936 38.9259 0.0000 -16.7878 0.0000
# 3 5.9872 38.9259 60.4587 0.0000 -23.8235 0.0000
# 4 0.0000 0.0000 0.0000 19.5747 0.0000 -5.3211
# 5 -14.6966 -16.7878 -23.8235 0.0000 33.6082 0.0000
# 6 0.0000 0.0000 0.0000 -5.3211 0.0000 23.0199
#
#
#
# Elastic Compliance Matrix: (Units=1/GPa)
#
#
# Indices 1 2 3 4 5 6 
#
# 1 0.031400 -0.004645 0.006074 0.000000 0.015716 0.000000
# 2 -0.004645 0.008652 -0.005839 0.000000 -0.001848 0.000000
# 3 0.006074 -0.005839 0.027190 0.000000 0.019014 0.000000
# 4 0.000000 0.000000 0.000000 0.054511 0.000000 0.012600
# 5 0.015716 -0.001848 0.019014 0.000000 0.049182 0.000000
# 6 0.000000 0.000000 0.000000 0.012600 0.000000 0.046353
#
#
# Mechanical properties :
#
#
# Convention : Reuss Voigt Hill
#
# Bulk Modulus (GPa) = 17.11672 43.19785 30.15728
# Shear Modulus (GPa) = 20.35968 27.54365 23.95166
#
# Velocity S-wave (km/s) = 3.02498 3.51842 3.28099
# Velocity P-wave (km/s) = 4.46023 5.99338 5.28272
#
# Compressibility (1/GPa) = 0.05842241
#
# Stress axis : x y z
#
# Youngs Moduli (GPa) = 31.84747 115.57440 36.77767
#
# Poissons Ratio (x) = 0.53684 -0.22339
# Poissons Ratio (y) = 0.14793 0.21475
# Poissons Ratio (z) = -0.19344 0.67486
#
# Static dielectric constant tensor:
#      x y z
#    x 1.885360 0.000000 -0.007370 
#    y 0.000000 1.916820 0.000000 
#    z -0.007370 0.000000 1.816020 
# 
# From -- ./inp_files/105929.got.cif
#   From: 2010.05.17/outbox.cif.g08.bks.cpg/sg12_53_cif.got.tgz:105929.got - 2010.06.03 13:09:07.
