data_PCOD9185352
_publ_section_title
;
Structure prediction by ZEFSAII (Michael W. Deem and Ramdas Pophale) SiO2 
 PCOD9185352
Probable space group: C 2/M
;
_chemical_formula_sum "Si O2"
_cell_formula_units_Z 52
_cell_length_a 13.528866
_cell_length_b 14.322508
_cell_length_c 21.409357
_cell_angle_alpha 90.000000
_cell_angle_beta 43.810546
_cell_angle_gamma 90.000000
_cell_volume 2871.860732
_symmetry_space_group_name_H-M "C 2/M"
_symmetry_group_IT_number 12
_symmetry_cell_setting 'monoclinic'
loop_
_space_group_symop_operation_xyz
x,y,z
-x,y,-z
-x,-y,-z
x,-y,z
1/2+x,1/2+y,z
1/2-x,1/2+y,-z
1/2-x,1/2-y,-z
1/2+x,1/2-y,z
loop_
_atom_site_type_symbol
_atom_site_label
_atom_site_fract_x
_atom_site_fract_y
_atom_site_fract_z
Si Si1 0.500000 0.236526 0.500000
Si Si2 0.346315 0.741452 0.781353
Si Si3 0.261968 0.603252 0.618638
Si Si4 0.869600 0.393801 0.183893
Si Si5 0.893894 0.307824 0.419402
Si Si6 0.591770 0.610027 0.894954
Si Si7 0.594879 0.262168 0.099859
O O1 0.630143 0.309238 0.429110
O O2 0.536849 0.175409 0.544155
O O3 0.256027 0.652799 0.799092
O O4 0.483701 0.753545 0.674690
O O5 0.236914 0.829468 0.827224
O O6 0.394489 0.734388 0.830649
O O7 0.330196 0.500000 0.585030
O O8 0.175698 0.607638 0.722609
O O9 0.160700 0.614351 0.604208
O O10 0.897315 0.500000 0.152727
O O11 0.004721 0.326778 0.117733
O O12 0.750000 0.250000 0.500000
O O13 0.621022 0.500000 0.877425
O O14 0.489855 0.648100 0.886808
O O15 0.500000 0.627623 0.000000
O O16 0.750000 0.250000 0.000000
#
# Coordination Sequence:
#
# PCOD9185352 Si02
#       7
#     4   8   8   8   8   8   8
#     4  10  19  36  57  80 112 148 184 230 287 340
#     4  11  21  39  60  82 121 155 190 237 291 340
#     4  10  19  34  56  85 110 142 190 235 279 336
#     4  10  22  37  58  87 115 148 192 235 284 343
#     4  10  21  35  57  86 112 151 192 236 285 339
#     4  10  22  38  59  87 117 153 196 235 286 351
#     4  11  22  38  60  86 117 153 188 236 287 345
#
# _framework density 18.106729000000001
#
# number of rings (size 3 to 8) (size 9 to 14) (size 15 to 20)
#    0.000    1.692    4.615    0.231    0.000    2.462 
#    0.000    1.154    0.000    3.692    0.000    0.000 
#    0.000    0.000    0.000    0.000    0.000    0.000 
#
# Total GULP energy -144951.806983 kJ/mol
# GULP energy per Si atom -5575.069499 kJ/mol
# Density = 1.806552 g / cm^3
# Si number density = 18.106729 Si / 1000 Ang^3
#
#
#
# Elastic Constant Matrix: (Units=GPa)
#
#
# Indices 1 2 3 4 5 6 
#
# 1 108.3473 16.3018 27.2727 0.0000 4.9072 0.0000
# 2 16.3018 71.8859 12.5678 0.0000 -6.2535 0.0000
# 3 27.2727 12.5678 77.1054 0.0000 -13.4267 0.0000
# 4 0.0000 0.0000 0.0000 10.0529 0.0000 -1.5664
# 5 4.9072 -6.2535 -13.4267 0.0000 25.3055 0.0000
# 6 0.0000 0.0000 0.0000 -1.5664 0.0000 3.8419
#
#
#
# Elastic Compliance Matrix: (Units=1/GPa)
#
#
# Indices 1 2 3 4 5 6 
#
# 1 0.010872 -0.002134 -0.004359 0.000000 -0.004949 0.000000
# 2 -0.002134 0.014887 -0.001057 0.000000 0.003532 0.000000
# 3 -0.004359 -0.001057 0.016290 0.000000 0.009228 0.000000
# 4 0.000000 0.000000 0.000000 0.106222 0.000000 0.043309
# 5 -0.004949 0.003532 0.009228 0.000000 0.046246 0.000000
# 6 0.000000 0.000000 0.000000 0.043309 0.000000 0.277948
#
#
# Mechanical properties :
#
#
# Convention : Reuss Voigt Hill
#
# Bulk Modulus (GPa) = 37.10674 41.06924 39.08799
# Shear Modulus (GPa) = 10.06952 21.25314 15.66133
#
# Velocity S-wave (km/s) = 2.36078 3.42975 2.94419
# Velocity P-wave (km/s) = 5.28856 6.19800 5.76125
#
# Compressibility (1/GPa) = 0.02694928
#
# Stress axis : x y z
#
# Youngs Moduli (GPa) = 91.97847 67.17348 61.38609
#
# Poissons Ratio (x) = 0.14334 0.26761
# Poissons Ratio (y) = 0.19627 0.06487
# Poissons Ratio (z) = 0.40098 0.07098
#
# Static dielectric constant tensor:
#      x y z
#    x 1.626920 0.000000 0.002240 
#    y 0.000000 1.595560 0.000000 
#    z 0.002240 0.000000 1.627690 
# 
# From -- ./inp_files/296800.got.cif
#   From: 2010.05.17/outbox.cif.g08.bks.cpg/sg12_149_cif.got.tgz:296800.got - 2010.06.03 13:09:07.
