data_PCOD9185290
_publ_section_title
;
Structure prediction by ZEFSAII (Michael W. Deem and Ramdas Pophale) SiO2 
 PCOD9185290
Probable space group: C 2/M
;
_chemical_formula_sum "Si O2"
_cell_formula_units_Z 58
_cell_length_a 19.402104
_cell_length_b 7.407241
_cell_length_c 15.546846
_cell_angle_alpha 90.000000
_cell_angle_beta 99.295465
_cell_angle_gamma 90.000000
_cell_volume 2204.991342
_symmetry_space_group_name_H-M "C 2/M"
_symmetry_group_IT_number 12
_symmetry_cell_setting 'monoclinic'
loop_
_space_group_symop_operation_xyz
x,y,z
-x,y,-z
-x,-y,-z
x,-y,z
1/2+x,1/2+y,z
1/2-x,1/2+y,-z
1/2-x,1/2-y,-z
1/2+x,1/2-y,z
loop_
_atom_site_type_symbol
_atom_site_label
_atom_site_fract_x
_atom_site_fract_y
_atom_site_fract_z
Si Si1 0.585961 0.207479 0.077360
Si Si2 0.749555 0.282176 0.367632
Si Si3 0.408614 0.279369 0.631137
Si Si4 0.500000 0.500000 0.000000
Si Si5 0.899162 0.792498 0.442482
Si Si6 0.148767 0.290969 0.912780
Si Si7 0.449699 0.718465 0.267023
Si Si8 0.770001 0.782101 0.824957
O O1 0.522648 0.341880 0.074988
O O2 0.650487 0.221695 0.154377
O O3 0.564780 0.000000 0.066015
O O4 0.619284 0.288631 0.994738
O O5 0.750785 0.500000 0.374482
O O6 0.670676 0.220454 0.368890
O O7 0.814681 0.211825 0.434678
O O8 0.763475 0.228044 0.271729
O O9 0.407443 0.500000 0.631388
O O10 0.428221 0.219138 0.538176
O O11 0.468808 0.226587 0.710212
O O12 0.918269 0.716568 0.352851
O O13 0.922199 0.000000 0.443187
O O14 0.160517 0.500000 0.937240
O O15 0.095069 0.284681 0.822521
O O16 0.221505 0.213851 0.892279
O O17 0.445536 0.500000 0.263326
O O18 0.770049 0.000000 0.827760
#
# Coordination Sequence:
#
# PCOD9185290 Si02
#       8
#     8   8   8   2   8   8   8   8
#     4  11  25  44  69  99 130 175 220 261 319 393
#     4  10  20  35  58  85 119 160 206 255 319 386
#     4   9  19  35  54  82 116 158 208 259 316 383
#     4  12  26  48  68  94 140 172 208 260 332 382
#     4  10  19  34  56  82 118 157 207 265 315 375
#     4  10  22  40  63  93 128 161 210 270 323 380
#     4  10  20  34  57  87 116 162 212 261 319 381
#     4  10  20  39  63  92 128 168 212 273 330 378
#
# _framework density 26.303961000000001
#
# number of rings (size 3 to 8) (size 9 to 14) (size 15 to 20)
#    0.000    1.931    2.069    1.448    0.966    3.862 
#    2.483    1.379    0.000    1.655    0.000    0.000 
#    0.000    0.000    0.000    0.000    0.000    0.000 
#
# Total GULP energy -162089.032067 kJ/mol
# GULP energy per Si atom -5589.276968 kJ/mol
# Density = 2.624409 g / cm^3
# Si number density = 26.303961 Si / 1000 Ang^3
#
#
#
# Elastic Constant Matrix: (Units=GPa)
#
#
# Indices 1 2 3 4 5 6 
#
# 1 100.4833 -1.6745 3.3246 0.0000 16.4264 0.0000
# 2 -1.6745 123.8291 -3.3447 0.0000 2.0607 0.0000
# 3 3.3246 -3.3447 87.8557 0.0000 22.9978 0.0000
# 4 0.0000 0.0000 0.0000 7.0376 0.0000 13.3150
# 5 16.4264 2.0607 22.9978 0.0000 56.1846 0.0000
# 6 0.0000 0.0000 0.0000 13.3150 0.0000 -0.5105
#
#
#
# Elastic Compliance Matrix: (Units=1/GPa)
#
#
# Indices 1 2 3 4 5 6 
#
# 1 0.010473 0.000208 0.000465 0.000000 -0.003260 0.000000
# 2 0.000208 0.008099 0.000441 0.000000 -0.000539 0.000000
# 3 0.000465 0.000441 0.012792 0.000000 -0.005388 0.000000
# 4 0.000000 0.000000 0.000000 0.002822 0.000000 0.073612
# 5 -0.003260 -0.000539 -0.005388 0.000000 0.020977 0.000000
# 6 0.000000 0.000000 0.000000 0.073612 0.000000 -0.038907
#
#
# Mechanical properties :
#
#
# Convention : Reuss Voigt Hill
#
# Bulk Modulus (GPa) = 29.76730 34.30878 32.03804
# Shear Modulus (GPa) = 198.21892 33.46651 115.84271
#
# Velocity S-wave (km/s) = 8.69026 3.57080 6.64347
# Velocity P-wave (km/s) = 10.58468 5.48382 8.42935
#
# Compressibility (1/GPa) = 0.03359391
#
# Stress axis : x y z
#
# Youngs Moduli (GPa) = 95.48459 123.46664 78.17405
#
# Poissons Ratio (x) = -0.02573 -0.03635
# Poissons Ratio (y) = -0.01990 -0.03451
# Poissons Ratio (z) = -0.04440 -0.05451
#
# Static dielectric constant tensor:
#      x y z
#    x 2.228960 0.000000 -0.044850 
#    y 0.000000 1.982100 0.000000 
#    z -0.044850 0.000000 2.036970 
# 
# From -- ./inp_files/281521.got.cif
#   From: 2010.05.17/outbox.cif.g08.bks.cpg/sg12_141_cif.got.tgz:281521.got - 2010.06.03 13:09:07.
