data_PCOD9185541
_publ_section_title
;
Structure prediction by ZEFSAII (Michael W. Deem and Ramdas Pophale) SiO2 
 PCOD9185541
Probable space group: C 2/M
;
_chemical_formula_sum "Si O2"
_cell_formula_units_Z 64
_cell_length_a 8.084690
_cell_length_b 21.025403
_cell_length_c 20.579667
_cell_angle_alpha 90.000000
_cell_angle_beta 60.937554
_cell_angle_gamma 90.000000
_cell_volume 3057.754351
_symmetry_space_group_name_H-M "C 2/M"
_symmetry_group_IT_number 12
_symmetry_cell_setting 'monoclinic'
loop_
_space_group_symop_operation_xyz
x,y,z
-x,y,-z
-x,-y,-z
x,-y,z
1/2+x,1/2+y,z
1/2-x,1/2+y,-z
1/2-x,1/2-y,-z
1/2+x,1/2-y,z
loop_
_atom_site_type_symbol
_atom_site_label
_atom_site_fract_x
_atom_site_fract_y
_atom_site_fract_z
Si Si1 0.690169 0.183984 0.425602
Si Si2 0.118167 0.573345 0.173024
Si Si3 0.857870 0.321055 0.927725
Si Si4 0.281956 0.151302 0.283694
Si Si5 0.558244 0.427092 0.632947
Si Si6 0.283643 0.315941 0.901197
Si Si7 0.047161 0.072986 0.792454
Si Si8 0.968402 0.734912 0.670902
O O1 0.500000 0.197704 0.500000
O O2 0.764003 0.113364 0.424774
O O3 0.865704 0.231340 0.402827
O O4 0.653348 0.194272 0.355987
O O5 0.111793 0.500000 0.155490
O O6 0.203766 0.618570 0.102132
O O7 0.246445 0.578612 0.213240
O O8 0.906667 0.601005 0.221216
O O9 0.841979 0.258331 0.885445
O O10 0.075078 0.324284 0.910525
O O11 0.734284 0.320654 0.016832
O O12 0.431598 0.189934 0.297492
O O13 0.130330 0.110184 0.352776
O O14 0.156880 0.207720 0.275385
O O15 0.560078 0.500000 0.613327
O O16 0.553828 0.422990 0.712918
O O17 0.419403 0.370134 0.845996
O O18 0.980205 0.000000 0.820657
#
# Coordination Sequence:
#
# PCOD9185541 Si02
#       8
#     8   8   8   8   8   8   8   8
#     4  10  19  34  57  82 113 145 177 224 274 328
#     4  11  23  37  55  81 111 147 185 224 276 329
#     4  10  22  37  58  82 111 145 183 229 275 332
#     4  10  20  36  57  80 112 144 179 229 274 323
#     4  10  21  37  56  80 109 145 186 224 270 325
#     4  10  21  39  58  82 110 144 184 227 280 325
#     4  10  22  39  59  81 109 145 185 229 274 327
#     4   9  20  35  55  85 110 141 184 224 276 325
#
# _framework density 20.930392999999999
#
# number of rings (size 3 to 8) (size 9 to 14) (size 15 to 20)
#    0.000    2.000    0.000    3.000    0.000    8.750 
#    0.000    3.125    0.000    0.750    0.000    0.000 
#    0.000    0.000    0.000    0.000    0.000    0.000 
#
# Total GULP energy -178610.703442 kJ/mol
# GULP energy per Si atom -5581.584483 kJ/mol
# Density = 2.088275 g / cm^3
# Si number density = 20.930393 Si / 1000 Ang^3
#
#
#
# Elastic Constant Matrix: (Units=GPa)
#
#
# Indices 1 2 3 4 5 6 
#
# 1 61.2123 33.9371 -1.7117 0.0000 -1.3925 0.0000
# 2 33.9371 145.5531 14.6506 0.0000 -4.9432 0.0000
# 3 -1.7117 14.6506 27.0543 0.0000 -11.8523 0.0000
# 4 0.0000 0.0000 0.0000 5.2792 0.0000 -3.4442
# 5 -1.3925 -4.9432 -11.8523 0.0000 21.6548 0.0000
# 6 0.0000 0.0000 0.0000 -3.4442 0.0000 25.6782
#
#
#
# Elastic Compliance Matrix: (Units=1/GPa)
#
#
# Indices 1 2 3 4 5 6 
#
# 1 0.019273 -0.004914 0.005172 0.000000 0.002948 0.000000
# 2 -0.004914 0.008526 -0.005543 0.000000 -0.001404 0.000000
# 3 0.005172 -0.005543 0.052463 0.000000 0.027782 0.000000
# 4 0.000000 0.000000 0.000000 0.207586 0.000000 0.027843
# 5 0.002948 -0.001404 0.027782 0.000000 0.061254 0.000000
# 6 0.000000 0.000000 0.000000 0.027843 0.000000 0.042678
#
#
# Mechanical properties :
#
#
# Convention : Reuss Voigt Hill
#
# Bulk Modulus (GPa) = 14.34892 36.39688 25.37290
# Shear Modulus (GPa) = 11.74865 22.98535 17.36700
#
# Velocity S-wave (km/s) = 2.37179 3.31748 2.88366
# Velocity P-wave (km/s) = 3.79090 5.66581 4.82039
#
# Compressibility (1/GPa) = 0.06969165
#
# Stress axis : x y z
#
# Youngs Moduli (GPa) = 51.88676 117.28305 19.06123
#
# Poissons Ratio (x) = 0.57634 -0.09859
# Poissons Ratio (y) = 0.25498 0.10566
# Poissons Ratio (z) = -0.26837 0.65011
#
# Static dielectric constant tensor:
#      x y z
#    x 1.768030 0.000000 0.003320 
#    y 0.000000 1.749230 0.000000 
#    z 0.003320 0.000000 1.777260 
# 
# From -- ./inp_files/301685.got.cif
#   From: 2010.05.17/outbox.cif.g08.bks.cpg/sg12_151_cif.got.tgz:301685.got - 2010.06.03 13:09:07.
