data_PCOD9185714
_publ_section_title
;
Structure prediction by ZEFSAII (Michael W. Deem and Ramdas Pophale) SiO2 
 PCOD9185714
Probable space group: C 2/M
;
_chemical_formula_sum "Si O2"
_cell_formula_units_Z 58
_cell_length_a 5.513506
_cell_length_b 27.508844
_cell_length_c 17.935723
_cell_angle_alpha 90.000000
_cell_angle_beta 62.371592
_cell_angle_gamma 90.000000
_cell_volume 2410.127070
_symmetry_space_group_name_H-M "C 2/M"
_symmetry_group_IT_number 12
_symmetry_cell_setting 'monoclinic'
loop_
_space_group_symop_operation_xyz
x,y,z
-x,y,-z
-x,-y,-z
x,-y,z
1/2+x,1/2+y,z
1/2-x,1/2+y,-z
1/2-x,1/2-y,-z
1/2+x,1/2-y,z
loop_
_atom_site_type_symbol
_atom_site_label
_atom_site_fract_x
_atom_site_fract_y
_atom_site_fract_z
Si Si1 0.264147 0.376939 0.662859
Si Si2 0.000000 0.500000 0.000000
Si Si3 0.579214 0.725769 0.321912
Si Si4 0.733040 0.632950 0.816146
Si Si5 0.015546 0.054716 0.746455
Si Si6 0.416884 0.945250 0.427020
Si Si7 0.327049 0.899107 0.957321
Si Si8 0.428191 0.262341 0.129594
O O1 0.451682 0.330983 0.653866
O O2 0.323875 0.419491 0.713793
O O3 0.266550 0.404020 0.584157
O O4 0.958051 0.356922 0.720784
O O5 0.885707 0.456195 0.960601
O O6 0.283772 0.749964 0.352752
O O7 0.752278 0.734349 0.219976
O O8 0.554085 0.587298 0.814560
O O9 0.904335 0.620945 0.865705
O O10 0.561270 0.681042 0.851684
O O11 0.308977 0.053114 0.662897
O O12 0.929509 0.000000 0.777700
O O13 0.500000 0.935233 0.500000
O O14 0.299883 0.000000 0.440149
O O15 0.500000 0.875313 0.000000
O O16 0.000000 0.891030 0.000000
O O17 0.730024 0.241454 0.087395
#
# Coordination Sequence:
#
# PCOD9185714 Si02
#       8
#     8   2   8   8   8   8   8   8
#     4  11  21  35  60  92 119 155 207 255 309 362
#     4   8  22  44  62  80 110 164 212 240 302 374
#     4  10  19  34  57  88 120 156 196 252 303 366
#     4  11  23  37  62  89 121 157 204 257 309 363
#     4  10  22  35  57  91 124 152 201 257 308 357
#     4   9  20  39  58  83 124 165 201 244 301 372
#     4  10  24  42  62  84 120 163 209 246 305 372
#     4  10  19  34  58  89 117 155 198 248 306 369
#
# _framework density 24.065121999999999
#
# number of rings (size 3 to 8) (size 9 to 14) (size 15 to 20)
#    0.414    1.517    2.759    2.276    4.828    1.103 
#    2.483    2.069    0.000    3.310    0.000    0.000 
#    0.000    0.000    0.000    0.000    0.000    0.000 
#
# Total GULP energy -161858.679768 kJ/mol
# GULP energy per Si atom -5581.333785 kJ/mol
# Density = 2.401035 g / cm^3
# Si number density = 24.065122 Si / 1000 Ang^3
#
#
#
# Elastic Constant Matrix: (Units=GPa)
#
#
# Indices 1 2 3 4 5 6 
#
# 1 123.0063 41.5320 31.8811 0.0000 16.4999 0.0000
# 2 41.5320 145.3112 42.3990 0.0000 35.8682 0.0000
# 3 31.8811 42.3990 80.2536 0.0000 20.7400 0.0000
# 4 0.0000 0.0000 0.0000 16.6300 0.0000 21.5192
# 5 16.4999 35.8682 20.7400 0.0000 35.6773 0.0000
# 6 0.0000 0.0000 0.0000 21.5192 0.0000 38.8421
#
#
#
# Elastic Compliance Matrix: (Units=1/GPa)
#
#
# Indices 1 2 3 4 5 6 
#
# 1 0.009527 -0.001665 -0.002588 0.000000 -0.001228 0.000000
# 2 -0.001665 0.010052 -0.002632 0.000000 -0.007806 0.000000
# 3 -0.002588 -0.002632 0.016341 0.000000 -0.005656 0.000000
# 4 0.000000 0.000000 0.000000 0.212403 0.000000 -0.117675
# 5 -0.001228 -0.007806 -0.005656 0.000000 0.039733 0.000000
# 6 0.000000 0.000000 0.000000 -0.117675 0.000000 0.090939
#
#
# Mechanical properties :
#
#
# Convention : Reuss Voigt Hill
#
# Bulk Modulus (GPa) = 45.14466 64.46615 54.80540
# Shear Modulus (GPa) = 12.49536 33.74715 23.12125
#
# Velocity S-wave (km/s) = 2.28114 3.74883 3.10301
# Velocity P-wave (km/s) = 5.07328 6.75164 5.97172
#
# Compressibility (1/GPa) = 0.02215102
#
# Stress axis : x y z
#
# Youngs Moduli (GPa) = 104.96236 99.47805 61.19626
#
# Poissons Ratio (x) = 0.16561 0.15837
# Poissons Ratio (y) = 0.17474 0.16108
# Poissons Ratio (z) = 0.27162 0.26184
#
# Static dielectric constant tensor:
#      x y z
#    x 1.960260 0.000000 -0.019220 
#    y 0.000000 1.899680 0.000000 
#    z -0.019220 0.000000 1.979030 
# 
# From -- ./inp_files/253884.got.cif
#   From: 2010.05.17/outbox.cif.g08.bks.cpg/sg12_127_cif.got.tgz:253884.got - 2010.06.03 13:09:07.
