data_PCOD9185686
_publ_section_title
;
Structure prediction by ZEFSAII (Michael W. Deem and Ramdas Pophale) SiO2 
 PCOD9185686
Probable space group: C 2/M
;
_chemical_formula_sum "Si O2"
_cell_formula_units_Z 56
_cell_length_a 10.267788
_cell_length_b 20.772317
_cell_length_c 21.939216
_cell_angle_alpha 90.000000
_cell_angle_beta 147.979770
_cell_angle_gamma 90.000000
_cell_volume 2481.063882
_symmetry_space_group_name_H-M "C 2/M"
_symmetry_group_IT_number 12
_symmetry_cell_setting 'monoclinic'
loop_
_space_group_symop_operation_xyz
x,y,z
-x,y,-z
-x,-y,-z
x,-y,z
1/2+x,1/2+y,z
1/2-x,1/2+y,-z
1/2-x,1/2-y,-z
1/2+x,1/2-y,z
loop_
_atom_site_type_symbol
_atom_site_label
_atom_site_fract_x
_atom_site_fract_y
_atom_site_fract_z
Si Si1 0.612608 0.924107 0.383363
Si Si2 0.568024 0.160180 0.252560
Si Si3 0.867685 0.764097 0.881694
Si Si4 0.920719 0.194698 0.539791
Si Si5 0.051361 0.880704 0.171985
Si Si6 0.816848 0.383037 0.872377
Si Si7 0.833035 0.432186 0.075607
O O1 0.654046 0.897644 0.331176
O O2 0.777942 0.873485 0.486598
O O3 0.326068 0.907701 0.281034
O O4 0.661855 0.000000 0.409965
O O5 0.419097 0.216118 0.227481
O O6 0.354408 0.126650 0.129290
O O7 0.816135 0.188118 0.323051
O O8 0.965132 0.809818 0.866045
O O9 0.891999 0.688393 0.881384
O O10 0.000000 0.773234 0.000000
O O11 0.750000 0.250000 0.500000
O O12 0.000000 0.207459 0.500000
O O13 0.942829 0.881994 0.197088
O O14 0.878873 0.922069 0.058167
O O15 0.900249 0.429072 0.851532
O O16 0.000000 0.400590 0.000000
O O17 0.797434 0.500000 0.093376
#
# Coordination Sequence:
#
# PCOD9185686 Si02
#       7
#     8   8   8   8   8   8   8
#     4  10  22  40  64  91 121 161 207 254 306 365
#     4  10  22  37  63  92 119 158 200 255 304 355
#     4  10  19  34  57  86 118 148 199 247 305 353
#     4  10  24  45  69  95 123 164 209 263 316 370
#     4  10  21  37  57  88 121 164 200 248 301 367
#     4   9  22  33  53  81 119 168 197 244 291 366
#     4  11  22  36  56  87 126 164 200 241 299 367
#
# _framework density 22.570964
#
# number of rings (size 3 to 8) (size 9 to 14) (size 15 to 20)
#    0.000    2.000    1.429    0.857    4.000   10.286 
#    0.000    2.143    0.000    0.429    0.000    0.000 
#    0.000    0.000    0.000    0.000    0.000    0.000 
#
# Total GULP energy -156222.804783 kJ/mol
# GULP energy per Si atom -5579.385885 kJ/mol
# Density = 2.251959 g / cm^3
# Si number density = 22.570964 Si / 1000 Ang^3
#
#
#
# Elastic Constant Matrix: (Units=GPa)
#
#
# Indices 1 2 3 4 5 6 
#
# 1 52.1173 13.6166 16.6667 0.0000 24.8318 -0.0001
# 2 13.6166 111.5016 15.9130 0.0001 17.3269 0.0001
# 3 16.6667 15.9130 74.4039 0.0008 21.3788 0.0000
# 4 0.0000 0.0001 0.0008 18.4046 0.0002 -2.6764
# 5 24.8318 17.3269 21.3788 0.0002 36.7155 -0.0002
# 6 -0.0001 0.0001 0.0000 -2.6764 -0.0002 16.9131
#
#
#
# Elastic Compliance Matrix: (Units=1/GPa)
#
#
# Indices 1 2 3 4 5 6 
#
# 1 0.028396 -0.000467 -0.000968 0.000000 -0.018421 0.000000
# 2 -0.000467 0.009737 -0.000899 0.000000 -0.003756 0.000000
# 3 -0.000968 -0.000899 0.016260 -0.000001 -0.008389 0.000000
# 4 0.000000 0.000000 -0.000001 0.055614 0.000000 0.008801
# 5 -0.018421 -0.003756 -0.008389 0.000000 0.046352 0.000001
# 6 0.000000 0.000000 0.000000 0.008801 0.000001 0.060518
#
#
# Mechanical properties :
#
#
# Convention : Reuss Voigt Hill
#
# Bulk Modulus (GPa) = 20.11033 36.71283 28.41158
# Shear Modulus (GPa) = 20.99778 27.19506 24.09642
#
# Velocity S-wave (km/s) = 3.05339 3.47489 3.27094
# Velocity P-wave (km/s) = 4.62170 5.69215 5.18463
#
# Compressibility (1/GPa) = 0.04972568
#
# Stress axis : x y z
#
# Youngs Moduli (GPa) = 35.21637 102.69608 61.50212
#
# Poissons Ratio (x) = 0.04796 0.05953
# Poissons Ratio (y) = 0.01645 0.05527
# Poissons Ratio (z) = 0.03409 0.09229
#
# Static dielectric constant tensor:
#      x y z
#    x 1.935810 0.000000 -0.025560 
#    y 0.000000 1.835430 0.000000 
#    z -0.025560 0.000000 1.880970 
# 
# From -- ./inp_files/358937.got.cif
#   From: 2010.05.17/outbox.cif.g08.bks.cpg/sg12_180_cif.got.tgz:358937.got - 2010.06.03 13:09:07.
