data_PCOD9185038
_publ_section_title
;
Structure prediction by ZEFSAII (Michael W. Deem and Ramdas Pophale) SiO2 
 PCOD9185038
Probable space group: C 2/M
;
_chemical_formula_sum "Si O2"
_cell_formula_units_Z 64
_cell_length_a 17.753818
_cell_length_b 20.578134
_cell_length_c 17.127128
_cell_angle_alpha 90.000000
_cell_angle_beta 30.765723
_cell_angle_gamma 90.000000
_cell_volume 3200.755320
_symmetry_space_group_name_H-M "C 2/M"
_symmetry_group_IT_number 12
_symmetry_cell_setting 'monoclinic'
loop_
_space_group_symop_operation_xyz
x,y,z
-x,y,-z
-x,-y,-z
x,-y,z
1/2+x,1/2+y,z
1/2-x,1/2+y,-z
1/2-x,1/2-y,-z
1/2+x,1/2-y,z
loop_
_atom_site_type_symbol
_atom_site_label
_atom_site_fract_x
_atom_site_fract_y
_atom_site_fract_z
Si Si1 0.514111 0.854355 0.170321
Si Si2 0.669488 0.925312 0.370671
Si Si3 0.041632 0.794164 0.732962
Si Si4 0.187391 0.863620 0.174970
Si Si5 0.764432 0.326213 0.277506
Si Si6 0.581834 0.430480 0.533400
Si Si7 0.782468 0.391299 0.492331
Si Si8 0.881833 0.187399 0.170305
O O1 0.499933 0.780017 0.212715
O O2 0.412081 0.856393 0.183761
O O3 0.433855 0.893219 0.310076
O O4 0.676346 0.875695 0.003259
O O5 0.500000 0.910790 0.500000
O O6 0.693496 0.916647 0.442413
O O7 0.781567 0.873022 0.234707
O O8 0.699758 0.000000 0.321791
O O9 0.206159 0.819127 0.562986
O O10 0.029683 0.828028 0.828840
O O11 0.929302 0.819706 0.768204
O O12 0.249307 0.831292 0.198475
O O13 0.089109 0.922622 0.294058
O O14 0.638138 0.368541 0.433126
O O15 0.777186 0.249230 0.283520
O O16 0.614344 0.500000 0.466305
O O17 0.667339 0.428035 0.539645
O O18 0.000000 0.206427 0.000000
#
# Coordination Sequence:
#
# PCOD9185038 Si02
#       8
#     8   8   8   8   8   8   8   8
#     4  10  19  34  55  82 115 146 182 232 283 328
#     4  10  22  38  57  85 117 149 188 231 276 332
#     4   9  19  34  53  82 114 147 183 226 277 334
#     4  11  21  33  54  84 115 143 183 234 279 328
#     4  10  21  37  57  83 114 149 185 229 283 337
#     4  10  22  40  60  80 109 152 195 231 274 337
#     4   9  19  36  59  79 107 152 192 226 273 333
#     4  10  21  39  61  84 114 147 185 233 283 333
#
# _framework density 19.995279
#
# number of rings (size 3 to 8) (size 9 to 14) (size 15 to 20)
#    0.000    2.125    0.000    3.375    0.000    7.250 
#    0.000    3.125    0.000   10.125    0.000    0.000 
#    0.000    0.000    0.000    0.000    0.000    0.000 
#
# Total GULP energy -178306.864382 kJ/mol
# GULP energy per Si atom -5572.089512 kJ/mol
# Density = 1.994977 g / cm^3
# Si number density = 19.995279 Si / 1000 Ang^3
#
#
#
# Elastic Constant Matrix: (Units=GPa)
#
#
# Indices 1 2 3 4 5 6 
#
# 1 80.8294 4.9182 11.1321 -0.0016 7.7692 -0.0058
# 2 4.9182 88.4911 36.1227 -0.0001 -5.8262 -0.0102
# 3 11.1321 36.1227 118.9770 -0.0035 -3.0989 -0.0090
# 4 -0.0016 -0.0001 -0.0035 12.6488 0.0011 -0.5421
# 5 7.7692 -5.8262 -3.0989 0.0011 22.5181 0.0048
# 6 -0.0058 -0.0102 -0.0090 -0.5421 0.0048 6.1294
#
#
#
# Elastic Compliance Matrix: (Units=1/GPa)
#
#
# Indices 1 2 3 4 5 6 
#
# 1 0.013029 -0.000561 -0.001174 0.000002 -0.004802 0.000014
# 2 -0.000561 0.013103 -0.003846 -0.000001 0.003054 0.000013
# 3 -0.001174 -0.003846 0.009702 0.000003 0.000745 0.000006
# 4 0.000002 -0.000001 0.000003 0.079360 -0.000006 0.007019
# 5 -0.004802 0.003054 0.000745 -0.000006 0.046958 -0.000036
# 6 0.000014 0.000013 0.000006 0.007019 -0.000036 0.163769
#
#
# Mechanical properties :
#
#
# Convention : Reuss Voigt Hill
#
# Bulk Modulus (GPa) = 40.53205 43.62706 42.07956
# Shear Modulus (GPa) = 14.47989 24.00090 19.24039
#
# Velocity S-wave (km/s) = 2.69395 3.46833 3.10538
# Velocity P-wave (km/s) = 5.47643 6.15672 5.82651
#
# Compressibility (1/GPa) = 0.02467183
#
# Stress axis : x y z
#
# Youngs Moduli (GPa) = 76.75126 76.31914 103.07217
#
# Poissons Ratio (x) = 0.04283 0.12098
# Poissons Ratio (y) = 0.04307 0.39643
# Poissons Ratio (z) = 0.09009 0.29353
#
# Static dielectric constant tensor:
#      x y z
#    x 1.718250 0.000000 0.009070 
#    y 0.000000 1.751260 0.000000 
#    z 0.009070 0.000000 1.719240 
# 
# From -- ./inp_files/279087.got.cif
#   From: 2010.05.17/outbox.cif.g08.bks.cpg/sg12_140_cif.got.tgz:279087.got - 2010.06.03 13:09:07.
