data_PCOD9185331
_publ_section_title
;
Structure prediction by ZEFSAII (Michael W. Deem and Ramdas Pophale) SiO2 
 PCOD9185331
Probable space group: C 2/M
;
_chemical_formula_sum "Si O2"
_cell_formula_units_Z 64
_cell_length_a 19.706256
_cell_length_b 9.005626
_cell_length_c 18.400198
_cell_angle_alpha 90.000000
_cell_angle_beta 106.478781
_cell_angle_gamma 90.000000
_cell_volume 3131.303026
_symmetry_space_group_name_H-M "C 2/M"
_symmetry_group_IT_number 12
_symmetry_cell_setting 'monoclinic'
loop_
_space_group_symop_operation_xyz
x,y,z
-x,y,-z
-x,-y,-z
x,-y,z
1/2+x,1/2+y,z
1/2-x,1/2+y,-z
1/2-x,1/2-y,-z
1/2+x,1/2-y,z
loop_
_atom_site_type_symbol
_atom_site_label
_atom_site_fract_x
_atom_site_fract_y
_atom_site_fract_z
Si Si1 0.831185 0.325955 0.598390
Si Si2 0.086267 0.830964 0.676721
Si Si3 0.217527 0.170349 0.189673
Si Si4 0.091105 0.325526 0.221949
Si Si5 0.792530 0.176205 0.078551
Si Si6 0.797668 0.328667 0.369788
Si Si7 0.051412 0.171816 0.453504
Si Si8 0.074373 0.323811 0.823612
O O1 0.816902 0.500000 0.583864
O O2 0.877745 0.309141 0.686821
O O3 0.758801 0.237643 0.591023
O O4 0.879869 0.261142 0.549290
O O5 0.133542 0.770728 0.624581
O O6 0.003951 0.832401 0.630272
O O7 0.094572 0.725526 0.748156
O O8 0.108076 0.000000 0.700459
O O9 0.139116 0.227198 0.184005
O O10 0.254581 0.272716 0.141540
O O11 0.258086 0.176589 0.279241
O O12 0.218690 0.000000 0.164752
O O13 0.099454 0.500000 0.206213
O O14 0.008418 0.287971 0.192457
O O15 0.872322 0.238674 0.107541
O O16 0.792617 0.000000 0.072280
O O17 0.750000 0.250000 0.000000
O O18 0.814816 0.500000 0.391103
O O19 0.000000 0.235519 0.500000
O O20 0.069044 0.000000 0.477621
O O21 0.083909 0.500000 0.833972
#
# Coordination Sequence:
#
# PCOD9185331 Si02
#       8
#     8   8   8   8   8   8   8   8
#     4  10  19  34  56  84 115 148 191 237 286 342
#     4  11  21  34  57  86 114 148 193 240 285 337
#     4  10  20  35  57  85 117 151 189 234 285 339
#     4   9  19  34  56  85 117 149 185 236 288 335
#     4  12  25  41  61  85 118 156 194 235 285 341
#     4  10  20  34  56  84 116 149 186 237 289 338
#     4  10  22  39  57  81 117 156 193 236 290 348
#     4  11  21  37  59  87 119 149 189 237 286 338
#
# _framework density 20.438777000000002
#
# number of rings (size 3 to 8) (size 9 to 14) (size 15 to 20)
#    0.000    1.625    2.500    3.000    0.000    3.250 
#    0.000    1.250    0.000    3.750    0.000    0.000 
#    0.000    0.000    0.000    0.000    0.000    0.000 
#
# Total GULP energy -178914.052584 kJ/mol
# GULP energy per Si atom -5591.064143 kJ/mol
# Density = 2.039226 g / cm^3
# Si number density = 20.438777 Si / 1000 Ang^3
#
#
#
# Elastic Constant Matrix: (Units=GPa)
#
#
# Indices 1 2 3 4 5 6 
#
# 1 124.6024 60.4520 11.1249 0.0000 -4.1423 0.0000
# 2 60.4520 106.7958 14.9377 0.0000 -4.0971 0.0000
# 3 11.1249 14.9377 43.0379 0.0000 9.5865 0.0000
# 4 0.0000 0.0000 0.0000 25.6863 0.0000 -7.2621
# 5 -4.1423 -4.0971 9.5865 0.0000 29.0091 0.0000
# 6 0.0000 0.0000 0.0000 -7.2621 0.0000 35.1232
#
#
#
# Elastic Compliance Matrix: (Units=1/GPa)
#
#
# Indices 1 2 3 4 5 6 
#
# 1 0.011114 -0.006113 -0.000985 0.000000 0.001049 0.000000
# 2 -0.006113 0.013407 -0.003563 0.000000 0.002198 0.000000
# 3 -0.000985 -0.003563 0.026846 0.000000 -0.009515 0.000000
# 4 0.000000 0.000000 0.000000 0.041348 0.000000 0.008549
# 5 0.001049 0.002198 -0.009515 0.000000 0.038077 0.000000
# 6 0.000000 0.000000 0.000000 0.008549 0.000000 0.030239
#
#
# Mechanical properties :
#
#
# Convention : Reuss Voigt Hill
#
# Bulk Modulus (GPa) = 33.28274 49.71838 41.50056
# Shear Modulus (GPa) = 25.99197 30.49183 28.24190
#
# Velocity S-wave (km/s) = 3.56996 3.86665 3.72126
# Velocity P-wave (km/s) = 5.77168 6.65680 6.22998
#
# Compressibility (1/GPa) = 0.03004561
#
# Stress axis : x y z
#
# Youngs Moduli (GPa) = 89.97482 74.58965 37.24960
#
# Poissons Ratio (x) = 0.45598 0.03668
# Poissons Ratio (y) = 0.55004 0.13270
# Poissons Ratio (z) = 0.08861 0.26573
#
# Static dielectric constant tensor:
#      x y z
#    x 1.722960 0.000000 0.023580 
#    y 0.000000 1.690010 0.000000 
#    z 0.023580 0.000000 1.754370 
# 
# From -- ./inp_files/281295.got.cif
#   From: 2010.05.17/outbox.cif.g08.bks.cpg/sg12_141_cif.got.tgz:281295.got - 2010.06.03 13:09:07.
