data_PCOD9185642
_publ_section_title
;
Structure prediction by ZEFSAII (Michael W. Deem and Ramdas Pophale) SiO2 
 PCOD9185642
Probable space group: C 2/M
;
_chemical_formula_sum "Si O2"
_cell_formula_units_Z 64
_cell_length_a 26.641039
_cell_length_b 15.167449
_cell_length_c 17.745646
_cell_angle_alpha 90.000000
_cell_angle_beta 26.570775
_cell_angle_gamma 90.000000
_cell_volume 3207.430643
_symmetry_space_group_name_H-M "C 2/M"
_symmetry_group_IT_number 12
_symmetry_cell_setting 'monoclinic'
loop_
_space_group_symop_operation_xyz
x,y,z
-x,y,-z
-x,-y,-z
x,-y,z
1/2+x,1/2+y,z
1/2-x,1/2+y,-z
1/2-x,1/2-y,-z
1/2+x,1/2-y,z
loop_
_atom_site_type_symbol
_atom_site_label
_atom_site_fract_x
_atom_site_fract_y
_atom_site_fract_z
Si Si1 0.415796 0.400977 0.356219
Si Si2 0.630203 0.599584 0.168779
Si Si3 0.373343 0.716544 0.685321
Si Si4 0.118751 0.270174 0.670777
Si Si5 0.146740 0.399757 0.223274
Si Si6 0.513743 0.897885 0.245988
Si Si7 0.848465 0.599312 0.247173
Si Si8 0.812661 0.399077 0.125628
O O1 0.430049 0.500000 0.306806
O O2 0.507015 0.389548 0.299491
O O3 0.437391 0.324285 0.266857
O O4 0.287584 0.394527 0.558188
O O5 0.638788 0.500000 0.190226
O O6 0.655919 0.674212 0.194543
O O7 0.724715 0.603905 0.977745
O O8 0.500000 0.688185 0.500000
O O9 0.369240 0.821871 0.696083
O O10 0.285993 0.672032 0.746586
O O11 0.250000 0.250000 0.500000
O O12 0.095753 0.327637 0.775436
O O13 0.083511 0.330438 0.646837
O O14 0.123578 0.500000 0.279946
O O15 0.070738 0.382140 0.250623
O O16 0.476589 0.000000 0.294105
O O17 0.606325 0.887343 0.055110
O O18 0.881203 0.500000 0.227564
O O19 0.870131 0.608595 0.129764
O O20 0.768741 0.500000 0.181171
#
# Coordination Sequence:
#
# PCOD9185642 Si02
#       8
#     8   8   8   8   8   8   8   8
#     4   9  18  31  52  80 108 139 177 225 275 327
#     4  10  19  34  57  85 112 144 184 230 287 338
#     4  12  23  33  54  84 119 157 187 227 279 336
#     4  10  20  33  53  77 105 140 183 227 276 332
#     4  10  22  39  58  81 113 151 195 235 270 332
#     4  10  20  36  58  83 108 140 183 231 280 332
#     4   9  18  34  51  75 112 143 175 223 280 338
#     4  10  21  35  53  82 116 146 181 225 283 346
#
# _framework density 19.953665999999998
#
# number of rings (size 3 to 8) (size 9 to 14) (size 15 to 20)
#    0.000    2.000    1.250    2.625    1.750    4.250 
#    0.000    1.875    0.000    0.750    0.000    0.875 
#    0.000    0.000    0.000    0.000    0.000    0.000 
#
# Total GULP energy -178655.048518 kJ/mol
# GULP energy per Si atom -5582.970266 kJ/mol
# Density = 1.990825 g / cm^3
# Si number density = 19.953666 Si / 1000 Ang^3
#
#
#
# Elastic Constant Matrix: (Units=GPa)
#
#
# Indices 1 2 3 4 5 6 
#
# 1 55.5333 49.3755 -1.9170 0.0000 -5.4927 0.0000
# 2 49.3755 118.4956 16.0304 0.0000 -8.6488 0.0000
# 3 -1.9170 16.0304 43.2875 0.0000 -8.8234 0.0000
# 4 0.0000 0.0000 0.0000 17.4222 0.0000 -5.8777
# 5 -5.4927 -8.6488 -8.8234 0.0000 18.8820 0.0000
# 6 0.0000 0.0000 0.0000 -5.8777 0.0000 30.7642
#
#
#
# Elastic Compliance Matrix: (Units=1/GPa)
#
#
# Indices 1 2 3 4 5 6 
#
# 1 0.030828 -0.013412 0.007635 0.000000 0.006392 0.000000
# 2 -0.013412 0.014855 -0.006083 0.000000 0.000060 0.000000
# 3 0.007635 -0.006083 0.028269 0.000000 0.012645 0.000000
# 4 0.000000 0.000000 0.000000 0.061353 0.000000 0.011722
# 5 0.006392 0.000060 0.012645 0.000000 0.060756 0.000000
# 6 0.000000 0.000000 0.000000 0.011722 0.000000 0.034745
#
#
# Mechanical properties :
#
#
# Convention : Reuss Voigt Hill
#
# Bulk Modulus (GPa) = 19.90740 38.25492 29.08116
# Shear Modulus (GPa) = 18.43185 23.66883 21.05034
#
# Velocity S-wave (km/s) = 3.04259 3.44785 3.25154
# Velocity P-wave (km/s) = 4.72669 5.92146 5.35749
#
# Compressibility (1/GPa) = 0.05023258
#
# Stress axis : x y z
#
# Youngs Moduli (GPa) = 32.43849 67.31772 35.37383
#
# Poissons Ratio (x) = 0.90285 -0.27007
# Poissons Ratio (y) = 0.43506 0.21517
# Poissons Ratio (z) = -0.24766 0.40948
#
# Static dielectric constant tensor:
#      x y z
#    x 1.702480 0.000000 -0.014230 
#    y 0.000000 1.735170 0.000000 
#    z -0.014230 0.000000 1.713610 
# 
# From -- ./inp_files/290107.got.cif
#   From: 2010.05.17/outbox.cif.g08.bks.cpg/sg12_146_cif.got.tgz:290107.got - 2010.06.03 13:09:07.
