data_PCOD9185143
_publ_section_title
;
Structure prediction by ZEFSAII (Michael W. Deem and Ramdas Pophale) SiO2 
 PCOD9185143
Probable space group: C 2/M
;
_chemical_formula_sum "Si O2"
_cell_formula_units_Z 64
_cell_length_a 28.456647
_cell_length_b 20.207152
_cell_length_c 15.093205
_cell_angle_alpha 90.000000
_cell_angle_beta 155.746289
_cell_angle_gamma 90.000000
_cell_volume 3565.146512
_symmetry_space_group_name_H-M "C 2/M"
_symmetry_group_IT_number 12
_symmetry_cell_setting 'monoclinic'
loop_
_space_group_symop_operation_xyz
x,y,z
-x,y,-z
-x,-y,-z
x,-y,z
1/2+x,1/2+y,z
1/2-x,1/2+y,-z
1/2-x,1/2-y,-z
1/2+x,1/2-y,z
loop_
_atom_site_type_symbol
_atom_site_label
_atom_site_fract_x
_atom_site_fract_y
_atom_site_fract_z
Si Si1 0.135560 0.675116 0.732938
Si Si2 0.975037 0.820908 0.213992
Si Si3 0.779658 0.076747 0.867970
Si Si4 0.131585 0.577544 0.235823
Si Si5 0.784706 0.924304 0.665433
Si Si6 0.755003 0.177056 0.318560
Si Si7 0.192372 0.710866 0.017974
Si Si8 0.400573 0.708784 0.887208
O O1 0.181966 0.616845 0.750787
O O2 0.196587 0.742139 0.802920
O O3 0.000000 0.679713 0.500000
O O4 0.179170 0.666394 0.908781
O O5 0.109097 0.825908 0.459084
O O6 0.899061 0.886770 0.097141
O O7 0.914546 0.761938 0.164252
O O8 0.953176 0.803683 0.073867
O O9 0.760220 0.081926 0.728268
O O10 0.782265 0.000000 0.895722
O O11 0.139347 0.500000 0.226060
O O12 0.178002 0.584006 0.415992
O O13 0.209638 0.619529 0.303946
O O14 0.000000 0.597873 0.000000
O O15 0.866655 0.862030 0.787040
O O16 0.829219 0.000000 0.727771
O O17 0.700365 0.175785 0.126422
O O18 0.709618 0.244991 0.286492
O O19 0.500000 0.741140 0.000000
#
# Coordination Sequence:
#
# PCOD9185143 Si02
#       8
#     8   8   8   8   8   8   8   8
#     4  10  19  34  56  79 105 134 167 210 261 315
#     4   9  19  34  52  75 104 137 170 208 259 310
#     4   9  19  36  56  78 102 129 170 220 260 301
#     4  10  22  37  51  72 105 144 180 212 255 312
#     4   9  19  36  55  74 103 142 174 207 259 312
#     4  11  21  34  54  77 105 140 176 214 257 306
#     4   9  20  35  52  78 107 136 168 207 258 311
#     4  10  20  32  50  80 107 131 173 222 259 295
#
# _framework density 17.951575999999999
#
# number of rings (size 3 to 8) (size 9 to 14) (size 15 to 20)
#    0.000    2.375    0.000    2.625    0.000    6.000 
#    0.000    3.125    0.000    0.750    0.000    0.000 
#    0.000    0.000    0.000    0.000    0.000    0.000 
#
# Total GULP energy -178442.989826 kJ/mol
# GULP energy per Si atom -5576.343432 kJ/mol
# Density = 1.791072 g / cm^3
# Si number density = 17.951576 Si / 1000 Ang^3
#
#
#
# Elastic Constant Matrix: (Units=GPa)
#
#
# Indices 1 2 3 4 5 6 
#
# 1 68.2805 34.4692 38.5927 0.0000 14.7309 0.0000
# 2 34.4692 65.3530 35.7752 0.0000 -4.1420 0.0000
# 3 38.5927 35.7752 89.3842 0.0000 14.3200 0.0000
# 4 0.0000 0.0000 0.0000 13.9992 0.0000 -4.0427
# 5 14.7309 -4.1420 14.3200 0.0000 28.4203 0.0000
# 6 0.0000 0.0000 0.0000 -4.0427 0.0000 17.9372
#
#
#
# Elastic Compliance Matrix: (Units=1/GPa)
#
#
# Indices 1 2 3 4 5 6 
#
# 1 0.026074 -0.012266 -0.004239 0.000000 -0.013167 0.000000
# 2 -0.012266 0.026911 -0.007747 0.000000 0.014183 0.000000
# 3 -0.004239 -0.007747 0.017348 0.000000 -0.007673 0.000000
# 4 0.000000 0.000000 0.000000 0.076406 0.000000 0.017221
# 5 -0.013167 0.014183 -0.007673 0.000000 0.047944 0.000000
# 6 0.000000 0.000000 0.000000 0.017221 0.000000 0.059631
#
#
# Mechanical properties :
#
#
# Convention : Reuss Voigt Hill
#
# Bulk Modulus (GPa) = 45.81207 48.96578 47.38892
# Shear Modulus (GPa) = 16.12411 19.68337 17.90374
#
# Velocity S-wave (km/s) = 3.00025 3.31489 3.16149
# Velocity P-wave (km/s) = 6.13002 6.47975 6.30731
#
# Compressibility (1/GPa) = 0.02182831
#
# Stress axis : x y z
#
# Youngs Moduli (GPa) = 38.35202 37.15964 57.64430
#
# Poissons Ratio (x) = 0.45581 0.24435
# Poissons Ratio (y) = 0.47044 0.44657
# Poissons Ratio (z) = 0.16257 0.28787
#
# Static dielectric constant tensor:
#      x y z
#    x 1.612870 0.000000 -0.003840 
#    y 0.000000 1.619720 0.000000 
#    z -0.003840 0.000000 1.607110 
# 
# From -- ./inp_files/251943.got.cif
#   From: 2010.05.17/outbox.cif.g08.bks.cpg/sg12_126_cif.got.tgz:251943.got - 2010.06.03 13:09:07.
