data_PCOD9185838
_publ_section_title
;
Structure prediction by ZEFSAII (Michael W. Deem and Ramdas Pophale) SiO2 
 PCOD9185838
Probable space group: C 2/M
;
_chemical_formula_sum "Si O2"
_cell_formula_units_Z 64
_cell_length_a 26.049374
_cell_length_b 8.680681
_cell_length_c 14.947447
_cell_angle_alpha 90.000000
_cell_angle_beta 79.613402
_cell_angle_gamma 90.000000
_cell_volume 3324.624995
_symmetry_space_group_name_H-M "C 2/M"
_symmetry_group_IT_number 12
_symmetry_cell_setting 'monoclinic'
loop_
_space_group_symop_operation_xyz
x,y,z
-x,y,-z
-x,-y,-z
x,-y,z
1/2+x,1/2+y,z
1/2-x,1/2+y,-z
1/2-x,1/2-y,-z
1/2+x,1/2-y,z
loop_
_atom_site_type_symbol
_atom_site_label
_atom_site_fract_x
_atom_site_fract_y
_atom_site_fract_z
Si Si1 0.955336 0.814148 0.791708
Si Si2 0.222326 0.183641 0.595982
Si Si3 0.943560 0.818187 0.140294
Si Si4 0.850280 0.683418 0.070359
Si Si5 0.746560 0.186129 0.775812
Si Si6 0.493967 0.180325 0.401888
Si Si7 0.610259 0.820499 0.670685
Si Si8 0.160839 0.814125 0.118776
O O1 0.974155 0.759595 0.688157
O O2 0.896702 0.763415 0.831116
O O3 0.998126 0.761860 0.852592
O O4 0.956639 0.000000 0.792412
O O5 0.250000 0.250000 0.500000
O O6 0.250707 0.235839 0.678282
O O7 0.165016 0.257446 0.621191
O O8 0.219285 0.000000 0.592483
O O9 0.908373 0.742385 0.074869
O O10 0.911488 0.779842 0.240640
O O11 0.945878 0.000000 0.122332
O O12 0.850778 0.500000 0.066825
O O13 0.808435 0.729111 0.159978
O O14 0.830867 0.748982 0.982505
O O15 0.793702 0.230479 0.826812
O O16 0.747105 0.000000 0.765047
O O17 0.500000 0.244185 0.500000
O O18 0.433596 0.187714 0.391771
O O19 0.509480 0.000000 0.398488
O O20 0.614817 0.000000 0.698211
O O21 0.160851 0.000000 0.113982
#
# Coordination Sequence:
#
# PCOD9185838 Si02
#       8
#     8   8   8   8   8   8   8   8
#     4   9  20  37  56  82 115 151 194 241 291 344
#     4  12  25  40  61  87 117 154 195 241 295 349
#     4  10  19  34  58  84 112 150 193 237 287 345
#     4  11  22  36  59  88 117 153 199 248 295 350
#     4  10  22  41  62  85 118 155 197 247 295 348
#     4   9  19  35  57  84 114 150 189 233 289 349
#     4  10  19  35  57  82 114 147 187 238 287 342
#     4  10  22  40  60  84 119 159 196 243 296 350
#
# _framework density 19.250292000000002
#
# number of rings (size 3 to 8) (size 9 to 14) (size 15 to 20)
#    0.000    1.875    1.250    2.625    0.000    4.250 
#    0.000    5.000    0.000    0.000    0.000    0.000 
#    0.000    0.000    0.000    0.000    0.000    0.000 
#
# Total GULP energy -178711.571957 kJ/mol
# GULP energy per Si atom -5584.736624 kJ/mol
# Density = 1.920648 g / cm^3
# Si number density = 19.250292 Si / 1000 Ang^3
#
#
#
# Elastic Constant Matrix: (Units=GPa)
#
#
# Indices 1 2 3 4 5 6 
#
# 1 91.4843 18.4883 32.7651 0.0000 11.2326 0.0000
# 2 18.4883 23.5869 17.4215 0.0000 7.3611 0.0000
# 3 32.7651 17.4215 100.9576 0.0000 18.9322 0.0000
# 4 0.0000 0.0000 0.0000 32.7028 0.0000 3.1698
# 5 11.2326 7.3611 18.9322 0.0000 25.7163 0.0000
# 6 0.0000 0.0000 0.0000 3.1698 0.0000 21.3196
#
#
#
# Elastic Compliance Matrix: (Units=1/GPa)
#
#
# Indices 1 2 3 4 5 6 
#
# 1 0.013784 -0.008271 -0.002740 0.000000 -0.001637 0.000000
# 2 -0.008271 0.055405 -0.005314 0.000000 -0.008335 0.000000
# 3 -0.002740 -0.005314 0.012996 0.000000 -0.006850 0.000000
# 4 0.000000 0.000000 0.000000 0.031026 0.000000 -0.004613
# 5 -0.001637 -0.008335 -0.006850 0.000000 0.047029 0.000000
# 6 0.000000 0.000000 0.000000 -0.004613 0.000000 0.047591
#
#
# Mechanical properties :
#
#
# Convention : Reuss Voigt Hill
#
# Bulk Modulus (GPa) = 20.18662 39.26431 29.72546
# Shear Modulus (GPa) = 19.45592 25.77133 22.61362
#
# Velocity S-wave (km/s) = 3.18257 3.66286 3.43113
# Velocity P-wave (km/s) = 4.90043 6.19110 5.58319
#
# Compressibility (1/GPa) = 0.04953777
#
# Stress axis : x y z
#
# Youngs Moduli (GPa) = 72.54600 18.04884 76.94851
#
# Poissons Ratio (x) = 0.14927 0.21080
# Poissons Ratio (y) = 0.59999 0.40888
# Poissons Ratio (z) = 0.19874 0.09591
#
# Static dielectric constant tensor:
#      x y z
#    x 1.691610 0.000000 0.012380 
#    y 0.000000 1.654860 0.000000 
#    z 0.012380 0.000000 1.657050 
# 
# From -- ./inp_files/238812.got.cif
#   From: 2010.05.17/outbox.cif.g08.bks.cpg/sg12_120_cif.got.tgz:238812.got - 2010.06.03 13:09:07.
