data_PCOD9185912
_publ_section_title
;
Structure prediction by ZEFSAII (Michael W. Deem and Ramdas Pophale) SiO2 
 PCOD9185912
Probable space group: C 2/M
;
_chemical_formula_sum "Si O2"
_cell_formula_units_Z 52
_cell_length_a 17.815741
_cell_length_b 19.952638
_cell_length_c 9.477004
_cell_angle_alpha 90.000000
_cell_angle_beta 124.737559
_cell_angle_gamma 90.000000
_cell_volume 2768.381399
_symmetry_space_group_name_H-M "C 2/M"
_symmetry_group_IT_number 12
_symmetry_cell_setting 'monoclinic'
loop_
_space_group_symop_operation_xyz
x,y,z
-x,y,-z
-x,-y,-z
x,-y,z
1/2+x,1/2+y,z
1/2-x,1/2+y,-z
1/2-x,1/2-y,-z
1/2+x,1/2-y,z
loop_
_atom_site_type_symbol
_atom_site_label
_atom_site_fract_x
_atom_site_fract_y
_atom_site_fract_z
Si Si1 0.764808 0.000000 0.947452
Si Si2 0.845096 0.745497 0.520893
Si Si3 0.497853 0.853638 0.324712
Si Si4 0.378771 0.400399 0.248293
Si Si5 0.159348 0.253556 0.813715
Si Si6 0.896987 0.000000 0.822828
Si Si7 0.914650 0.896690 0.601941
Si Si8 0.046164 0.500000 0.704052
O O1 0.821556 0.000000 0.863634
O O2 0.656304 0.000000 0.811095
O O3 0.801344 0.063716 0.075141
O O4 0.750000 0.750000 0.500000
O O5 0.912833 0.685000 0.634652
O O6 0.823797 0.732702 0.333195
O O7 0.898092 0.816631 0.595193
O O8 0.500000 0.853771 0.500000
O O9 0.410347 0.807705 0.199149
O O10 0.485558 0.929822 0.262409
O O11 0.380779 0.320923 0.229695
O O12 0.367787 0.415482 0.402595
O O13 0.480260 0.419388 0.306879
O O14 0.250000 0.250000 0.000000
O O15 0.883213 0.064212 0.706563
O O16 0.000000 0.000000 0.000000
O O17 0.000000 0.500000 0.500000
#
# Coordination Sequence:
#
# PCOD9185912 Si02
#       8
#     4   8   8   8   8   4   8   4
#     4  12  23  36  59  93 122 153 207 254 303 365
#     4  10  21  38  59  86 117 158 200 243 299 362
#     4   9  18  36  58  80 114 153 197 237 285 356
#     4  10  19  35  59  81 116 162 207 244 294 372
#     4  10  19  34  58  86 113 152 204 250 291 344
#     4  12  23  35  53  92 133 156 188 251 324 362
#     4  10  20  37  56  82 122 167 195 240 313 371
#     4  10  22  37  57  85 117 160 199 245 300 354
#
# _framework density 18.783539000000001
#
# number of rings (size 3 to 8) (size 9 to 14) (size 15 to 20)
#    0.000    1.846    3.077    1.385    0.000    6.154 
#    0.000    0.769    0.000    0.000    0.000   16.154 
#    0.000    0.000    0.000    0.000    0.000    0.000 
#
# Total GULP energy -145008.740052 kJ/mol
# GULP energy per Si atom -5577.259233 kJ/mol
# Density = 1.874079 g / cm^3
# Si number density = 18.783539 Si / 1000 Ang^3
#
#
#
# Elastic Constant Matrix: (Units=GPa)
#
#
# Indices 1 2 3 4 5 6 
#
# 1 111.0307 57.1029 46.6404 0.0000 16.1762 0.0000
# 2 57.1029 140.8042 47.4741 0.0000 9.1949 0.0000
# 3 46.6404 47.4741 101.1391 0.0000 17.4110 0.0000
# 4 0.0000 0.0000 0.0000 -12.0274 0.0000 1.8183
# 5 16.1762 9.1949 17.4110 0.0000 29.2152 0.0000
# 6 0.0000 0.0000 0.0000 1.8183 0.0000 16.3986
#
#
#
# Elastic Compliance Matrix: (Units=1/GPa)
#
#
# Indices 1 2 3 4 5 6 
#
# 1 0.013035 -0.003839 -0.003538 0.000000 -0.003901 0.000000
# 2 -0.003839 0.009571 -0.002863 0.000000 0.000820 0.000000
# 3 -0.003538 -0.002863 0.013785 0.000000 -0.005355 0.000000
# 4 0.000000 0.000000 0.000000 -0.081773 0.000000 0.009067
# 5 -0.003901 0.000820 -0.005355 0.000000 0.039322 0.000000
# 6 0.000000 0.000000 0.000000 0.009067 0.000000 0.059975
#
#
# Mechanical properties :
#
#
# Convention : Reuss Voigt Hill
#
# Bulk Modulus (GPa) = 62.84985 72.82320 67.83653
# Shear Modulus (GPa) = 62.73638 20.16774 41.45206
#
# Velocity S-wave (km/s) = 5.78551 3.28028 4.70279
# Velocity P-wave (km/s) = 8.84094 7.29389 8.10442
#
# Compressibility (1/GPa) = 0.01591094
#
# Stress axis : x y z
#
# Youngs Moduli (GPa) = 76.71490 104.48473 72.54437
#
# Poissons Ratio (x) = 0.40111 0.25664
# Poissons Ratio (y) = 0.29450 0.20771
# Poissons Ratio (z) = 0.27140 0.29917
#
# Static dielectric constant tensor:
#      x y z
#    x 1.616600 0.000000 -0.006090 
#    y 0.000000 1.653300 0.000000 
#    z -0.006090 0.000000 1.644100 
# 
# From -- ./inp_files/78110.got.cif
#   From: 2010.05.17/outbox.cif.g08.bks.cpg/sg12_40_cif.got.tgz:78110.got - 2010.06.03 13:09:07.
