data_PCOD9185531
_publ_section_title
;
Structure prediction by ZEFSAII (Michael W. Deem and Ramdas Pophale) SiO2 
 PCOD9185531
Probable space group: C 2/M
;
_chemical_formula_sum "Si O2"
_cell_formula_units_Z 56
_cell_length_a 20.008816
_cell_length_b 8.713800
_cell_length_c 28.329480
_cell_angle_alpha 90.000000
_cell_angle_beta 141.623816
_cell_angle_gamma 90.000000
_cell_volume 3066.441326
_symmetry_space_group_name_H-M "C 2/M"
_symmetry_group_IT_number 12
_symmetry_cell_setting 'monoclinic'
loop_
_space_group_symop_operation_xyz
x,y,z
-x,y,-z
-x,-y,-z
x,-y,z
1/2+x,1/2+y,z
1/2-x,1/2+y,-z
1/2-x,1/2-y,-z
1/2+x,1/2-y,z
loop_
_atom_site_type_symbol
_atom_site_label
_atom_site_fract_x
_atom_site_fract_y
_atom_site_fract_z
Si Si1 0.636201 0.178631 0.451093
Si Si2 0.968507 0.685833 0.130160
Si Si3 0.117992 0.319729 0.553351
Si Si4 0.918425 0.313991 0.996476
Si Si5 0.491453 0.682037 0.699768
Si Si6 0.180248 0.315779 0.865679
Si Si7 0.841156 0.316701 0.696319
O O1 0.750000 0.250000 0.500000
O O2 0.627655 0.190414 0.502369
O O3 0.542079 0.263744 0.370670
O O4 0.633753 0.000000 0.436133
O O5 0.964533 0.500000 0.127008
O O6 0.874254 0.735007 0.114457
O O7 0.081886 0.727573 0.217272
O O8 0.955100 0.738905 0.069128
O O9 0.123163 0.500000 0.569734
O O10 0.218219 0.233864 0.632182
O O11 0.000000 0.258948 0.500000
O O12 0.916368 0.500000 0.995182
O O13 0.797581 0.253613 0.922993
O O14 0.000000 0.265500 0.000000
O O15 0.502625 0.500000 0.708063
O O16 0.597406 0.761120 0.779606
O O17 0.394283 0.735472 0.680332
O O18 0.185483 0.500000 0.868854
O O19 0.848960 0.500000 0.694378
#
# Coordination Sequence:
#
# PCOD9185531 Si02
#       7
#     8   8   8   8   8   8   8
#     4  11  21  35  58  84 114 148 185 230 278 328
#     4   8  17  34  56  82 108 141 181 226 274 323
#     4  10  22  39  56  78 113 152 190 228 274 331
#     4  10  20  36  57  81 115 149 179 219 275 336
#     4  11  21  35  57  85 113 143 186 234 282 332
#     4  10  20  36  58  82 111 142 185 233 273 325
#     4  10  19  34  57  82 111 144 187 236 280 328
#
# _framework density 18.262211000000001
#
# number of rings (size 3 to 8) (size 9 to 14) (size 15 to 20)
#    0.000    2.000    1.429    3.857    0.000    1.143 
#    2.571    3.571    0.000    0.000    0.000    0.000 
#    0.000    0.000    0.000    0.000    0.000    0.000 
#
# Total GULP energy -156283.099142 kJ/mol
# GULP energy per Si atom -5581.539255 kJ/mol
# Density = 1.822065 g / cm^3
# Si number density = 18.262211 Si / 1000 Ang^3
#
#
#
# Elastic Constant Matrix: (Units=GPa)
#
#
# Indices 1 2 3 4 5 6 
#
# 1 77.6006 28.7674 65.7790 0.0000 20.1179 -0.0001
# 2 28.7674 44.7251 21.8937 0.0000 2.7145 -0.0002
# 3 65.7790 21.8937 130.4408 0.0000 14.8221 0.0000
# 4 0.0000 0.0000 0.0000 32.2313 0.0000 6.1500
# 5 20.1179 2.7145 14.8221 0.0000 27.9162 0.0000
# 6 -0.0001 -0.0002 0.0000 6.1500 0.0000 16.6931
#
#
#
# Elastic Compliance Matrix: (Units=1/GPa)
#
#
# Indices 1 2 3 4 5 6 
#
# 1 0.032495 -0.013946 -0.012280 0.000000 -0.015541 0.000000
# 2 -0.013946 0.030347 0.001205 0.000000 0.006460 0.000000
# 3 -0.012280 0.001205 0.013477 0.000000 0.001576 0.000000
# 4 0.000000 0.000000 0.000000 0.033372 0.000000 -0.012295
# 5 -0.015541 0.006460 0.001576 0.000000 0.045556 0.000000
# 6 0.000000 0.000000 0.000000 -0.012295 0.000000 0.064435
#
#
# Mechanical properties :
#
#
# Convention : Reuss Voigt Hill
#
# Bulk Modulus (GPa) = 38.05527 53.96075 46.00801
# Shear Modulus (GPa) = 17.95446 24.45654 21.20550
#
# Velocity S-wave (km/s) = 3.13892 3.66346 3.41129
# Velocity P-wave (km/s) = 5.83272 6.89250 6.38463
#
# Compressibility (1/GPa) = 0.02627757
#
# Stress axis : x y z
#
# Youngs Moduli (GPa) = 30.77431 32.95212 74.19874
#
# Poissons Ratio (x) = 0.45956 0.91114
# Poissons Ratio (y) = 0.42919 -0.08943
# Poissons Ratio (z) = 0.37790 -0.03972
#
# Static dielectric constant tensor:
#      x y z
#    x 1.620020 0.000000 -0.010720 
#    y 0.000000 1.622980 0.000000 
#    z -0.010720 0.000000 1.621940 
# 
# From -- ./inp_files/380783.got.cif
#   From: 2010.05.17/outbox.cif.g08.bks.cpg/sg12_191_cif.got.tgz:380783.got - 2010.06.03 13:09:07.
