data_PCOD9185126
_publ_section_title
;
Structure prediction by ZEFSAII (Michael W. Deem and Ramdas Pophale) SiO2 
 PCOD9185126
Probable space group: C 2/M
;
_chemical_formula_sum "Si O2"
_cell_formula_units_Z 48
_cell_length_a 20.552710
_cell_length_b 14.197450
_cell_length_c 11.814799
_cell_angle_alpha 90.000000
_cell_angle_beta 44.313580
_cell_angle_gamma 90.000000
_cell_volume 2408.379776
_symmetry_space_group_name_H-M "C 2/M"
_symmetry_group_IT_number 12
_symmetry_cell_setting 'monoclinic'
loop_
_space_group_symop_operation_xyz
x,y,z
-x,y,-z
-x,-y,-z
x,-y,z
1/2+x,1/2+y,z
1/2-x,1/2+y,-z
1/2-x,1/2-y,-z
1/2+x,1/2-y,z
loop_
_atom_site_type_symbol
_atom_site_label
_atom_site_fract_x
_atom_site_fract_y
_atom_site_fract_z
Si Si1 0.138022 0.261610 0.996145
Si Si2 0.418588 0.723740 0.283300
Si Si3 0.397310 0.890312 0.761841
Si Si4 0.610169 0.104022 0.833934
Si Si5 0.692018 0.394711 0.759170
Si Si6 0.105023 0.656623 0.499162
O O1 0.153234 0.312315 0.097517
O O2 0.029767 0.227235 0.129439
O O3 0.153175 0.347846 0.890563
O O4 0.187812 0.173698 0.874225
O O5 0.379963 0.820590 0.276867
O O6 0.371927 0.644912 0.263256
O O7 0.395302 0.738719 0.444611
O O8 0.396922 0.854422 0.633732
O O9 0.507002 0.888400 0.661596
O O10 0.365709 0.000000 0.808058
O O11 0.644799 0.000000 0.766311
O O12 0.500000 0.098536 0.000000
O O13 0.663752 0.500000 0.824675
O O14 0.798967 0.392294 0.587343
#
# Coordination Sequence:
#
# PCOD9185126 Si02
#       6
#     8   8   8   8   8   8
#     4   9  19  32  48  74 102 134 173 208 247 299
#     4   9  19  33  49  73 103 133 170 211 252 302
#     4  10  19  34  56  78 104 135 166 206 258 316
#     4   8  13  23  42  67  95 125 157 199 249 296
#     4  11  21  34  53  76 104 138 175 214 253 294
#     4  10  20  34  52  78 106 132 167 209 259 312
#
# _framework density 19.930413000000001
#
# number of rings (size 3 to 8) (size 9 to 14) (size 15 to 20)
#    0.000    2.500    0.000    4.500    0.000    7.333 
#    0.000    0.000    0.000    2.000    0.000    4.667 
#    0.000    0.000    0.000    0.000    0.000    0.000 
#
# Total GULP energy -133622.675198 kJ/mol
# GULP energy per Si atom -5567.611467 kJ/mol
# Density = 1.988505 g / cm^3
# Si number density = 19.930413 Si / 1000 Ang^3
#
#
#
# Elastic Constant Matrix: (Units=GPa)
#
#
# Indices 1 2 3 4 5 6 
#
# 1 37.5272 9.4090 15.9830 0.0000 0.8935 0.0000
# 2 9.4090 120.9165 36.8998 0.0000 8.3517 0.0000
# 3 15.9830 36.8998 56.0336 0.0000 7.9212 0.0000
# 4 0.0000 0.0000 0.0000 5.1010 0.0000 -6.3797
# 5 0.8935 8.3517 7.9212 0.0000 23.9114 0.0000
# 6 0.0000 0.0000 0.0000 -6.3797 0.0000 -4.2044
#
#
#
# Elastic Compliance Matrix: (Units=1/GPa)
#
#
# Indices 1 2 3 4 5 6 
#
# 1 0.030416 0.000294 -0.009121 0.000000 0.001783 0.000000
# 2 0.000294 0.010399 -0.006732 0.000000 -0.001413 0.000000
# 3 -0.009121 -0.006732 0.025705 0.000000 -0.005823 0.000000
# 4 0.000000 0.000000 0.000000 0.067652 0.000000 -0.102654
# 5 0.001783 -0.001413 -0.005823 0.000000 0.044177 0.000000
# 6 0.000000 0.000000 0.000000 -0.102654 0.000000 -0.082079
#
#
# Mechanical properties :
#
#
# Convention : Reuss Voigt Hill
#
# Bulk Modulus (GPa) = 28.24828 37.67344 32.96086
# Shear Modulus (GPa) = 35.92204 15.10730 25.51467
#
# Velocity S-wave (km/s) = 4.25004 2.75617 3.58185
# Velocity P-wave (km/s) = 6.18773 5.39186 5.80346
#
# Compressibility (1/GPa) = 0.03540039
#
# Stress axis : x y z
#
# Youngs Moduli (GPa) = 32.87743 96.15940 38.90331
#
# Poissons Ratio (x) = -0.02823 0.35484
# Poissons Ratio (y) = -0.00965 0.26191
# Poissons Ratio (z) = 0.29988 0.64737
#
# Static dielectric constant tensor:
#      x y z
#    x 1.789830 0.000000 0.036840 
#    y 0.000000 1.706970 0.000000 
#    z 0.036840 0.000000 1.780220 
# 
# From -- ./inp_files/166534.got.cif
#   From: 2010.05.17/outbox.cif.g08.bks.cpg/sg12_84_cif.got.tgz:166534.got - 2010.06.03 13:09:07.
