data_PCOD9185789
_publ_section_title
;
Structure prediction by ZEFSAII (Michael W. Deem and Ramdas Pophale) SiO2 
 PCOD9185789
Probable space group: C 2/M
;
_chemical_formula_sum "Si O2"
_cell_formula_units_Z 64
_cell_length_a 20.673502
_cell_length_b 8.933217
_cell_length_c 23.911557
_cell_angle_alpha 90.000000
_cell_angle_beta 128.271363
_cell_angle_gamma 90.000000
_cell_volume 3466.945763
_symmetry_space_group_name_H-M "C 2/M"
_symmetry_group_IT_number 12
_symmetry_cell_setting 'monoclinic'
loop_
_space_group_symop_operation_xyz
x,y,z
-x,y,-z
-x,-y,-z
x,-y,z
1/2+x,1/2+y,z
1/2-x,1/2+y,-z
1/2-x,1/2-y,-z
1/2+x,1/2-y,z
loop_
_atom_site_type_symbol
_atom_site_label
_atom_site_fract_x
_atom_site_fract_y
_atom_site_fract_z
Si Si1 0.212843 0.321655 0.565559
Si Si2 0.544301 0.321527 0.682875
Si Si3 0.868169 0.321845 0.598205
Si Si4 0.083927 0.819818 0.577898
Si Si5 0.931249 0.171805 0.913658
Si Si6 0.636514 0.677843 0.844588
Si Si7 0.051583 0.677803 0.898788
Si Si8 0.686391 0.320045 0.054025
O O1 0.218213 0.500000 0.572977
O O2 0.163333 0.284846 0.481616
O O3 0.303052 0.252466 0.605357
O O4 0.161032 0.254186 0.588532
O O5 0.527940 0.500000 0.671948
O O6 0.459715 0.239919 0.652749
O O7 0.574197 0.275310 0.637327
O O8 0.610574 0.295149 0.766790
O O9 0.866108 0.500000 0.603512
O O10 0.000000 0.778599 0.500000
O O11 0.092048 0.000000 0.579229
O O12 0.848565 0.215010 0.902398
O O13 0.967052 0.274028 0.884021
O O14 0.925237 0.000000 0.890934
O O15 0.000000 0.174137 0.000000
O O16 0.645065 0.500000 0.858474
O O17 0.566486 0.743581 0.847600
O O18 0.721906 0.760109 0.903744
O O19 0.057294 0.500000 0.897396
O O20 0.125206 0.741233 0.977516
O O21 0.681626 0.500000 0.044166
#
# Coordination Sequence:
#
# PCOD9185789 Si02
#       8
#     8   8   8   8   8   8   8   8
#     4  10  20  33  54  84 113 141 178 221 269 323
#     4  10  22  39  57  79 109 146 183 226 280 332
#     4  10  20  34  55  81 110 142 178 223 269 320
#     4  10  19  34  58  83 109 141 179 224 274 327
#     4   8  16  32  54  80 109 140 175 221 274 321
#     4  11  23  38  55  77 110 148 186 227 276 331
#     4  11  21  34  56  84 112 144 187 230 273 324
#     4  10  20  36  58  83 112 144 183 229 276 324
#
# _framework density 18.460052000000001
#
# number of rings (size 3 to 8) (size 9 to 14) (size 15 to 20)
#    0.000    2.000    1.250    3.750    0.000    5.500 
#    0.000    1.250    0.000    3.000    0.000    0.000 
#    0.000    0.000    0.000    0.000    0.000    0.000 
#
# Total GULP energy -178666.086342 kJ/mol
# GULP energy per Si atom -5583.315198 kJ/mol
# Density = 1.841804 g / cm^3
# Si number density = 18.460052 Si / 1000 Ang^3
#
#
#
# Elastic Constant Matrix: (Units=GPa)
#
#
# Indices 1 2 3 4 5 6 
#
# 1 116.6996 32.6559 18.7426 0.0000 -17.1049 0.0000
# 2 32.6559 46.6635 21.0856 0.0000 -10.1281 0.0000
# 3 18.7426 21.0856 31.5796 0.0000 -17.0360 0.0000
# 4 0.0000 0.0000 0.0000 16.9379 0.0000 2.6150
# 5 -17.1049 -10.1281 -17.0360 0.0000 23.3258 0.0000
# 6 0.0000 0.0000 0.0000 2.6150 0.0000 36.6495
#
#
#
# Elastic Compliance Matrix: (Units=1/GPa)
#
#
# Indices 1 2 3 4 5 6 
#
# 1 0.011255 -0.007195 0.001470 0.000000 0.006204 0.000000
# 2 -0.007195 0.035392 -0.022966 0.000000 -0.006682 0.000000
# 3 0.001470 -0.022966 0.068201 0.000000 0.040917 0.000000
# 4 0.000000 0.000000 0.000000 0.059697 0.000000 -0.004260
# 5 0.006204 -0.006682 0.040917 0.000000 0.074403 0.000000
# 6 0.000000 0.000000 0.000000 -0.004260 0.000000 0.027589
#
#
# Mechanical properties :
#
#
# Convention : Reuss Voigt Hill
#
# Bulk Modulus (GPa) = 17.40092 37.76788 27.58440
# Shear Modulus (GPa) = 14.16136 23.54652 18.85394
#
# Velocity S-wave (km/s) = 2.77273 3.57534 3.19930
# Velocity P-wave (km/s) = 4.43817 6.12762 5.35001
#
# Compressibility (1/GPa) = 0.05746824
#
# Stress axis : x y z
#
# Youngs Moduli (GPa) = 88.84617 28.25486 14.66261
#
# Poissons Ratio (x) = 0.20328 -0.02156
# Poissons Ratio (y) = 0.63922 0.33674
# Poissons Ratio (z) = -0.13063 0.64889
#
# Static dielectric constant tensor:
#      x y z
#    x 1.637540 0.000000 -0.018050 
#    y 0.000000 1.611050 0.000000 
#    z -0.018050 0.000000 1.629540 
# 
# From -- ./inp_files/346282.got.cif
#   From: 2010.05.17/outbox.cif.g08.bks.cpg/sg12_174_cif.got.tgz:346282.got - 2010.06.03 13:09:07.
