data_PCOD9185854
_publ_section_title
;
Structure prediction by ZEFSAII (Michael W. Deem and Ramdas Pophale) SiO2 
 PCOD9185854
Probable space group: C 2/M
;
_chemical_formula_sum "Si O2"
_cell_formula_units_Z 48
_cell_length_a 26.236738
_cell_length_b 15.966287
_cell_length_c 10.646580
_cell_angle_alpha 90.000000
_cell_angle_beta 26.163332
_cell_angle_gamma 90.000000
_cell_volume 1966.504998
_symmetry_space_group_name_H-M "C 2/M"
_symmetry_group_IT_number 12
_symmetry_cell_setting 'monoclinic'
loop_
_space_group_symop_operation_xyz
x,y,z
-x,y,-z
-x,-y,-z
x,-y,z
1/2+x,1/2+y,z
1/2-x,1/2+y,-z
1/2-x,1/2-y,-z
1/2+x,1/2-y,z
loop_
_atom_site_type_symbol
_atom_site_label
_atom_site_fract_x
_atom_site_fract_y
_atom_site_fract_z
Si Si1 0.068879 0.592281 0.658459
Si Si2 0.248175 0.095891 0.979559
Si Si3 0.077853 0.828184 0.174585
Si Si4 0.297060 0.761170 0.534386
Si Si5 0.570683 0.593790 0.711573
Si Si6 0.424561 0.147020 0.774706
O O1 0.078837 0.500000 0.693813
O O2 0.162282 0.596278 0.336533
O O3 0.103285 0.668743 0.671193
O O4 0.945913 0.603510 0.860343
O O5 0.128751 0.130554 0.187821
O O6 0.301725 0.147954 0.976499
O O7 0.235129 0.000000 0.049148
O O8 0.190074 0.794921 0.850941
O O9 0.018891 0.738687 0.330207
O O10 0.010318 0.888908 0.230346
O O11 0.250000 0.750000 0.500000
O O12 0.343231 0.671509 0.475032
O O13 0.619901 0.500000 0.595269
O O14 0.500000 0.598489 0.000000
O O15 0.500000 0.101533 0.500000
#
# Coordination Sequence:
#
# PCOD9185854 Si02
#       6
#     8   8   8   8   8   8
#     4   9  18  33  57  85 112 148 193 243 294 351
#     4   9  18  32  53  84 110 143 198 245 282 349
#     4  11  21  37  62  85 119 160 201 247 305 356
#     4  11  22  38  61  89 120 154 202 258 303 358
#     4  11  23  41  65  90 119 163 209 249 300 367
#     4  10  19  34  58  84 116 156 198 239 298 359
#
# _framework density 24.408787
#
# number of rings (size 3 to 8) (size 9 to 14) (size 15 to 20)
#    0.000    1.833    3.333    1.500    0.000    3.333 
#    0.000    1.667    0.000    2.500    0.000    0.000 
#    0.000    0.000    0.000    0.000    0.000    0.000 
#
# Total GULP energy -134160.583100 kJ/mol
# GULP energy per Si atom -5590.024296 kJ/mol
# Density = 2.435323 g / cm^3
# Si number density = 24.408787 Si / 1000 Ang^3
#
#
#
# Elastic Constant Matrix: (Units=GPa)
#
#
# Indices 1 2 3 4 5 6 
#
# 1 172.5119 75.7391 24.1745 0.0000 -26.0961 0.0000
# 2 75.7391 157.6104 6.1318 0.0000 -14.0181 0.0000
# 3 24.1745 6.1318 44.7572 0.0000 2.9191 0.0000
# 4 0.0000 0.0000 0.0000 15.2780 0.0000 -0.8289
# 5 -26.0961 -14.0181 2.9191 0.0000 36.1659 0.0000
# 6 0.0000 0.0000 0.0000 -0.8289 0.0000 9.2662
#
#
#
# Elastic Compliance Matrix: (Units=1/GPa)
#
#
# Indices 1 2 3 4 5 6 
#
# 1 0.008830 -0.003587 -0.004627 0.000000 0.005354 0.000000
# 2 -0.003587 0.008080 0.000799 0.000000 0.000479 0.000000
# 3 -0.004627 0.000799 0.025062 0.000000 -0.005052 0.000000
# 4 0.000000 0.000000 0.000000 0.065773 0.000000 0.005883
# 5 0.005354 0.000479 -0.005052 0.000000 0.032107 0.000000
# 6 0.000000 0.000000 0.000000 0.005883 0.000000 0.108445
#
#
# Mechanical properties :
#
#
# Convention : Reuss Voigt Hill
#
# Bulk Modulus (GPa) = 36.84300 65.21892 51.03096
# Shear Modulus (GPa) = 18.37059 30.06430 24.21744
#
# Velocity S-wave (km/s) = 2.74637 3.51337 3.15328
# Velocity P-wave (km/s) = 5.01833 6.57539 5.84891
#
# Compressibility (1/GPa) = 0.02714220
#
# Stress axis : x y z
#
# Youngs Moduli (GPa) = 113.25202 123.76305 39.90112
#
# Poissons Ratio (x) = 0.44393 0.18462
# Poissons Ratio (y) = 0.40622 -0.03189
# Poissons Ratio (z) = 0.52402 -0.09891
#
# Static dielectric constant tensor:
#      x y z
#    x 1.928790 0.000000 0.026890 
#    y 0.000000 1.921560 0.000000 
#    z 0.026890 0.000000 2.201360 
# 
# From -- ./inp_files/143115.got.cif
#   From: 2010.05.17/outbox.cif.g08.bks.cpg/sg12_72_cif.got.tgz:143115.got - 2010.06.03 13:09:07.
