data_PCOD9185661
_publ_section_title
;
Structure prediction by ZEFSAII (Michael W. Deem and Ramdas Pophale) SiO2 
 PCOD9185661
Probable space group: C 2/M
;
_chemical_formula_sum "Si O2"
_cell_formula_units_Z 56
_cell_length_a 22.699692
_cell_length_b 15.596067
_cell_length_c 8.853752
_cell_angle_alpha 90.000000
_cell_angle_beta 91.051278
_cell_angle_gamma 90.000000
_cell_volume 3133.930067
_symmetry_space_group_name_H-M "C 2/M"
_symmetry_group_IT_number 12
_symmetry_cell_setting 'monoclinic'
loop_
_space_group_symop_operation_xyz
x,y,z
-x,y,-z
-x,-y,-z
x,-y,z
1/2+x,1/2+y,z
1/2-x,1/2+y,-z
1/2-x,1/2-y,-z
1/2+x,1/2-y,z
loop_
_atom_site_type_symbol
_atom_site_label
_atom_site_fract_x
_atom_site_fract_y
_atom_site_fract_z
Si Si1 0.625483 0.189095 0.717991
Si Si2 0.279747 0.904846 0.107140
Si Si3 0.815336 0.242030 0.573396
Si Si4 0.144136 0.360283 0.168438
Si Si5 0.929896 0.779598 0.011595
Si Si6 0.350372 0.399505 0.809225
Si Si7 0.066407 0.500000 0.322537
Si Si8 0.067551 0.500000 0.683694
O O1 0.689070 0.168907 0.795012
O O2 0.638587 0.224620 0.551640
O O3 0.595651 0.093397 0.725678
O O4 0.590635 0.258891 0.817395
O O5 0.210408 0.890384 0.099078
O O6 0.288093 0.000000 0.177535
O O7 0.312671 0.903734 0.949312
O O8 0.750000 0.250000 0.500000
O O9 0.817579 0.305419 0.715270
O O10 0.836819 0.152769 0.652732
O O11 0.099176 0.300857 0.075071
O O12 0.103152 0.421145 0.262898
O O13 0.900598 0.858372 0.917985
O O14 0.000000 0.782128 0.000000
O O15 0.360877 0.500000 0.780582
O O16 0.066144 0.500000 0.502402
O O17 0.999526 0.500000 0.261647
#
# Coordination Sequence:
#
# PCOD9185661 Si02
#       8
#     8   8   8   8   8   8   4   4
#     4  11  21  36  59  89 120 157 197 233 296 353
#     4  10  19  34  57  85 117 150 186 239 286 349
#     4  11  22  37  59  86 122 154 191 247 300 359
#     4  10  21  35  57  85 122 156 199 233 292 349
#     4  10  23  40  60  84 113 158 203 253 292 347
#     4  10  23  42  62  85 114 153 200 250 310 348
#     4  11  20  35  51  87 127 167 193 230 277 354
#     4  11  22  33  55  85 129 167 193 230 278 359
#
# _framework density 17.868936000000001
#
# number of rings (size 3 to 8) (size 9 to 14) (size 15 to 20)
#    0.000    1.571    4.286    0.857    2.000    2.000 
#    1.286    2.857    0.000    0.857    0.000    0.000 
#    0.000    0.000    0.000    0.000    0.000    0.000 
#
# Total GULP energy -155973.322796 kJ/mol
# GULP energy per Si atom -5570.475814 kJ/mol
# Density = 1.782827 g / cm^3
# Si number density = 17.868936 Si / 1000 Ang^3
#
#
#
# Elastic Constant Matrix: (Units=GPa)
#
#
# Indices 1 2 3 4 5 6 
#
# 1 106.2487 37.8288 31.3055 0.0000 7.9013 0.0000
# 2 37.8288 100.7595 38.0091 0.0000 1.0082 0.0000
# 3 31.3055 38.0091 78.8580 0.0000 -1.5434 0.0000
# 4 0.0000 0.0000 0.0000 16.4638 0.0000 -67.8594
# 5 7.9013 1.0082 -1.5434 0.0000 21.0652 0.0000
# 6 0.0000 0.0000 0.0000 -67.8594 0.0000 136.3991
#
#
#
# Elastic Compliance Matrix: (Units=1/GPa)
#
#
# Indices 1 2 3 4 5 6 
#
# 1 0.011838 -0.003169 -0.003260 0.000000 -0.004527 0.000000
# 2 -0.003169 0.013000 -0.005004 0.000000 0.000200 0.000000
# 3 -0.003260 -0.005004 0.016439 0.000000 0.002667 0.000000
# 4 0.000000 0.000000 0.000000 -0.057815 0.000000 -0.028763
# 5 -0.004527 0.000200 0.002667 0.000000 0.049356 0.000000
# 6 0.000000 0.000000 0.000000 -0.028763 0.000000 -0.006978
#
#
# Mechanical properties :
#
#
# Convention : Reuss Voigt Hill
#
# Bulk Modulus (GPa) = 54.31807 55.57256 54.94532
# Shear Modulus (GPa) = 91.16921 46.70049 68.93485
#
# Velocity S-wave (km/s) = 7.15065 5.11779 6.21786
# Velocity P-wave (km/s) = 9.93176 8.12957 9.07551
#
# Compressibility (1/GPa) = 0.01841008
#
# Stress axis : x y z
#
# Youngs Moduli (GPa) = 84.47709 76.92307 60.82919
#
# Poissons Ratio (x) = 0.24377 0.19833
# Poissons Ratio (y) = 0.26771 0.30439
# Poissons Ratio (z) = 0.27544 0.38492
#
# Static dielectric constant tensor:
#      x y z
#    x 1.615630 0.000000 0.009470 
#    y 0.000000 1.644590 0.000000 
#    z 0.009470 0.000000 1.628890 
# 
# From -- ./inp_files/86407.got.cif
#   From: 2010.05.17/outbox.cif.g08.bks.cpg/sg12_44_cif.got.tgz:86407.got - 2010.06.03 13:09:07.
