data_PCOD9185457
_publ_section_title
;
Structure prediction by ZEFSAII (Michael W. Deem and Ramdas Pophale) SiO2 
 PCOD9185457
Probable space group: C 2/M
;
_chemical_formula_sum "Si O2"
_cell_formula_units_Z 64
_cell_length_a 20.567678
_cell_length_b 10.266923
_cell_length_c 24.632931
_cell_angle_alpha 90.000000
_cell_angle_beta 43.261330
_cell_angle_gamma 90.000000
_cell_volume 3564.835613
_symmetry_space_group_name_H-M "C 2/M"
_symmetry_group_IT_number 12
_symmetry_cell_setting 'monoclinic'
loop_
_space_group_symop_operation_xyz
x,y,z
-x,y,-z
-x,-y,-z
x,-y,z
1/2+x,1/2+y,z
1/2-x,1/2+y,-z
1/2-x,1/2-y,-z
1/2+x,1/2-y,z
loop_
_atom_site_type_symbol
_atom_site_label
_atom_site_fract_x
_atom_site_fract_y
_atom_site_fract_z
Si Si1 0.561593 0.346400 0.692967
Si Si2 0.630364 0.727091 0.139948
Si Si3 0.775092 0.342758 0.590851
Si Si4 0.290831 0.849616 0.799832
Si Si5 0.566612 0.157341 0.586915
Si Si6 0.620103 0.842704 0.365310
Si Si7 0.165452 0.638579 0.013526
Si Si8 0.593495 0.350198 0.974601
O O1 0.565011 0.500000 0.674386
O O2 0.473855 0.331449 0.788315
O O3 0.664018 0.309802 0.656149
O O4 0.548035 0.247931 0.650333
O O5 0.661042 0.770907 0.181196
O O6 0.633326 0.844545 0.095115
O O7 0.719937 0.644857 0.062472
O O8 0.778842 0.500000 0.591324
O O9 0.832362 0.308898 0.501446
O O10 0.833947 0.291855 0.607128
O O11 0.317029 0.801446 0.724495
O O12 0.323510 0.000000 0.783705
O O13 0.179909 0.847140 0.879693
O O14 0.487198 0.184813 0.588683
O O15 0.562488 0.000000 0.601221
O O16 0.623921 0.000000 0.367101
O O17 0.133216 0.500000 0.011040
O O18 0.122000 0.757197 0.006293
O O19 0.582214 0.500000 0.000148
O O20 0.500000 0.308894 0.000000
#
# Coordination Sequence:
#
# PCOD9185457 Si02
#       8
#     8   8   8   8   8   8   8   8
#     4  11  22  35  54  81 112 145 178 221 275 327
#     4  10  20  34  52  77 107 140 177 219 272 323
#     4   9  19  33  51  81 113 140 177 225 272 321
#     4   9  16  29  51  77 102 133 178 224 263 312
#     4  10  19  34  57  81 106 142 184 225 267 318
#     4   9  16  29  53  80 104 136 180 225 265 308
#     4  10  21  35  55  79 106 139 179 226 269 321
#     4   9  19  34  52  76 107 141 177 220 272 327
#
# _framework density 17.953140999999999
#
# number of rings (size 3 to 8) (size 9 to 14) (size 15 to 20)
#    0.000    2.375    1.250    1.500    0.000    6.750 
#    0.000    2.500    0.000    2.250    0.000    0.000 
#    0.000    0.000    0.000    0.000    0.000    0.000 
#
# Total GULP energy -178157.247374 kJ/mol
# GULP energy per Si atom -5567.413980 kJ/mol
# Density = 1.791228 g / cm^3
# Si number density = 17.953141 Si / 1000 Ang^3
#
#
#
# Elastic Constant Matrix: (Units=GPa)
#
#
# Indices 1 2 3 4 5 6 
#
# 1 88.5200 27.6196 46.3849 0.0000 -10.7564 0.0000
# 2 27.6196 51.3655 22.6088 0.0000 1.5001 0.0000
# 3 46.3849 22.6088 92.3758 0.0000 -1.4484 0.0000
# 4 0.0000 0.0000 0.0000 7.7795 0.0000 -1.8218
# 5 -10.7564 1.5001 -1.4484 0.0000 23.0270 0.0000
# 6 0.0000 0.0000 0.0000 -1.8218 0.0000 12.6183
#
#
#
# Elastic Compliance Matrix: (Units=1/GPa)
#
#
# Indices 1 2 3 4 5 6 
#
# 1 0.018358 -0.006862 -0.007404 0.000000 0.008556 0.000000
# 2 -0.006862 0.024455 -0.002618 0.000000 -0.004963 0.000000
# 3 -0.007404 -0.002618 0.015147 0.000000 -0.002335 0.000000
# 4 0.000000 0.000000 0.000000 0.133041 0.000000 0.019208
# 5 0.008556 -0.004963 -0.002335 0.000000 0.047600 0.000000
# 6 0.000000 0.000000 0.000000 0.019208 0.000000 0.082023
#
#
# Mechanical properties :
#
#
# Convention : Reuss Voigt Hill
#
# Bulk Modulus (GPa) = 41.33527 47.27644 44.30585
# Shear Modulus (GPa) = 13.79476 17.72817 15.76147
#
# Velocity S-wave (km/s) = 2.77497 3.14581 2.96619
# Velocity P-wave (km/s) = 5.77418 6.29168 6.03848
#
# Compressibility (1/GPa) = 0.02419242
#
# Stress axis : x y z
#
# Youngs Moduli (GPa) = 54.47363 40.89133 66.01823
#
# Poissons Ratio (x) = 0.28059 0.48882
# Poissons Ratio (y) = 0.37379 0.17281
# Poissons Ratio (z) = 0.40334 0.10704
#
# Static dielectric constant tensor:
#      x y z
#    x 1.618790 0.000000 -0.015470 
#    y 0.000000 1.628960 0.000000 
#    z -0.015470 0.000000 1.646060 
# 
# From -- ./inp_files/315672.got.cif
#   From: 2010.05.17/outbox.cif.g08.bks.cpg/sg12_158_cif.got.tgz:315672.got - 2010.06.03 13:09:07.
