data_PCOD9185771
_publ_section_title
;
Structure prediction by ZEFSAII (Michael W. Deem and Ramdas Pophale) SiO2 
 PCOD9185771
Probable space group: C 2/M
;
_chemical_formula_sum "Si O2"
_cell_formula_units_Z 56
_cell_length_a 9.669580
_cell_length_b 21.466206
_cell_length_c 22.980242
_cell_angle_alpha 90.000000
_cell_angle_beta 38.119567
_cell_angle_gamma 90.000000
_cell_volume 2944.536916
_symmetry_space_group_name_H-M "C 2/M"
_symmetry_group_IT_number 12
_symmetry_cell_setting 'monoclinic'
loop_
_space_group_symop_operation_xyz
x,y,z
-x,y,-z
-x,-y,-z
x,-y,z
1/2+x,1/2+y,z
1/2-x,1/2+y,-z
1/2-x,1/2-y,-z
1/2+x,1/2-y,z
loop_
_atom_site_type_symbol
_atom_site_label
_atom_site_fract_x
_atom_site_fract_y
_atom_site_fract_z
Si Si1 0.750984 0.242196 0.930889
Si Si2 0.578445 0.302111 0.658432
Si Si3 0.415122 0.928262 0.960935
Si Si4 0.903268 0.206817 0.593092
Si Si5 0.399895 0.572216 0.766121
Si Si6 0.910699 0.684258 0.775189
Si Si7 0.488104 0.622576 0.149655
O O1 0.812972 0.301273 0.871184
O O2 0.928944 0.189663 0.854789
O O3 0.500000 0.220976 0.000000
O O4 0.750000 0.250000 0.000000
O O5 0.806254 0.275962 0.611402
O O6 0.569347 0.294381 0.592087
O O7 0.527886 0.373023 0.690688
O O8 0.400555 0.250728 0.742963
O O9 0.635948 0.908740 0.852881
O O10 0.373006 0.000000 0.960353
O O11 0.500000 0.925614 0.000000
O O12 0.178346 0.893825 0.038995
O O13 0.675043 0.170629 0.686988
O O14 0.000000 0.183230 0.500000
O O15 0.420249 0.500000 0.740434
O O16 0.485895 0.576498 0.804730
O O17 0.755408 0.633460 0.795874
#
# Coordination Sequence:
#
# PCOD9185771 Si02
#       7
#     8   8   8   8   8   8   8
#     4  12  22  32  46  76 118 155 182 220 286 339
#     4  10  20  37  59  87 119 140 196 242 289 362
#     4   8  16  28  47  73 106 153 203 231 263 321
#     4  10  22  38  62  90 116 152 184 239 316 364
#     4  10  19  34  58  82 112 160 202 240 281 336
#     4  10  22  33  53  84 118 145 192 234 300 345
#     4  11  18  31  49  79 114 149 191 245 273 335
#
# _framework density 19.018270000000001
#
# number of rings (size 3 to 8) (size 9 to 14) (size 15 to 20)
#    0.857    1.000    2.857    4.714    0.000    0.000 
#    0.000    0.000    0.000    2.571    0.000   10.000 
#    0.000    0.000    0.000    0.000    0.000    0.000 
#
# Total GULP energy -155980.799384 kJ/mol
# GULP energy per Si atom -5570.742835 kJ/mol
# Density = 1.897498 g / cm^3
# Si number density = 19.018270 Si / 1000 Ang^3
#
#
#
# Elastic Constant Matrix: (Units=GPa)
#
#
# Indices 1 2 3 4 5 6 
#
# 1 36.9922 16.4380 9.8162 0.0119 14.9875 0.0000
# 2 16.4380 57.1270 16.5848 0.0193 0.3576 -0.0128
# 3 9.8162 16.5848 60.5466 0.0154 14.2198 -0.0098
# 4 0.0119 0.0193 0.0154 17.9104 -0.0152 0.4074
# 5 14.9875 0.3576 14.2198 -0.0152 29.1809 0.0068
# 6 0.0000 -0.0128 -0.0098 0.4074 0.0068 12.9873
#
#
#
# Elastic Compliance Matrix: (Units=1/GPa)
#
#
# Indices 1 2 3 4 5 6 
#
# 1 0.040693 -0.012095 0.001795 -0.000034 -0.021627 0.000002
# 2 -0.012095 0.022789 -0.006408 -0.000004 0.009055 0.000013
# 3 0.001795 -0.006408 0.020528 -0.000022 -0.010847 0.000016
# 4 -0.000034 -0.000004 -0.000022 0.055873 0.000057 -0.001753
# 5 -0.021627 0.009055 -0.010847 0.000057 0.050551 -0.000027
# 6 0.000002 0.000013 0.000016 -0.001753 -0.000027 0.077054
#
#
# Mechanical properties :
#
#
# Convention : Reuss Voigt Hill
#
# Bulk Modulus (GPa) = 19.76540 26.70485 23.23512
# Shear Modulus (GPa) = 15.73471 19.47083 17.60277
#
# Velocity S-wave (km/s) = 2.87949 3.20315 3.04562
# Velocity P-wave (km/s) = 4.63364 5.26806 4.96100
#
# Compressibility (1/GPa) = 0.05059346
#
# Stress axis : x y z
#
# Youngs Moduli (GPa) = 24.57417 43.88129 48.71423
#
# Poissons Ratio (x) = 0.53074 -0.08743
# Poissons Ratio (y) = 0.29722 0.31216
# Poissons Ratio (z) = -0.04410 0.28119
#
# Static dielectric constant tensor:
#      x y z
#    x 1.679450 0.000000 0.004990 
#    y 0.000000 1.672150 0.000000 
#    z 0.004990 0.000000 1.694920 
# 
# From -- ./inp_files/302090.got.cif
#   From: 2010.05.17/outbox.cif.g08.bks.cpg/sg12_152_cif.got.tgz:302090.got - 2010.06.03 13:09:07.
