data_PCOD9185298
_publ_section_title
;
Structure prediction by ZEFSAII (Michael W. Deem and Ramdas Pophale) SiO2 
 PCOD9185298
Probable space group: C 2/M
;
_chemical_formula_sum "Si O2"
_cell_formula_units_Z 64
_cell_length_a 24.519619
_cell_length_b 7.639670
_cell_length_c 20.295220
_cell_angle_alpha 90.000000
_cell_angle_beta 128.596261
_cell_angle_gamma 90.000000
_cell_volume 2971.290144
_symmetry_space_group_name_H-M "C 2/M"
_symmetry_group_IT_number 12
_symmetry_cell_setting 'monoclinic'
loop_
_space_group_symop_operation_xyz
x,y,z
-x,y,-z
-x,-y,-z
x,-y,z
1/2+x,1/2+y,z
1/2-x,1/2+y,-z
1/2-x,1/2-y,-z
1/2+x,1/2-y,z
loop_
_atom_site_type_symbol
_atom_site_label
_atom_site_fract_x
_atom_site_fract_y
_atom_site_fract_z
Si Si1 0.399340 0.284857 0.085941
Si Si2 0.409335 0.797292 0.331605
Si Si3 0.812480 0.201040 0.142817
Si Si4 0.831728 0.711353 0.404132
Si Si5 0.551596 0.286226 0.250769
Si Si6 0.440743 0.294219 0.593599
Si Si7 0.677031 0.285205 0.250900
Si Si8 0.168248 0.201751 0.095640
O O1 0.397491 0.500000 0.085067
O O2 0.341650 0.227604 0.095923
O O3 0.475787 0.231681 0.167518
O O4 0.380003 0.222642 0.998395
O O5 0.376221 0.706756 0.242803
O O6 0.375967 0.727703 0.373827
O O7 0.492569 0.786057 0.392974
O O8 0.388454 0.000000 0.310182
O O9 0.746598 0.293948 0.125771
O O10 0.791427 0.000000 0.117170
O O11 0.832372 0.500000 0.403935
O O12 0.870886 0.766849 0.499598
O O13 0.752175 0.769921 0.335481
O O14 0.552219 0.500000 0.251310
O O15 0.562748 0.227184 0.334266
O O16 0.613594 0.229988 0.249407
O O17 0.455271 0.500000 0.608037
O O18 0.678120 0.500000 0.250459
O O19 0.668367 0.222550 0.169073
O O20 0.146254 0.000000 0.086700
#
# Coordination Sequence:
#
# PCOD9185298 Si02
#       8
#     8   8   8   8   8   8   8   8
#     4   9  18  32  53  82 114 141 177 225 270 321
#     4  11  21  36  58  82 110 144 179 221 270 324
#     4  11  20  33  54  82 115 147 175 218 275 325
#     4  10  21  37  55  80 110 141 180 225 270 319
#     4   9  18  34  54  79 111 143 179 228 274 310
#     4  11  22  36  56  83 112 143 179 220 272 328
#     4   9  18  34  55  78 108 145 184 226 268 312
#     4  10  19  34  56  83 110 143 185 222 264 323
#
# _framework density 21.539463999999999
#
# number of rings (size 3 to 8) (size 9 to 14) (size 15 to 20)
#    0.000    2.000    2.500    1.875    0.000    3.500 
#    0.000    3.125    0.000    2.250    0.000    0.875 
#    0.000    0.000    0.000    0.000    0.000    0.000 
#
# Total GULP energy -178828.255410 kJ/mol
# GULP energy per Si atom -5588.382982 kJ/mol
# Density = 2.149044 g / cm^3
# Si number density = 21.539464 Si / 1000 Ang^3
#
#
#
# Elastic Constant Matrix: (Units=GPa)
#
#
# Indices 1 2 3 4 5 6 
#
# 1 137.3203 2.2000 52.0395 0.0000 -0.4360 0.0000
# 2 2.2000 44.4992 1.6315 0.0001 -0.8530 -0.0001
# 3 52.0395 1.6315 135.0257 0.0000 -8.9809 0.0000
# 4 0.0000 0.0001 0.0000 15.0545 0.0000 1.5334
# 5 -0.4360 -0.8530 -8.9809 0.0000 6.8745 0.0000
# 6 0.0000 -0.0001 0.0000 1.5334 0.0000 10.0984
#
#
#
# Elastic Compliance Matrix: (Units=1/GPa)
#
#
# Indices 1 2 3 4 5 6 
#
# 1 0.008641 -0.000376 -0.003606 0.000000 -0.004209 0.000000
# 2 -0.000376 0.022543 0.000062 0.000000 0.002855 0.000000
# 3 -0.003606 0.000062 0.009616 0.000000 0.012341 0.000000
# 4 0.000000 0.000000 0.000000 0.067469 0.000000 -0.010245
# 5 -0.004209 0.002855 0.012341 0.000000 0.161676 0.000000
# 6 0.000000 0.000000 0.000000 -0.010245 0.000000 0.100581
#
#
# Mechanical properties :
#
#
# Convention : Reuss Voigt Hill
#
# Bulk Modulus (GPa) = 30.33798 47.62080 38.97939
# Shear Modulus (GPa) = 12.84187 23.80378 18.32282
#
# Velocity S-wave (km/s) = 2.44437 3.32795 2.91978
# Velocity P-wave (km/s) = 4.69915 6.07648 5.43165
#
# Compressibility (1/GPa) = 0.03296198
#
# Stress axis : x y z
#
# Youngs Moduli (GPa) = 115.72205 44.35902 103.99544
#
# Poissons Ratio (x) = 0.01667 0.37499
# Poissons Ratio (y) = 0.04348 -0.00648
# Poissons Ratio (z) = 0.41728 -0.00276
#
# Static dielectric constant tensor:
#      x y z
#    x 1.737460 0.000000 -0.015820 
#    y 0.000000 1.852380 0.000000 
#    z -0.015820 0.000000 1.762560 
# 
# From -- ./inp_files/295850.got.cif
#   From: 2010.05.17/outbox.cif.g08.bks.cpg/sg12_148_cif.got.tgz:295850.got - 2010.06.03 13:09:07.
