data_PCOD9185929
_publ_section_title
;
Structure prediction by ZEFSAII (Michael W. Deem and Ramdas Pophale) SiO2 
 PCOD9185929
Probable space group: C 2/M
;
_chemical_formula_sum "Si O2"
_cell_formula_units_Z 44
_cell_length_a 11.010231
_cell_length_b 24.784282
_cell_length_c 7.183719
_cell_angle_alpha 90.000000
_cell_angle_beta 87.969436
_cell_angle_gamma 90.000000
_cell_volume 1959.067120
_symmetry_space_group_name_H-M "C 2/M"
_symmetry_group_IT_number 12
_symmetry_cell_setting 'monoclinic'
loop_
_space_group_symop_operation_xyz
x,y,z
-x,y,-z
-x,-y,-z
x,-y,z
1/2+x,1/2+y,z
1/2-x,1/2+y,-z
1/2-x,1/2-y,-z
1/2+x,1/2-y,z
loop_
_atom_site_type_symbol
_atom_site_label
_atom_site_fract_x
_atom_site_fract_y
_atom_site_fract_z
Si Si1 0.163109 0.380066 0.313534
Si Si2 0.116747 0.500000 0.275880
Si Si3 0.439084 0.806202 0.211020
Si Si4 0.755514 0.109847 0.884149
Si Si5 0.339476 0.000000 0.164731
Si Si6 0.607033 0.309455 0.636638
Si Si7 0.000000 0.140236 0.000000
O O1 0.146512 0.442877 0.373810
O O2 0.038279 0.346087 0.300108
O O3 0.267584 0.342537 0.401731
O O4 0.205942 0.389010 0.097959
O O5 0.975237 0.500000 0.231946
O O6 0.171328 0.500000 0.062105
O O7 0.313598 0.838348 0.190300
O O8 0.401760 0.755262 0.340351
O O9 0.500000 0.793638 0.000000
O O10 0.899741 0.109040 0.889404
O O11 0.717384 0.056537 0.779252
O O12 0.500000 0.325467 0.500000
O O13 0.572033 0.325247 0.848079
#
# Coordination Sequence:
#
# PCOD9185929 Si02
#       7
#     8   4   8   8   4   8   4
#     4   9  19  33  57  86 116 156 195 243 294 340
#     4   9  14  30  55  87 117 146 200 248 280 342
#     4  10  19  34  58  86 117 154 195 242 291 342
#     4   9  18  31  55  86 118 154 192 240 293 346
#     4   9  14  27  54  89 114 146 200 241 287 344
#     4  11  24  39  58  87 118 157 197 235 293 353
#     4  10  22  39  56  84 124 153 186 240 292 352
#
# _framework density 22.459669999999999
#
# number of rings (size 3 to 8) (size 9 to 14) (size 15 to 20)
#    0.000    2.364    2.727    0.000    2.545    3.273 
#    0.000    1.364    0.000    0.000    0.000    2.545 
#    0.000    0.000    0.000    0.000    0.000    0.000 
#
# Total GULP energy -122605.405683 kJ/mol
# GULP energy per Si atom -5572.972986 kJ/mol
# Density = 2.240855 g / cm^3
# Si number density = 22.459670 Si / 1000 Ang^3
#
#
#
# Elastic Constant Matrix: (Units=GPa)
#
#
# Indices 1 2 3 4 5 6 
#
# 1 465.2076 305.5691 -40.0220 0.0000 103.4954 0.0000
# 2 305.5691 327.1648 -5.3399 0.0000 71.6566 0.0000
# 3 -40.0220 -5.3399 95.5716 0.0000 1.9137 0.0000
# 4 0.0000 0.0000 0.0000 -11.1396 0.0000 -2.6718
# 5 103.4954 71.6566 1.9137 0.0000 48.7500 0.0000
# 6 0.0000 0.0000 0.0000 -2.6718 0.0000 -287.0380
#
#
#
# Elastic Compliance Matrix: (Units=1/GPa)
#
#
# Indices 1 2 3 4 5 6 
#
# 1 0.008076 -0.005466 0.003261 0.000000 -0.009238 0.000000
# 2 -0.005466 0.008222 -0.001821 0.000000 -0.000409 0.000000
# 3 0.003261 -0.001821 0.011822 0.000000 -0.004711 0.000000
# 4 0.000000 0.000000 0.000000 -0.089971 0.000000 0.000837
# 5 -0.009238 -0.000409 -0.004711 0.000000 0.040912 0.000000
# 6 0.000000 0.000000 0.000000 0.000837 0.000000 -0.003492
#
#
# Mechanical properties :
#
#
# Convention : Reuss Voigt Hill
#
# Bulk Modulus (GPa) = 49.83311 156.48427 103.15869
# Shear Modulus (GPa) = -515.97546 -8.03639 -262.00593
#
# Velocity S-wave (km/s) = -15.17343 -1.89365 -10.81247
# Velocity P-wave (km/s) = 16.87428 8.06495 10.48088
#
# Compressibility (1/GPa) = 0.02006698
#
# Stress axis : x y z
#
# Youngs Moduli (GPa) = 123.82706 121.62957 84.59027
#
# Poissons Ratio (x) = 0.66484 -0.27589
# Poissons Ratio (y) = 0.67685 0.15408
# Poissons Ratio (z) = -0.40385 0.22154
#
# Static dielectric constant tensor:
#      x y z
#    x 1.899400 0.000000 -0.037730 
#    y 0.000000 1.917910 0.000000 
#    z -0.037730 0.000000 1.865840 
# 
# From -- ./inp_files/49416.got.cif
#   From: 2010.05.17/outbox.cif.g08.bks.cpg/sg12_25_cif.got.tgz:49416.got - 2010.06.03 13:09:07.
