data_PCOD9185425
_publ_section_title
;
Structure prediction by ZEFSAII (Michael W. Deem and Ramdas Pophale) SiO2 
 PCOD9185425
Probable space group: C 2/M
;
_chemical_formula_sum "Si O2"
_cell_formula_units_Z 56
_cell_length_a 30.804854
_cell_length_b 10.438053
_cell_length_c 25.325718
_cell_angle_alpha 90.000000
_cell_angle_beta 19.076911
_cell_angle_gamma 90.000000
_cell_volume 2661.532282
_symmetry_space_group_name_H-M "C 2/M"
_symmetry_group_IT_number 12
_symmetry_cell_setting 'monoclinic'
loop_
_space_group_symop_operation_xyz
x,y,z
-x,y,-z
-x,-y,-z
x,-y,z
1/2+x,1/2+y,z
1/2-x,1/2+y,-z
1/2-x,1/2-y,-z
1/2+x,1/2-y,z
loop_
_atom_site_type_symbol
_atom_site_label
_atom_site_fract_x
_atom_site_fract_y
_atom_site_fract_z
Si Si1 0.492372 0.362984 0.820205
Si Si2 0.732295 0.353251 0.616862
Si Si3 0.879596 0.354736 0.595589
Si Si4 0.465159 0.147981 0.768621
Si Si5 0.182636 0.748057 0.900164
Si Si6 0.560696 0.143985 0.872536
Si Si7 0.609927 0.845639 0.259686
O O1 0.475086 0.500000 0.813190
O O2 0.642271 0.346367 0.667372
O O3 0.445113 0.247921 0.838178
O O4 0.407686 0.360973 0.971650
O O5 0.719596 0.500000 0.651926
O O6 0.883181 0.334601 0.425674
O O7 0.667442 0.248562 0.730329
O O8 0.830753 0.500000 0.647874
O O9 0.762625 0.271902 0.754326
O O10 0.000000 0.353668 0.500000
O O11 0.957778 0.320390 0.452760
O O12 0.377413 0.170054 0.817203
O O13 0.448816 0.000000 0.804130
O O14 0.067040 0.647486 0.020310
O O15 0.298041 0.750797 0.812012
O O16 0.616548 0.000000 0.808956
O O17 0.500000 0.172904 0.000000
O O18 0.632305 0.000000 0.246057
#
# Coordination Sequence:
#
# PCOD9185425 Si02
#       7
#     8   8   8   8   8   8   8
#     4  10  20  34  53  80 114 153 195 238 285 333
#     4   9  20  38  59  85 113 144 193 246 283 328
#     4   8  14  27  51  80 107 139 178 224 277 324
#     4  10  21  36  56  85 117 149 193 240 282 335
#     4  10  19  34  57  79 109 148 188 230 277 337
#     4  10  23  40  58  84 118 153 185 226 286 348
#     4   9  18  33  55  85 117 147 186 238 288 333
#
# _framework density 21.040512
#
# number of rings (size 3 to 8) (size 9 to 14) (size 15 to 20)
#    0.000    2.571    0.000    2.571    2.000    4.857 
#    0.000    0.714    0.000    3.857    0.000    0.000 
#    0.000    0.000    0.000    0.000    0.000    0.000 
#
# Total GULP energy -155952.920482 kJ/mol
# GULP energy per Si atom -5569.747160 kJ/mol
# Density = 2.099262 g / cm^3
# Si number density = 21.040512 Si / 1000 Ang^3
#
#
#
# Elastic Constant Matrix: (Units=GPa)
#
#
# Indices 1 2 3 4 5 6 
#
# 1 69.0655 25.9200 8.0065 0.0002 5.6717 0.0000
# 2 25.9200 91.8952 25.4656 0.0003 18.0809 0.0000
# 3 8.0065 25.4656 66.1215 0.0006 -1.6938 -0.0003
# 4 0.0002 0.0003 0.0006 12.3132 -0.0003 7.7648
# 5 5.6717 18.0809 -1.6938 -0.0003 27.2904 0.0001
# 6 0.0000 0.0000 -0.0003 7.7648 0.0001 17.9321
#
#
#
# Elastic Compliance Matrix: (Units=1/GPa)
#
#
# Indices 1 2 3 4 5 6 
#
# 1 0.016201 -0.004400 -0.000279 0.000000 -0.000469 0.000000
# 2 -0.004400 0.015644 -0.005744 0.000000 -0.009807 0.000000
# 3 -0.000279 -0.005744 0.017496 -0.000001 0.004949 0.000001
# 4 0.000000 0.000000 -0.000001 0.111719 0.000002 -0.048376
# 5 -0.000469 -0.009807 0.004949 0.000002 0.043545 -0.000001
# 6 0.000000 0.000000 0.000001 -0.048376 -0.000001 0.076713
#
#
# Mechanical properties :
#
#
# Convention : Reuss Voigt Hill
#
# Bulk Modulus (GPa) = 35.09241 38.42962 36.76101
# Shear Modulus (GPa) = 16.04293 22.68646 19.36470
#
# Velocity S-wave (km/s) = 2.76430 3.28720 3.03702
# Velocity P-wave (km/s) = 5.18682 5.71942 5.45962
#
# Compressibility (1/GPa) = 0.02849619
#
# Stress axis : x y z
#
# Youngs Moduli (GPa) = 61.72370 63.92122 57.15489
#
# Poissons Ratio (x) = 0.28126 0.01596
# Poissons Ratio (y) = 0.27159 0.32827
# Poissons Ratio (z) = 0.01723 0.36714
#
# Static dielectric constant tensor:
#      x y z
#    x 1.826940 0.000000 -0.021070 
#    y 0.000000 1.736960 0.000000 
#    z -0.021070 0.000000 1.794910 
# 
# From -- ./inp_files/353925.got.cif
#   From: 2010.05.17/outbox.cif.g08.bks.cpg/sg12_177_cif.got.tgz:353925.got - 2010.06.03 13:09:07.
