data_PCOD9185045
_publ_section_title
;
Structure prediction by ZEFSAII (Michael W. Deem and Ramdas Pophale) SiO2 
 PCOD9185045
Probable space group: C 2/M
;
_chemical_formula_sum "Si O2"
_cell_formula_units_Z 56
_cell_length_a 30.045372
_cell_length_b 9.674193
_cell_length_c 20.676254
_cell_angle_alpha 90.000000
_cell_angle_beta 25.433193
_cell_angle_gamma 90.000000
_cell_volume 2580.983815
_symmetry_space_group_name_H-M "C 2/M"
_symmetry_group_IT_number 12
_symmetry_cell_setting 'monoclinic'
loop_
_space_group_symop_operation_xyz
x,y,z
-x,y,-z
-x,-y,-z
x,-y,z
1/2+x,1/2+y,z
1/2-x,1/2+y,-z
1/2-x,1/2-y,-z
1/2+x,1/2-y,z
loop_
_atom_site_type_symbol
_atom_site_label
_atom_site_fract_x
_atom_site_fract_y
_atom_site_fract_z
Si Si1 0.181328 0.155088 0.423555
Si Si2 0.897123 0.836321 0.680193
Si Si3 0.511652 0.846359 0.179783
Si Si4 0.034231 0.839190 0.028282
Si Si5 0.556796 0.347113 0.229583
Si Si6 0.723205 0.160408 0.252980
Si Si7 0.275701 0.154532 0.526127
O O1 0.166060 0.241000 0.378986
O O2 0.250661 0.253837 0.377179
O O3 0.068509 0.140258 0.603468
O O4 0.222813 0.000000 0.359073
O O5 0.914162 0.812932 0.734533
O O6 0.807908 0.733612 0.772671
O O7 0.000000 0.812442 0.500000
O O8 0.872144 0.000000 0.704607
O O9 0.578888 0.761500 0.143851
O O10 0.399386 0.862863 0.360041
O O11 0.553308 0.000000 0.111270
O O12 0.492490 0.760525 0.139296
O O13 0.157421 0.832952 0.881394
O O14 0.003946 0.000000 0.077537
O O15 0.000000 0.801700 0.000000
O O16 0.598697 0.500000 0.158300
O O17 0.691193 0.000000 0.296882
O O18 0.250000 0.250000 0.500000
O O19 0.230616 0.000000 0.584754
#
# Coordination Sequence:
#
# PCOD9185045 Si02
#       7
#     8   8   8   8   8   8   8
#     4  10  19  34  55  82 117 156 191 235 290 350
#     4  10  19  36  60  90 124 160 199 236 292 364
#     4  10  22  39  59  86 116 148 197 251 295 345
#     4  10  24  45  64  82 112 160 207 247 298 357
#     4   9  18  35  60  86 118 159 192 227 287 358
#     4  11  23  37  57  89 121 153 200 251 298 352
#     4  10  21  35  53  83 116 148 190 242 300 358
#
# _framework density 21.697151999999999
#
# number of rings (size 3 to 8) (size 9 to 14) (size 15 to 20)
#    0.000    2.000    1.429    1.714    2.000    4.571 
#    0.000    0.714    0.000    0.000    0.000    0.000 
#    0.000    0.000    0.000    0.000    0.000    0.000 
#
# Total GULP energy -156132.351411 kJ/mol
# GULP energy per Si atom -5576.155408 kJ/mol
# Density = 2.164777 g / cm^3
# Si number density = 21.697152 Si / 1000 Ang^3
#
#
#
# Elastic Constant Matrix: (Units=GPa)
#
#
# Indices 1 2 3 4 5 6 
#
# 1 162.6389 110.0232 10.0905 0.0001 11.6412 0.0001
# 2 110.0232 185.3594 32.4585 0.0003 12.9704 0.0001
# 3 10.0905 32.4585 42.1070 0.0003 1.9631 -0.0002
# 4 0.0001 0.0003 0.0003 14.5152 -0.0004 -3.3826
# 5 11.6412 12.9704 1.9631 -0.0004 21.0959 0.0000
# 6 0.0001 0.0001 -0.0002 -3.3826 0.0000 15.3909
#
#
#
# Elastic Compliance Matrix: (Units=1/GPa)
#
#
# Indices 1 2 3 4 5 6 
#
# 1 0.010607 -0.006618 0.002655 0.000000 -0.002031 0.000000
# 2 -0.006618 0.010620 -0.006494 0.000000 -0.002273 0.000000
# 3 0.002655 -0.006494 0.028123 0.000000 -0.000089 0.000000
# 4 0.000000 0.000000 0.000000 0.072613 0.000002 0.015959
# 5 -0.002031 -0.002273 -0.000089 0.000002 0.049929 0.000000
# 6 0.000000 0.000000 0.000000 0.015959 0.000000 0.068481
#
#
# Mechanical properties :
#
#
# Convention : Reuss Voigt Hill
#
# Bulk Modulus (GPa) = 35.16971 77.24997 56.20984
# Shear Modulus (GPa) = 18.46617 26.03594 22.25106
#
# Velocity S-wave (km/s) = 2.92051 3.46782 3.20586
# Velocity P-wave (km/s) = 5.25519 7.19134 6.29811
#
# Compressibility (1/GPa) = 0.02843355
#
# Stress axis : x y z
#
# Youngs Moduli (GPa) = 94.28126 94.16472 35.55793
#
# Poissons Ratio (x) = 0.62323 -0.09440
# Poissons Ratio (y) = 0.62400 0.23092
# Poissons Ratio (z) = -0.25030 0.61153
#
# Static dielectric constant tensor:
#      x y z
#    x 2.212210 0.000000 0.068520 
#    y 0.000000 1.824900 0.000000 
#    z 0.068520 0.000000 1.876110 
# 
# From -- ./inp_files/329450.got.cif
#   From: 2010.05.17/outbox.cif.g08.bks.cpg/sg12_165_cif.got.tgz:329450.got - 2010.06.03 13:09:07.
