data_PCOD9185015
_publ_section_title
;
Structure prediction by ZEFSAII (Michael W. Deem and Ramdas Pophale) SiO2 
 PCOD9185015
Probable space group: C 2/M
;
_chemical_formula_sum "Si O2"
_cell_formula_units_Z 52
_cell_length_a 34.142644
_cell_length_b 15.682254
_cell_length_c 5.409960
_cell_angle_alpha 90.000000
_cell_angle_beta 101.601311
_cell_angle_gamma 90.000000
_cell_volume 2837.497262
_symmetry_space_group_name_H-M "C 2/M"
_symmetry_group_IT_number 12
_symmetry_cell_setting 'monoclinic'
loop_
_space_group_symop_operation_xyz
x,y,z
-x,y,-z
-x,-y,-z
x,-y,z
1/2+x,1/2+y,z
1/2-x,1/2+y,-z
1/2-x,1/2-y,-z
1/2+x,1/2-y,z
loop_
_atom_site_type_symbol
_atom_site_label
_atom_site_fract_x
_atom_site_fract_y
_atom_site_fract_z
Si Si1 0.240663 0.324054 0.181712
Si Si2 0.409506 0.151314 0.118394
Si Si3 0.184589 0.761931 0.511292
Si Si4 0.025157 0.899597 0.281099
Si Si5 0.094127 0.237684 0.381089
Si Si6 0.526518 0.000000 0.783201
Si Si7 0.324713 0.907271 0.165448
O O1 0.208272 0.279114 0.315374
O O2 0.284334 0.334112 0.356856
O O3 0.250000 0.250000 0.000000
O O4 0.216490 0.402538 0.040664
O O5 0.410697 0.210964 0.365646
O O6 0.365735 0.106267 0.065941
O O7 0.444511 0.082080 0.180728
O O8 0.413476 0.202527 0.867177
O O9 0.139967 0.793379 0.412539
O O10 0.178575 0.677939 0.675061
O O11 0.063524 0.839800 0.336976
O O12 0.000000 0.884413 0.500000
O O13 0.035411 0.000000 0.287616
O O14 0.000000 0.880806 0.000000
O O15 0.500000 0.000000 0.500000
O O16 0.500000 0.000000 0.000000
O O17 0.327405 0.000000 0.295314
#
# Coordination Sequence:
#
# PCOD9185015 Si02
#       7
#     8   8   8   8   8   4   8
#     4   9  17  34  55  78 113 148 190 242 292 345
#     4  11  23  39  57  88 117 160 209 247 291 359
#     4   9  19  33  54  86 112 153 191 245 294 350
#     4  10  22  41  64  91 119 150 193 250 308 361
#     4  11  22  38  64  90 120 156 202 247 299 366
#     4  12  26  42  56  80 126 170 200 260 312 342
#     4  10  19  34  55  81 114 155 203 245 283 341
#
# _framework density 18.326008999999999
#
# number of rings (size 3 to 8) (size 9 to 14) (size 15 to 20)
#    0.000    1.846    2.308    1.846    0.000    4.308 
#    1.385    0.769    0.000    3.692    0.000    0.000 
#    0.000    0.000    0.000    0.000    0.000    0.000 
#
# Total GULP energy -144797.981736 kJ/mol
# GULP energy per Si atom -5569.153144 kJ/mol
# Density = 1.828430 g / cm^3
# Si number density = 18.326009 Si / 1000 Ang^3
#
#
#
# Elastic Constant Matrix: (Units=GPa)
#
#
# Indices 1 2 3 4 5 6 
#
# 1 167.0998 76.4167 57.9607 0.0000 17.0915 0.0000
# 2 76.4167 66.6347 35.0928 0.0000 15.7749 0.0000
# 3 57.9607 35.0928 98.9317 0.0000 4.4004 0.0000
# 4 0.0000 0.0000 0.0000 12.5520 0.0000 5.6353
# 5 17.0915 15.7749 4.4004 0.0000 32.7272 0.0000
# 6 0.0000 0.0000 0.0000 5.6353 0.0000 21.9628
#
#
#
# Elastic Compliance Matrix: (Units=1/GPa)
#
#
# Indices 1 2 3 4 5 6 
#
# 1 0.013234 -0.013659 -0.002911 0.000000 0.000064 0.000000
# 2 -0.013659 0.034941 -0.003984 0.000000 -0.009173 0.000000
# 3 -0.002911 -0.003984 0.013152 0.000000 0.001672 0.000000
# 4 0.000000 0.000000 0.000000 0.090041 0.000000 -0.023103
# 5 0.000064 -0.009173 0.001672 0.000000 0.034719 0.000000
# 6 0.000000 0.000000 0.000000 -0.023103 0.000000 0.051459
#
#
# Mechanical properties :
#
#
# Convention : Reuss Voigt Hill
#
# Bulk Modulus (GPa) = 49.45734 74.62295 62.04014
# Shear Modulus (GPa) = 17.51963 24.32812 20.92387
#
# Velocity S-wave (km/s) = 3.09528 3.64747 3.38266
# Velocity P-wave (km/s) = 6.31034 7.65159 7.01310
#
# Compressibility (1/GPa) = 0.02021945
#
# Stress axis : x y z
#
# Youngs Moduli (GPa) = 75.56305 28.61993 76.03201
#
# Poissons Ratio (x) = 0.39091 0.22134
# Poissons Ratio (y) = 1.03209 0.30291
# Poissons Ratio (z) = 0.21998 0.11402
#
# Static dielectric constant tensor:
#      x y z
#    x 1.765860 0.000000 0.008970 
#    y 0.000000 1.456160 0.000000 
#    z 0.008970 0.000000 1.727840 
# 
# From -- ./inp_files/28560.got.cif
#   From: 2010.05.17/outbox.cif.g08.bks.cpg/sg12_15_cif.got.tgz:28560.got - 2010.06.03 13:09:07.
