data_PCOD9185819
_publ_section_title
;
Structure prediction by ZEFSAII (Michael W. Deem and Ramdas Pophale) SiO2 
 PCOD9185819
Probable space group: C 2/M
;
_chemical_formula_sum "Si O2"
_cell_formula_units_Z 56
_cell_length_a 18.124237
_cell_length_b 16.846899
_cell_length_c 14.155219
_cell_angle_alpha 90.000000
_cell_angle_beta 139.838799
_cell_angle_gamma 90.000000
_cell_volume 2787.506099
_symmetry_space_group_name_H-M "C 2/M"
_symmetry_group_IT_number 12
_symmetry_cell_setting 'monoclinic'
loop_
_space_group_symop_operation_xyz
x,y,z
-x,y,-z
-x,-y,-z
x,-y,z
1/2+x,1/2+y,z
1/2-x,1/2+y,-z
1/2-x,1/2-y,-z
1/2+x,1/2-y,z
loop_
_atom_site_type_symbol
_atom_site_label
_atom_site_fract_x
_atom_site_fract_y
_atom_site_fract_z
Si Si1 0.337113 0.413360 0.556933
Si Si2 0.537901 0.615477 0.139880
Si Si3 0.320865 0.325336 0.996660
Si Si4 0.925150 0.228251 0.518537
Si Si5 0.421776 0.177843 0.198982
Si Si6 0.408735 0.093050 0.776145
Si Si7 0.669744 0.762228 0.194373
O O1 0.368402 0.500000 0.547948
O O2 0.364123 0.415055 0.694856
O O3 0.407790 0.343477 0.575885
O O4 0.203720 0.401084 0.401650
O O5 0.580997 0.705520 0.162481
O O6 0.500000 0.584843 0.000000
O O7 0.420872 0.611492 0.082967
O O8 0.196909 0.363688 0.888716
O O9 0.321084 0.271648 0.901822
O O10 0.367961 0.264113 0.120429
O O11 0.796063 0.247275 0.360851
O O12 0.000000 0.205631 0.500000
O O13 0.988402 0.301666 0.631091
O O14 0.487111 0.133361 0.178872
O O15 0.373696 0.148228 0.831013
O O16 0.427865 0.000000 0.815845
#
# Coordination Sequence:
#
# PCOD9185819 Si02
#       7
#     8   8   8   8   8   8   8
#     4  10  21  37  55  80 115 151 190 238 291 348
#     4  10  19  34  58  84 108 146 193 243 289 333
#     4  10  20  33  56  83 116 145 183 246 282 334
#     4  11  20  34  58  85 107 149 197 243 288 332
#     4  11  20  35  57  81 115 150 194 237 288 337
#     4  10  21  37  60  85 119 155 189 237 291 350
#     4  10  19  35  57  87 112 143 198 239 281 338
#
# _framework density 20.089642000000001
#
# number of rings (size 3 to 8) (size 9 to 14) (size 15 to 20)
#    0.000    1.714    4.286    0.857    0.000    2.857 
#    0.000    2.143    0.000    1.286    0.000    0.000 
#    0.000    0.000    0.000    0.000    0.000    0.000 
#
# Total GULP energy -155993.598034 kJ/mol
# GULP energy per Si atom -5571.199930 kJ/mol
# Density = 2.004392 g / cm^3
# Si number density = 20.089642 Si / 1000 Ang^3
#
#
#
# Elastic Constant Matrix: (Units=GPa)
#
#
# Indices 1 2 3 4 5 6 
#
# 1 69.7446 9.2010 14.0081 0.0000 22.3759 0.0000
# 2 9.2010 57.2579 4.6816 0.0000 11.3584 0.0000
# 3 14.0081 4.6816 99.0721 0.0000 12.1440 0.0000
# 4 0.0000 0.0000 0.0000 0.1989 0.0000 0.0464
# 5 22.3759 11.3584 12.1440 0.0000 38.5499 0.0000
# 6 0.0000 0.0000 0.0000 0.0464 0.0000 4.1522
#
#
#
# Elastic Compliance Matrix: (Units=1/GPa)
#
#
# Indices 1 2 3 4 5 6 
#
# 1 0.017816 -0.000835 -0.001292 0.000000 -0.009688 0.000000
# 2 -0.000835 0.018593 -0.000154 0.000000 -0.004945 0.000000
# 3 -0.001292 -0.000154 0.010595 0.000000 -0.002542 0.000000
# 4 0.000000 0.000000 0.000000 5.041371 0.000000 -0.056370
# 5 -0.009688 -0.004945 -0.002542 0.000000 0.033821 0.000000
# 6 0.000000 0.000000 0.000000 -0.056370 0.000000 0.241468
#
#
# Mechanical properties :
#
#
# Convention : Reuss Voigt Hill
#
# Bulk Modulus (GPa) = 23.56264 31.31733 27.43999
# Shear Modulus (GPa) = 0.92896 21.79244 11.36070
#
# Velocity S-wave (km/s) = 0.68074 3.29714 2.38060
# Velocity P-wave (km/s) = 3.51740 5.48794 4.60921
#
# Compressibility (1/GPa) = 0.04244006
#
# Stress axis : x y z
#
# Youngs Moduli (GPa) = 56.12970 53.78482 94.38172
#
# Poissons Ratio (x) = 0.04493 0.12195
# Poissons Ratio (y) = 0.04689 0.01457
# Poissons Ratio (z) = 0.07252 0.00830
#
# Static dielectric constant tensor:
#      x y z
#    x 1.746710 0.000000 -0.002410 
#    y 0.000000 1.737880 0.000000 
#    z -0.002410 0.000000 1.746450 
# 
# From -- ./inp_files/157739.got.cif
#   From: 2010.05.17/outbox.cif.g08.bks.cpg/sg12_79_cif.got.tgz:157739.got - 2010.06.03 13:09:07.
