data_PCOD9185240
_publ_section_title
;
Structure prediction by ZEFSAII (Michael W. Deem and Ramdas Pophale) SiO2 
 PCOD9185240
Probable space group: C 2/M
;
_chemical_formula_sum "Si O2"
_cell_formula_units_Z 64
_cell_length_a 25.647256
_cell_length_b 7.586480
_cell_length_c 14.828533
_cell_angle_alpha 90.000000
_cell_angle_beta 91.085208
_cell_angle_gamma 90.000000
_cell_volume 2884.705668
_symmetry_space_group_name_H-M "C 2/M"
_symmetry_group_IT_number 12
_symmetry_cell_setting 'monoclinic'
loop_
_space_group_symop_operation_xyz
x,y,z
-x,y,-z
-x,-y,-z
x,-y,z
1/2+x,1/2+y,z
1/2-x,1/2+y,-z
1/2-x,1/2-y,-z
1/2+x,1/2-y,z
loop_
_atom_site_type_symbol
_atom_site_label
_atom_site_fract_x
_atom_site_fract_y
_atom_site_fract_z
Si Si1 0.691403 0.291272 0.968980
Si Si2 0.919295 0.701807 0.010852
Si Si3 0.308369 0.289714 0.538620
Si Si4 0.661862 0.205128 0.257771
Si Si5 0.052330 0.283846 0.180904
Si Si6 0.147124 0.790038 0.639787
Si Si7 0.771759 0.215985 0.217171
Si Si8 0.061327 0.712116 0.786531
O O1 0.683519 0.500000 0.974057
O O2 0.642342 0.204552 0.015113
O O3 0.692704 0.230735 0.865162
O O4 0.750000 0.250000 0.000000
O O5 0.937125 0.500000 0.019309
O O6 0.924032 0.779497 0.111763
O O7 0.947762 0.776620 0.923844
O O8 0.312150 0.500000 0.548946
O O9 0.250000 0.250000 0.500000
O O10 0.322886 0.213787 0.636411
O O11 0.348860 0.225680 0.462525
O O12 0.605408 0.278682 0.230425
O O13 0.712712 0.282009 0.209406
O O14 0.659590 0.000000 0.232086
O O15 0.052715 0.500000 0.179317
O O16 0.998818 0.232787 0.227561
O O17 0.198680 0.723058 0.693073
O O18 0.098705 0.761466 0.704973
O O19 0.153013 0.000000 0.633583
O O20 0.770169 0.000000 0.216616
O O21 0.064039 0.500000 0.790176
#
# Coordination Sequence:
#
# PCOD9185240 Si02
#       8
#     8   8   8   8   8   8   8   8
#     4  11  21  33  50  75 111 148 185 224 270 330
#     4  10  19  34  56  81 111 147 188 230 273 320
#     4  11  22  37  59  85 112 142 181 226 279 336
#     4  10  19  36  59  81 109 148 186 224 275 333
#     4   9  19  36  58  82 113 151 186 225 280 331
#     4  10  20  37  57  79 109 145 179 218 278 338
#     4   9  17  32  53  75 105 144 179 213 270 335
#     4  10  20  35  58  87 112 142 192 239 266 310
#
# _framework density 22.185973000000001
#
# number of rings (size 3 to 8) (size 9 to 14) (size 15 to 20)
#    0.000    2.000    2.500    1.875    0.000    4.500 
#    0.000    5.000    0.000    5.250    0.000    0.000 
#    0.000    0.000    0.000    0.000    0.000    0.000 
#
# Total GULP energy -178614.398747 kJ/mol
# GULP energy per Si atom -5581.699961 kJ/mol
# Density = 2.213548 g / cm^3
# Si number density = 22.185973 Si / 1000 Ang^3
#
#
#
# Elastic Constant Matrix: (Units=GPa)
#
#
# Indices 1 2 3 4 5 6 
#
# 1 135.3760 -5.5686 33.3593 0.0000 -21.5698 0.0000
# 2 -5.5686 56.2739 -8.6814 0.0000 0.4846 0.0000
# 3 33.3593 -8.6814 82.4849 0.0000 -19.0672 0.0000
# 4 0.0000 0.0000 0.0000 14.0193 0.0000 -4.0429
# 5 -21.5698 0.4846 -19.0672 0.0000 33.7041 0.0000
# 6 0.0000 0.0000 0.0000 -4.0429 0.0000 14.7840
#
#
#
# Elastic Compliance Matrix: (Units=1/GPa)
#
#
# Indices 1 2 3 4 5 6 
#
# 1 0.008681 0.000436 -0.002511 0.000000 0.004129 0.000000
# 2 0.000436 0.018111 0.001995 0.000000 0.001147 0.000000
# 3 -0.002511 0.001995 0.014922 0.000000 0.006806 0.000000
# 4 0.000000 0.000000 0.000000 0.077437 0.000000 0.021176
# 5 0.004129 0.001147 0.006806 0.000000 0.036147 0.000000
# 6 0.000000 0.000000 0.000000 0.021176 0.000000 0.073432
#
#
# Mechanical properties :
#
#
# Convention : Reuss Voigt Hill
#
# Bulk Modulus (GPa) = 24.06390 34.70594 29.38492
# Shear Modulus (GPa) = 20.59810 29.50318 25.05064
#
# Velocity S-wave (km/s) = 3.05032 3.65062 3.36388
# Velocity P-wave (km/s) = 4.82451 5.78329 5.32552
#
# Compressibility (1/GPa) = 0.04155602
#
# Stress axis : x y z
#
# Youngs Moduli (GPa) = 115.18935 55.21424 67.01454
#
# Poissons Ratio (x) = -0.02408 0.16824
# Poissons Ratio (y) = -0.05024 -0.13369
# Poissons Ratio (z) = 0.28919 -0.11015
#
# Static dielectric constant tensor:
#      x y z
#    x 1.838040 0.000000 0.019040 
#    y 0.000000 1.840570 0.000000 
#    z 0.019040 0.000000 1.853580 
# 
# From -- ./inp_files/238683.got.cif
#   From: 2010.05.17/outbox.cif.g08.bks.cpg/sg12_120_cif.got.tgz:238683.got - 2010.06.03 13:09:07.
