data_PCOD9185892
_publ_section_title
;
Structure prediction by ZEFSAII (Michael W. Deem and Ramdas Pophale) SiO2 
 PCOD9185892
Probable space group: C 2/M
;
_chemical_formula_sum "Si O2"
_cell_formula_units_Z 56
_cell_length_a 27.842902
_cell_length_b 8.143131
_cell_length_c 13.031652
_cell_angle_alpha 90.000000
_cell_angle_beta 111.870175
_cell_angle_gamma 90.000000
_cell_volume 2742.000585
_symmetry_space_group_name_H-M "C 2/M"
_symmetry_group_IT_number 12
_symmetry_cell_setting 'monoclinic'
loop_
_space_group_symop_operation_xyz
x,y,z
-x,y,-z
-x,-y,-z
x,-y,z
1/2+x,1/2+y,z
1/2-x,1/2+y,-z
1/2-x,1/2-y,-z
1/2+x,1/2-y,z
loop_
_atom_site_type_symbol
_atom_site_label
_atom_site_fract_x
_atom_site_fract_y
_atom_site_fract_z
Si Si1 0.653684 0.799335 0.161090
Si Si2 0.536908 0.801612 0.123689
Si Si3 0.497688 0.305032 0.680526
Si Si4 0.303260 0.195669 0.593147
Si Si5 0.609042 0.698541 0.495354
Si Si6 0.113595 0.801343 0.728163
Si Si7 0.808876 0.696036 0.031046
O O1 0.595211 0.751841 0.142820
O O2 0.689255 0.743573 0.284181
O O3 0.654798 0.000000 0.159298
O O4 0.670522 0.740173 0.062541
O O5 0.517415 0.725417 0.213778
O O6 0.535890 0.000000 0.134535
O O7 0.500000 0.757467 0.000000
O O8 0.500222 0.500000 0.662435
O O9 0.449270 0.241186 0.575227
O O10 0.555201 0.240208 0.704858
O O11 0.250000 0.250000 0.500000
O O12 0.351576 0.248633 0.561597
O O13 0.303574 0.000000 0.597704
O O14 0.607685 0.500000 0.493709
O O15 0.626893 0.751578 0.622746
O O16 0.154008 0.748506 0.846538
O O17 0.112876 0.000000 0.728749
O O18 0.810029 0.500000 0.027539
O O19 0.750000 0.750000 0.000000
#
# Coordination Sequence:
#
# PCOD9185892 Si02
#       7
#     8   8   8   8   8   8   8
#     4   9  20  39  60  83 117 155 190 236 294 352
#     4  10  19  34  58  85 116 156 194 234 290 353
#     4  10  20  36  59  89 121 155 196 242 292 351
#     4  11  23  40  62  89 119 155 199 246 298 355
#     4  10  21  39  62  89 122 161 198 241 298 355
#     4  10  22  40  61  87 123 162 199 242 297 354
#     4  11  24  43  64  88 117 156 203 248 298 355
#
# _framework density 20.423045999999999
#
# number of rings (size 3 to 8) (size 9 to 14) (size 15 to 20)
#    0.000    1.857    1.429    2.143    2.000    4.286 
#    0.000    3.571    0.000    2.571    0.000    0.000 
#    0.000    0.000    0.000    0.000    0.000    0.000 
#
# Total GULP energy -156434.778562 kJ/mol
# GULP energy per Si atom -5586.956377 kJ/mol
# Density = 2.037656 g / cm^3
# Si number density = 20.423046 Si / 1000 Ang^3
#
#
#
# Elastic Constant Matrix: (Units=GPa)
#
#
# Indices 1 2 3 4 5 6 
#
# 1 70.6570 9.9934 48.7233 0.0000 11.0724 0.0000
# 2 9.9934 17.8490 17.0966 0.0000 3.2669 0.0000
# 3 48.7233 17.0966 178.2918 0.0000 12.4504 0.0000
# 4 0.0000 0.0000 0.0000 26.6457 0.0000 0.4688
# 5 11.0724 3.2669 12.4504 0.0000 40.7212 0.0000
# 6 0.0000 0.0000 0.0000 0.4688 0.0000 26.4026
#
#
#
# Elastic Compliance Matrix: (Units=1/GPa)
#
#
# Indices 1 2 3 4 5 6 
#
# 1 0.018396 -0.005623 -0.004261 0.000000 -0.003248 0.000000
# 2 -0.005623 0.063824 -0.004427 0.000000 -0.002238 0.000000
# 3 -0.004261 -0.004427 0.007247 0.000000 -0.000702 0.000000
# 4 0.000000 0.000000 0.000000 0.037541 0.000000 -0.000667
# 5 -0.003248 -0.002238 -0.000702 0.000000 0.025834 0.000000
# 6 0.000000 0.000000 0.000000 -0.000667 0.000000 0.037887
#
#
# Mechanical properties :
#
#
# Convention : Reuss Voigt Hill
#
# Bulk Modulus (GPa) = 16.43571 46.49159 31.46365
# Shear Modulus (GPa) = 20.86522 31.48621 26.17572
#
# Velocity S-wave (km/s) = 3.19979 3.93071 3.58393
# Velocity P-wave (km/s) = 4.66012 6.58895 5.70662
#
# Compressibility (1/GPa) = 0.06084311
#
# Stress axis : x y z
#
# Youngs Moduli (GPa) = 54.36107 15.66807 137.99241
#
# Poissons Ratio (x) = 0.08811 0.58799
# Poissons Ratio (y) = 0.30570 0.61091
# Poissons Ratio (z) = 0.23164 0.06936
#
# Static dielectric constant tensor:
#      x y z
#    x 1.703010 0.000000 0.006930 
#    y 0.000000 1.732470 0.000000 
#    z 0.006930 0.000000 1.707400 
# 
# From -- ./inp_files/181054.got.cif
#   From: 2010.05.17/outbox.cif.g08.bks.cpg/sg12_91_cif.got.tgz:181054.got - 2010.06.03 13:09:07.
