data_PCOD9185858
_publ_section_title
;
Structure prediction by ZEFSAII (Michael W. Deem and Ramdas Pophale) SiO2 
 PCOD9185858
Probable space group: C 2/M
;
_chemical_formula_sum "Si O2"
_cell_formula_units_Z 56
_cell_length_a 12.933729
_cell_length_b 27.896359
_cell_length_c 9.141525
_cell_angle_alpha 90.000000
_cell_angle_beta 56.119976
_cell_angle_gamma 90.000000
_cell_volume 2738.269321
_symmetry_space_group_name_H-M "C 2/M"
_symmetry_group_IT_number 12
_symmetry_cell_setting 'monoclinic'
loop_
_space_group_symop_operation_xyz
x,y,z
-x,y,-z
-x,-y,-z
x,-y,z
1/2+x,1/2+y,z
1/2-x,1/2+y,-z
1/2-x,1/2-y,-z
1/2+x,1/2-y,z
loop_
_atom_site_type_symbol
_atom_site_label
_atom_site_fract_x
_atom_site_fract_y
_atom_site_fract_z
Si Si1 0.380296 0.055543 0.324158
Si Si2 0.327878 0.096367 0.061001
Si Si3 0.618037 0.945068 0.276491
Si Si4 0.344018 0.444131 0.289765
Si Si5 0.958330 0.883774 0.701536
Si Si6 0.902864 0.774971 0.709940
Si Si7 0.876213 0.294884 0.005764
O O1 0.383213 0.086466 0.176669
O O2 0.473206 0.072186 0.381277
O O3 0.242248 0.056440 0.497926
O O4 0.407104 0.000000 0.270706
O O5 0.180041 0.096312 0.185860
O O6 0.362366 0.057599 0.913700
O O7 0.367302 0.148890 0.975921
O O8 0.745512 0.924714 0.245990
O O9 0.618831 0.000000 0.329154
O O10 0.379071 0.500000 0.230684
O O11 0.458756 0.410748 0.242914
O O12 0.000000 0.890563 0.500000
O O13 0.952339 0.826341 0.729987
O O14 0.894294 0.735609 0.844056
O O15 0.000000 0.762911 0.500000
O O16 0.752794 0.783522 0.802530
O O17 0.000000 0.286197 0.000000
#
# Coordination Sequence:
#
# PCOD9185858 Si02
#       7
#     8   8   8   8   8   8   8
#     4  10  19  34  58  84 117 162 202 239 292 357
#     4  11  21  36  59  85 117 153 200 250 297 355
#     4  10  21  36  53  83 125 160 194 242 295 350
#     4  10  21  36  56  86 122 159 200 245 294 354
#     4  10  20  39  60  83 113 155 199 245 299 359
#     4   9  21  42  64  89 123 158 203 255 316 379
#     4  10  21  40  64  92 123 158 202 261 313 367
#
# _framework density 20.450873999999999
#
# number of rings (size 3 to 8) (size 9 to 14) (size 15 to 20)
#    0.000    2.000    1.429    2.143    0.000    5.429 
#    7.714    4.286    0.000    0.000    0.000    0.000 
#    0.000    0.000    0.000    0.000    0.000    0.000 
#
# Total GULP energy -155933.445252 kJ/mol
# GULP energy per Si atom -5569.051616 kJ/mol
# Density = 2.040433 g / cm^3
# Si number density = 20.450874 Si / 1000 Ang^3
#
#
#
# Elastic Constant Matrix: (Units=GPa)
#
#
# Indices 1 2 3 4 5 6 
#
# 1 172.5685 53.7979 22.1532 0.0000 -7.7734 0.0000
# 2 53.7979 56.3216 25.4158 0.0000 -6.7405 0.0000
# 3 22.1532 25.4158 50.1778 0.0000 -25.9012 0.0000
# 4 0.0000 0.0000 0.0000 27.0238 0.0000 0.1208
# 5 -7.7734 -6.7405 -25.9012 0.0000 28.6710 0.0000
# 6 0.0000 0.0000 0.0000 0.1208 0.0000 22.5660
#
#
#
# Elastic Compliance Matrix: (Units=1/GPa)
#
#
# Indices 1 2 3 4 5 6 
#
# 1 0.008292 -0.008345 0.001338 0.000000 0.001495 0.000000
# 2 -0.008345 0.032915 -0.019040 0.000000 -0.011725 0.000000
# 3 0.001338 -0.019040 0.050329 0.000000 0.041353 0.000000
# 4 0.000000 0.000000 0.000000 0.037005 0.000000 -0.000198
# 5 0.001495 -0.011725 0.041353 0.000000 0.069886 0.000000
# 6 0.000000 0.000000 0.000000 -0.000198 0.000000 0.044315
#
#
# Mechanical properties :
#
#
# Convention : Reuss Voigt Hill
#
# Bulk Modulus (GPa) = 25.35450 53.53351 39.44400
# Shear Modulus (GPa) = 16.23457 27.49890 21.86673
#
# Velocity S-wave (km/s) = 2.82056 3.67090 3.27346
# Velocity P-wave (km/s) = 4.79918 6.64837 5.79797
#
# Compressibility (1/GPa) = 0.03944074
#
# Stress axis : x y z
#
# Youngs Moduli (GPa) = 120.59804 30.38102 19.86932
#
# Poissons Ratio (x) = 0.25354 -0.02658
# Poissons Ratio (y) = 1.00641 0.37831
# Poissons Ratio (z) = -0.16132 0.57846
#
# Static dielectric constant tensor:
#      x y z
#    x 1.773780 0.000000 -0.054700 
#    y 0.000000 1.727750 0.000000 
#    z -0.054700 0.000000 1.830820 
# 
# From -- ./inp_files/54558.got.cif
#   From: 2010.05.17/outbox.cif.g08.bks.cpg/sg12_28_cif.got.tgz:54558.got - 2010.06.03 13:09:07.
