data_PCOD9185552
_publ_section_title
;
Structure prediction by ZEFSAII (Michael W. Deem and Ramdas Pophale) SiO2 
 PCOD9185552
Probable space group: C 2/M
;
_chemical_formula_sum "Si O2"
_cell_formula_units_Z 56
_cell_length_a 23.449170
_cell_length_b 9.198760
_cell_length_c 14.686223
_cell_angle_alpha 90.000000
_cell_angle_beta 92.390572
_cell_angle_gamma 90.000000
_cell_volume 3165.109604
_symmetry_space_group_name_H-M "C 2/M"
_symmetry_group_IT_number 12
_symmetry_cell_setting 'monoclinic'
loop_
_space_group_symop_operation_xyz
x,y,z
-x,y,-z
-x,-y,-z
x,-y,z
1/2+x,1/2+y,z
1/2-x,1/2+y,-z
1/2-x,1/2-y,-z
1/2+x,1/2-y,z
loop_
_atom_site_type_symbol
_atom_site_label
_atom_site_fract_x
_atom_site_fract_y
_atom_site_fract_z
Si Si1 0.695899 0.669259 0.227257
Si Si2 0.215338 0.165629 0.880861
Si Si3 0.728865 0.173169 0.589759
Si Si4 0.073215 0.828305 0.152882
Si Si5 0.122050 0.331529 0.980397
Si Si6 0.458663 0.169071 0.203909
Si Si7 0.634710 0.332731 0.694928
O O1 0.707492 0.500000 0.205056
O O2 0.726444 0.767232 0.153438
O O3 0.725033 0.697585 0.326306
O O4 0.628328 0.690583 0.221199
O O5 0.181826 0.263018 0.951391
O O6 0.174345 0.165339 0.788504
O O7 0.221577 0.000000 0.912988
O O8 0.750000 0.250000 0.500000
O O9 0.670501 0.244660 0.622562
O O10 0.722553 0.000000 0.577160
O O11 0.018027 0.746756 0.186317
O O12 0.061746 0.000000 0.141823
O O13 0.093212 0.760471 0.058399
O O14 0.128639 0.500000 0.007439
O O15 0.079846 0.325918 0.890402
O O16 0.422853 0.252485 0.278675
O O17 0.466691 0.000000 0.227664
O O18 0.625241 0.500000 0.667413
#
# Coordination Sequence:
#
# PCOD9185552 Si02
#       7
#     8   8   8   8   8   8   8
#     4   9  20  36  51  71 102 135 164 199 250 305
#     4   9  17  30  50  73  97 128 168 211 250 293
#     4  10  19  34  57  83 107 129 157 197 246 300
#     4  11  22  34  49  70  98 135 175 212 249 290
#     4  10  20  33  49  70  98 133 173 215 256 293
#     4  10  20  34  51  72 100 135 173 211 251 292
#     4   9  17  31  52  78 103 129 164 204 246 292
#
# _framework density 17.692910000000001
#
# number of rings (size 3 to 8) (size 9 to 14) (size 15 to 20)
#    0.000    2.286    0.000    3.000    0.000    9.143 
#    0.000    0.000    0.000    0.857    0.000    6.000 
#    0.000    0.000    0.000    0.000    0.000    0.000 
#
# Total GULP energy -156355.485644 kJ/mol
# GULP energy per Si atom -5584.124487 kJ/mol
# Density = 1.765264 g / cm^3
# Si number density = 17.692910 Si / 1000 Ang^3
#
#
#
# Elastic Constant Matrix: (Units=GPa)
#
#
# Indices 1 2 3 4 5 6 
#
# 1 92.9229 73.1915 49.5960 0.0000 -21.7069 0.0000
# 2 73.1915 150.2897 67.2089 0.0000 -19.0043 0.0000
# 3 49.5960 67.2089 73.5491 0.0000 -30.9331 0.0000
# 4 0.0000 0.0000 0.0000 26.3594 0.0000 -10.0148
# 5 -21.7069 -19.0043 -30.9331 0.0000 24.4524 0.0000
# 6 0.0000 0.0000 0.0000 -10.0148 0.0000 32.7150
#
#
#
# Elastic Compliance Matrix: (Units=1/GPa)
#
#
# Indices 1 2 3 4 5 6 
#
# 1 0.020245 -0.007104 -0.004110 0.000000 0.007251 0.000000
# 2 -0.007104 0.014782 -0.013970 0.000000 -0.012491 0.000000
# 3 -0.004110 -0.013970 0.049220 0.000000 0.047759 0.000000
# 4 0.000000 0.000000 0.000000 0.042930 0.000000 0.013142
# 5 0.007251 -0.012491 0.047759 0.000000 0.098041 0.000000
# 6 0.000000 0.000000 0.000000 0.013142 0.000000 0.034590
#
#
# Mechanical properties :
#
#
# Convention : Reuss Voigt Hill
#
# Bulk Modulus (GPa) = 29.51840 77.41717 53.46779
# Shear Modulus (GPa) = 15.55354 25.15639 20.35497
#
# Velocity S-wave (km/s) = 2.96815 3.77481 3.39552
# Velocity P-wave (km/s) = 5.33540 7.92780 6.75709
#
# Compressibility (1/GPa) = 0.03387717
#
# Stress axis : x y z
#
# Youngs Moduli (GPa) = 49.39489 67.65169 20.31684
#
# Poissons Ratio (x) = 0.48063 0.08350
# Poissons Ratio (y) = 0.35092 0.28383
# Poissons Ratio (z) = 0.20302 0.94511
#
# Static dielectric constant tensor:
#      x y z
#    x 1.596200 0.000000 0.027970 
#    y 0.000000 1.597180 0.000000 
#    z 0.027970 0.000000 1.582170 
# 
# From -- ./inp_files/230869.got.cif
#   From: 2010.05.17/outbox.cif.g08.bks.cpg/sg12_116_cif.got.tgz:230869.got - 2010.06.03 13:09:07.
