data_PCOD9185514
_publ_section_title
;
Structure prediction by ZEFSAII (Michael W. Deem and Ramdas Pophale) SiO2 
 PCOD9185514
Probable space group: C 2/M
;
_chemical_formula_sum "Si O2"
_cell_formula_units_Z 52
_cell_length_a 15.746570
_cell_length_b 19.443384
_cell_length_c 17.188415
_cell_angle_alpha 90.000000
_cell_angle_beta 29.331117
_cell_angle_gamma 90.000000
_cell_volume 2577.876337
_symmetry_space_group_name_H-M "C 2/M"
_symmetry_group_IT_number 12
_symmetry_cell_setting 'monoclinic'
loop_
_space_group_symop_operation_xyz
x,y,z
-x,y,-z
-x,-y,-z
x,-y,z
1/2+x,1/2+y,z
1/2-x,1/2+y,-z
1/2-x,1/2-y,-z
1/2+x,1/2-y,z
loop_
_atom_site_type_symbol
_atom_site_label
_atom_site_fract_x
_atom_site_fract_y
_atom_site_fract_z
Si Si1 0.616800 0.646049 0.186174
Si Si2 0.530185 0.000000 0.882939
Si Si3 0.309236 0.500000 0.114216
Si Si4 0.336466 0.283882 0.307697
Si Si5 0.023613 0.239690 0.388282
Si Si6 0.980535 0.651189 0.108808
Si Si7 0.797736 0.145798 0.183749
Si Si8 0.655527 0.500000 0.100113
O O1 0.504580 0.696272 0.222102
O O2 0.568579 0.668168 0.311945
O O3 0.567639 0.569212 0.200854
O O4 0.823998 0.652654 0.013000
O O5 0.604341 0.923911 0.806342
O O6 0.500000 0.000000 0.000000
O O7 0.345820 0.000000 0.986753
O O8 0.232112 0.572114 0.205695
O O9 0.500000 0.500000 0.000000
O O10 0.326644 0.500000 0.007259
O O11 0.159152 0.269905 0.495016
O O12 0.378471 0.214869 0.225692
O O13 0.295654 0.344329 0.278268
O O14 0.000000 0.234686 0.500000
O O15 0.177442 0.293364 0.247193
O O16 0.000000 0.658344 0.000000
O O17 0.000000 0.154427 0.000000
#
# Coordination Sequence:
#
# PCOD9185514 Si02
#       8
#     8   4   4   8   8   8   8   4
#     4  11  21  37  57  80 112 149 189 242 286 332
#     4   8  18  34  51  77 111 141 181 243 291 323
#     4  10  20  36  58  89 122 147 182 237 285 335
#     4  11  21  34  55  86 115 150 192 232 279 338
#     4  10  22  38  55  81 116 150 190 234 280 339
#     4  10  19  34  57  82 109 147 193 237 286 340
#     4  10  20  37  60  85 114 152 190 230 281 342
#     4  10  22  36  57  88 113 144 196 242 286 344
#
# _framework density 20.171643
#
# number of rings (size 3 to 8) (size 9 to 14) (size 15 to 20)
#    0.000    1.846    0.000    6.000    0.000    2.462 
#    0.000    5.385    0.000    0.000    0.000    0.000 
#    0.000    0.000    0.000    0.000    0.000    0.000 
#
# Total GULP energy -145048.883627 kJ/mol
# GULP energy per Si atom -5578.803216 kJ/mol
# Density = 2.012573 g / cm^3
# Si number density = 20.171643 Si / 1000 Ang^3
#
#
#
# Elastic Constant Matrix: (Units=GPa)
#
#
# Indices 1 2 3 4 5 6 
#
# 1 95.1401 45.9626 12.9228 -0.0007 -9.2885 0.0015
# 2 45.9626 165.5039 47.0083 0.0056 15.0456 -0.0013
# 3 12.9228 47.0083 67.8195 -0.0007 -10.0280 0.0028
# 4 -0.0007 0.0056 -0.0007 5.2219 0.0018 4.9242
# 5 -9.2885 15.0456 -10.0280 0.0018 27.1457 -0.0022
# 6 0.0015 -0.0013 0.0028 4.9242 -0.0022 31.9393
#
#
#
# Elastic Compliance Matrix: (Units=1/GPa)
#
#
# Indices 1 2 3 4 5 6 
#
# 1 0.013496 -0.005126 0.002205 0.000006 0.008274 -0.000001
# 2 -0.005126 0.010714 -0.008025 -0.000012 -0.010657 0.000002
# 3 0.002205 -0.008025 0.021850 0.000010 0.013274 -0.000003
# 4 0.000006 -0.000012 0.000010 0.224077 -0.000006 -0.034547
# 5 0.008274 -0.010657 0.013274 -0.000006 0.050480 0.000002
# 6 -0.000001 0.000002 -0.000003 -0.034547 0.000002 0.036636
#
#
# Mechanical properties :
#
#
# Convention : Reuss Voigt Hill
#
# Bulk Modulus (GPa) = 41.37904 60.02787 50.70346
# Shear Modulus (GPa) = 12.91318 27.69938 20.30628
#
# Velocity S-wave (km/s) = 2.53289 3.70967 3.17626
# Velocity P-wave (km/s) = 5.39556 6.94061 6.21627
#
# Compressibility (1/GPa) = 0.02416683
#
# Stress axis : x y z
#
# Youngs Moduli (GPa) = 74.09802 93.33536 45.76609
#
# Poissons Ratio (x) = 0.47847 -0.10092
# Poissons Ratio (y) = 0.37985 0.36729
# Poissons Ratio (z) = -0.16339 0.74904
#
# Static dielectric constant tensor:
#      x y z
#    x 1.758940 0.000000 -0.005800 
#    y 0.000000 1.765270 0.000010 
#    z -0.005800 0.000010 1.709370 
# 
# From -- ./inp_files/272215.got.cif
#   From: 2010.05.17/outbox.cif.g08.bks.cpg/sg12_137_cif.got.tgz:272215.got - 2010.06.03 13:09:07.
