data_PCOD9185768
_publ_section_title
;
Structure prediction by ZEFSAII (Michael W. Deem and Ramdas Pophale) SiO2 
 PCOD9185768
Probable space group: C 2/M
;
_chemical_formula_sum "Si O2"
_cell_formula_units_Z 64
_cell_length_a 11.327371
_cell_length_b 19.272347
_cell_length_c 21.915427
_cell_angle_alpha 90.000000
_cell_angle_beta 131.222158
_cell_angle_gamma 90.000000
_cell_volume 3598.520409
_symmetry_space_group_name_H-M "C 2/M"
_symmetry_group_IT_number 12
_symmetry_cell_setting 'monoclinic'
loop_
_space_group_symop_operation_xyz
x,y,z
-x,y,-z
-x,-y,-z
x,-y,z
1/2+x,1/2+y,z
1/2-x,1/2+y,-z
1/2-x,1/2-y,-z
1/2+x,1/2-y,z
loop_
_atom_site_type_symbol
_atom_site_label
_atom_site_fract_x
_atom_site_fract_y
_atom_site_fract_z
Si Si1 0.767476 0.820145 0.657443
Si Si2 0.351436 0.671870 0.344012
Si Si3 0.179970 0.924219 0.081642
Si Si4 0.868880 0.776885 0.222006
Si Si5 0.179420 0.381351 0.749961
Si Si6 0.720868 0.668890 0.475588
Si Si7 0.167309 0.421935 0.374801
Si Si8 0.811448 0.771458 0.953567
O O1 0.673917 0.749000 0.637792
O O2 0.733999 0.874883 0.699087
O O3 0.727982 0.845091 0.576264
O O4 0.950156 0.797984 0.723720
O O5 0.306323 0.676990 0.257130
O O6 0.534595 0.655522 0.413600
O O7 0.250933 0.618224 0.348254
O O8 0.197739 0.912208 0.160264
O O9 0.240921 0.852206 0.073451
O O10 0.251274 0.000000 0.090530
O O11 0.000000 0.927138 0.000000
O O12 0.857000 0.697812 0.241883
O O13 0.775630 0.775640 0.126934
O O14 0.017638 0.421683 0.700051
O O15 0.750000 0.750000 0.500000
O O16 0.803383 0.622612 0.554321
O O17 0.227068 0.500000 0.401608
O O18 0.750000 0.750000 0.000000
O O19 0.000000 0.768355 0.000000
#
# Coordination Sequence:
#
# PCOD9185768 Si02
#       8
#     8   8   8   8   8   8   8   8
#     4  10  19  34  58  82 109 147 192 250 283 334
#     4  10  20  35  55  79 107 147 191 238 285 334
#     4   9  19  36  57  82 113 154 199 234 280 351
#     4   9  19  33  58  82 114 144 192 240 290 341
#     4  10  20  35  55  83 116 147 187 236 292 343
#     4  11  21  36  56  84 107 147 199 240 286 344
#     4  12  24  37  55  82 117 153 191 238 293 352
#     4  10  22  34  57  93 124 153 191 250 303 346
#
# _framework density 17.785087999999998
#
# number of rings (size 3 to 8) (size 9 to 14) (size 15 to 20)
#    0.000    1.875    2.500    2.250    7.000    2.500 
#    0.000    1.875    0.000    2.625    0.000    0.000 
#    0.000    0.000    0.000    0.000    0.000    0.000 
#
# Total GULP energy -178384.455824 kJ/mol
# GULP energy per Si atom -5574.514245 kJ/mol
# Density = 1.774461 g / cm^3
# Si number density = 17.785088 Si / 1000 Ang^3
#
#
#
# Elastic Constant Matrix: (Units=GPa)
#
#
# Indices 1 2 3 4 5 6 
#
# 1 68.6942 6.1821 41.7960 0.0000 -23.5454 0.0000
# 2 6.1821 65.9506 32.6439 0.0000 -16.6657 0.0000
# 3 41.7960 32.6439 117.1265 0.0000 -23.1414 0.0000
# 4 0.0000 0.0000 0.0000 9.3078 0.0000 -2.8784
# 5 -23.5454 -16.6657 -23.1414 0.0000 28.4412 0.0000
# 6 0.0000 0.0000 0.0000 -2.8784 0.0000 8.5980
#
#
#
# Elastic Compliance Matrix: (Units=1/GPa)
#
#
# Indices 1 2 3 4 5 6 
#
# 1 0.024248 0.005549 -0.006662 0.000000 0.017905 0.000000
# 2 0.005549 0.020325 -0.005224 0.000000 0.012253 0.000000
# 3 -0.006662 -0.005224 0.012722 0.000000 0.001775 0.000000
# 4 0.000000 0.000000 0.000000 0.119843 0.000000 0.040120
# 5 0.017905 0.012253 0.001775 0.000000 0.058608 0.000000
# 6 0.000000 0.000000 0.000000 0.040120 0.000000 0.129738
#
#
# Mechanical properties :
#
#
# Convention : Reuss Voigt Hill
#
# Bulk Modulus (GPa) = 22.41067 45.89058 34.15063
# Shear Modulus (GPa) = 12.72166 20.67935 16.70051
#
# Velocity S-wave (km/s) = 2.67741 3.41359 3.06766
# Velocity P-wave (km/s) = 4.71022 6.43395 5.63834
#
# Compressibility (1/GPa) = 0.04462160
#
# Stress axis : x y z
#
# Youngs Moduli (GPa) = 41.23988 49.20109 78.60628
#
# Poissons Ratio (x) = -0.27302 0.52366
# Poissons Ratio (y) = -0.22884 0.41063
# Poissons Ratio (z) = 0.27473 0.25702
#
# Static dielectric constant tensor:
#      x y z
#    x 1.618710 0.000000 -0.001620 
#    y 0.000000 1.466700 0.000000 
#    z -0.001620 0.000000 1.625180 
# 
# From -- ./inp_files/263885.got.cif
#   From: 2010.05.17/outbox.cif.g08.bks.cpg/sg12_132_cif.got.tgz:263885.got - 2010.06.03 13:09:07.
