data_PCOD9185463
_publ_section_title
;
Structure prediction by ZEFSAII (Michael W. Deem and Ramdas Pophale) SiO2 
 PCOD9185463
Probable space group: C 2/M
;
_chemical_formula_sum "Si O2"
_cell_formula_units_Z 64
_cell_length_a 26.659292
_cell_length_b 7.565167
_cell_length_c 15.517909
_cell_angle_alpha 90.000000
_cell_angle_beta 59.524620
_cell_angle_gamma 90.000000
_cell_volume 2697.308318
_symmetry_space_group_name_H-M "C 2/M"
_symmetry_group_IT_number 12
_symmetry_cell_setting 'monoclinic'
loop_
_space_group_symop_operation_xyz
x,y,z
-x,y,-z
-x,-y,-z
x,-y,z
1/2+x,1/2+y,z
1/2-x,1/2+y,-z
1/2-x,1/2-y,-z
1/2+x,1/2-y,z
loop_
_atom_site_type_symbol
_atom_site_label
_atom_site_fract_x
_atom_site_fract_y
_atom_site_fract_z
Si Si1 0.088109 0.216334 0.544154
Si Si2 0.463705 0.286870 0.229852
Si Si3 0.721664 0.290481 0.433637
Si Si4 0.911402 0.217037 0.832735
Si Si5 0.223462 0.705701 0.246857
Si Si6 0.590480 0.701487 0.356496
Si Si7 0.171932 0.794632 0.955601
Si Si8 0.434695 0.205232 0.071850
O O1 0.055849 0.272473 0.658414
O O2 0.155009 0.271784 0.495244
O O3 0.068509 0.277840 0.466375
O O4 0.086092 0.000000 0.543517
O O5 0.460041 0.500000 0.231487
O O6 0.531358 0.235786 0.163004
O O7 0.426920 0.218834 0.181700
O O8 0.721555 0.500000 0.422486
O O9 0.750000 0.250000 0.500000
O O10 0.748532 0.214980 0.322365
O O11 0.920265 0.281697 0.727743
O O12 0.908811 0.000000 0.831819
O O13 0.854239 0.280139 0.932810
O O14 0.211834 0.500000 0.237946
O O15 0.161062 0.800156 0.301498
O O16 0.270500 0.781009 0.139069
O O17 0.567991 0.500000 0.371838
O O18 0.118261 0.788310 0.934618
O O19 0.185157 0.000000 0.960226
O O20 0.435895 0.000000 0.045890
O O21 0.500000 0.281594 0.000000
#
# Coordination Sequence:
#
# PCOD9185463 Si02
#       8
#     8   8   8   8   8   8   8   8
#     4   8  17  32  52  79 107 137 175 220 264 312
#     4  10  19  34  57  81 107 143 183 218 264 328
#     4  10  20  35  53  77 110 143 180 226 274 325
#     4   9  18  33  57  83 105 139 184 226 271 323
#     4  10  21  36  54  78 108 143 185 228 269 321
#     4   9  18  36  57  79 111 142 176 228 278 323
#     4  10  21  37  56  80 109 143 186 227 265 323
#     4  11  23  37  53  78 112 144 177 224 276 326
#
# _framework density 23.727357999999999
#
# number of rings (size 3 to 8) (size 9 to 14) (size 15 to 20)
#    0.000    2.375    1.250    1.875    1.750    2.500 
#    0.000    6.250    0.000    0.000    0.000    4.375 
#    0.000    0.000    0.000    0.000    0.000    0.000 
#
# Total GULP energy -178709.138767 kJ/mol
# GULP energy per Si atom -5584.660586 kJ/mol
# Density = 2.367335 g / cm^3
# Si number density = 23.727358 Si / 1000 Ang^3
#
#
#
# Elastic Constant Matrix: (Units=GPa)
#
#
# Indices 1 2 3 4 5 6 
#
# 1 43.6587 -10.4399 1.9308 0.0000 16.8929 0.0000
# 2 -10.4399 67.5261 -2.6065 0.0000 -3.9309 0.0001
# 3 1.9308 -2.6065 123.0067 0.0000 11.6365 0.0000
# 4 0.0000 0.0000 0.0000 8.3853 0.0000 -6.5528
# 5 16.8929 -3.9309 11.6365 0.0000 41.0100 0.0000
# 6 0.0000 0.0001 0.0000 -6.5528 0.0000 -5.6964
#
#
#
# Elastic Compliance Matrix: (Units=1/GPa)
#
#
# Indices 1 2 3 4 5 6 
#
# 1 0.028198 0.003720 0.000721 0.000000 -0.011463 0.000000
# 2 0.003720 0.015387 0.000281 0.000000 -0.000137 0.000000
# 3 0.000721 0.000281 0.008375 0.000000 -0.002646 0.000000
# 4 0.000000 0.000000 0.000000 0.062801 0.000000 -0.072243
# 5 -0.011463 -0.000137 -0.002646 0.000000 0.029844 0.000000
# 6 0.000000 0.000000 0.000000 -0.072243 0.000000 -0.092446
#
#
# Mechanical properties :
#
#
# Convention : Reuss Voigt Hill
#
# Bulk Modulus (GPa) = 16.28598 23.55116 19.91857
# Shear Modulus (GPa) = 79.13501 25.09361 52.11431
#
# Velocity S-wave (km/s) = 5.78137 3.25558 4.69164
# Velocity P-wave (km/s) = 7.17247 4.90703 6.14505
#
# Compressibility (1/GPa) = 0.06140250
#
# Stress axis : x y z
#
# Youngs Moduli (GPa) = 35.46335 64.98954 119.40861
#
# Poissons Ratio (x) = -0.24177 -0.08605
# Poissons Ratio (y) = -0.13193 -0.03351
# Poissons Ratio (z) = -0.02556 -0.01824
#
# Static dielectric constant tensor:
#      x y z
#    x 1.886180 0.000000 0.009290 
#    y 0.000000 1.909770 0.000000 
#    z 0.009290 0.000000 1.945880 
# 
# From -- ./inp_files/248968.got.cif
#   From: 2010.05.17/outbox.cif.g08.bks.cpg/sg12_125_cif.got.tgz:248968.got - 2010.06.03 13:09:07.
