data_PCOD9185568
_publ_section_title
;
Structure prediction by ZEFSAII (Michael W. Deem and Ramdas Pophale) SiO2 
 PCOD9185568
Probable space group: C 2/M
;
_chemical_formula_sum "Si O2"
_cell_formula_units_Z 48
_cell_length_a 24.471075
_cell_length_b 10.795449
_cell_length_c 19.010458
_cell_angle_alpha 90.000000
_cell_angle_beta 152.350095
_cell_angle_gamma 90.000000
_cell_volume 2330.599909
_symmetry_space_group_name_H-M "C 2/M"
_symmetry_group_IT_number 12
_symmetry_cell_setting 'monoclinic'
loop_
_space_group_symop_operation_xyz
x,y,z
-x,y,-z
-x,-y,-z
x,-y,z
1/2+x,1/2+y,z
1/2-x,1/2+y,-z
1/2-x,1/2-y,-z
1/2+x,1/2-y,z
loop_
_atom_site_type_symbol
_atom_site_label
_atom_site_fract_x
_atom_site_fract_y
_atom_site_fract_z
Si Si1 0.570639 0.726276 0.856863
Si Si2 0.635134 0.136625 0.179196
Si Si3 0.359175 0.636459 0.708383
Si Si4 0.901001 0.366096 0.579992
Si Si5 0.981714 0.140100 0.348073
Si Si6 0.247533 0.854833 0.836190
O O1 0.465713 0.653239 0.776050
O O2 0.505081 0.850206 0.754812
O O3 0.595707 0.653792 0.812815
O O4 0.675637 0.763387 0.027485
O O5 0.639012 0.249551 0.236717
O O6 0.713954 0.160159 0.200291
O O7 0.665150 0.000000 0.243134
O O8 0.500000 0.130678 0.000000
O O9 0.372498 0.500000 0.757284
O O10 0.225709 0.639506 0.527197
O O11 0.909135 0.500000 0.553551
O O12 0.922250 0.247550 0.553946
O O13 0.890336 0.164855 0.306166
O O14 0.027802 0.000000 0.405675
O O15 0.271161 0.000000 0.881132
#
# Coordination Sequence:
#
# PCOD9185568 Si02
#       6
#     8   8   8   8   8   8
#     4  10  19  34  57  83 111 147 174 224 280 328
#     4  10  21  38  58  81 107 144 189 228 271 323
#     4  11  22  38  56  83 115 144 185 228 271 326
#     4   9  21  36  55  82 114 148 182 221 272 331
#     4   9  20  35  55  84 114 144 181 226 272 327
#     4  10  19  36  58  83 112 143 186 230 270 325
#
# _framework density 20.595555999999998
#
# number of rings (size 3 to 8) (size 9 to 14) (size 15 to 20)
#    1.000    1.167    1.667    2.000    0.000    1.667 
#    0.000    2.500    0.000    5.000    0.000    0.000 
#    0.000    0.000    0.000    0.000    0.000    0.000 
#
# Total GULP energy -133677.984844 kJ/mol
# GULP energy per Si atom -5569.916035 kJ/mol
# Density = 2.054868 g / cm^3
# Si number density = 20.595556 Si / 1000 Ang^3
#
#
#
# Elastic Constant Matrix: (Units=GPa)
#
#
# Indices 1 2 3 4 5 6 
#
# 1 85.4415 37.5221 -2.7248 0.0000 21.9175 0.0000
# 2 37.5221 121.1593 8.9987 0.0000 13.4919 0.0000
# 3 -2.7248 8.9987 29.1961 0.0000 9.2493 0.0000
# 4 0.0000 0.0000 0.0000 22.7453 0.0000 -0.6908
# 5 21.9175 13.4919 9.2493 0.0000 20.7827 0.0000
# 6 0.0000 0.0000 0.0000 -0.6908 0.0000 12.8982
#
#
#
# Elastic Compliance Matrix: (Units=1/GPa)
#
#
# Indices 1 2 3 4 5 6 
#
# 1 0.019749 -0.004368 0.010348 0.000000 -0.022597 0.000000
# 2 -0.004368 0.009891 -0.003354 0.000000 -0.000322 0.000000
# 3 0.010348 -0.003354 0.045422 0.000000 -0.028951 0.000000
# 4 0.000000 0.000000 0.000000 0.044037 0.000000 0.002358
# 5 -0.022597 -0.000322 -0.028951 0.000000 0.085041 0.000000
# 6 0.000000 0.000000 0.000000 0.002358 0.000000 0.077656
#
#
# Mechanical properties :
#
#
# Convention : Reuss Voigt Hill
#
# Bulk Modulus (GPa) = 12.45122 35.93210 24.19166
# Shear Modulus (GPa) = 16.48440 24.08531 20.28486
#
# Velocity S-wave (km/s) = 2.83218 3.42342 3.14174
# Velocity P-wave (km/s) = 4.09313 5.75420 4.99322
#
# Compressibility (1/GPa) = 0.08031340
#
# Stress axis : x y z
#
# Youngs Moduli (GPa) = 50.63585 101.09796 22.01555
#
# Poissons Ratio (x) = 0.44163 -0.22782
# Poissons Ratio (y) = 0.22119 0.07385
# Poissons Ratio (z) = -0.52399 0.33913
#
# Static dielectric constant tensor:
#      x y z
#    x 1.727510 0.000000 0.000170 
#    y 0.000000 1.742260 0.000000 
#    z 0.000170 0.000000 1.760840 
# 
# From -- ./inp_files/324996.got.cif
#   From: 2010.05.17/outbox.cif.g08.bks.cpg/sg12_163_cif.got.tgz:324996.got - 2010.06.03 13:09:07.
