data_PCOD9185863
_publ_section_title
;
Structure prediction by ZEFSAII (Michael W. Deem and Ramdas Pophale) SiO2 
 PCOD9185863
Probable space group: C 2/M
;
_chemical_formula_sum "Si O2"
_cell_formula_units_Z 52
_cell_length_a 17.802037
_cell_length_b 27.532839
_cell_length_c 11.905172
_cell_angle_alpha 90.000000
_cell_angle_beta 151.622592
_cell_angle_gamma 90.000000
_cell_volume 2773.342209
_symmetry_space_group_name_H-M "C 2/M"
_symmetry_group_IT_number 12
_symmetry_cell_setting 'monoclinic'
loop_
_space_group_symop_operation_xyz
x,y,z
-x,y,-z
-x,-y,-z
x,-y,z
1/2+x,1/2+y,z
1/2-x,1/2+y,-z
1/2-x,1/2-y,-z
1/2+x,1/2-y,z
loop_
_atom_site_type_symbol
_atom_site_label
_atom_site_fract_x
_atom_site_fract_y
_atom_site_fract_z
Si Si1 0.624414 0.500000 0.441603
Si Si2 0.922747 0.575273 0.210128
Si Si3 0.332788 0.191008 0.828748
Si Si4 0.662694 0.815127 0.897030
Si Si5 0.665820 0.076057 0.162855
Si Si6 0.702599 0.000000 0.567669
Si Si7 0.227680 0.000000 0.089499
Si Si8 0.491801 0.284019 0.362191
O O1 0.693991 0.546256 0.597880
O O2 0.693122 0.500000 0.405989
O O3 0.437921 0.500000 0.190546
O O4 0.916408 0.632677 0.225028
O O5 0.827356 0.546360 0.179312
O O6 0.089705 0.547697 0.419447
O O7 0.843153 0.568835 0.982627
O O8 0.320086 0.133089 0.793374
O O9 0.174408 0.213566 0.566376
O O10 0.500000 0.208345 0.000000
O O11 0.340499 0.197175 0.973678
O O12 0.571265 0.771092 0.718539
O O13 0.850417 0.813068 0.114061
O O14 0.500000 0.059324 0.000000
O O15 0.792677 0.000000 0.804062
O O16 0.500000 0.304283 0.500000
#
# Coordination Sequence:
#
# PCOD9185863 Si02
#       8
#     4   8   8   8   8   4   4   8
#     4  12  22  36  60  79 112 147 182 233 270 343
#     4  10  20  37  59  82 109 142 188 233 273 325
#     4   9  19  33  54  81 111 141 176 224 275 321
#     4   9  19  34  56  81 104 145 181 218 278 321
#     4  10  19  34  58  85 107 144 184 224 287 328
#     4  11  22  41  57  71 114 154 186 217 272 345
#     4  11  26  36  51  86 111 148 184 229 277 313
#     4   9  18  34  54  79 112 142 177 222 268 327
#
# _framework density 18.749941
#
# number of rings (size 3 to 8) (size 9 to 14) (size 15 to 20)
#    0.000    2.154    1.538    2.308    2.154    3.077 
#    0.000    0.000    0.000    0.000    0.000    0.000 
#    0.000    0.000    0.000    0.000    0.000    0.000 
#
# Total GULP energy -144987.224792 kJ/mol
# GULP energy per Si atom -5576.431723 kJ/mol
# Density = 1.870726 g / cm^3
# Si number density = 18.749941 Si / 1000 Ang^3
#
#
#
# Elastic Constant Matrix: (Units=GPa)
#
#
# Indices 1 2 3 4 5 6 
#
# 1 32.2290 -7.6065 0.5747 0.0000 5.1412 0.0000
# 2 -7.6065 62.3771 10.7713 0.0000 1.9508 0.0000
# 3 0.5747 10.7713 71.2956 0.0000 16.3754 0.0000
# 4 0.0000 0.0000 0.0000 42.6298 0.0000 -20.7454
# 5 5.1412 1.9508 16.3754 0.0000 32.7548 0.0000
# 6 0.0000 0.0000 0.0000 -20.7454 0.0000 19.1874
#
#
#
# Elastic Compliance Matrix: (Units=1/GPa)
#
#
# Indices 1 2 3 4 5 6 
#
# 1 0.032887 0.004116 0.000401 0.000000 -0.005608 0.000000
# 2 0.004116 0.016979 -0.002505 0.000000 -0.000405 0.000000
# 3 0.000401 -0.002505 0.016247 0.000000 -0.008036 0.000000
# 4 0.000000 0.000000 0.000000 0.049505 0.000000 0.053525
# 5 -0.005608 -0.000405 -0.008036 0.000000 0.035452 0.000000
# 6 0.000000 0.000000 0.000000 0.053525 0.000000 0.109988
#
#
# Mechanical properties :
#
#
# Convention : Reuss Voigt Hill
#
# Bulk Modulus (GPa) = 14.25779 19.26451 16.76115
# Shear Modulus (GPa) = 17.83084 29.72521 23.77803
#
# Velocity S-wave (km/s) = 3.08714 3.98596 3.56499
# Velocity P-wave (km/s) = 4.50865 5.61076 5.08963
#
# Compressibility (1/GPa) = 0.07013709
#
# Stress axis : x y z
#
# Youngs Moduli (GPa) = 30.40722 58.89703 61.54911
#
# Poissons Ratio (x) = -0.24245 -0.02468
# Poissons Ratio (y) = -0.12517 0.15420
# Poissons Ratio (z) = -0.01219 0.14756
#
# Static dielectric constant tensor:
#      x y z
#    x 1.669830 0.000000 0.020740 
#    y 0.000000 1.642910 0.000000 
#    z 0.020740 0.000000 1.657330 
# 
# From -- ./inp_files/160866.got.cif
#   From: 2010.05.17/outbox.cif.g08.bks.cpg/sg12_81_cif.got.tgz:160866.got - 2010.06.03 13:09:07.
