data_PCOD9185868
_publ_section_title
;
Structure prediction by ZEFSAII (Michael W. Deem and Ramdas Pophale) SiO2 
 PCOD9185868
Probable space group: C 2/M
;
_chemical_formula_sum "Si O2"
_cell_formula_units_Z 64
_cell_length_a 31.860484
_cell_length_b 17.128313
_cell_length_c 12.822106
_cell_angle_alpha 90.000000
_cell_angle_beta 153.084480
_cell_angle_gamma 90.000000
_cell_volume 3167.481157
_symmetry_space_group_name_H-M "C 2/M"
_symmetry_group_IT_number 12
_symmetry_cell_setting 'monoclinic'
loop_
_space_group_symop_operation_xyz
x,y,z
-x,y,-z
-x,-y,-z
x,-y,z
1/2+x,1/2+y,z
1/2-x,1/2+y,-z
1/2-x,1/2-y,-z
1/2+x,1/2-y,z
loop_
_atom_site_type_symbol
_atom_site_label
_atom_site_fract_x
_atom_site_fract_y
_atom_site_fract_z
Si Si1 0.644723 0.589415 0.884520
Si Si2 0.272241 0.315855 0.634867
Si Si3 0.838723 0.093121 0.435703
Si Si4 0.698545 0.907991 0.300750
Si Si5 0.556384 0.591318 0.916732
Si Si6 0.999982 0.405990 0.120141
Si Si7 0.671086 0.835948 0.619165
Si Si8 0.167966 0.203278 0.761960
O O1 0.637631 0.500000 0.830272
O O2 0.585864 0.594800 0.860381
O O3 0.615864 0.653644 0.735046
O O4 0.751909 0.610156 0.152632
O O5 0.250000 0.250000 0.500000
O O6 0.218915 0.389370 0.465919
O O7 0.230341 0.298224 0.655260
O O8 0.377162 0.346764 0.878664
O O9 0.781510 0.118159 0.410422
O O10 0.800235 0.137957 0.250122
O O11 0.948184 0.109463 0.689486
O O12 0.830209 0.000000 0.402827
O O13 0.694597 0.000000 0.279360
O O14 0.597441 0.875911 0.048342
O O15 0.572202 0.500000 0.985372
O O16 0.998397 0.500000 0.114108
O O17 0.087614 0.380681 0.380196
O O18 0.000000 0.378410 0.000000
O O19 0.627141 0.771238 0.598428
O O20 0.250000 0.250000 0.000000
#
# Coordination Sequence:
#
# PCOD9185868 Si02
#       8
#     8   8   8   8   8   8   8   8
#     4   9  18  35  61  86 108 144 191 242 291 341
#     4  11  21  34  54  82 116 153 189 230 282 345
#     4  10  21  39  58  79 112 153 194 240 288 342
#     4  10  21  36  56  81 112 152 194 235 280 332
#     4   9  20  37  58  84 113 148 196 245 287 336
#     4  10  19  34  58  85 111 147 194 237 276 333
#     4  10  20  35  54  84 120 148 183 237 294 340
#     4  10  21  37  57  83 115 147 186 237 295 354
#
# _framework density 20.205328000000002
#
# number of rings (size 3 to 8) (size 9 to 14) (size 15 to 20)
#    0.000    2.125    1.250    1.875    0.000    3.000 
#    0.000    5.000    0.000    2.250    0.000   11.375 
#    0.000    0.000    0.000    0.000    0.000    0.000 
#
# Total GULP energy -178410.584362 kJ/mol
# GULP energy per Si atom -5575.330761 kJ/mol
# Density = 2.015934 g / cm^3
# Si number density = 20.205328 Si / 1000 Ang^3
#
#
#
# Elastic Constant Matrix: (Units=GPa)
#
#
# Indices 1 2 3 4 5 6 
#
# 1 76.2080 43.0619 52.0924 0.0000 8.1304 0.0000
# 2 43.0619 66.4239 40.9420 0.0000 8.6194 0.0000
# 3 52.0924 40.9420 91.4066 0.0000 9.3133 0.0000
# 4 0.0000 0.0000 0.0000 27.5413 0.0000 -21.0534
# 5 8.1304 8.6194 9.3133 0.0000 27.9906 0.0000
# 6 0.0000 0.0000 0.0000 -21.0534 0.0000 28.2376
#
#
#
# Elastic Compliance Matrix: (Units=1/GPa)
#
#
# Indices 1 2 3 4 5 6 
#
# 1 0.026049 -0.010598 -0.009999 0.000000 -0.000976 0.000000
# 2 -0.010598 0.025429 -0.005037 0.000000 -0.003076 0.000000
# 3 -0.009999 -0.005037 0.019088 0.000000 -0.001896 0.000000
# 4 0.000000 0.000000 0.000000 0.084429 0.000000 0.062948
# 5 -0.000976 -0.003076 -0.001896 0.000000 0.037588 0.000000
# 6 0.000000 0.000000 0.000000 0.062948 0.000000 0.082347
#
#
# Mechanical properties :
#
#
# Convention : Reuss Voigt Hill
#
# Bulk Modulus (GPa) = 51.81690 56.24790 54.03240
# Shear Modulus (GPa) = 15.03173 23.28340 19.15757
#
# Velocity S-wave (km/s) = 2.73050 3.39830 3.08254
# Velocity P-wave (km/s) = 5.97007 6.58001 6.28244
#
# Compressibility (1/GPa) = 0.01929872
#
# Stress axis : x y z
#
# Youngs Moduli (GPa) = 38.38860 39.32518 52.38928
#
# Poissons Ratio (x) = 0.41675 0.52385
# Poissons Ratio (y) = 0.40683 0.26388
# Poissons Ratio (z) = 0.38386 0.19808
#
# Static dielectric constant tensor:
#      x y z
#    x 1.748140 0.000000 -0.009780 
#    y 0.000000 1.770530 0.000000 
#    z -0.009780 0.000000 1.722820 
# 
# From -- ./inp_files/190076.got.cif
#   From: 2010.05.17/outbox.cif.g08.bks.cpg/sg12_96_cif.got.tgz:190076.got - 2010.06.03 13:09:07.
