data_PCOD9185578
_publ_section_title
;
Structure prediction by ZEFSAII (Michael W. Deem and Ramdas Pophale) SiO2 
 PCOD9185578
Probable space group: C 2/M
;
_chemical_formula_sum "Si O2"
_cell_formula_units_Z 56
_cell_length_a 18.443028
_cell_length_b 7.779854
_cell_length_c 30.963550
_cell_angle_alpha 90.000000
_cell_angle_beta 138.930886
_cell_angle_gamma 90.000000
_cell_volume 2918.765823
_symmetry_space_group_name_H-M "C 2/M"
_symmetry_group_IT_number 12
_symmetry_cell_setting 'monoclinic'
loop_
_space_group_symop_operation_xyz
x,y,z
-x,y,-z
-x,-y,-z
x,-y,z
1/2+x,1/2+y,z
1/2-x,1/2+y,-z
1/2-x,1/2-y,-z
1/2+x,1/2-y,z
loop_
_atom_site_type_symbol
_atom_site_label
_atom_site_fract_x
_atom_site_fract_y
_atom_site_fract_z
Si Si1 0.124141 0.794515 0.932857
Si Si2 0.710143 0.209366 0.805124
Si Si3 0.118303 0.701785 0.670165
Si Si4 0.683509 0.500000 0.578678
Si Si5 0.294156 0.691291 0.672332
Si Si6 0.539237 0.201701 0.800881
Si Si7 0.959717 0.210426 0.934607
Si Si8 0.002343 0.000000 0.428862
O O1 0.086155 0.722021 0.869942
O O2 0.044005 0.733599 0.935269
O O3 0.113992 0.000000 0.925771
O O4 0.250000 0.750000 0.000000
O O5 0.661705 0.255168 0.736716
O O6 0.629113 0.266817 0.806863
O O7 0.835367 0.267989 0.868705
O O8 0.713538 0.000000 0.807899
O O9 0.085444 0.500000 0.656513
O O10 0.219857 0.716020 0.681943
O O11 0.024678 0.830350 0.611048
O O12 0.756969 0.333363 0.621373
O O13 0.620463 0.500000 0.505013
O O14 0.587991 0.500000 0.572752
O O15 0.271626 0.500000 0.645812
O O16 0.421530 0.709544 0.742186
O O17 0.521041 0.000000 0.784133
O O18 0.959711 0.000000 0.934627
O O19 0.000000 0.265019 0.000000
#
# Coordination Sequence:
#
# PCOD9185578 Si02
#       8
#     8   8   8   4   8   8   8   4
#     4  11  22  36  55  79 109 144 186 236 284 340
#     4   9  18  33  54  80 106 144 188 233 280 335
#     4   9  18  34  55  81 112 147 189 232 279 336
#     4   9  18  34  54  86 120 142 182 231 281 343
#     4  10  19  34  57  83 113 148 185 232 282 335
#     4  11  21  35  56  81 110 146 184 234 285 335
#     4   9  17  32  55  78 103 142 189 233 281 337
#     4   9  18  32  56  86 115 146 181 231 285 333
#
# _framework density 19.186191999999998
#
# number of rings (size 3 to 8) (size 9 to 14) (size 15 to 20)
#    0.000    2.286    0.714    2.571    0.000    5.143 
#    2.571    2.857    0.000    3.429    0.000    0.000 
#    0.000    0.000    0.000    0.000    0.000    0.000 
#
# Total GULP energy -156350.652838 kJ/mol
# GULP energy per Si atom -5583.951887 kJ/mol
# Density = 1.914252 g / cm^3
# Si number density = 19.186192 Si / 1000 Ang^3
#
#
#
# Elastic Constant Matrix: (Units=GPa)
#
#
# Indices 1 2 3 4 5 6 
#
# 1 96.4788 38.2626 70.6354 0.0000 -7.2442 0.0001
# 2 38.2626 70.4795 49.6680 0.0000 -5.5396 0.0002
# 3 70.6354 49.6680 180.5003 0.0000 -13.4826 0.0000
# 4 0.0000 0.0000 0.0000 23.1483 0.0000 -2.0449
# 5 -7.2442 -5.5396 -13.4826 0.0000 24.1374 0.0000
# 6 0.0001 0.0002 0.0000 -2.0449 0.0000 12.6449
#
#
#
# Elastic Compliance Matrix: (Units=1/GPa)
#
#
# Indices 1 2 3 4 5 6 
#
# 1 0.015995 -0.005270 -0.004739 0.000000 0.000944 0.000000
# 2 -0.005270 0.019383 -0.003190 0.000000 0.001085 0.000000
# 3 -0.004739 -0.003190 0.008465 0.000000 0.002574 0.000000
# 4 0.000000 0.000000 0.000000 0.043826 0.000000 0.007088
# 5 0.000944 0.001085 0.002574 0.000000 0.043399 0.000000
# 6 0.000000 0.000000 0.000000 0.007088 0.000000 0.080230
#
#
# Mechanical properties :
#
#
# Convention : Reuss Voigt Hill
#
# Bulk Modulus (GPa) = 57.32312 73.84339 65.58326
# Shear Modulus (GPa) = 20.53294 24.57896 22.55595
#
# Velocity S-wave (km/s) = 3.27493 3.58309 3.43247
# Velocity P-wave (km/s) = 6.65149 7.46253 7.06866
#
# Compressibility (1/GPa) = 0.01744497
#
# Stress axis : x y z
#
# Youngs Moduli (GPa) = 62.51823 51.59149 118.13740
#
# Poissons Ratio (x) = 0.27189 0.55983
# Poissons Ratio (y) = 0.32947 0.37689
# Poissons Ratio (z) = 0.29626 0.16459
#
# Static dielectric constant tensor:
#      x y z
#    x 1.651950 0.000000 0.005570 
#    y 0.000000 1.705960 0.000000 
#    z 0.005570 0.000000 1.597970 
# 
# From -- ./inp_files/377785.got.cif
#   From: 2010.05.17/outbox.cif.g08.bks.cpg/sg12_189_cif.got.tgz:377785.got - 2010.06.03 13:09:07.
