data_PCOD9185426
_publ_section_title
;
Structure prediction by ZEFSAII (Michael W. Deem and Ramdas Pophale) SiO2 
 PCOD9185426
Probable space group: C 2/M
;
_chemical_formula_sum "Si O2"
_cell_formula_units_Z 52
_cell_length_a 22.954406
_cell_length_b 18.843863
_cell_length_c 15.410494
_cell_angle_alpha 90.000000
_cell_angle_beta 157.053712
_cell_angle_gamma 90.000000
_cell_volume 2598.783972
_symmetry_space_group_name_H-M "C 2/M"
_symmetry_group_IT_number 12
_symmetry_cell_setting 'monoclinic'
loop_
_space_group_symop_operation_xyz
x,y,z
-x,y,-z
-x,-y,-z
x,-y,z
1/2+x,1/2+y,z
1/2-x,1/2+y,-z
1/2-x,1/2-y,-z
1/2+x,1/2-y,z
loop_
_atom_site_type_symbol
_atom_site_label
_atom_site_fract_x
_atom_site_fract_y
_atom_site_fract_z
Si Si1 0.364134 0.260087 0.867040
Si Si2 0.425011 0.632307 0.261167
Si Si3 0.977943 0.000000 0.703264
Si Si4 0.131628 0.000000 0.255698
Si Si5 0.654286 0.000000 0.158533
Si Si6 0.270696 0.369876 0.221682
Si Si7 0.776751 0.651827 0.482581
Si Si8 0.966524 0.779651 0.740949
O O1 0.267225 0.202548 0.782112
O O2 0.285011 0.307526 0.687267
O O3 0.500000 0.225120 0.000000
O O4 0.431945 0.304305 0.039471
O O5 0.427148 0.567406 0.197810
O O6 0.568213 0.613227 0.516152
O O7 0.291130 0.637697 0.146334
O O8 0.461963 0.700230 0.252263
O O9 0.958616 0.000000 0.778650
O O10 0.806220 0.000000 0.427413
O O11 0.238902 0.929843 0.410005
O O12 0.000000 0.000000 0.000000
O O13 0.663973 0.068365 0.109449
O O14 0.500000 0.000000 0.000000
O O15 0.933190 0.695179 0.706312
O O16 0.685855 0.676920 0.444886
#
# Coordination Sequence:
#
# PCOD9185426 Si02
#       8
#     8   8   4   4   4   8   8   8
#     4  10  20  34  55  82 113 144 187 240 284 336
#     4  10  19  35  54  79 112 150 187 230 282 343
#     4  10  21  34  57  85 115 145 188 231 283 345
#     4  12  22  35  57  85 114 154 193 238 283 335
#     4  10  21  35  56  84 119 150 178 227 297 359
#     4  10  20  34  54  80 113 149 186 226 285 348
#     4  10  21  35  54  85 116 145 192 240 292 334
#     4  10  19  34  57  79 112 149 184 239 288 337
#
# _framework density 20.009359
#
# number of rings (size 3 to 8) (size 9 to 14) (size 15 to 20)
#    0.000    1.846    3.077    2.308    0.000    3.692 
#    0.000    0.000    0.000    0.000    0.000    2.154 
#    0.000    0.154    0.000    0.000    0.000    0.000 
#
# Total GULP energy -144739.613419 kJ/mol
# GULP energy per Si atom -5566.908208 kJ/mol
# Density = 1.996382 g / cm^3
# Si number density = 20.009359 Si / 1000 Ang^3
#
#
#
# Elastic Constant Matrix: (Units=GPa)
#
#
# Indices 1 2 3 4 5 6 
#
# 1 188.4411 56.9150 22.7530 0.0000 1.4807 0.0000
# 2 56.9150 125.9710 3.3929 0.0000 9.3389 0.0000
# 3 22.7530 3.3929 29.1715 0.0000 -9.3182 0.0000
# 4 0.0000 0.0000 0.0000 10.1014 0.0000 -4.8268
# 5 1.4807 9.3389 -9.3182 0.0000 30.8597 0.0000
# 6 0.0000 0.0000 0.0000 -4.8268 0.0000 -3.0403
#
#
#
# Elastic Compliance Matrix: (Units=1/GPa)
#
#
# Indices 1 2 3 4 5 6 
#
# 1 0.006822 -0.002859 -0.005331 0.000000 -0.001072 0.000000
# 2 -0.002859 0.009417 0.000297 0.000000 -0.002623 0.000000
# 3 -0.005331 0.000297 0.042562 0.000000 0.013018 0.000000
# 4 0.000000 0.000000 0.000000 0.056292 0.000000 -0.089369
# 5 -0.001072 -0.002623 0.013018 0.000000 0.037181 0.000000
# 6 0.000000 0.000000 0.000000 -0.089369 0.000000 -0.187032
#
#
# Mechanical properties :
#
#
# Convention : Reuss Voigt Hill
#
# Bulk Modulus (GPa) = 23.24808 56.63394 39.94101
# Shear Modulus (GPa) = -1079.14489 24.95235 -527.09627
#
# Velocity S-wave (km/s) = -23.24846 3.53517 -16.24798
# Velocity P-wave (km/s) = 26.62725 6.71032 18.22062
#
# Compressibility (1/GPa) = 0.04301431
#
# Stress axis : x y z
#
# Youngs Moduli (GPa) = 146.57505 106.19454 23.49528
#
# Poissons Ratio (x) = 0.30365 0.12526
# Poissons Ratio (y) = 0.41912 -0.00698
# Poissons Ratio (z) = 0.78141 -0.03156
#
# Static dielectric constant tensor:
#      x y z
#    x 1.706560 0.000000 0.007560 
#    y 0.000000 1.766480 0.000000 
#    z 0.007560 0.000000 1.835600 
# 
# From -- ./inp_files/234532.got.cif
#   From: 2010.05.17/outbox.cif.g08.bks.cpg/sg12_118_cif.got.tgz:234532.got - 2010.06.03 13:09:07.
