data_PCOD9185987
_publ_section_title
;
Structure prediction by ZEFSAII (Michael W. Deem and Ramdas Pophale) SiO2 
 PCOD9185987
Probable space group: C 2/M
;
_chemical_formula_sum "Si O2"
_cell_formula_units_Z 64
_cell_length_a 8.317831
_cell_length_b 24.089676
_cell_length_c 28.712563
_cell_angle_alpha 90.000000
_cell_angle_beta 146.871142
_cell_angle_gamma 90.000000
_cell_volume 3144.286492
_symmetry_space_group_name_H-M "C 2/M"
_symmetry_group_IT_number 12
_symmetry_cell_setting 'monoclinic'
loop_
_space_group_symop_operation_xyz
x,y,z
-x,y,-z
-x,-y,-z
x,-y,z
1/2+x,1/2+y,z
1/2-x,1/2+y,-z
1/2-x,1/2-y,-z
1/2+x,1/2-y,z
loop_
_atom_site_type_symbol
_atom_site_label
_atom_site_fract_x
_atom_site_fract_y
_atom_site_fract_z
Si Si1 0.925660 0.158574 0.036807
Si Si2 0.980932 0.936276 0.550347
Si Si3 0.295920 0.627998 0.312331
Si Si4 0.490703 0.777606 0.804722
Si Si5 0.985114 0.938151 0.782548
Si Si6 0.294024 0.937220 0.383043
Si Si7 0.713023 0.436204 0.159158
Si Si8 0.203069 0.675792 0.142866
O O1 0.173342 0.199860 0.116733
O O2 0.972148 0.100853 0.074586
O O3 0.593578 0.179946 0.959366
O O4 0.000000 0.151630 0.000000
O O5 0.634862 0.932245 0.478324
O O6 0.000000 0.927438 0.500000
O O7 0.157028 0.892458 0.623736
O O8 0.080128 0.000000 0.584182
O O9 0.587857 0.608524 0.356287
O O10 0.202330 0.691434 0.281178
O O11 0.027017 0.592161 0.225861
O O12 0.526910 0.711703 0.811442
O O13 0.364065 0.799115 0.822721
O O14 0.213209 0.888351 0.832494
O O15 0.751902 0.933651 0.683873
O O16 0.843728 0.933578 0.799239
O O17 0.118037 0.000000 0.811087
O O18 0.197076 0.000000 0.373393
O O19 0.709445 0.500000 0.143766
#
# Coordination Sequence:
#
# PCOD9185987 Si02
#       8
#     8   8   8   8   8   8   8   8
#     4   9  21  39  57  86 119 152 209 256 305 359
#     4  10  20  34  57  92 130 166 203 247 297 355
#     4  11  20  36  57  90 121 160 206 249 297 358
#     4  10  23  39  62  88 115 158 203 258 303 358
#     4  10  22  39  60  87 122 159 199 252 309 367
#     4  10  19  34  58  88 121 160 201 247 297 350
#     4  10  21  36  56  86 124 164 200 247 314 371
#     4  11  22  42  62  87 117 157 206 256 304 366
#
# _framework density 20.354378000000001
#
# number of rings (size 3 to 8) (size 9 to 14) (size 15 to 20)
#    0.000    1.875    1.250    2.625    3.500    4.250 
#    0.000    1.250    0.000    0.750    0.000    0.000 
#    0.000    0.000    0.000    0.000    0.000    0.000 
#
# Total GULP energy -178805.283070 kJ/mol
# GULP energy per Si atom -5587.665096 kJ/mol
# Density = 2.030805 g / cm^3
# Si number density = 20.354378 Si / 1000 Ang^3
#
#
#
# Elastic Constant Matrix: (Units=GPa)
#
#
# Indices 1 2 3 4 5 6 
#
# 1 52.3735 24.8492 10.9340 0.0109 -4.0152 0.0081
# 2 24.8492 92.3342 26.0646 0.0121 3.0067 0.0145
# 3 10.9340 26.0646 72.2188 0.0100 -5.8266 0.0205
# 4 0.0109 0.0121 0.0100 28.4674 0.0032 -1.2286
# 5 -4.0152 3.0067 -5.8266 0.0032 27.4797 0.0081
# 6 0.0081 0.0145 0.0205 -1.2286 0.0081 23.0499
#
#
#
# Elastic Compliance Matrix: (Units=1/GPa)
#
#
# Indices 1 2 3 4 5 6 
#
# 1 0.022363 -0.005865 -0.000970 -0.000006 0.003704 -0.000005
# 2 -0.005865 0.013739 -0.004335 -0.000002 -0.003279 -0.000002
# 3 -0.000970 -0.004335 0.015856 -0.000004 0.003695 -0.000013
# 4 -0.000006 -0.000002 -0.000004 0.035209 -0.000006 0.001877
# 5 0.003704 -0.003279 0.003695 -0.000006 0.038074 -0.000016
# 6 -0.000005 -0.000002 -0.000013 0.001877 -0.000016 0.043484
#
#
# Mechanical properties :
#
#
# Convention : Reuss Voigt Hill
#
# Bulk Modulus (GPa) = 33.76386 37.84692 35.80539
# Shear Modulus (GPa) = 24.88318 26.13798 25.51058
#
# Velocity S-wave (km/s) = 3.50022 3.58738 3.54407
# Velocity P-wave (km/s) = 5.74103 5.98276 5.86314
#
# Compressibility (1/GPa) = 0.02961747
#
# Stress axis : x y z
#
# Youngs Moduli (GPa) = 44.71700 72.78429 63.06591
#
# Poissons Ratio (x) = 0.42689 0.06119
# Poissons Ratio (y) = 0.26227 0.27341
# Poissons Ratio (z) = 0.04338 0.31554
#
# Static dielectric constant tensor:
#      x y z
#    x 1.765430 0.000000 -0.008640 
#    y 0.000000 1.732120 0.000000 
#    z -0.008640 0.000000 1.714000 
# 
# From -- ./inp_files/373301.got.cif
#   From: 2010.05.17/outbox.cif.g08.bks.cpg/sg12_187_cif.got.tgz:373301.got - 2010.06.03 13:09:07.
