data_PCOD9185529
_publ_section_title
;
Structure prediction by ZEFSAII (Michael W. Deem and Ramdas Pophale) SiO2 
 PCOD9185529
Probable space group: C 2/M
;
_chemical_formula_sum "Si O2"
_cell_formula_units_Z 48
_cell_length_a 22.753615
_cell_length_b 13.699678
_cell_length_c 26.181814
_cell_angle_alpha 90.000000
_cell_angle_beta 159.280325
_cell_angle_gamma 90.000000
_cell_volume 2887.443374
_symmetry_space_group_name_H-M "C 2/M"
_symmetry_group_IT_number 12
_symmetry_cell_setting 'monoclinic'
loop_
_space_group_symop_operation_xyz
x,y,z
-x,y,-z
-x,-y,-z
x,-y,z
1/2+x,1/2+y,z
1/2-x,1/2+y,-z
1/2-x,1/2-y,-z
1/2+x,1/2-y,z
loop_
_atom_site_type_symbol
_atom_site_label
_atom_site_fract_x
_atom_site_fract_y
_atom_site_fract_z
Si Si1 0.996719 0.702162 0.889150
Si Si2 0.923306 0.783772 0.664172
Si Si3 0.010066 0.112657 0.834319
Si Si4 0.319333 0.615851 0.201802
Si Si5 0.402581 0.888263 0.136571
Si Si6 0.163821 0.884020 0.664371
O O1 0.826186 0.671011 0.776624
O O2 0.992660 0.814361 0.867688
O O3 0.025934 0.642027 0.860319
O O4 0.152568 0.673625 0.051006
O O5 0.750000 0.750000 0.500000
O O6 0.905000 0.847030 0.701094
O O7 0.031785 0.845056 0.712242
O O8 0.025882 0.688007 0.764776
O O9 0.974509 0.000000 0.816595
O O10 0.202944 0.120422 0.973215
O O11 0.293105 0.500000 0.171240
O O12 0.358289 0.629985 0.293101
O O13 0.445364 0.000000 0.183165
O O14 0.000000 0.854575 0.500000
O O15 0.189841 0.000000 0.676863
#
# Coordination Sequence:
#
# PCOD9185529 Si02
#       6
#     8   8   8   8   8   8
#     4  11  19  36  59  82 107 146 186 225 273 328
#     4  11  22  34  53  85 117 148 179 222 281 332
#     4  10  20  37  59  83 112 145 184 231 274 328
#     4  11  21  36  57  82 113 145 185 228 272 330
#     4  10  19  34  57  82 111 143 183 227 272 330
#     4  10  23  37  54  82 112 145 183 228 281 329
#
# _framework density 16.623702999999999
#
# number of rings (size 3 to 8) (size 9 to 14) (size 15 to 20)
#    0.000    1.500    3.333    3.500    4.667    2.667 
#    0.000    0.000    0.000    3.500    0.000    0.000 
#    0.000    0.000    0.000    0.000    0.000    0.000 
#
# Total GULP energy -134016.360266 kJ/mol
# GULP energy per Si atom -5584.015011 kJ/mol
# Density = 1.658587 g / cm^3
# Si number density = 16.623703 Si / 1000 Ang^3
#
#
#
# Elastic Constant Matrix: (Units=GPa)
#
#
# Indices 1 2 3 4 5 6 
#
# 1 58.9553 35.0651 34.8007 -0.0016 -14.9071 -0.0007
# 2 35.0651 114.7774 45.2662 -0.0057 -18.8725 -0.0015
# 3 34.8007 45.2662 113.8280 -0.0038 -18.7032 -0.0012
# 4 -0.0016 -0.0057 -0.0038 21.5455 -0.0022 1.5054
# 5 -14.9071 -18.8725 -18.7032 -0.0022 20.4217 -0.0003
# 6 -0.0007 -0.0015 -0.0012 1.5054 -0.0003 23.9072
#
#
#
# Elastic Compliance Matrix: (Units=1/GPa)
#
#
# Indices 1 2 3 4 5 6 
#
# 1 0.024468 -0.004159 -0.004148 0.000001 0.010218 0.000000
# 2 -0.004159 0.011913 -0.002538 0.000003 0.005649 0.000000
# 3 -0.004148 -0.002538 0.011983 0.000002 0.005602 0.000000
# 4 0.000001 0.000003 0.000002 0.046619 0.000010 -0.002935
# 5 0.010218 0.005649 0.005602 0.000010 0.066777 0.000001
# 6 0.000000 0.000000 0.000000 -0.002935 0.000001 0.042013
#
#
# Mechanical properties :
#
#
# Convention : Reuss Voigt Hill
#
# Bulk Modulus (GPa) = 37.48866 57.53608 47.51237
# Shear Modulus (GPa) = 21.33534 24.67010 23.00272
#
# Velocity S-wave (km/s) = 3.58638 3.85649 3.72389
# Velocity P-wave (km/s) = 6.30475 7.38350 6.86534
#
# Compressibility (1/GPa) = 0.02667473
#
# Stress axis : x y z
#
# Youngs Moduli (GPa) = 40.87001 83.94335 83.45296
#
# Poissons Ratio (x) = 0.34913 0.34613
# Poissons Ratio (y) = 0.16998 0.21177
# Poissons Ratio (z) = 0.16951 0.21302
#
# Static dielectric constant tensor:
#      x y z
#    x 1.539910 0.000000 -0.014320 
#    y 0.000000 1.563310 0.000000 
#    z -0.014320 0.000000 1.552760 
# 
# From -- ./inp_files/73612.got.cif
#   From: 2010.05.17/outbox.cif.g08.bks.cpg/sg12_37_cif.got.tgz:73612.got - 2010.06.03 13:09:07.
