data_PCOD9185507
_publ_section_title
;
Structure prediction by ZEFSAII (Michael W. Deem and Ramdas Pophale) SiO2 
 PCOD9185507
Probable space group: C 2/M
;
_chemical_formula_sum "Si O2"
_cell_formula_units_Z 56
_cell_length_a 21.366905
_cell_length_b 7.582573
_cell_length_c 31.405730
_cell_angle_alpha 90.000000
_cell_angle_beta 150.000020
_cell_angle_gamma 90.000000
_cell_volume 2544.115674
_symmetry_space_group_name_H-M "C 2/M"
_symmetry_group_IT_number 12
_symmetry_cell_setting 'monoclinic'
loop_
_space_group_symop_operation_xyz
x,y,z
-x,y,-z
-x,-y,-z
x,-y,z
1/2+x,1/2+y,z
1/2-x,1/2+y,-z
1/2-x,1/2-y,-z
1/2+x,1/2-y,z
loop_
_atom_site_type_symbol
_atom_site_label
_atom_site_fract_x
_atom_site_fract_y
_atom_site_fract_z
Si Si1 0.397579 0.795357 0.972904
Si Si2 0.751741 0.786193 0.566844
Si Si3 0.727762 0.786038 0.799729
Si Si4 0.386374 0.302148 0.063363
Si Si5 0.158475 0.783623 0.221161
Si Si6 0.453650 0.795161 0.620222
Si Si7 0.643100 0.214814 0.592366
O O1 0.272049 0.782765 0.871173
O O2 0.428083 0.000000 0.998748
O O3 0.500000 0.719809 0.000000
O O4 0.385555 0.706095 0.011423
O O5 0.637205 0.720982 0.469635
O O6 0.877227 0.718001 0.619031
O O7 0.723784 0.737067 0.598469
O O8 0.755603 0.000000 0.566657
O O9 0.818630 0.734133 0.814490
O O10 0.590553 0.720045 0.706345
O O11 0.726675 0.000000 0.801495
O O12 0.399447 0.500000 0.086643
O O13 0.521267 0.217497 0.154865
O O14 0.250000 0.250000 0.000000
O O15 0.277160 0.727530 0.319617
O O16 0.157994 0.000000 0.221923
O O17 0.471422 0.000000 0.618980
O O18 0.500000 0.274784 0.500000
O O19 0.636313 0.000000 0.590676
#
# Coordination Sequence:
#
# PCOD9185507 Si02
#       7
#     8   8   8   8   8   8   8
#     4  11  23  39  60  85 113 144 188 242 293 347
#     4   9  17  30  49  74 107 143 178 221 272 325
#     4  10  19  34  57  82 108 142 188 233 284 341
#     4  11  23  40  61  86 120 158 196 238 292 349
#     4   9  18  32  53  80 109 144 184 229 277 337
#     4   9  18  31  49  75 106 141 181 225 272 332
#     4   9  16  28  50  79 107 136 176 224 271 320
#
# _framework density 22.011578
#
# number of rings (size 3 to 8) (size 9 to 14) (size 15 to 20)
#    0.000    2.286    1.429    1.714    0.000    5.714 
#    0.000    1.429    0.000    2.143    0.000    0.000 
#    0.000    0.000    0.000    0.000    0.000    0.000 
#
# Total GULP energy -156235.607187 kJ/mol
# GULP energy per Si atom -5579.843114 kJ/mol
# Density = 2.196148 g / cm^3
# Si number density = 22.011578 Si / 1000 Ang^3
#
#
#
# Elastic Constant Matrix: (Units=GPa)
#
#
# Indices 1 2 3 4 5 6 
#
# 1 63.9750 -11.1043 41.4814 0.0054 5.9861 -0.0038
# 2 -11.1043 47.2377 -1.4641 0.0009 5.0370 0.0004
# 3 41.4814 -1.4641 125.4539 0.0022 19.9186 -0.0018
# 4 0.0054 0.0009 0.0022 91.0936 -0.0025 -46.7544
# 5 5.9861 5.0370 19.9186 -0.0025 38.9962 0.0020
# 6 -0.0038 0.0004 -0.0018 -46.7544 0.0020 51.2696
#
#
#
# Elastic Compliance Matrix: (Units=1/GPa)
#
#
# Indices 1 2 3 4 5 6 
#
# 1 0.020894 0.004738 -0.006798 -0.000001 -0.000347 0.000001
# 2 0.004738 0.022605 -0.000788 -0.000001 -0.003245 0.000000
# 3 -0.006798 -0.000788 0.010913 0.000000 -0.004429 0.000000
# 4 -0.000001 -0.000001 0.000000 0.020637 0.000001 0.018819
# 5 -0.000347 -0.003245 -0.004429 0.000001 0.028378 -0.000001
# 6 0.000001 0.000000 0.000000 0.018819 -0.000001 0.036667
#
#
# Mechanical properties :
#
#
# Convention : Reuss Voigt Hill
#
# Bulk Modulus (GPa) = 20.52724 32.72141 26.62432
# Shear Modulus (GPa) = 30.85889 50.12213 40.49051
#
# Velocity S-wave (km/s) = 3.74831 4.77705 4.29360
# Velocity P-wave (km/s) = 5.29896 6.73237 6.05821
#
# Compressibility (1/GPa) = 0.04871577
#
# Stress axis : x y z
#
# Youngs Moduli (GPa) = 47.86086 44.23828 91.63489
#
# Poissons Ratio (x) = -0.20960 0.62295
# Poissons Ratio (y) = -0.22676 0.07217
# Poissons Ratio (z) = 0.32537 0.03484
#
# Static dielectric constant tensor:
#      x y z
#    x 1.782000 0.000000 0.029610 
#    y 0.000000 1.845890 0.000000 
#    z 0.029610 0.000000 1.830670 
# 
# From -- ./inp_files/329464.got.cif
#   From: 2010.05.17/outbox.cif.g08.bks.cpg/sg12_165_cif.got.tgz:329464.got - 2010.06.03 13:09:07.
