data_PCOD9185810
_publ_section_title
;
Structure prediction by ZEFSAII (Michael W. Deem and Ramdas Pophale) SiO2 
 PCOD9185810
Probable space group: C 2/M
;
_chemical_formula_sum "Si O2"
_cell_formula_units_Z 50
_cell_length_a 30.276957
_cell_length_b 7.480774
_cell_length_c 30.996049
_cell_angle_alpha 90.000000
_cell_angle_beta 161.281218
_cell_angle_gamma 90.000000
_cell_volume 2253.027980
_symmetry_space_group_name_H-M "C 2/M"
_symmetry_group_IT_number 12
_symmetry_cell_setting 'monoclinic'
loop_
_space_group_symop_operation_xyz
x,y,z
-x,y,-z
-x,-y,-z
x,-y,z
1/2+x,1/2+y,z
1/2-x,1/2+y,-z
1/2-x,1/2-y,-z
1/2+x,1/2-y,z
loop_
_atom_site_type_symbol
_atom_site_label
_atom_site_fract_x
_atom_site_fract_y
_atom_site_fract_z
Si Si1 0.608092 0.294203 0.310853
Si Si2 0.453855 0.704702 0.411968
Si Si3 0.500000 0.000000 0.000000
Si Si4 0.660140 0.783495 0.990626
Si Si5 0.532660 0.716338 0.735584
Si Si6 0.203812 0.300898 0.127218
Si Si7 0.633798 0.792444 0.501633
O O1 0.649977 0.500000 0.357117
O O2 0.569866 0.216039 0.322090
O O3 0.730385 0.213884 0.395482
O O4 0.467396 0.290738 0.153741
O O5 0.500000 0.786058 0.500000
O O6 0.409176 0.500000 0.381052
O O7 0.325034 0.787653 0.267116
O O8 0.579748 0.703651 0.495080
O O9 0.422926 0.846971 0.958916
O O10 0.660242 0.724463 0.040931
O O11 0.809484 0.731345 0.110368
O O12 0.647185 0.000000 0.976758
O O13 0.528728 0.500000 0.732522
O O14 0.483180 0.778029 0.643134
O O15 0.263213 0.500000 0.169661
O O16 0.658056 0.000000 0.534783
#
# Coordination Sequence:
#
# PCOD9185810 Si02
#       7
#     8   8   2   8   8   8   8
#     4  10  23  38  53  84 120 154 192 237 289 340
#     4  10  20  37  61  86 110 143 194 236 284 343
#     4   8  16  28  54  76 118 140 172 238 290 332
#     4  10  19  34  58  83 114 147 190 239 290 337
#     4  10  20  38  62  81 112 152 196 247 282 337
#     4   8  16  32  51  81 113 139 175 230 287 329
#     4  11  23  38  57  83 119 156 190 236 290 344
#
# _framework density 22.192357000000001
#
# number of rings (size 3 to 8) (size 9 to 14) (size 15 to 20)
#    0.480    1.760    1.600    1.440    0.000    4.160 
#    0.000    0.000    0.000    0.000    0.000    3.360 
#    0.000    0.000    0.000    0.000    0.000    0.000 
#
# Total GULP energy -139231.265008 kJ/mol
# GULP energy per Si atom -5569.250600 kJ/mol
# Density = 2.214185 g / cm^3
# Si number density = 22.192357 Si / 1000 Ang^3
#
#
#
# Elastic Constant Matrix: (Units=GPa)
#
#
# Indices 1 2 3 4 5 6 
#
# 1 156.7769 -2.4559 26.1129 -0.0007 4.5177 -0.0008
# 2 -2.4559 63.5301 -8.7057 -0.0003 1.3718 0.0002
# 3 26.1129 -8.7057 54.2185 -0.0027 -1.6135 -0.0012
# 4 -0.0007 -0.0003 -0.0027 15.2042 -0.0005 13.2992
# 5 4.5177 1.3718 -1.6135 -0.0005 44.2308 -0.0021
# 6 -0.0008 0.0002 -0.0012 13.2992 -0.0021 57.4087
#
#
#
# Elastic Compliance Matrix: (Units=1/GPa)
#
#
# Indices 1 2 3 4 5 6 
#
# 1 0.006967 -0.000180 -0.003409 0.000000 -0.000830 0.000000
# 2 -0.000180 0.016107 0.002661 0.000001 -0.000384 0.000000
# 3 -0.003409 0.002661 0.020543 0.000004 0.001015 -0.000001
# 4 0.000000 0.000001 0.000004 0.082486 0.000000 -0.019109
# 5 -0.000830 -0.000384 0.001015 0.000000 0.022742 0.000001
# 6 0.000000 0.000000 -0.000001 -0.019109 0.000001 0.021846
#
#
# Mechanical properties :
#
#
# Convention : Reuss Voigt Hill
#
# Bulk Modulus (GPa) = 23.94528 33.82535 28.88531
# Shear Modulus (GPa) = 26.81430 40.67368 33.74399
#
# Velocity S-wave (km/s) = 3.47978 4.28574 3.90362
# Velocity P-wave (km/s) = 5.19216 6.30596 5.77597
#
# Compressibility (1/GPa) = 0.04176189
#
# Stress axis : x y z
#
# Youngs Moduli (GPa) = 143.52439 62.08636 48.67735
#
# Poissons Ratio (x) = 0.01117 0.16596
# Poissons Ratio (y) = 0.02582 -0.12955
# Poissons Ratio (z) = 0.48932 -0.16524
#
# Static dielectric constant tensor:
#      x y z
#    x 1.816250 0.000000 -0.006390 
#    y 0.000000 1.415860 0.000000 
#    z -0.006390 0.000000 1.825910 
# 
# From -- ./inp_files/384829.got.cif
#   From: 2010.05.17/outbox.cif.g08.bks.cpg/sg12_193_cif.got.tgz:384829.got - 2010.06.03 13:09:07.
