data_PCOD9185314
_publ_section_title
;
Structure prediction by ZEFSAII (Michael W. Deem and Ramdas Pophale) SiO2 
 PCOD9185314
Probable space group: C 2/M
;
_chemical_formula_sum "Si O2"
_cell_formula_units_Z 40
_cell_length_a 12.706182
_cell_length_b 16.764418
_cell_length_c 12.563124
_cell_angle_alpha 90.000000
_cell_angle_beta 59.330191
_cell_angle_gamma 90.000000
_cell_volume 2301.764236
_symmetry_space_group_name_H-M "C 2/M"
_symmetry_group_IT_number 12
_symmetry_cell_setting 'monoclinic'
loop_
_space_group_symop_operation_xyz
x,y,z
-x,y,-z
-x,-y,-z
x,-y,z
1/2+x,1/2+y,z
1/2-x,1/2+y,-z
1/2-x,1/2-y,-z
1/2+x,1/2-y,z
loop_
_atom_site_type_symbol
_atom_site_label
_atom_site_fract_x
_atom_site_fract_y
_atom_site_fract_z
Si Si1 0.494338 0.152963 0.841303
Si Si2 0.804700 0.593368 0.106875
Si Si3 0.162500 0.905672 0.839214
Si Si4 0.918884 0.163258 0.894900
Si Si5 0.063291 0.403965 0.358996
O O1 0.620802 0.136040 0.837148
O O2 0.451607 0.244036 0.874345
O O3 0.496672 0.129414 0.717312
O O4 0.393175 0.101500 0.957799
O O5 0.787057 0.500000 0.138810
O O6 0.678222 0.636051 0.142735
O O7 0.292393 0.884516 0.721451
O O8 0.046114 0.885017 0.826600
O O9 0.161864 0.000000 0.864726
O O10 0.141097 0.858003 0.959805
O O11 0.053139 0.500000 0.360820
O O12 0.000000 0.375667 0.500000
#
# Coordination Sequence:
#
# PCOD9185314 Si02
#       5
#     8   8   8   8   8
#     4  11  22  33  55  84 115 145 183 229 283 336
#     4  11  20  33  54  83 117 146 176 226 288 344
#     4  10  19  34  56  83 115 146 187 226 276 341
#     4  11  21  32  55  85 117 143 173 232 295 334
#     4  10  21  38  59  79 107 151 197 231 261 323
#
# _framework density 17.377974999999999
#
# number of rings (size 3 to 8) (size 9 to 14) (size 15 to 20)
#    0.000    1.400    2.000    7.800    2.800    0.000 
#    0.000    1.000    0.000    0.000    0.000    5.600 
#    0.000    0.000    0.000    0.000    0.000    0.000 
#
# Total GULP energy -111710.585885 kJ/mol
# GULP energy per Si atom -5585.529294 kJ/mol
# Density = 1.733842 g / cm^3
# Si number density = 17.377975 Si / 1000 Ang^3
#
#
#
# Elastic Constant Matrix: (Units=GPa)
#
#
# Indices 1 2 3 4 5 6 
#
# 1 189.0950 59.5682 70.0752 0.0000 -8.4768 0.0000
# 2 59.5682 100.3677 37.6614 0.0000 -6.9552 0.0000
# 3 70.0752 37.6614 113.4095 0.0000 7.3126 0.0000
# 4 0.0000 0.0000 0.0000 11.6989 0.0000 -2.5339
# 5 -8.4768 -6.9552 7.3126 0.0000 21.9894 0.0000
# 6 0.0000 0.0000 0.0000 -2.5339 0.0000 31.2438
#
#
#
# Elastic Compliance Matrix: (Units=1/GPa)
#
#
# Indices 1 2 3 4 5 6 
#
# 1 0.007890 -0.002885 -0.004143 0.000000 0.003507 0.000000
# 2 -0.002885 0.012992 -0.002785 0.000000 0.003924 0.000000
# 3 -0.004143 -0.002785 0.012735 0.000000 -0.006713 0.000000
# 4 0.000000 0.000000 0.000000 0.087007 0.000000 0.007056
# 5 0.003507 0.003924 -0.006713 0.000000 0.050302 0.000000
# 6 0.000000 0.000000 0.000000 0.007056 0.000000 0.032579
#
#
# Mechanical properties :
#
#
# Convention : Reuss Voigt Hill
#
# Bulk Modulus (GPa) = 71.47201 81.94243 76.70722
# Shear Modulus (GPa) = 21.94962 28.69090 25.32026
#
# Velocity S-wave (km/s) = 3.55783 4.06765 3.82125
# Velocity P-wave (km/s) = 7.62199 8.32565 7.98158
#
# Compressibility (1/GPa) = 0.01399149
#
# Stress axis : x y z
#
# Youngs Moduli (GPa) = 126.74749 76.96769 78.52178
#
# Poissons Ratio (x) = 0.22204 0.32532
# Poissons Ratio (y) = 0.36565 0.21868
# Poissons Ratio (z) = 0.52513 0.21435
#
# Static dielectric constant tensor:
#      x y z
#    x 1.621470 0.000000 -0.015450 
#    y 0.000000 1.599540 0.000000 
#    z -0.015450 0.000000 1.562500 
# 
# From -- ./inp_files/166479.got.cif
#   From: 2010.05.17/outbox.cif.g08.bks.cpg/sg12_84_cif.got.tgz:166479.got - 2010.06.03 13:09:07.
