data_PCOD9185596
_publ_section_title
;
Structure prediction by ZEFSAII (Michael W. Deem and Ramdas Pophale) SiO2 
 PCOD9185596
Probable space group: C 2/M
;
_chemical_formula_sum "Si O2"
_cell_formula_units_Z 28
_cell_length_a 13.559262
_cell_length_b 13.467689
_cell_length_c 7.904531
_cell_angle_alpha 90.000000
_cell_angle_beta 127.979744
_cell_angle_gamma 90.000000
_cell_volume 1137.777381
_symmetry_space_group_name_H-M "C 2/M"
_symmetry_group_IT_number 12
_symmetry_cell_setting 'monoclinic'
loop_
_space_group_symop_operation_xyz
x,y,z
-x,y,-z
-x,-y,-z
x,-y,z
1/2+x,1/2+y,z
1/2-x,1/2+y,-z
1/2-x,1/2-y,-z
1/2+x,1/2-y,z
loop_
_atom_site_type_symbol
_atom_site_label
_atom_site_fract_x
_atom_site_fract_y
_atom_site_fract_z
Si Si1 0.719494 0.666003 0.266785
Si Si2 0.223441 0.607517 0.301376
Si Si3 0.925113 0.893639 0.210378
Si Si4 0.000000 0.719583 0.500000
O O1 0.719926 0.616046 0.450140
O O2 0.671120 0.780501 0.225203
O O3 0.866908 0.665013 0.366372
O O4 0.637793 0.615033 0.037541
O O5 0.154882 0.500000 0.222652
O O6 0.319285 0.604627 0.245299
O O7 0.996252 0.793432 0.334990
O O8 0.991138 0.000000 0.293569
#
# Coordination Sequence:
#
# PCOD9185596 Si02
#       4
#     8   8   8   4
#     4  10  20  36  57  79 112 146 178 223 274 321
#     4   9  18  34  55  78 107 145 183 219 266 324
#     4  10  20  37  59  81 109 144 181 224 272 320
#     4  10  19  34  57  84 110 140 181 228 269 316
#
# _framework density 24.609383000000001
#
# number of rings (size 3 to 8) (size 9 to 14) (size 15 to 20)
#    0.000    2.286    0.000    4.714    0.000    1.143 
#    0.000   25.714    0.000   36.000    0.000    0.000 
#    0.000    0.000    0.000    0.000    0.000    0.000 
#
# Total GULP energy -78121.043900 kJ/mol
# GULP energy per Si atom -5580.074564 kJ/mol
# Density = 2.455337 g / cm^3
# Si number density = 24.609383 Si / 1000 Ang^3
#
#
#
# Elastic Constant Matrix: (Units=GPa)
#
#
# Indices 1 2 3 4 5 6 
#
# 1 106.9074 27.0262 20.7948 0.0000 -7.8405 0.0000
# 2 27.0262 129.2394 7.2543 0.0000 -7.7670 0.0000
# 3 20.7948 7.2543 117.6492 0.0000 -25.3033 0.0000
# 4 0.0000 0.0000 0.0000 20.3975 0.0000 10.3331
# 5 -7.8405 -7.7670 -25.3033 0.0000 31.2793 0.0000
# 6 0.0000 0.0000 0.0000 10.3331 0.0000 -4.5278
#
#
#
# Elastic Compliance Matrix: (Units=1/GPa)
#
#
# Indices 1 2 3 4 5 6 
#
# 1 0.010214 -0.002001 -0.001499 0.000000 0.000851 0.000000
# 2 -0.002001 0.008247 0.000215 0.000000 0.001720 0.000000
# 3 -0.001499 0.000215 0.010511 0.000000 0.008181 0.000000
# 4 0.000000 0.000000 0.000000 0.022738 0.000000 0.051892
# 5 0.000851 0.001720 0.008181 0.000000 0.039228 0.000000
# 6 0.000000 0.000000 0.000000 0.051892 0.000000 -0.102434
#
#
# Mechanical properties :
#
#
# Convention : Reuss Voigt Hill
#
# Bulk Modulus (GPa) = 44.63691 51.54962 48.09327
# Shear Modulus (GPa) = 1968.59405 29.34452 998.96928
#
# Velocity S-wave (km/s) = 28.31383 3.45688 20.16957
# Velocity P-wave (km/s) = 32.97082 6.07667 23.70655
#
# Compressibility (1/GPa) = 0.02240298
#
# Stress axis : x y z
#
# Youngs Moduli (GPa) = 97.90870 121.25250 95.13895
#
# Poissons Ratio (x) = 0.24257 0.14261
# Poissons Ratio (y) = 0.19587 -0.02046
# Poissons Ratio (z) = 0.14676 -0.02608
#
# Static dielectric constant tensor:
#      x y z
#    x 2.032480 0.000000 0.074920 
#    y 0.000000 1.963340 0.000000 
#    z 0.074920 0.000000 1.933970 
# 
# From -- ./inp_files/57309.got.cif
#   From: 2010.05.17/outbox.cif.g08.bks.cpg/sg12_29_cif.got.tgz:57309.got - 2010.06.03 13:09:07.
