data_PCOD9185424
_publ_section_title
;
Structure prediction by ZEFSAII (Michael W. Deem and Ramdas Pophale) SiO2 
 PCOD9185424
Probable space group: C 2/M
;
_chemical_formula_sum "Si O2"
_cell_formula_units_Z 56
_cell_length_a 19.784427
_cell_length_b 19.216710
_cell_length_c 8.948440
_cell_angle_alpha 90.000000
_cell_angle_beta 66.684720
_cell_angle_gamma 90.000000
_cell_volume 3124.307363
_symmetry_space_group_name_H-M "C 2/M"
_symmetry_group_IT_number 12
_symmetry_cell_setting 'monoclinic'
loop_
_space_group_symop_operation_xyz
x,y,z
-x,y,-z
-x,-y,-z
x,-y,z
1/2+x,1/2+y,z
1/2-x,1/2+y,-z
1/2-x,1/2-y,-z
1/2+x,1/2-y,z
loop_
_atom_site_type_symbol
_atom_site_label
_atom_site_fract_x
_atom_site_fract_y
_atom_site_fract_z
Si Si1 0.966782 0.421160 0.364321
Si Si2 0.695156 0.174071 0.887630
Si Si3 0.293260 0.075686 0.582509
Si Si4 0.921564 0.796867 0.494290
Si Si5 0.812912 0.298259 0.770705
Si Si6 0.052857 0.707119 0.819095
Si Si7 0.804266 0.080025 0.629255
O O1 0.989968 0.500000 0.298904
O O2 0.878403 0.421574 0.458275
O O3 0.982807 0.359400 0.234895
O O4 0.000000 0.407855 0.500000
O O5 0.749805 0.239939 0.828947
O O6 0.629367 0.182845 0.827771
O O7 0.746867 0.108580 0.803201
O O8 0.666674 0.176466 0.081858
O O9 0.281909 0.137406 0.706064
O O10 0.241607 0.082590 0.484575
O O11 0.280426 0.000000 0.663340
O O12 0.880718 0.736337 0.624279
O O13 0.931707 0.766219 0.318520
O O14 0.870826 0.865374 0.552694
O O15 0.000000 0.810194 0.500000
O O16 0.000000 0.730588 0.000000
O O17 0.826321 0.000000 0.637664
#
# Coordination Sequence:
#
# PCOD9185424 Si02
#       7
#     8   8   8   8   8   8   8
#     4  10  21  36  52  76 112 150 184 218 266 329
#     4  10  21  35  55  85 113 142 184 236 275 328
#     4  10  19  34  57  79 108 148 186 220 266 332
#     4  11  22  38  59  83 114 149 187 231 284 340
#     4  10  20  36  57  81 114 148 183 225 283 333
#     4  12  23  34  57  84 115 148 190 232 276 326
#     4  10  21  39  62  84 109 146 190 236 282 331
#
# _framework density 17.923973
#
# number of rings (size 3 to 8) (size 9 to 14) (size 15 to 20)
#    0.000    1.571    2.857    2.143    2.000    3.429 
#    0.000    0.000    0.000    0.429    0.000    0.000 
#    0.000    0.000    0.000    0.000    0.000    0.000 
#
# Total GULP energy -156305.755390 kJ/mol
# GULP energy per Si atom -5582.348407 kJ/mol
# Density = 1.788318 g / cm^3
# Si number density = 17.923973 Si / 1000 Ang^3
#
#
#
# Elastic Constant Matrix: (Units=GPa)
#
#
# Indices 1 2 3 4 5 6 
#
# 1 86.6590 35.0436 35.5628 0.0000 6.8292 0.0000
# 2 35.0436 125.7051 54.7819 0.0000 9.9888 0.0000
# 3 35.5628 54.7819 109.6051 0.0000 4.8524 0.0000
# 4 0.0000 0.0000 0.0000 8.6508 0.0000 10.8027
# 5 6.8292 9.9888 4.8524 0.0000 22.6327 0.0000
# 6 0.0000 0.0000 0.0000 10.8027 0.0000 23.7218
#
#
#
# Elastic Compliance Matrix: (Units=1/GPa)
#
#
# Indices 1 2 3 4 5 6 
#
# 1 0.014009 -0.002267 -0.003301 0.000000 -0.002519 0.000000
# 2 -0.002267 0.010808 -0.004529 0.000000 -0.003115 0.000000
# 3 -0.003301 -0.004529 0.012444 0.000000 0.000327 0.000000
# 4 0.000000 0.000000 0.000000 0.267996 0.000000 -0.122043
# 5 -0.002519 -0.003115 0.000327 0.000000 0.046249 0.000000
# 6 0.000000 0.000000 0.000000 -0.122043 0.000000 0.097733
#
#
# Mechanical properties :
#
#
# Convention : Reuss Voigt Hill
#
# Bulk Modulus (GPa) = 58.58796 63.63842 61.11319
# Shear Modulus (GPa) = 10.52363 24.10646 17.31505
#
# Velocity S-wave (km/s) = 2.42570 3.67130 3.11147
# Velocity P-wave (km/s) = 6.37207 7.31799 6.86135
#
# Compressibility (1/GPa) = 0.01706835
#
# Stress axis : x y z
#
# Youngs Moduli (GPa) = 71.38120 92.52283 80.36178
#
# Poissons Ratio (x) = 0.20972 0.26528
# Poissons Ratio (y) = 0.16180 0.36393
# Poissons Ratio (z) = 0.23563 0.41900
#
# Static dielectric constant tensor:
#      x y z
#    x 1.596580 0.000000 -0.007080 
#    y 0.000000 1.623710 0.000000 
#    z -0.007080 0.000000 1.622070 
# 
# From -- ./inp_files/87830.got.cif
#   From: 2010.05.17/outbox.cif.g08.bks.cpg/sg12_44_cif.got.tgz:87830.got - 2010.06.03 13:09:07.
