data_PCOD9185893
_publ_section_title
;
Structure prediction by ZEFSAII (Michael W. Deem and Ramdas Pophale) SiO2 
 PCOD9185893
Probable space group: C 2/M
;
_chemical_formula_sum "Si O2"
_cell_formula_units_Z 46
_cell_length_a 13.339016
_cell_length_b 13.085013
_cell_length_c 12.902252
_cell_angle_alpha 90.000000
_cell_angle_beta 96.068930
_cell_angle_gamma 90.000000
_cell_volume 2239.353151
_symmetry_space_group_name_H-M "C 2/M"
_symmetry_group_IT_number 12
_symmetry_cell_setting 'monoclinic'
loop_
_space_group_symop_operation_xyz
x,y,z
-x,y,-z
-x,-y,-z
x,-y,z
1/2+x,1/2+y,z
1/2-x,1/2+y,-z
1/2-x,1/2-y,-z
1/2+x,1/2-y,z
loop_
_atom_site_type_symbol
_atom_site_label
_atom_site_fract_x
_atom_site_fract_y
_atom_site_fract_z
Si Si1 0.112304 0.670577 0.888216
Si Si2 0.836536 0.829427 0.830241
Si Si3 0.000000 0.159157 0.000000
Si Si4 0.000000 0.500000 0.000000
Si Si5 0.889842 0.331142 0.530316
Si Si6 0.918911 0.383320 0.765992
Si Si7 0.819593 0.113793 0.589446
O O1 0.226958 0.664545 0.868499
O O2 0.078598 0.588253 0.968156
O O3 0.037286 0.645234 0.783939
O O4 0.075960 0.776249 0.934354
O O5 0.865576 0.708338 0.822391
O O6 0.834519 0.872052 0.713758
O O7 0.921021 0.884526 0.908881
O O8 0.880255 0.377424 0.644828
O O9 0.875746 0.208480 0.540611
O O10 0.798377 0.371627 0.451033
O O11 0.000000 0.355854 0.500000
O O12 0.910948 0.500000 0.808841
O O13 0.851537 0.000000 0.561043
#
# Coordination Sequence:
#
# PCOD9185893 Si02
#       7
#     8   8   4   2   8   8   8
#     4  10  19  34  58  85 117 149 194 243 300 348
#     4  10  21  36  59  84 117 161 194 244 302 345
#     4   9  20  37  53  80 115 152 199 244 290 348
#     4  10  20  32  56  94 106 144 202 236 280 360
#     4  10  21  37  59  89 118 153 194 242 295 341
#     4  10  20  36  58  89 121 148 198 248 287 359
#     4  10  22  38  58  86 118 153 199 235 289 360
#
# _framework density 20.541646
#
# number of rings (size 3 to 8) (size 9 to 14) (size 15 to 20)
#    0.000    2.087    0.870    2.087    1.217    3.130 
#    0.000    0.435    0.000   21.913    0.000    1.826 
#    0.000    0.000    0.000    0.000    0.000    0.000 
#
# Total GULP energy -128101.775604 kJ/mol
# GULP energy per Si atom -5569.642418 kJ/mol
# Density = 2.049489 g / cm^3
# Si number density = 20.541646 Si / 1000 Ang^3
#
#
#
# Elastic Constant Matrix: (Units=GPa)
#
#
# Indices 1 2 3 4 5 6 
#
# 1 98.7138 16.3542 14.5464 0.0000 15.0189 0.0000
# 2 16.3542 113.0637 11.3893 0.0000 3.1414 0.0000
# 3 14.5464 11.3893 114.7122 0.0000 40.7414 0.0000
# 4 0.0000 0.0000 0.0000 19.3547 0.0000 0.7109
# 5 15.0189 3.1414 40.7414 0.0000 33.6539 0.0000
# 6 0.0000 0.0000 0.0000 0.7109 0.0000 3.6954
#
#
#
# Elastic Compliance Matrix: (Units=1/GPa)
#
#
# Indices 1 2 3 4 5 6 
#
# 1 0.011149 -0.001532 0.000798 0.000000 -0.005798 0.000000
# 2 -0.001532 0.009148 -0.001146 0.000000 0.001218 0.000000
# 3 0.000798 -0.001146 0.015470 0.000000 -0.018977 0.000000
# 4 0.000000 0.000000 0.000000 0.052035 0.000000 -0.010010
# 5 -0.005798 0.001218 -0.018977 0.000000 0.055161 0.000000
# 6 0.000000 0.000000 0.000000 -0.010010 0.000000 0.272534
#
#
# Mechanical properties :
#
#
# Convention : Reuss Voigt Hill
#
# Bulk Modulus (GPa) = 31.24515 45.67440 38.45978
# Shear Modulus (GPa) = 11.62991 30.28746 20.95869
#
# Velocity S-wave (km/s) = 2.38200 3.84401 3.19768
# Velocity P-wave (km/s) = 4.77586 6.47960 5.69184
#
# Compressibility (1/GPa) = 0.03200497
#
# Stress axis : x y z
#
# Youngs Moduli (GPa) = 89.69672 109.31588 64.64106
#
# Poissons Ratio (x) = 0.16746 -0.05155
# Poissons Ratio (y) = 0.13740 0.07411
# Poissons Ratio (z) = -0.07154 0.12533
#
# Static dielectric constant tensor:
#      x y z
#    x 1.653460 0.000000 0.035440 
#    y 0.000000 1.762990 0.000000 
#    z 0.035440 0.000000 1.732690 
# 
# From -- ./inp_files/204608.got.cif
#   From: 2010.05.17/outbox.cif.g08.bks.cpg/sg12_103_cif.got.tgz:204608.got - 2010.06.03 13:09:07.
