data_PCOD9185054
_publ_section_title
;
Structure prediction by ZEFSAII (Michael W. Deem and Ramdas Pophale) SiO2 
 PCOD9185054
Probable space group: C 2/M
;
_chemical_formula_sum "Si O2"
_cell_formula_units_Z 56
_cell_length_a 19.678725
_cell_length_b 19.319553
_cell_length_c 13.172175
_cell_angle_alpha 90.000000
_cell_angle_beta 143.632308
_cell_angle_gamma 90.000000
_cell_volume 2969.480854
_symmetry_space_group_name_H-M "C 2/M"
_symmetry_group_IT_number 12
_symmetry_cell_setting 'monoclinic'
loop_
_space_group_symop_operation_xyz
x,y,z
-x,y,-z
-x,-y,-z
x,-y,z
1/2+x,1/2+y,z
1/2-x,1/2+y,-z
1/2-x,1/2-y,-z
1/2+x,1/2-y,z
loop_
_atom_site_type_symbol
_atom_site_label
_atom_site_fract_x
_atom_site_fract_y
_atom_site_fract_z
Si Si1 0.924215 0.732331 0.643505
Si Si2 0.847890 0.777350 0.191247
Si Si3 0.737505 0.717335 0.257602
Si Si4 0.952092 0.076504 0.327835
Si Si5 0.661777 0.386167 0.434789
Si Si6 0.362981 0.424348 0.826926
Si Si7 0.602069 0.844384 0.188246
O O1 0.822160 0.703238 0.452934
O O2 0.876717 0.806122 0.625025
O O3 0.949119 0.683533 0.767740
O O4 0.033001 0.746015 0.704512
O O5 0.812831 0.751062 0.259724
O O6 0.866154 0.859877 0.208418
O O7 0.750000 0.750000 0.000000
O O8 0.681968 0.643145 0.167676
O O9 0.646612 0.775983 0.181385
O O10 0.000000 0.083765 0.500000
O O11 0.059985 0.082772 0.381116
O O12 0.900910 0.000000 0.255082
O O13 0.667036 0.418017 0.329070
O O14 0.782532 0.385893 0.641123
O O15 0.323191 0.500000 0.816454
O O16 0.500000 0.422505 0.000000
O O17 0.500000 0.877788 0.000000
#
# Coordination Sequence:
#
# PCOD9185054 Si02
#       7
#     8   8   8   8   8   8   8
#     4  10  19  34  55  83 114 156 193 247 299 346
#     4  11  23  35  57  89 120 151 199 252 299 352
#     4  11  20  37  56  84 120 153 199 254 293 352
#     4  10  21  38  60  85 118 157 193 242 311 365
#     4  10  19  36  56  87 119 152 196 241 302 352
#     4  11  23  36  58  88 118 157 199 245 301 355
#     4  11  19  31  57  87 117 151 195 249 300 346
#
# _framework density 18.858515000000001
#
# number of rings (size 3 to 8) (size 9 to 14) (size 15 to 20)
#    0.000    1.429    2.857    5.571    4.000    0.000 
#    0.000    0.000    0.000    4.286    0.000    0.000 
#    0.000    1.714    0.000    0.000    0.000    0.000 
#
# Total GULP energy -156314.195001 kJ/mol
# GULP energy per Si atom -5582.649821 kJ/mol
# Density = 1.881559 g / cm^3
# Si number density = 18.858515 Si / 1000 Ang^3
#
#
#
# Elastic Constant Matrix: (Units=GPa)
#
#
# Indices 1 2 3 4 5 6 
#
# 1 92.0359 27.8485 7.0787 0.0000 6.5390 0.0000
# 2 27.8485 110.1197 31.7356 0.0000 13.4087 0.0000
# 3 7.0787 31.7356 94.0725 0.0000 -0.6531 0.0000
# 4 0.0000 0.0000 0.0000 -28.2006 0.0000 -18.7484
# 5 6.5390 13.4087 -0.6531 0.0000 23.8497 0.0000
# 6 0.0000 0.0000 0.0000 -18.7484 0.0000 7.7843
#
#
#
# Elastic Compliance Matrix: (Units=1/GPa)
#
#
# Indices 1 2 3 4 5 6 
#
# 1 0.011828 -0.002801 0.000043 0.000000 -0.001667 0.000000
# 2 -0.002801 0.011577 -0.003735 0.000000 -0.005843 0.000000
# 3 0.000043 -0.003735 0.011904 0.000000 0.002414 0.000000
# 4 0.000000 0.000000 0.000000 -0.013632 0.000000 -0.032833
# 5 -0.001667 -0.005843 0.002414 0.000000 0.045738 0.000000
# 6 0.000000 0.000000 0.000000 -0.032833 0.000000 0.049386
#
#
# Mechanical properties :
#
#
# Convention : Reuss Voigt Hill
#
# Bulk Modulus (GPa) = 44.79645 47.72819 46.26232
# Shear Modulus (GPa) = 36.43585 15.99103 26.21344
#
# Velocity S-wave (km/s) = 4.40029 2.91511 3.73232
# Velocity P-wave (km/s) = 7.04431 6.05756 6.56949
#
# Compressibility (1/GPa) = 0.02232320
#
# Stress axis : x y z
#
# Youngs Moduli (GPa) = 84.54604 86.37567 84.00696
#
# Poissons Ratio (x) = 0.24191 -0.00363
# Poissons Ratio (y) = 0.23678 0.31381
# Poissons Ratio (z) = -0.00365 0.32265
#
# Static dielectric constant tensor:
#      x y z
#    x 1.699420 0.000000 -0.039170 
#    y 0.000000 1.674520 0.000000 
#    z -0.039170 0.000000 1.641410 
# 
# From -- ./inp_files/234706.got.cif
#   From: 2010.05.17/outbox.cif.g08.bks.cpg/sg12_118_cif.got.tgz:234706.got - 2010.06.03 13:09:07.
