data_PCOD9185092
_publ_section_title
;
Structure prediction by ZEFSAII (Michael W. Deem and Ramdas Pophale) SiO2 
 PCOD9185092
Probable space group: C 2/M
;
_chemical_formula_sum "Si O2"
_cell_formula_units_Z 40
_cell_length_a 10.944254
_cell_length_b 24.474512
_cell_length_c 13.914863
_cell_angle_alpha 90.000000
_cell_angle_beta 32.892084
_cell_angle_gamma 90.000000
_cell_volume 2024.070846
_symmetry_space_group_name_H-M "C 2/M"
_symmetry_group_IT_number 12
_symmetry_cell_setting 'monoclinic'
loop_
_space_group_symop_operation_xyz
x,y,z
-x,y,-z
-x,-y,-z
x,-y,z
1/2+x,1/2+y,z
1/2-x,1/2+y,-z
1/2-x,1/2-y,-z
1/2+x,1/2-y,z
loop_
_atom_site_type_symbol
_atom_site_label
_atom_site_fract_x
_atom_site_fract_y
_atom_site_fract_z
Si Si1 0.479632 0.640268 0.281231
Si Si2 0.709395 0.561289 0.434312
Si Si3 0.758000 0.252586 0.110943
Si Si4 0.906231 0.715322 0.467392
Si Si5 0.879415 0.434965 0.977136
O O1 0.363421 0.605350 0.440877
O O2 0.638294 0.689541 0.213116
O O3 0.260728 0.669280 0.379255
O O4 0.653593 0.600151 0.113156
O O5 0.500000 0.558640 0.500000
O O6 0.736036 0.500000 0.458147
O O7 0.934302 0.575197 0.227252
O O8 0.613910 0.204948 0.258355
O O9 0.750000 0.250000 0.000000
O O10 0.000000 0.252213 0.000000
O O11 0.750000 0.750000 0.500000
O O12 0.000000 0.745145 0.500000
O O13 0.829005 0.500000 0.012652
O O14 0.000000 0.422031 0.000000
#
# Coordination Sequence:
#
# PCOD9185092 Si02
#       5
#     8   8   8   8   8
#     4  11  22  35  61  86 120 159 208 251 318 370
#     4  10  20  33  55  89 131 166 203 257 315 375
#     4  11  24  40  61  88 122 163 210 261 315 377
#     4  10  23  44  63  89 125 164 209 265 320 379
#     4  10  19  34  55  88 128 164 205 257 314 375
#
# _framework density 19.762153999999999
#
# number of rings (size 3 to 8) (size 9 to 14) (size 15 to 20)
#    0.000    1.600    2.000    3.600    2.800    3.200 
#    0.000    0.000    0.000    2.400    0.000    2.800 
#    0.000    0.000    0.000    0.000    0.000    0.000 
#
# Total GULP energy -111391.733571 kJ/mol
# GULP energy per Si atom -5569.586679 kJ/mol
# Density = 1.971717 g / cm^3
# Si number density = 19.762154 Si / 1000 Ang^3
#
#
#
# Elastic Constant Matrix: (Units=GPa)
#
#
# Indices 1 2 3 4 5 6 
#
# 1 100.4223 21.9355 50.1897 0.0003 3.5712 -0.0013
# 2 21.9355 68.7938 63.4758 -0.0002 -3.0513 0.0007
# 3 50.1897 63.4758 170.5716 0.0004 -17.4349 -0.0023
# 4 0.0003 -0.0002 0.0004 59.0977 0.0001 -42.3614
# 5 3.5712 -3.0513 -17.4349 0.0001 29.4452 0.0007
# 6 -0.0013 0.0007 -0.0023 -42.3614 0.0007 102.1811
#
#
#
# Elastic Compliance Matrix: (Units=1/GPa)
#
#
# Indices 1 2 3 4 5 6 
#
# 1 0.012076 -0.000588 -0.003715 0.000000 -0.003725 0.000000
# 2 -0.000588 0.022377 -0.008420 0.000000 -0.002595 0.000000
# 3 -0.003715 -0.008420 0.010693 0.000000 0.005910 0.000000
# 4 0.000000 0.000000 0.000000 0.024076 0.000000 0.009981
# 5 -0.003725 -0.002595 0.005910 0.000000 0.037643 0.000000
# 6 0.000000 0.000000 0.000000 0.009981 0.000000 0.013924
#
#
# Mechanical properties :
#
#
# Convention : Reuss Voigt Hill
#
# Bulk Modulus (GPa) = 50.75920 67.88774 59.32347
# Shear Modulus (GPa) = 32.72208 51.75724 42.23966
#
# Velocity S-wave (km/s) = 4.07356 5.12318 4.62822
# Velocity P-wave (km/s) = 6.91853 8.33204 7.65797
#
# Compressibility (1/GPa) = 0.01970086
#
# Stress axis : x y z
#
# Youngs Moduli (GPa) = 82.81134 44.68804 93.51707
#
# Poissons Ratio (x) = 0.02626 0.34745
# Poissons Ratio (y) = 0.04865 0.78740
# Poissons Ratio (z) = 0.30767 0.37627
#
# Static dielectric constant tensor:
#      x y z
#    x 1.702030 0.000000 -0.022330 
#    y 0.000000 1.765620 0.000000 
#    z -0.022330 0.000000 1.779520 
# 
# From -- ./inp_files/208538.got.cif
#   From: 2010.05.17/outbox.cif.g08.bks.cpg/sg12_105_cif.got.tgz:208538.got - 2010.06.03 13:09:07.
