data_PCOD9185383
_publ_section_title
;
Structure prediction by ZEFSAII (Michael W. Deem and Ramdas Pophale) SiO2 
 PCOD9185383
Probable space group: C 2/M
;
_chemical_formula_sum "Si O2"
_cell_formula_units_Z 58
_cell_length_a 17.550069
_cell_length_b 12.749812
_cell_length_c 20.171420
_cell_angle_alpha 90.000000
_cell_angle_beta 38.663508
_cell_angle_gamma 90.000000
_cell_volume 2819.825260
_symmetry_space_group_name_H-M "C 2/M"
_symmetry_group_IT_number 12
_symmetry_cell_setting 'monoclinic'
loop_
_space_group_symop_operation_xyz
x,y,z
-x,y,-z
-x,-y,-z
x,-y,z
1/2+x,1/2+y,z
1/2-x,1/2+y,-z
1/2-x,1/2-y,-z
1/2+x,1/2-y,z
loop_
_atom_site_type_symbol
_atom_site_label
_atom_site_fract_x
_atom_site_fract_y
_atom_site_fract_z
Si Si1 0.055482 0.116034 0.035495
Si Si2 0.393867 0.814043 0.492133
Si Si3 0.351340 0.618895 0.378954
Si Si4 0.695652 0.618030 0.359353
Si Si5 0.077600 0.813735 0.303834
Si Si6 0.049449 0.713395 0.793379
Si Si7 0.307193 0.797475 0.894034
Si Si8 0.500000 0.000000 0.500000
O O1 0.001322 0.214272 0.112642
O O2 0.026732 0.000000 0.083795
O O3 0.202134 0.129226 0.936068
O O4 0.000000 0.119358 0.000000
O O5 0.287416 0.845712 0.512956
O O6 0.362113 0.708464 0.554826
O O7 0.521503 0.796053 0.368229
O O8 0.409480 0.908110 0.532240
O O9 0.349783 0.500000 0.356479
O O10 0.454436 0.627313 0.365003
O O11 0.394966 0.700580 0.294269
O O12 0.667383 0.500000 0.401302
O O13 0.645824 0.633894 0.318678
O O14 0.840776 0.638303 0.260983
O O15 0.160116 0.789814 0.183759
O O16 0.937212 0.658952 0.831029
O O17 0.250000 0.750000 0.000000
#
# Coordination Sequence:
#
# PCOD9185383 Si02
#       8
#     8   8   8   8   8   8   8   2
#     4  10  19  34  56  87 115 147 193 252 308 355
#     4  11  23  40  61  89 126 161 203 249 298 366
#     4  10  20  35  58  84 117 157 200 245 299 359
#     4  11  23  39  61  91 125 161 203 248 301 365
#     4  11  21  38  58  89 120 161 204 248 302 360
#     4   9  20  37  58  81 116 156 197 247 296 363
#     4   9  20  39  60  81 118 157 200 253 297 353
#     4  12  20  44  62  88 124 162 202 246 304 360
#
# _framework density 20.568650999999999
#
# number of rings (size 3 to 8) (size 9 to 14) (size 15 to 20)
#    0.000    1.793    2.069    2.069    0.000    2.207 
#    1.241    0.690    1.517    8.690    0.000    0.000 
#    0.000    0.000    0.000    0.000    0.000    0.000 
#
# Total GULP energy -161479.810770 kJ/mol
# GULP energy per Si atom -5568.269337 kJ/mol
# Density = 2.052184 g / cm^3
# Si number density = 20.568651 Si / 1000 Ang^3
#
#
#
# Elastic Constant Matrix: (Units=GPa)
#
#
# Indices 1 2 3 4 5 6 
#
# 1 147.3637 44.3766 25.4284 0.0000 -22.6003 0.0000
# 2 44.3766 109.1950 28.4831 0.0000 -3.5751 0.0000
# 3 25.4284 28.4831 65.8179 0.0000 -0.5030 0.0000
# 4 0.0000 0.0000 0.0000 11.4735 0.0000 -8.6340
# 5 -22.6003 -3.5751 -0.5030 0.0000 26.6859 0.0000
# 6 0.0000 0.0000 0.0000 -8.6340 0.0000 6.3110
#
#
#
# Elastic Compliance Matrix: (Units=1/GPa)
#
#
# Indices 1 2 3 4 5 6 
#
# 1 0.009170 -0.002905 -0.002230 0.000000 0.007335 0.000000
# 2 -0.002905 0.011289 -0.003771 0.000000 -0.001019 0.000000
# 3 -0.002230 -0.003771 0.017671 0.000000 -0.002060 0.000000
# 4 0.000000 0.000000 0.000000 -2.953741 0.000000 -4.040975
# 5 0.007335 -0.001019 -0.002060 0.000000 0.043510 0.000000
# 6 0.000000 0.000000 0.000000 -4.040975 0.000000 -5.369952
#
#
# Mechanical properties :
#
#
# Convention : Reuss Voigt Hill
#
# Bulk Modulus (GPa) = 49.21467 57.66143 53.43805
# Shear Modulus (GPa) = -0.60846 23.83331 11.61242
#
# Velocity S-wave (km/s) = -0.54448 3.40769 2.37864
# Velocity P-wave (km/s) = 4.85630 6.60134 5.79488
#
# Compressibility (1/GPa) = 0.02031915
#
# Stress axis : x y z
#
# Youngs Moduli (GPa) = 109.04568 88.58376 56.59019
#
# Poissons Ratio (x) = 0.25734 0.12618
# Poissons Ratio (y) = 0.31679 0.21338
# Poissons Ratio (z) = 0.24314 0.33402
#
# Static dielectric constant tensor:
#      x y z
#    x 1.785780 0.000000 -0.011710 
#    y 0.000000 1.715360 0.000000 
#    z -0.011710 0.000000 1.776060 
# 
# From -- ./inp_files/315959.got.cif
#   From: 2010.05.17/outbox.cif.g08.bks.cpg/sg12_158_cif.got.tgz:315959.got - 2010.06.03 13:09:07.
