data_PCOD9185811
_publ_section_title
;
Structure prediction by ZEFSAII (Michael W. Deem and Ramdas Pophale) SiO2 
 PCOD9185811
Probable space group: C 2/M
;
_chemical_formula_sum "Si O2"
_cell_formula_units_Z 56
_cell_length_a 16.277890
_cell_length_b 14.963405
_cell_length_c 17.481242
_cell_angle_alpha 90.000000
_cell_angle_beta 143.135595
_cell_angle_gamma 90.000000
_cell_volume 2554.445013
_symmetry_space_group_name_H-M "C 2/M"
_symmetry_group_IT_number 12
_symmetry_cell_setting 'monoclinic'
loop_
_space_group_symop_operation_xyz
x,y,z
-x,y,-z
-x,-y,-z
x,-y,z
1/2+x,1/2+y,z
1/2-x,1/2+y,-z
1/2-x,1/2-y,-z
1/2+x,1/2-y,z
loop_
_atom_site_type_symbol
_atom_site_label
_atom_site_fract_x
_atom_site_fract_y
_atom_site_fract_z
Si Si1 0.424777 0.171662 0.637236
Si Si2 0.623148 0.594849 0.745652
Si Si3 0.780140 0.722228 0.764726
Si Si4 0.196087 0.100663 0.965850
Si Si5 0.838715 0.154898 0.479937
Si Si6 0.615119 0.100638 0.652099
Si Si7 0.059944 0.280152 0.896357
O O1 0.291536 0.119876 0.569128
O O2 0.372848 0.247161 0.539936
O O3 0.538039 0.116648 0.675497
O O4 0.486200 0.220087 0.757850
O O5 0.689815 0.500000 0.775104
O O6 0.719749 0.676318 0.794660
O O7 0.601047 0.595247 0.819866
O O8 0.478212 0.602758 0.595974
O O9 0.704843 0.669572 0.639454
O O10 0.729353 0.824118 0.725683
O O11 0.939915 0.712189 0.868304
O O12 0.141048 0.187054 0.970536
O O13 0.203479 0.000000 0.004777
O O14 0.340823 0.134855 0.039633
O O15 0.500000 0.111154 0.500000
O O16 0.668882 0.000000 0.687819
#
# Coordination Sequence:
#
# PCOD9185811 Si02
#       7
#     8   8   8   8   8   8   8
#     4  10  19  36  57  82 114 151 190 228 277 334
#     4  11  22  37  59  85 117 154 189 234 288 336
#     4  11  21  37  57  85 121 149 186 230 281 349
#     4  10  22  41  62  85 110 144 197 244 280 333
#     4  10  19  34  58  83 114 151 187 230 276 333
#     4  11  21  33  53  83 119 154 184 223 279 338
#     4  10  22  39  63  83 108 153 190 235 290 330
#
# _framework density 21.922571000000001
#
# number of rings (size 3 to 8) (size 9 to 14) (size 15 to 20)
#    0.000    1.571    4.286    0.429    0.000    4.000 
#    0.000    7.143    0.000    0.000    0.000    6.000 
#    0.000    0.000    0.000    0.000    0.000    0.000 
#
# Total GULP energy -156344.139478 kJ/mol
# GULP energy per Si atom -5583.719267 kJ/mol
# Density = 2.187267 g / cm^3
# Si number density = 21.922571 Si / 1000 Ang^3
#
#
#
# Elastic Constant Matrix: (Units=GPa)
#
#
# Indices 1 2 3 4 5 6 
#
# 1 51.2660 2.7649 11.0922 0.0001 7.4178 0.0000
# 2 2.7649 109.0276 10.2719 0.0000 16.6625 0.0000
# 3 11.0922 10.2719 48.3286 0.0001 14.5230 0.0001
# 4 0.0001 0.0000 0.0001 17.8024 0.0001 -4.4005
# 5 7.4178 16.6625 14.5230 0.0001 36.5812 0.0000
# 6 0.0000 0.0000 0.0001 -4.4005 0.0000 1.8742
#
#
#
# Elastic Compliance Matrix: (Units=1/GPa)
#
#
# Indices 1 2 3 4 5 6 
#
# 1 0.020753 0.000270 -0.003996 0.000000 -0.002745 -0.000001
# 2 0.000270 0.009892 -0.000902 0.000000 -0.004203 0.000000
# 3 -0.003996 -0.000902 0.024337 -0.000001 -0.008441 -0.000002
# 4 0.000000 0.000000 -0.000001 0.133870 -0.000001 0.314326
# 5 -0.002745 -0.004203 -0.008441 -0.000001 0.033158 -0.000002
# 6 -0.000001 0.000000 -0.000002 0.314326 -0.000002 1.271605
#
#
# Mechanical properties :
#
#
# Convention : Reuss Voigt Hill
#
# Bulk Modulus (GPa) = 21.86872 28.54224 25.20548
# Shear Modulus (GPa) = 3.29356 23.55109 13.42233
#
# Velocity S-wave (km/s) = 1.22704 3.28118 2.47707
# Velocity P-wave (km/s) = 3.46476 5.23476 4.43888
#
# Compressibility (1/GPa) = 0.04572742
#
# Stress axis : x y z
#
# Youngs Moduli (GPa) = 48.18526 101.08797 41.08975
#
# Poissons Ratio (x) = -0.02726 0.16418
# Poissons Ratio (y) = -0.01299 0.03704
# Poissons Ratio (z) = 0.19253 0.09113
#
# Static dielectric constant tensor:
#      x y z
#    x 1.797270 0.000000 -0.015220 
#    y 0.000000 1.802900 0.000000 
#    z -0.015220 0.000000 1.842850 
# 
# From -- ./inp_files/316750.got.cif
#   From: 2010.05.17/outbox.cif.g08.bks.cpg/sg12_159_cif.got.tgz:316750.got - 2010.06.03 13:09:07.
