data_PCOD9185020
_publ_section_title
;
Structure prediction by ZEFSAII (Michael W. Deem and Ramdas Pophale) SiO2 
 PCOD9185020
Probable space group: C 2/M
;
_chemical_formula_sum "Si O2"
_cell_formula_units_Z 56
_cell_length_a 26.900752
_cell_length_b 8.356598
_cell_length_c 14.996021
_cell_angle_alpha 90.000000
_cell_angle_beta 55.888538
_cell_angle_gamma 90.000000
_cell_volume 2791.085354
_symmetry_space_group_name_H-M "C 2/M"
_symmetry_group_IT_number 12
_symmetry_cell_setting 'monoclinic'
loop_
_space_group_symop_operation_xyz
x,y,z
-x,y,-z
-x,-y,-z
x,-y,z
1/2+x,1/2+y,z
1/2-x,1/2+y,-z
1/2-x,1/2-y,-z
1/2+x,1/2-y,z
loop_
_atom_site_type_symbol
_atom_site_label
_atom_site_fract_x
_atom_site_fract_y
_atom_site_fract_z
Si Si1 0.854455 0.694516 0.742087
Si Si2 0.785113 0.191940 0.127967
Si Si3 0.120563 0.189145 0.667568
Si Si4 0.138124 0.687928 0.462387
Si Si5 0.271263 0.813591 0.332552
Si Si6 0.995606 0.806589 0.106472
Si Si7 0.109593 0.307997 0.103006
O O1 0.856200 0.500000 0.737681
O O2 0.783993 0.737863 0.822097
O O3 0.876773 0.748684 0.622335
O O4 0.888901 0.748118 0.795635
O O5 0.800754 0.269318 0.207671
O O6 0.788268 0.000000 0.133268
O O7 0.830547 0.248811 0.006973
O O8 0.109226 0.224580 0.575318
O O9 0.181529 0.272774 0.638414
O O10 0.065353 0.246637 0.783682
O O11 0.128339 0.000000 0.673068
O O12 0.124306 0.500000 0.481960
O O13 0.210076 0.712837 0.398828
O O14 0.255145 0.000000 0.351608
O O15 0.052619 0.752699 0.105913
O O16 0.994887 0.000000 0.105709
O O17 0.000000 0.749973 0.000000
O O18 0.109742 0.500000 0.102779
#
# Coordination Sequence:
#
# PCOD9185020 Si02
#       7
#     8   8   8   8   8   8   8
#     4   8  18  35  55  81 112 146 182 224 271 324
#     4  10  19  34  55  81 116 152 183 218 272 333
#     4  11  22  37  57  81 110 145 187 231 277 328
#     4  10  20  37  58  81 113 149 184 222 272 329
#     4  11  21  34  55  85 116 145 183 228 276 326
#     4  10  23  42  60  78 106 145 184 224 275 331
#     4  11  21  35  57  84 111 141 185 233 276 323
#
# _framework density 20.063879
#
# number of rings (size 3 to 8) (size 9 to 14) (size 15 to 20)
#    0.000    1.857    0.000    5.571    0.000    2.571 
#    0.000    8.571    0.000    4.286    0.000    0.000 
#    0.000    0.000    0.000    0.000    0.000    0.000 
#
# Total GULP energy -156442.816471 kJ/mol
# GULP energy per Si atom -5587.243445 kJ/mol
# Density = 2.001821 g / cm^3
# Si number density = 20.063879 Si / 1000 Ang^3
#
#
#
# Elastic Constant Matrix: (Units=GPa)
#
#
# Indices 1 2 3 4 5 6 
#
# 1 82.0254 -1.0689 36.6285 0.0000 32.3894 0.0001
# 2 -1.0689 19.5452 -3.6835 0.0001 1.1106 0.0006
# 3 36.6285 -3.6835 118.9736 0.0000 27.0419 0.0000
# 4 0.0000 0.0001 0.0000 26.0020 0.0000 3.9250
# 5 32.3894 1.1106 27.0419 0.0000 30.7181 0.0000
# 6 0.0001 0.0006 0.0000 3.9250 0.0000 16.0544
#
#
#
# Elastic Compliance Matrix: (Units=1/GPa)
#
#
# Indices 1 2 3 4 5 6 
#
# 1 0.021274 0.002033 -0.001715 0.000000 -0.020996 0.000000
# 2 0.002033 0.052070 0.002377 0.000000 -0.006119 -0.000002
# 3 -0.001715 0.002377 0.010770 0.000000 -0.007760 0.000000
# 4 0.000000 0.000000 0.000000 0.039932 0.000000 -0.009763
# 5 -0.020996 -0.006119 -0.007760 0.000000 0.061744 0.000000
# 6 0.000000 -0.000002 0.000000 -0.009763 0.000000 0.064675
#
#
# Mechanical properties :
#
#
# Convention : Reuss Voigt Hill
#
# Bulk Modulus (GPa) = 11.17243 31.58849 21.38046
# Shear Modulus (GPa) = 18.18774 27.13276 22.66025
#
# Velocity S-wave (km/s) = 3.01407 3.68138 3.36431
# Velocity P-wave (km/s) = 4.20634 5.81792 5.07649
#
# Compressibility (1/GPa) = 0.08950607
#
# Stress axis : x y z
#
# Youngs Moduli (GPa) = 47.00559 19.20483 92.84741
#
# Poissons Ratio (x) = -0.03905 0.15919
# Poissons Ratio (y) = -0.09558 -0.22069
# Poissons Ratio (z) = 0.08059 -0.04565
#
# Static dielectric constant tensor:
#      x y z
#    x 1.686370 0.000000 0.026570 
#    y 0.000000 1.688170 0.000000 
#    z 0.026570 0.000000 1.729740 
# 
# From -- ./inp_files/243672.got.cif
#   From: 2010.05.17/outbox.cif.g08.bks.cpg/sg12_122_cif.got.tgz:243672.got - 2010.06.03 13:09:07.
