data_PCOD9185696
_publ_section_title
;
Structure prediction by ZEFSAII (Michael W. Deem and Ramdas Pophale) SiO2 
 PCOD9185696
Probable space group: C 2/M
;
_chemical_formula_sum "Si O2"
_cell_formula_units_Z 56
_cell_length_a 14.515078
_cell_length_b 16.163711
_cell_length_c 21.235942
_cell_angle_alpha 90.000000
_cell_angle_beta 150.765434
_cell_angle_gamma 90.000000
_cell_volume 2433.298350
_symmetry_space_group_name_H-M "C 2/M"
_symmetry_group_IT_number 12
_symmetry_cell_setting 'monoclinic'
loop_
_space_group_symop_operation_xyz
x,y,z
-x,y,-z
-x,-y,-z
x,-y,z
1/2+x,1/2+y,z
1/2-x,1/2+y,-z
1/2-x,1/2-y,-z
1/2+x,1/2-y,z
loop_
_atom_site_type_symbol
_atom_site_label
_atom_site_fract_x
_atom_site_fract_y
_atom_site_fract_z
Si Si1 0.612953 0.406625 0.846276
Si Si2 0.656002 0.868144 0.752051
Si Si3 0.306390 0.096212 0.089264
Si Si4 0.786836 0.373486 0.350947
Si Si5 0.768305 0.844349 0.482593
Si Si6 0.826895 0.168701 0.241573
Si Si7 0.305340 0.820637 0.701711
O O1 0.674527 0.500000 0.873260
O O2 0.385393 0.403773 0.709638
O O3 0.724700 0.355296 0.860254
O O4 0.664787 0.382490 0.948758
O O5 0.755715 0.896194 0.875385
O O6 0.732856 0.902537 0.732700
O O7 0.430619 0.887108 0.621059
O O8 0.666668 0.768330 0.754964
O O9 0.478042 0.160485 0.184840
O O10 0.367848 0.000000 0.117358
O O11 0.755986 0.274623 0.332721
O O12 0.000000 0.391527 0.500000
O O13 0.750000 0.750000 0.500000
O O14 0.794582 0.849704 0.422548
O O15 0.965720 0.871891 0.628301
O O16 0.727158 0.144135 0.247500
#
# Coordination Sequence:
#
# PCOD9185696 Si02
#       7
#     8   8   8   8   8   8   8
#     4  11  25  41  57  80 117 163 201 238 286 344
#     4   9  19  34  60  87 112 150 191 243 299 341
#     4  10  23  42  58  79 116 159 201 240 285 345
#     4  11  21  38  64  92 119 146 188 244 299 355
#     4   9  15  30  56  86 117 146 179 228 290 348
#     4  10  19  34  57  87 117 148 192 243 290 343
#     4  10  20  35  62  91 116 149 191 239 293 345
#
# _framework density 23.014028
#
# number of rings (size 3 to 8) (size 9 to 14) (size 15 to 20)
#    0.000    2.000    0.000    6.429    0.000    4.857 
#    0.000   11.429    0.000    8.143    0.000    0.000 
#    0.000    0.000    0.000    0.000    0.000    0.000 
#
# Total GULP energy -156117.669072 kJ/mol
# GULP energy per Si atom -5575.631038 kJ/mol
# Density = 2.296165 g / cm^3
# Si number density = 23.014028 Si / 1000 Ang^3
#
#
#
# Elastic Constant Matrix: (Units=GPa)
#
#
# Indices 1 2 3 4 5 6 
#
# 1 161.1586 17.5069 21.7906 0.0047 -43.1691 -0.0034
# 2 17.5069 25.4072 10.3184 0.0093 -11.1213 0.0046
# 3 21.7906 10.3184 60.4737 0.0142 -22.2436 0.0125
# 4 0.0047 0.0093 0.0142 56.5119 0.0083 -44.5968
# 5 -43.1691 -11.1213 -22.2436 0.0083 28.4259 -0.0053
# 6 -0.0034 0.0046 0.0125 -44.5968 -0.0053 21.6283
#
#
#
# Elastic Compliance Matrix: (Units=1/GPa)
#
#
# Indices 1 2 3 4 5 6 
#
# 1 0.010845 -0.000551 0.003040 0.000001 0.018633 0.000007
# 2 -0.000551 0.047657 -0.001942 0.000022 0.016289 0.000040
# 3 0.003040 -0.001942 0.024138 0.000024 0.022745 0.000043
# 4 0.000001 0.000022 0.000024 -0.028212 0.000027 -0.058173
# 5 0.018633 0.016289 0.022745 0.000027 0.087647 0.000063
# 6 0.000007 0.000040 0.000043 -0.058173 0.000063 -0.073715
#
#
# Mechanical properties :
#
#
# Convention : Reuss Voigt Hill
#
# Bulk Modulus (GPa) = 11.94246 38.47459 25.20853
# Shear Modulus (GPa) = 52.53317 34.47479 43.50398
#
# Velocity S-wave (km/s) = 4.78290 3.87459 4.35250
# Velocity P-wave (km/s) = 5.97512 6.06389 6.01967
#
# Compressibility (1/GPa) = 0.08373481
#
# Stress axis : x y z
#
# Youngs Moduli (GPa) = 92.20760 20.98312 41.42796
#
# Poissons Ratio (x) = 0.01157 -0.12593
# Poissons Ratio (y) = 0.05083 0.08043
# Poissons Ratio (z) = -0.28030 0.04074
#
# Static dielectric constant tensor:
#      x y z
#    x 1.908250 0.000000 -0.052650 
#    y 0.000000 1.890560 0.000000 
#    z -0.052650 0.000000 1.917010 
# 
# From -- ./inp_files/311757.got.cif
#   From: 2010.05.17/outbox.cif.g08.bks.cpg/sg12_156_cif.got.tgz:311757.got - 2010.06.03 13:09:07.
