data_PCOD9185077
_publ_section_title
;
Structure prediction by ZEFSAII (Michael W. Deem and Ramdas Pophale) SiO2 
 PCOD9185077
Probable space group: C 2/M
;
_chemical_formula_sum "Si O2"
_cell_formula_units_Z 48
_cell_length_a 20.060500
_cell_length_b 23.426410
_cell_length_c 5.425327
_cell_angle_alpha 90.000000
_cell_angle_beta 111.549417
_cell_angle_gamma 90.000000
_cell_volume 2371.393251
_symmetry_space_group_name_H-M "C 2/M"
_symmetry_group_IT_number 12
_symmetry_cell_setting 'monoclinic'
loop_
_space_group_symop_operation_xyz
x,y,z
-x,y,-z
-x,-y,-z
x,-y,z
1/2+x,1/2+y,z
1/2-x,1/2+y,-z
1/2-x,1/2-y,-z
1/2+x,1/2-y,z
loop_
_atom_site_type_symbol
_atom_site_label
_atom_site_fract_x
_atom_site_fract_y
_atom_site_fract_z
Si Si1 0.777520 0.435334 0.416663
Si Si2 0.296693 0.663430 0.936944
Si Si3 0.272976 0.822381 0.653209
Si Si4 0.417579 0.937653 0.303074
Si Si5 0.575973 0.822074 0.975389
Si Si6 0.043969 0.800493 0.801107
O O1 0.754237 0.500000 0.422793
O O2 0.769052 0.392024 0.629751
O O3 0.860613 0.435821 0.447147
O O4 0.733218 0.400640 0.148341
O O5 0.262332 0.690342 0.133851
O O6 0.381797 0.666066 0.070043
O O7 0.269243 0.695324 0.650782
O O8 0.356982 0.807869 0.758031
O O9 0.500000 0.936020 0.500000
O O10 0.406299 0.000000 0.161945
O O11 0.404877 0.880279 0.135357
O O12 0.500000 0.831739 0.000000
O O13 0.565436 0.766208 0.794255
O O14 0.000000 0.818789 0.500000
O O15 0.000000 0.803586 0.000000
#
# Coordination Sequence:
#
# PCOD9185077 Si02
#       6
#     8   8   8   8   8   8
#     4   9  20  37  60  89 124 164 206 247 303 359
#     4  10  22  41  62  92 120 162 202 254 314 363
#     4  10  21  37  59  91 120 163 198 252 294 359
#     4  10  19  34  55  84 127 171 211 251 293 350
#     4  11  22  36  58  88 128 166 212 249 297 357
#     4  11  25  43  67  91 119 161 202 259 318 377
#
# _framework density 20.241266
#
# number of rings (size 3 to 8) (size 9 to 14) (size 15 to 20)
#    1.000    0.833    1.667    2.500    0.000    7.000 
#    0.000    0.000    0.000    1.000    0.000    0.000 
#    0.000    0.000    0.000    0.000    0.000    0.000 
#
# Total GULP energy -133868.132168 kJ/mol
# GULP energy per Si atom -5577.838840 kJ/mol
# Density = 2.019520 g / cm^3
# Si number density = 20.241266 Si / 1000 Ang^3
#
#
#
# Elastic Constant Matrix: (Units=GPa)
#
#
# Indices 1 2 3 4 5 6 
#
# 1 102.6304 27.0644 68.1020 0.0000 6.0699 0.0000
# 2 27.0644 70.0184 15.4119 0.0000 -1.4190 0.0000
# 3 68.1020 15.4119 147.6780 0.0000 12.3513 0.0000
# 4 0.0000 0.0000 0.0000 12.0827 0.0000 -9.2239
# 5 6.0699 -1.4190 12.3513 0.0000 31.8658 0.0000
# 6 0.0000 0.0000 0.0000 -9.2239 0.0000 16.0299
#
#
#
# Elastic Compliance Matrix: (Units=1/GPa)
#
#
# Indices 1 2 3 4 5 6 
#
# 1 0.015300 -0.004486 -0.006539 0.000000 -0.000580 0.000000
# 2 -0.004486 0.015984 0.000279 0.000000 0.001458 0.000000
# 3 -0.006539 0.000279 0.009976 0.000000 -0.002609 0.000000
# 4 0.000000 0.000000 0.000000 0.147600 0.000000 0.084932
# 5 -0.000580 0.001458 -0.002609 0.000000 0.032568 0.000000
# 6 0.000000 0.000000 0.000000 0.084932 0.000000 0.111255
#
#
# Mechanical properties :
#
#
# Convention : Reuss Voigt Hill
#
# Bulk Modulus (GPa) = 50.58874 60.16484 55.37679
# Shear Modulus (GPa) = 13.85941 25.97892 19.91916
#
# Velocity S-wave (km/s) = 2.61954 3.58643 3.14042
# Velocity P-wave (km/s) = 5.84777 6.85116 6.36925
#
# Compressibility (1/GPa) = 0.01976725
#
# Stress axis : x y z
#
# Youngs Moduli (GPa) = 65.35887 62.56142 100.24007
#
# Poissons Ratio (x) = 0.28068 0.65547
# Poissons Ratio (y) = 0.29323 -0.02795
# Poissons Ratio (z) = 0.42738 -0.01744
#
# Static dielectric constant tensor:
#      x y z
#    x 1.710100 0.000000 -0.010610 
#    y 0.000000 1.770490 0.000000 
#    z -0.010610 0.000000 1.760280 
# 
# From -- ./inp_files/22726.got.cif
#   From: 2010.05.17/outbox.cif.g08.bks.cpg/sg12_12_cif.got.tgz:22726.got - 2010.06.03 13:09:07.
