data_PCOD9185602
_publ_section_title
;
Structure prediction by ZEFSAII (Michael W. Deem and Ramdas Pophale) SiO2 
 PCOD9185602
Probable space group: C 2/M
;
_chemical_formula_sum "Si O2"
_cell_formula_units_Z 64
_cell_length_a 20.208238
_cell_length_b 7.566080
_cell_length_c 32.455450
_cell_angle_alpha 90.000000
_cell_angle_beta 144.400864
_cell_angle_gamma 90.000000
_cell_volume 2888.634548
_symmetry_space_group_name_H-M "C 2/M"
_symmetry_group_IT_number 12
_symmetry_cell_setting 'monoclinic'
loop_
_space_group_symop_operation_xyz
x,y,z
-x,y,-z
-x,-y,-z
x,-y,z
1/2+x,1/2+y,z
1/2-x,1/2+y,-z
1/2-x,1/2-y,-z
1/2+x,1/2-y,z
loop_
_atom_site_type_symbol
_atom_site_label
_atom_site_fract_x
_atom_site_fract_y
_atom_site_fract_z
Si Si1 0.810106 0.788022 0.487255
Si Si2 0.993501 0.794050 0.789274
Si Si3 0.061694 0.795141 0.596906
Si Si4 0.722231 0.785631 0.753840
Si Si5 0.013570 0.784255 0.123505
Si Si6 0.902473 0.784441 0.983483
Si Si7 0.749606 0.214460 0.367763
Si Si8 0.316211 0.204366 0.174642
O O1 0.750000 0.750000 0.500000
O O2 0.744817 0.728408 0.412912
O O3 0.939468 0.719440 0.547763
O O4 0.814549 0.000000 0.487576
O O5 0.021562 0.722209 0.848879
O O6 0.859999 0.775126 0.712944
O O7 0.065850 0.710231 0.789497
O O8 0.022698 0.000000 0.803577
O O9 0.145302 0.786416 0.678288
O O10 0.134704 0.721470 0.595702
O O11 0.040489 0.000000 0.575334
O O12 0.854581 0.736369 0.816712
O O13 0.680661 0.722552 0.777673
O O14 0.714832 0.000000 0.747119
O O15 0.937810 0.723202 0.046840
O O16 0.010761 0.000000 0.122656
O O17 0.900484 0.000000 0.984724
O O18 0.782724 0.720649 0.904731
O O19 0.000000 0.737611 0.000000
O O20 0.749248 0.000000 0.366136
O O21 0.282938 0.000000 0.164088
#
# Coordination Sequence:
#
# PCOD9185602 Si02
#       8
#     8   8   8   8   8   8   8   8
#     4  10  23  41  60  86 117 148 184 227 277 329
#     4  11  23  37  55  81 118 152 182 230 287 337
#     4  10  21  38  61  86 112 147 188 229 276 329
#     4  10  19  34  57  84 112 144 188 236 277 324
#     4   9  17  32  54  81 110 143 186 234 280 325
#     4   9  15  29  55  82 106 140 189 238 279 327
#     4  10  21  40  63  83 110 149 191 231 271 327
#     4  10  21  35  56  84 112 146 191 237 280 333
#
# _framework density 22.155795999999999
#
# number of rings (size 3 to 8) (size 9 to 14) (size 15 to 20)
#    0.000    2.125    2.500    0.750    1.750    3.500 
#    0.000    0.000    0.000    4.125    0.000    0.000 
#    0.000    0.000    0.000    0.000    0.000    0.000 
#
# Total GULP energy -178739.571285 kJ/mol
# GULP energy per Si atom -5585.611603 kJ/mol
# Density = 2.210537 g / cm^3
# Si number density = 22.155796 Si / 1000 Ang^3
#
#
#
# Elastic Constant Matrix: (Units=GPa)
#
#
# Indices 1 2 3 4 5 6 
#
# 1 127.7068 -3.8825 21.3356 0.0000 -25.4787 -0.0004
# 2 -3.8825 49.7842 -4.0070 0.0002 -3.0479 -0.0017
# 3 21.3356 -4.0070 62.5112 0.0002 -20.1005 -0.0002
# 4 0.0000 0.0002 0.0002 18.6383 0.0000 -1.3912
# 5 -25.4787 -3.0479 -20.1005 0.0000 44.1450 0.0002
# 6 -0.0004 -0.0017 -0.0002 -1.3912 0.0002 1.8350
#
#
#
# Elastic Compliance Matrix: (Units=1/GPa)
#
#
# Indices 1 2 3 4 5 6 
#
# 1 0.009027 0.000857 -0.001560 0.000000 0.004559 0.000002
# 2 0.000857 0.020478 0.001914 0.000001 0.002780 0.000020
# 3 -0.001560 0.001914 0.019219 0.000000 0.007983 0.000003
# 4 0.000000 0.000001 0.000000 0.056871 0.000000 0.043117
# 5 0.004559 0.002780 0.007983 0.000000 0.029110 0.000002
# 6 0.000002 0.000020 0.000003 0.043117 0.000002 0.577662
#
#
# Mechanical properties :
#
#
# Convention : Reuss Voigt Hill
#
# Bulk Modulus (GPa) = 19.55174 29.65494 24.60334
# Shear Modulus (GPa) = 6.87765 28.02740 17.45252
#
# Velocity S-wave (km/s) = 1.76379 3.56056 2.80968
# Velocity P-wave (km/s) = 3.60441 5.50611 4.65344
#
# Compressibility (1/GPa) = 0.05114634
#
# Stress axis : x y z
#
# Youngs Moduli (GPa) = 110.78332 48.83335 52.03144
#
# Poissons Ratio (x) = -0.04187 0.08117
# Poissons Ratio (y) = -0.09499 -0.09959
# Poissons Ratio (z) = 0.17283 -0.09347
#
# Static dielectric constant tensor:
#      x y z
#    x 1.796750 0.000000 -0.011800 
#    y 0.000000 1.853150 0.000000 
#    z -0.011800 0.000000 1.785540 
# 
# From -- ./inp_files/378503.got.cif
#   From: 2010.05.17/outbox.cif.g08.bks.cpg/sg12_190_cif.got.tgz:378503.got - 2010.06.03 13:09:07.
