data_PCOD9185850
_publ_section_title
;
Structure prediction by ZEFSAII (Michael W. Deem and Ramdas Pophale) SiO2 
 PCOD9185850
Probable space group: C 2/M
;
_chemical_formula_sum "Si O2"
_cell_formula_units_Z 52
_cell_length_a 21.673922
_cell_length_b 8.979068
_cell_length_c 17.551670
_cell_angle_alpha 90.000000
_cell_angle_beta 134.232685
_cell_angle_gamma 90.000000
_cell_volume 2447.434941
_symmetry_space_group_name_H-M "C 2/M"
_symmetry_group_IT_number 12
_symmetry_cell_setting 'monoclinic'
loop_
_space_group_symop_operation_xyz
x,y,z
-x,y,-z
-x,-y,-z
x,-y,z
1/2+x,1/2+y,z
1/2-x,1/2+y,-z
1/2-x,1/2-y,-z
1/2+x,1/2-y,z
loop_
_atom_site_type_symbol
_atom_site_label
_atom_site_fract_x
_atom_site_fract_y
_atom_site_fract_z
Si Si1 0.912513 0.673242 0.455697
Si Si2 0.500000 0.761729 0.000000
Si Si3 0.544374 0.679191 0.789959
Si Si4 0.844768 0.826162 0.973024
Si Si5 0.341694 0.173756 0.230879
Si Si6 0.101266 0.331088 0.239514
Si Si7 0.265850 0.179740 0.431612
O O1 0.933173 0.500000 0.493400
O O2 0.850598 0.674394 0.329227
O O3 0.857577 0.734135 0.477875
O O4 0.000000 0.744353 0.500000
O O5 0.580462 0.684697 0.026234
O O6 0.548586 0.834627 0.114422
O O7 0.536277 0.500000 0.784745
O O8 0.581017 0.737148 0.742093
O O9 0.457987 0.753722 0.747365
O O10 0.615884 0.730614 0.914104
O O11 0.751915 0.761569 0.871795
O O12 0.828901 0.000000 0.970553
O O13 0.350275 0.000000 0.214727
O O14 0.121309 0.500000 0.279120
O O15 0.188559 0.236686 0.311078
O O16 0.250000 0.250000 0.500000
O O17 0.265395 0.000000 0.433340
#
# Coordination Sequence:
#
# PCOD9185850 Si02
#       7
#     8   4   8   8   8   8   8
#     4   9  20  38  61  89 119 158 205 250 301 364
#     4  10  20  36  60  90 121 160 209 262 311 370
#     4  10  21  36  55  85 121 158 200 251 307 368
#     4   9  18  32  53  83 119 159 200 245 303 372
#     4  10  19  34  58  84 115 157 204 246 301 369
#     4  11  23  40  62  90 125 164 209 260 319 378
#     4  11  24  43  68  97 130 168 214 263 314 376
#
# _framework density 21.246735000000001
#
# number of rings (size 3 to 8) (size 9 to 14) (size 15 to 20)
#    0.000    2.000    0.000    3.231    2.154    3.077 
#    0.000    6.923    0.000    2.308    0.000    0.000 
#    0.000    0.000    0.000    0.000    0.000    0.000 
#
# Total GULP energy -144992.183362 kJ/mol
# GULP energy per Si atom -5576.622437 kJ/mol
# Density = 2.119838 g / cm^3
# Si number density = 21.246735 Si / 1000 Ang^3
#
#
#
# Elastic Constant Matrix: (Units=GPa)
#
#
# Indices 1 2 3 4 5 6 
#
# 1 157.8836 26.1100 29.8152 0.0000 6.2488 0.0000
# 2 26.1100 59.4483 15.2228 0.0000 -0.1713 0.0000
# 3 29.8152 15.2228 52.7913 0.0000 10.5860 0.0000
# 4 0.0000 0.0000 0.0000 24.4487 0.0000 14.9801
# 5 6.2488 -0.1713 10.5860 0.0000 35.7650 0.0000
# 6 0.0000 0.0000 0.0000 14.9801 0.0000 35.1425
#
#
#
# Elastic Compliance Matrix: (Units=1/GPa)
#
#
# Indices 1 2 3 4 5 6 
#
# 1 0.007384 -0.002365 -0.003431 0.000000 -0.000286 0.000000
# 2 -0.002365 0.019023 -0.004519 0.000000 0.001842 0.000000
# 3 -0.003431 -0.004519 0.023460 0.000000 -0.006366 0.000000
# 4 0.000000 0.000000 0.000000 0.055361 0.000000 -0.023599
# 5 -0.000286 0.001842 -0.006366 0.000000 0.029903 0.000000
# 6 0.000000 0.000000 0.000000 -0.023599 0.000000 0.038515
#
#
# Mechanical properties :
#
#
# Convention : Reuss Voigt Hill
#
# Bulk Modulus (GPa) = 34.20397 45.82435 40.01416
# Shear Modulus (GPa) = 24.50713 32.33624 28.42168
#
# Velocity S-wave (km/s) = 3.39994 3.90544 3.66142
# Velocity P-wave (km/s) = 5.61660 6.47697 6.06207
#
# Compressibility (1/GPa) = 0.02923637
#
# Stress axis : x y z
#
# Youngs Moduli (GPa) = 135.42430 52.56890 42.62605
#
# Poissons Ratio (x) = 0.12435 0.14625
# Poissons Ratio (y) = 0.32034 0.19262
# Poissons Ratio (z) = 0.46464 0.23755
#
# Static dielectric constant tensor:
#      x y z
#    x 1.760340 0.000000 0.020250 
#    y 0.000000 1.734160 0.000000 
#    z 0.020250 0.000000 1.846530 
# 
# From -- ./inp_files/282271.got.cif
#   From: 2010.05.17/outbox.cif.g08.bks.cpg/sg12_142_cif.got.tgz:282271.got - 2010.06.03 13:09:07.
