data_PCOD9185225
_publ_section_title
;
Structure prediction by ZEFSAII (Michael W. Deem and Ramdas Pophale) SiO2 
 PCOD9185225
Probable space group: C 2/M
;
_chemical_formula_sum "Si O2"
_cell_formula_units_Z 64
_cell_length_a 26.145445
_cell_length_b 9.328293
_cell_length_c 14.544835
_cell_angle_alpha 90.000000
_cell_angle_beta 78.058489
_cell_angle_gamma 90.000000
_cell_volume 3470.606755
_symmetry_space_group_name_H-M "C 2/M"
_symmetry_group_IT_number 12
_symmetry_cell_setting 'monoclinic'
loop_
_space_group_symop_operation_xyz
x,y,z
-x,y,-z
-x,-y,-z
x,-y,z
1/2+x,1/2+y,z
1/2-x,1/2+y,-z
1/2-x,1/2-y,-z
1/2+x,1/2-y,z
loop_
_atom_site_type_symbol
_atom_site_label
_atom_site_fract_x
_atom_site_fract_y
_atom_site_fract_z
Si Si1 0.031665 0.165841 0.394624
Si Si2 0.137755 0.664783 0.360419
Si Si3 0.501483 0.330786 0.793542
Si Si4 0.093180 0.330385 0.864735
Si Si5 0.595548 0.170090 0.080840
Si Si6 0.228330 0.170615 0.418761
Si Si7 0.802366 0.664983 0.857636
Si Si8 0.712836 0.829325 0.795687
O O1 0.080251 0.272082 0.373930
O O2 0.996749 0.188249 0.317095
O O3 0.000000 0.184379 0.500000
O O4 0.050580 0.000000 0.383412
O O5 0.137847 0.500000 0.391565
O O6 0.172260 0.763452 0.413964
O O7 0.165053 0.668860 0.250206
O O8 0.500584 0.500000 0.814185
O O9 0.549969 0.256187 0.825279
O O10 0.447723 0.258440 0.848136
O O11 0.088769 0.500000 0.844287
O O12 0.152629 0.283268 0.822641
O O13 0.084796 0.314698 0.976949
O O14 0.654927 0.215024 0.083691
O O15 0.591813 0.000000 0.105868
O O16 0.250000 0.250000 0.500000
O O17 0.264024 0.197846 0.314879
O O18 0.225800 0.000000 0.433839
O O19 0.788349 0.500000 0.882939
O O20 0.750596 0.755126 0.856111
O O21 0.714267 0.000000 0.811433
#
# Coordination Sequence:
#
# PCOD9185225 Si02
#       8
#     8   8   8   8   8   8   8   8
#     4  10  22  39  57  81 112 146 184 230 289 341
#     4  10  19  34  56  81 109 142 183 229 277 332
#     4  11  23  38  58  83 113 147 189 238 283 332
#     4  10  22  39  58  80 114 155 189 228 281 340
#     4  10  20  37  60  84 111 149 191 229 279 339
#     4  10  20  35  56  81 111 146 188 233 279 335
#     4   9  18  33  56  83 110 142 182 228 275 329
#     4   9  20  37  55  80 113 148 186 230 282 334
#
# _framework density 18.440580000000001
#
# number of rings (size 3 to 8) (size 9 to 14) (size 15 to 20)
#    0.000    2.125    1.250    1.500    0.000    6.250 
#    0.000    2.500    0.000    0.000    0.000    0.000 
#    0.000    0.000    0.000    0.000    0.000    0.000 
#
# Total GULP energy -178651.129018 kJ/mol
# GULP energy per Si atom -5582.847782 kJ/mol
# Density = 1.839861 g / cm^3
# Si number density = 18.440580 Si / 1000 Ang^3
#
#
#
# Elastic Constant Matrix: (Units=GPa)
#
#
# Indices 1 2 3 4 5 6 
#
# 1 104.3492 50.5576 46.4160 0.0000 22.3881 0.0000
# 2 50.5576 69.0378 50.9517 0.0000 11.9022 0.0000
# 3 46.4160 50.9517 67.3305 0.0000 22.3500 0.0000
# 4 0.0000 0.0000 0.0000 21.4622 0.0000 9.1331
# 5 22.3881 11.9022 22.3500 0.0000 29.5903 0.0000
# 6 0.0000 0.0000 0.0000 9.1331 0.0000 36.2839
#
#
#
# Elastic Compliance Matrix: (Units=1/GPa)
#
#
# Indices 1 2 3 4 5 6 
#
# 1 0.016585 -0.009613 -0.001704 0.000000 -0.007394 0.000000
# 2 -0.009613 0.039646 -0.027353 0.000000 0.011987 0.000000
# 3 -0.001704 -0.027353 0.043570 0.000000 -0.020617 0.000000
# 4 0.000000 0.000000 0.000000 0.052183 0.000000 -0.013135
# 5 -0.007394 0.011987 -0.020617 0.000000 0.050140 0.000000
# 6 0.000000 0.000000 0.000000 -0.013135 0.000000 0.030867
#
#
# Mechanical properties :
#
#
# Convention : Reuss Voigt Hill
#
# Bulk Modulus (GPa) = 44.52452 59.61869 52.07161
# Shear Modulus (GPa) = 15.73221 23.65343 19.69282
#
# Velocity S-wave (km/s) = 2.92401 3.58534 3.27143
# Velocity P-wave (km/s) = 5.96633 7.03846 6.52445
#
# Compressibility (1/GPa) = 0.02245953
#
# Stress axis : x y z
#
# Youngs Moduli (GPa) = 60.29393 25.22353 22.95150
#
# Poissons Ratio (x) = 0.24248 0.03912
# Poissons Ratio (y) = 0.57961 0.62780
# Poissons Ratio (z) = 0.10277 0.68995
#
# Static dielectric constant tensor:
#      x y z
#    x 1.619000 0.000000 0.000540 
#    y 0.000000 1.622140 0.000000 
#    z 0.000540 0.000000 1.633640 
# 
# From -- ./inp_files/238642.got.cif
#   From: 2010.05.17/outbox.cif.g08.bks.cpg/sg12_120_cif.got.tgz:238642.got - 2010.06.03 13:09:07.
