data_PCOD9185601
_publ_section_title
;
Structure prediction by ZEFSAII (Michael W. Deem and Ramdas Pophale) SiO2 
 PCOD9185601
Probable space group: C 2/M
;
_chemical_formula_sum "Si O2"
_cell_formula_units_Z 48
_cell_length_a 9.014342
_cell_length_b 24.452232
_cell_length_c 11.852129
_cell_angle_alpha 90.000000
_cell_angle_beta 103.548985
_cell_angle_gamma 90.000000
_cell_volume 2539.750854
_symmetry_space_group_name_H-M "C 2/M"
_symmetry_group_IT_number 12
_symmetry_cell_setting 'monoclinic'
loop_
_space_group_symop_operation_xyz
x,y,z
-x,y,-z
-x,-y,-z
x,-y,z
1/2+x,1/2+y,z
1/2-x,1/2+y,-z
1/2-x,1/2-y,-z
1/2+x,1/2-y,z
loop_
_atom_site_type_symbol
_atom_site_label
_atom_site_fract_x
_atom_site_fract_y
_atom_site_fract_z
Si Si1 0.000000 0.093440 0.500000
Si Si2 0.334725 0.613568 0.251574
Si Si3 0.221264 0.000000 0.462563
Si Si4 0.179293 0.500000 0.767585
Si Si5 0.095153 0.905777 0.115067
Si Si6 0.261817 0.292365 0.895330
Si Si7 0.830676 0.500000 0.734096
Si Si8 0.936987 0.695281 0.860648
O O1 0.099754 0.124542 0.610941
O O2 0.110697 0.052758 0.449329
O O3 0.477602 0.611579 0.192161
O O4 0.256496 0.553691 0.238677
O O5 0.200668 0.655217 0.193455
O O6 0.320305 0.000000 0.368343
O O7 0.312755 0.000000 0.595289
O O8 0.273722 0.446226 0.819829
O O9 0.010585 0.500000 0.789853
O O10 0.164158 0.850885 0.071139
O O11 0.000000 0.934594 0.000000
O O12 0.372321 0.256558 0.838213
O O13 0.093836 0.305251 0.819232
O O14 0.250000 0.250000 0.000000
O O15 0.000000 0.683644 0.000000
#
# Coordination Sequence:
#
# PCOD9185601 Si02
#       8
#     4   8   4   4   8   8   4   8
#     4   9  18  36  62  86 114 164 206 243 286 356
#     4  11  21  38  60  86 121 160 203 246 297 351
#     4   9  17  37  59  83 114 157 215 243 278 349
#     4  12  22  37  56  94 124 155 193 252 306 350
#     4  12  23  37  58  88 123 158 195 244 301 362
#     4  10  20  37  59  84 115 155 201 238 284 354
#     4  10  23  36  58  83 120 163 205 245 290 354
#     4  10  19  34  57  84 111 147 194 246 293 345
#
# _framework density 18.899493
#
# number of rings (size 3 to 8) (size 9 to 14) (size 15 to 20)
#    0.000    1.500    1.667    7.000    0.000    0.000 
#    0.000    1.250    0.000    4.000    0.000    0.000 
#    0.000    0.000    0.000    0.000    0.000    0.000 
#
# Total GULP energy -133811.440122 kJ/mol
# GULP energy per Si atom -5575.476672 kJ/mol
# Density = 1.885648 g / cm^3
# Si number density = 18.899493 Si / 1000 Ang^3
#
#
#
# Elastic Constant Matrix: (Units=GPa)
#
#
# Indices 1 2 3 4 5 6 
#
# 1 111.8721 28.3326 21.4825 0.0000 23.1118 0.0000
# 2 28.3326 100.1930 25.6044 0.0000 16.7419 0.0000
# 3 21.4825 25.6044 64.8598 0.0000 17.6865 0.0000
# 4 0.0000 0.0000 0.0000 0.7508 0.0000 4.6055
# 5 23.1118 16.7419 17.6865 0.0000 33.0917 0.0000
# 6 0.0000 0.0000 0.0000 4.6055 0.0000 29.2911
#
#
#
# Elastic Compliance Matrix: (Units=1/GPa)
#
#
# Indices 1 2 3 4 5 6 
#
# 1 0.010870 -0.001742 -0.001267 0.000000 -0.006033 0.000000
# 2 -0.001742 0.011811 -0.003264 0.000000 -0.003015 0.000000
# 3 -0.001267 -0.003264 0.019238 0.000000 -0.007746 0.000000
# 4 0.000000 0.000000 0.000000 37.548930 0.000000 -5.903888
# 5 -0.006033 -0.003015 -0.007746 0.000000 0.040098 0.000000
# 6 0.000000 0.000000 0.000000 -5.903888 0.000000 0.962419
#
#
# Mechanical properties :
#
#
# Convention : Reuss Voigt Hill
#
# Bulk Modulus (GPa) = 34.04456 47.52932 40.78694
# Shear Modulus (GPa) = 0.12948 26.06041 13.09495
#
# Velocity S-wave (km/s) = 0.26203 3.71738 2.63510
# Velocity P-wave (km/s) = 4.25959 6.60517 5.55753
#
# Compressibility (1/GPa) = 0.02937327
#
# Stress axis : x y z
#
# Youngs Moduli (GPa) = 91.99951 84.66663 51.97969
#
# Poissons Ratio (x) = 0.14747 0.06588
# Poissons Ratio (y) = 0.16024 0.16964
# Poissons Ratio (z) = 0.11661 0.27632
#
# Static dielectric constant tensor:
#      x y z
#    x 1.714300 0.000000 -0.021460 
#    y 0.000000 1.651720 0.000000 
#    z -0.021460 0.000000 1.690750 
# 
# From -- ./inp_files/122633.got.cif
#   From: 2010.05.17/outbox.cif.g08.bks.cpg/sg12_62_cif.got.tgz:122633.got - 2010.06.03 13:09:07.
