data_PCOD9185611
_publ_section_title
;
Structure prediction by ZEFSAII (Michael W. Deem and Ramdas Pophale) SiO2 
 PCOD9185611
Probable space group: C 2/M
;
_chemical_formula_sum "Si O2"
_cell_formula_units_Z 64
_cell_length_a 20.829440
_cell_length_b 8.396476
_cell_length_c 21.695098
_cell_angle_alpha 90.000000
_cell_angle_beta 130.796802
_cell_angle_gamma 90.000000
_cell_volume 2872.435112
_symmetry_space_group_name_H-M "C 2/M"
_symmetry_group_IT_number 12
_symmetry_cell_setting 'monoclinic'
loop_
_space_group_symop_operation_xyz
x,y,z
-x,y,-z
-x,-y,-z
x,-y,z
1/2+x,1/2+y,z
1/2-x,1/2+y,-z
1/2-x,1/2-y,-z
1/2+x,1/2-y,z
loop_
_atom_site_type_symbol
_atom_site_label
_atom_site_fract_x
_atom_site_fract_y
_atom_site_fract_z
Si Si1 0.576415 0.812041 0.361968
Si Si2 0.596113 0.190726 0.554456
Si Si3 0.325084 0.318394 0.753704
Si Si4 0.167050 0.309184 0.982587
Si Si5 0.751145 0.685160 0.583766
Si Si6 0.737585 0.190136 0.156609
Si Si7 0.996692 0.181947 0.189211
Si Si8 0.595863 0.192037 0.692033
O O1 0.672738 0.744966 0.412193
O O2 0.528719 0.787464 0.266447
O O3 0.501361 0.751776 0.359836
O O4 0.587482 0.000000 0.381236
O O5 0.500000 0.252009 0.500000
O O6 0.657620 0.244405 0.537903
O O7 0.628994 0.231060 0.644003
O O8 0.591166 0.000000 0.546061
O O9 0.295521 0.500000 0.721784
O O10 0.290791 0.208861 0.677093
O O11 0.298914 0.267640 0.804805
O O12 0.426086 0.316113 0.810455
O O13 0.161746 0.500000 0.977531
O O14 0.183030 0.259676 0.063369
O O15 0.250000 0.250000 0.000000
O O16 0.086575 0.238920 0.897311
O O17 0.742247 0.500000 0.563728
O O18 0.836766 0.240585 0.217078
O O19 0.734527 0.000000 0.159385
O O20 0.986921 0.000000 0.205834
O O21 0.594635 0.000000 0.696339
#
# Coordination Sequence:
#
# PCOD9185611 Si02
#       8
#     8   8   8   8   8   8   8   8
#     4   9  19  35  57  83 111 149 190 231 280 332
#     4  10  21  37  58  84 114 149 188 228 275 334
#     4  10  20  35  56  81 108 143 184 225 275 335
#     4  11  24  39  54  75 107 146 186 231 284 335
#     4  10  19  34  57  84 114 145 184 231 278 331
#     4  11  23  36  54  81 110 141 183 235 282 324
#     4  10  21  36  55  80 110 144 186 232 278 331
#     4  10  20  36  58  82 110 146 188 229 274 334
#
# _framework density 22.280747999999999
#
# number of rings (size 3 to 8) (size 9 to 14) (size 15 to 20)
#    0.000    1.875    1.250    2.625    0.000    7.250 
#    0.000    3.125    0.000    0.000    0.000    0.000 
#    0.000    0.000    0.000    0.000    0.000    0.000 
#
# Total GULP energy -178705.598564 kJ/mol
# GULP energy per Si atom -5584.549955 kJ/mol
# Density = 2.223004 g / cm^3
# Si number density = 22.280748 Si / 1000 Ang^3
#
#
#
# Elastic Constant Matrix: (Units=GPa)
#
#
# Indices 1 2 3 4 5 6 
#
# 1 157.5591 11.9368 27.5469 0.0000 10.5912 0.0000
# 2 11.9368 29.1198 3.3510 0.0000 2.8044 0.0000
# 3 27.5469 3.3510 76.8996 0.0000 20.2808 0.0000
# 4 0.0000 0.0000 0.0000 24.2334 0.0000 6.3602
# 5 10.5912 2.8044 20.2808 0.0000 42.9286 0.0000
# 6 0.0000 0.0000 0.0000 6.3602 0.0000 26.1515
#
#
#
# Elastic Compliance Matrix: (Units=1/GPa)
#
#
# Indices 1 2 3 4 5 6 
#
# 1 0.006967 -0.002549 -0.002256 0.000000 -0.000486 0.000000
# 2 -0.002549 0.035564 -0.000217 0.000000 -0.001592 0.000000
# 3 -0.002256 -0.000217 0.015617 0.000000 -0.006807 0.000000
# 4 0.000000 0.000000 0.000000 0.044079 0.000000 -0.010720
# 5 -0.000486 -0.001592 -0.006807 0.000000 0.026734 0.000000
# 6 0.000000 0.000000 0.000000 -0.010720 0.000000 0.040846
#
#
# Mechanical properties :
#
#
# Convention : Reuss Voigt Hill
#
# Bulk Modulus (GPa) = 20.78861 38.80532 29.79697
# Shear Modulus (GPa) = 25.52492 33.37896 29.45194
#
# Velocity S-wave (km/s) = 3.38835 3.87474 3.63968
# Velocity P-wave (km/s) = 4.96573 6.12148 5.57364
#
# Compressibility (1/GPa) = 0.04810326
#
# Stress axis : x y z
#
# Youngs Moduli (GPa) = 143.53032 28.11812 64.03311
#
# Poissons Ratio (x) = 0.07169 0.14448
# Poissons Ratio (y) = 0.36593 0.01387
# Poissons Ratio (z) = 0.32386 0.00609
#
# Static dielectric constant tensor:
#      x y z
#    x 1.855740 0.000000 0.020180 
#    y 0.000000 1.788970 0.000000 
#    z 0.020180 0.000000 1.856320 
# 
# From -- ./inp_files/346213.got.cif
#   From: 2010.05.17/outbox.cif.g08.bks.cpg/sg12_174_cif.got.tgz:346213.got - 2010.06.03 13:09:07.
