data_PCOD9185688
_publ_section_title
;
Structure prediction by ZEFSAII (Michael W. Deem and Ramdas Pophale) SiO2 
 PCOD9185688
Probable space group: C 2/M
;
_chemical_formula_sum "Si O2"
_cell_formula_units_Z 64
_cell_length_a 29.963908
_cell_length_b 7.628580
_cell_length_c 15.306735
_cell_angle_alpha 90.000000
_cell_angle_beta 126.992069
_cell_angle_gamma 90.000000
_cell_volume 2794.593432
_symmetry_space_group_name_H-M "C 2/M"
_symmetry_group_IT_number 12
_symmetry_cell_setting 'monoclinic'
loop_
_space_group_symop_operation_xyz
x,y,z
-x,y,-z
-x,-y,-z
x,-y,z
1/2+x,1/2+y,z
1/2-x,1/2+y,-z
1/2-x,1/2-y,-z
1/2+x,1/2-y,z
loop_
_atom_site_type_symbol
_atom_site_label
_atom_site_fract_x
_atom_site_fract_y
_atom_site_fract_z
Si Si1 0.399310 0.300719 0.676169
Si Si2 0.441037 0.714694 0.893761
Si Si3 0.287314 0.794873 0.626932
Si Si4 0.752304 0.709892 0.226023
Si Si5 0.132303 0.214910 0.029886
Si Si6 0.943706 0.211500 0.556273
Si Si7 0.873638 0.294999 0.306761
Si Si8 0.939920 0.799384 0.219329
O O1 0.417438 0.500000 0.683231
O O2 0.439645 0.214600 0.793525
O O3 0.343795 0.302547 0.668117
O O4 0.398470 0.231854 0.577390
O O5 0.438869 0.500000 0.887283
O O6 0.393865 0.768103 0.907462
O O7 0.500000 0.765420 0.000000
O O8 0.250000 0.750000 0.500000
O O9 0.259725 0.747876 0.686221
O O10 0.299864 0.000000 0.642292
O O11 0.753721 0.500000 0.218975
O O12 0.697360 0.771866 0.107662
O O13 0.813462 0.774710 0.269078
O O14 0.132434 0.000000 0.027216
O O15 0.091924 0.275479 0.903418
O O16 0.920710 0.279448 0.437602
O O17 0.002652 0.271608 0.668706
O O18 0.947079 0.000000 0.546992
O O19 0.867297 0.500000 0.278541
O O20 0.895549 0.203808 0.245653
O O21 0.953966 0.000000 0.211754
#
# Coordination Sequence:
#
# PCOD9185688 Si02
#       8
#     8   8   8   8   8   8   8   8
#     4  10  19  34  57  86 118 150 186 229 281 337
#     4   9  15  26  52  87 116 145 185 228 272 331
#     4  12  24  37  56  83 116 153 194 235 285 343
#     4  10  21  40  61  84 116 154 195 240 289 348
#     4   9  17  33  58  85 116 151 189 235 288 339
#     4  10  21  37  59  88 118 148 193 246 292 343
#     4  11  24  39  58  83 113 153 198 242 298 357
#     4  10  21  38  61  88 115 148 194 247 296 344
#
# _framework density 22.901364000000001
#
# number of rings (size 3 to 8) (size 9 to 14) (size 15 to 20)
#    0.000    1.875    1.250    3.375    0.000    9.000 
#    0.000    0.625    0.000    0.375    0.000    0.000 
#    0.000    0.000    0.000    0.000    0.000    0.000 
#
# Total GULP energy -178519.554331 kJ/mol
# GULP energy per Si atom -5578.736073 kJ/mol
# Density = 2.284924 g / cm^3
# Si number density = 22.901364 Si / 1000 Ang^3
#
#
#
# Elastic Constant Matrix: (Units=GPa)
#
#
# Indices 1 2 3 4 5 6 
#
# 1 91.1173 1.6181 8.9137 0.0000 1.0195 0.0000
# 2 1.6181 58.8223 -1.9495 0.0000 5.1591 0.0000
# 3 8.9137 -1.9495 100.2875 0.0000 -2.5150 0.0000
# 4 0.0000 0.0000 0.0000 -3.6036 0.0000 0.6185
# 5 1.0195 5.1591 -2.5150 0.0000 41.3720 0.0000
# 6 0.0000 0.0000 0.0000 0.6185 0.0000 10.5113
#
#
#
# Elastic Compliance Matrix: (Units=1/GPa)
#
#
# Indices 1 2 3 4 5 6 
#
# 1 0.011081 -0.000312 -0.000998 0.000000 -0.000295 0.000000
# 2 -0.000312 0.017205 0.000309 0.000000 -0.002119 0.000000
# 3 -0.000998 0.000309 0.010081 0.000000 0.000599 0.000000
# 4 0.000000 0.000000 0.000000 -0.274727 0.000000 0.016166
# 5 -0.000295 -0.002119 0.000599 0.000000 0.024479 0.000000
# 6 0.000000 0.000000 0.000000 0.016166 0.000000 0.094184
#
#
# Mechanical properties :
#
#
# Convention : Reuss Voigt Hill
#
# Bulk Modulus (GPa) = 27.49920 29.71020 28.60470
# Shear Modulus (GPa) = -48.27562 25.76561 -11.25501
#
# Velocity S-wave (km/s) = -4.59626 3.35784 -2.21928
# Velocity P-wave (km/s) = 4.01668 5.29479 2.43937
#
# Compressibility (1/GPa) = 0.03636469
#
# Stress axis : x y z
#
# Youngs Moduli (GPa) = 90.24156 58.12257 99.19559
#
# Poissons Ratio (x) = 0.01814 0.09904
# Poissons Ratio (y) = 0.02816 -0.03066
# Poissons Ratio (z) = 0.09010 -0.01796
#
# Static dielectric constant tensor:
#      x y z
#    x 1.949080 0.000000 0.205090 
#    y 0.000000 1.868980 0.000000 
#    z 0.205090 0.000000 2.523600 
# 
# From -- ./inp_files/250027.got.cif
#   From: 2010.05.17/outbox.cif.g08.bks.cpg/sg12_126_cif.got.tgz:250027.got - 2010.06.03 13:09:07.
