data_PCOD9185324
_publ_section_title
;
Structure prediction by ZEFSAII (Michael W. Deem and Ramdas Pophale) SiO2 
 PCOD9185324
Probable space group: C 2/M
;
_chemical_formula_sum "Si O2"
_cell_formula_units_Z 56
_cell_length_a 26.429143
_cell_length_b 18.639562
_cell_length_c 9.426775
_cell_angle_alpha 90.000000
_cell_angle_beta 45.897105
_cell_angle_gamma 90.000000
_cell_volume 3334.736245
_symmetry_space_group_name_H-M "C 2/M"
_symmetry_group_IT_number 12
_symmetry_cell_setting 'monoclinic'
loop_
_space_group_symop_operation_xyz
x,y,z
-x,y,-z
-x,-y,-z
x,-y,z
1/2+x,1/2+y,z
1/2-x,1/2+y,-z
1/2-x,1/2-y,-z
1/2+x,1/2-y,z
loop_
_atom_site_type_symbol
_atom_site_label
_atom_site_fract_x
_atom_site_fract_y
_atom_site_fract_z
Si Si1 0.817710 0.326617 0.719474
Si Si2 0.660581 0.311813 0.130446
Si Si3 0.918300 0.710739 0.937767
Si Si4 0.934447 0.920053 0.522600
Si Si5 0.579795 0.082592 0.287503
Si Si6 0.540639 0.686090 0.781563
Si Si7 0.328958 0.772788 0.388448
O O1 0.836556 0.249362 0.753008
O O2 0.867387 0.384996 0.697361
O O3 0.825530 0.322378 0.534928
O O4 0.736590 0.333965 0.923553
O O5 0.617642 0.273389 0.087400
O O6 0.624635 0.379524 0.272166
O O7 0.918798 0.638477 0.845375
O O8 0.995496 0.742740 0.824942
O O9 0.870929 0.698122 0.169620
O O10 0.957150 0.870974 0.347139
O O11 0.000000 0.924519 0.500000
O O12 0.913452 0.000000 0.518964
O O13 0.500000 0.083863 0.500000
O O14 0.597829 0.000000 0.217287
O O15 0.620295 0.707153 0.664872
O O16 0.500000 0.658719 0.000000
O O17 0.250000 0.750000 0.500000
#
# Coordination Sequence:
#
# PCOD9185324 Si02
#       7
#     8   8   8   8   8   8   8
#     4  10  20  34  59  82 109 144 188 231 277 327
#     4  10  19  34  56  84 107 144 185 234 276 322
#     4  10  20  35  59  83 113 144 185 236 277 329
#     4  11  22  35  56  84 114 147 184 229 281 336
#     4  10  22  38  58  84 113 148 186 231 283 336
#     4  10  21  35  56  82 113 150 187 228 282 327
#     4  11  20  34  55  87 111 142 192 237 271 323
#
# _framework density 16.792933000000001
#
# number of rings (size 3 to 8) (size 9 to 14) (size 15 to 20)
#    0.000    1.714    4.286    0.857    2.000    0.857 
#    0.000    0.714    0.000    6.429    0.000    0.000 
#    0.000    0.000    0.000    0.000    0.000    0.000 
#
# Total GULP energy -156109.770956 kJ/mol
# GULP energy per Si atom -5575.348963 kJ/mol
# Density = 1.675471 g / cm^3
# Si number density = 16.792933 Si / 1000 Ang^3
#
#
#
# Elastic Constant Matrix: (Units=GPa)
#
#
# Indices 1 2 3 4 5 6 
#
# 1 98.6068 43.6381 50.6995 0.0000 -1.1091 0.0000
# 2 43.6381 110.0226 66.5434 0.0000 3.7549 0.0000
# 3 50.6995 66.5434 97.4623 0.0000 16.5356 0.0000
# 4 0.0000 0.0000 0.0000 -14.0749 0.0000 -6.4721
# 5 -1.1091 3.7549 16.5356 0.0000 39.0629 0.0000
# 6 0.0000 0.0000 0.0000 -6.4721 0.0000 15.5344
#
#
#
# Elastic Compliance Matrix: (Units=1/GPa)
#
#
# Indices 1 2 3 4 5 6 
#
# 1 0.014524 -0.001614 -0.007056 0.000000 0.003554 0.000000
# 2 -0.001614 0.016046 -0.010609 0.000000 0.002902 0.000000
# 3 -0.007056 -0.010609 0.022663 0.000000 -0.008774 0.000000
# 4 0.000000 0.000000 0.000000 -0.059625 0.000000 -0.024842
# 5 0.003554 0.002902 -0.008774 0.000000 0.029136 0.000000
# 6 0.000000 0.000000 0.000000 -0.024842 0.000000 0.054024
#
#
# Mechanical properties :
#
#
# Convention : Reuss Voigt Hill
#
# Bulk Modulus (GPa) = 68.14324 69.76150 68.95237
# Shear Modulus (GPa) = 41.59182 17.78519 29.68851
#
# Velocity S-wave (km/s) = 4.98209 3.25789 4.20922
# Velocity P-wave (km/s) = 8.58846 7.46888 8.04816
#
# Compressibility (1/GPa) = 0.01467497
#
# Stress axis : x y z
#
# Youngs Moduli (GPa) = 68.85383 62.31892 44.12540
#
# Poissons Ratio (x) = 0.10059 0.31135
# Poissons Ratio (y) = 0.11114 0.46811
# Poissons Ratio (z) = 0.48584 0.66112
#
# Static dielectric constant tensor:
#      x y z
#    x 1.590360 0.000000 0.000720 
#    y 0.000000 1.540660 0.000000 
#    z 0.000720 0.000000 1.578010 
# 
# From -- ./inp_files/98029.got.cif
#   From: 2010.05.17/outbox.cif.g08.bks.cpg/sg12_50_cif.got.tgz:98029.got - 2010.06.03 13:09:07.
