data_PCOD9185203
_publ_section_title
;
Structure prediction by ZEFSAII (Michael W. Deem and Ramdas Pophale) SiO2 
 PCOD9185203
Probable space group: C 2/M
;
_chemical_formula_sum "Si O2"
_cell_formula_units_Z 44
_cell_length_a 25.203928
_cell_length_b 14.444237
_cell_length_c 6.277036
_cell_angle_alpha 90.000000
_cell_angle_beta 82.348873
_cell_angle_gamma 90.000000
_cell_volume 2264.819905
_symmetry_space_group_name_H-M "C 2/M"
_symmetry_group_IT_number 12
_symmetry_cell_setting 'monoclinic'
loop_
_space_group_symop_operation_xyz
x,y,z
-x,y,-z
-x,-y,-z
x,-y,z
1/2+x,1/2+y,z
1/2-x,1/2+y,-z
1/2-x,1/2-y,-z
1/2+x,1/2-y,z
loop_
_atom_site_type_symbol
_atom_site_label
_atom_site_fract_x
_atom_site_fract_y
_atom_site_fract_z
Si Si1 0.412254 0.259919 0.731932
Si Si2 0.858199 0.895321 0.481651
Si Si3 0.254216 0.393091 0.840842
Si Si4 0.000000 0.301504 0.000000
Si Si5 0.556518 0.897554 0.595946
Si Si6 0.820206 0.227616 0.121817
O O1 0.403838 0.355356 0.611476
O O2 0.465655 0.254674 0.845557
O O3 0.412176 0.178415 0.556811
O O4 0.362088 0.247997 0.914837
O O5 0.803090 0.893477 0.646954
O O6 0.850561 0.826259 0.290511
O O7 0.868353 0.000000 0.406613
O O8 0.237696 0.500000 0.882453
O O9 0.208800 0.321569 0.789555
O O10 0.277444 0.344647 0.042686
O O11 0.958725 0.363264 0.159768
O O12 0.500000 0.903707 0.500000
O O13 0.580869 0.000000 0.586380
#
# Coordination Sequence:
#
# PCOD9185203 Si02
#       6
#     8   8   8   4   8   8
#     4  10  21  35  54  82 110 142 184 229 271 322
#     4  10  20  36  56  78 108 147 188 228 273 326
#     4   9  19  34  54  81 110 143 183 224 271 328
#     4  10  19  36  59  78 110 148 181 222 271 320
#     4   9  18  33  54  79 106 139 177 216 265 324
#     4  10  19  34  56  80 111 146 182 225 276 326
#
# _framework density 19.427593999999999
#
# number of rings (size 3 to 8) (size 9 to 14) (size 15 to 20)
#    0.000    2.364    0.000    2.455    0.000    2.182 
#    0.000    3.182    0.000   10.364    0.000    0.000 
#    0.000    0.000    0.000    0.000    0.000    0.000 
#
# Total GULP energy -122721.549029 kJ/mol
# GULP energy per Si atom -5578.252229 kJ/mol
# Density = 1.938338 g / cm^3
# Si number density = 19.427594 Si / 1000 Ang^3
#
#
#
# Elastic Constant Matrix: (Units=GPa)
#
#
# Indices 1 2 3 4 5 6 
#
# 1 39.7131 51.4194 19.3807 0.0000 9.3458 0.0000
# 2 51.4194 162.1309 58.0759 0.0000 -2.0355 0.0000
# 3 19.3807 58.0759 85.9178 0.0000 9.2685 0.0000
# 4 0.0000 0.0000 0.0000 16.3521 0.0000 -3.4038
# 5 9.3458 -2.0355 9.2685 0.0000 18.6372 0.0000
# 6 0.0000 0.0000 0.0000 -3.4038 0.0000 27.1959
#
#
#
# Elastic Compliance Matrix: (Units=1/GPa)
#
#
# Indices 1 2 3 4 5 6 
#
# 1 0.056443 -0.019800 0.004161 0.000000 -0.032535 0.000000
# 2 -0.019800 0.015351 -0.007568 0.000000 0.015369 0.000000
# 3 0.004161 -0.007568 0.017045 0.000000 -0.011390 0.000000
# 4 0.000000 0.000000 0.000000 0.062790 0.000000 0.007859
# 5 -0.032535 0.015369 -0.011390 0.000000 0.077314 0.000000
# 6 0.000000 0.000000 0.000000 0.007859 0.000000 0.037754
#
#
# Mechanical properties :
#
#
# Convention : Reuss Voigt Hill
#
# Bulk Modulus (GPa) = 23.57074 60.61266 42.09170
# Shear Modulus (GPa) = 15.27876 23.02942 19.15409
#
# Velocity S-wave (km/s) = 2.80741 3.44669 3.14335
# Velocity P-wave (km/s) = 4.76106 6.86343 5.90653
#
# Compressibility (1/GPa) = 0.04242549
#
# Stress axis : x y z
#
# Youngs Moduli (GPa) = 17.71710 65.14121 58.66895
#
# Poissons Ratio (x) = 1.28978 -0.24415
# Poissons Ratio (y) = 0.35079 0.44403
# Poissons Ratio (z) = -0.07373 0.49301
#
# Static dielectric constant tensor:
#      x y z
#    x 1.699940 0.000000 0.013030 
#    y 0.000000 1.677270 0.000000 
#    z 0.013030 0.000000 1.676870 
# 
# From -- ./inp_files/24298.got.cif
#   From: 2010.05.17/outbox.cif.g08.bks.cpg/sg12_13_cif.got.tgz:24298.got - 2010.06.03 13:09:07.
