data_PCOD9185965
_publ_section_title
;
Structure prediction by ZEFSAII (Michael W. Deem and Ramdas Pophale) SiO2 
 PCOD9185965
Probable space group: C 2/M
;
_chemical_formula_sum "Si O2"
_cell_formula_units_Z 64
_cell_length_a 12.561900
_cell_length_b 14.818479
_cell_length_c 14.674711
_cell_angle_alpha 90.000000
_cell_angle_beta 89.278438
_cell_angle_gamma 90.000000
_cell_volume 2731.455174
_symmetry_space_group_name_H-M "C 2/M"
_symmetry_group_IT_number 12
_symmetry_cell_setting 'monoclinic'
loop_
_space_group_symop_operation_xyz
x,y,z
-x,y,-z
-x,-y,-z
x,-y,z
1/2+x,1/2+y,z
1/2-x,1/2+y,-z
1/2-x,1/2-y,-z
1/2+x,1/2-y,z
loop_
_atom_site_type_symbol
_atom_site_label
_atom_site_fract_x
_atom_site_fract_y
_atom_site_fract_z
Si Si1 0.433592 0.389411 0.277780
Si Si2 0.237469 0.610218 0.391445
Si Si3 0.835531 0.610205 0.409394
Si Si4 0.676922 0.609537 0.250752
Si Si5 0.713102 0.399652 0.879468
Si Si6 0.969263 0.391001 0.710265
Si Si7 0.955515 0.337372 0.904518
Si Si8 0.172425 0.819911 0.055649
O O1 0.440808 0.500000 0.277407
O O2 0.357024 0.363381 0.362460
O O3 0.555748 0.359817 0.272785
O O4 0.366408 0.354495 0.191175
O O5 0.235887 0.500000 0.392467
O O6 0.198924 0.641544 0.490654
O O7 0.149765 0.637979 0.316947
O O8 0.835572 0.500000 0.412857
O O9 0.751902 0.637395 0.332729
O O10 0.951143 0.636763 0.371114
O O11 0.678863 0.500000 0.244744
O O12 0.713723 0.647162 0.152326
O O13 0.720807 0.500000 0.843745
O O14 0.835494 0.371359 0.887143
O O15 0.662846 0.396238 0.980439
O O16 0.969605 0.500000 0.715090
O O17 0.010438 0.358343 0.808455
O O18 0.935633 0.232066 0.921330
O O19 0.000000 0.375053 0.000000
O O20 0.250000 0.750000 0.000000
#
# Coordination Sequence:
#
# PCOD9185965 Si02
#       8
#     8   8   8   8   8   8   8   8
#     4   9  18  32  56  84 111 147 191 239 290 339
#     4   9  16  32  56  88 119 146 188 241 299 354
#     4   9  19  32  55  90 122 146 184 245 301 347
#     4  10  21  38  58  86 117 153 197 245 292 340
#     4  10  20  38  60  85 113 149 198 245 291 348
#     4  10  19  34  58  87 119 155 192 238 296 353
#     4  11  24  37  55  87 119 155 198 239 299 352
#     4  10  24  40  56  81 116 156 195 235 295 354
#
# _framework density 23.430734999999999
#
# number of rings (size 3 to 8) (size 9 to 14) (size 15 to 20)
#    0.000    2.250    1.250    1.125    5.250    3.000 
#    0.000    4.375    0.000    0.750    3.250    0.000 
#    0.000    0.000    0.000    0.000    0.000    0.000 
#
# Total GULP energy -178605.237154 kJ/mol
# GULP energy per Si atom -5581.413661 kJ/mol
# Density = 2.337741 g / cm^3
# Si number density = 23.430735 Si / 1000 Ang^3
#
#
#
# Elastic Constant Matrix: (Units=GPa)
#
#
# Indices 1 2 3 4 5 6 
#
# 1 90.7085 12.4040 27.7472 0.0000 -10.4496 0.0000
# 2 12.4040 28.2390 4.8266 0.0000 -1.1138 0.0000
# 3 27.7472 4.8266 158.7833 0.0000 -18.1245 0.0000
# 4 0.0000 0.0000 0.0000 -0.1533 0.0000 -1.4801
# 5 -10.4496 -1.1138 -18.1245 0.0000 36.2646 0.0000
# 6 0.0000 0.0000 0.0000 -1.4801 0.0000 19.3970
#
#
#
# Elastic Compliance Matrix: (Units=1/GPa)
#
#
# Indices 1 2 3 4 5 6 
#
# 1 0.012555 -0.005115 -0.001743 0.000000 0.002590 0.000000
# 2 -0.005115 0.037692 -0.000305 0.000000 -0.000469 0.000000
# 3 -0.001743 -0.000305 0.006950 0.000000 0.002962 0.000000
# 4 0.000000 0.000000 0.000000 -3.756649 0.000000 -0.286658
# 5 0.002590 -0.000469 0.002962 0.000000 0.029787 0.000000
# 6 0.000000 0.000000 0.000000 -0.286658 0.000000 0.029680
#
#
# Mechanical properties :
#
#
# Convention : Reuss Voigt Hill
#
# Bulk Modulus (GPa) = 23.32579 40.85403 32.08991
# Shear Modulus (GPa) = -1.38452 26.61854 12.61701
#
# Velocity S-wave (km/s) = -0.76953 3.37419 2.32304
# Velocity P-wave (km/s) = 3.03105 5.71438 4.57392
#
# Compressibility (1/GPa) = 0.04287100
#
# Stress axis : x y z
#
# Youngs Moduli (GPa) = 79.64805 26.53054 143.88831
#
# Poissons Ratio (x) = 0.13570 0.25079
# Poissons Ratio (y) = 0.40739 0.04395
# Poissons Ratio (z) = 0.13882 0.00810
#
# Static dielectric constant tensor:
#      x y z
#    x 1.948870 0.000000 0.032690 
#    y 0.000000 2.095900 0.000000 
#    z 0.032690 0.000000 1.940090 
# 
# From -- ./inp_files/206655.got.cif
#   From: 2010.05.17/outbox.cif.g08.bks.cpg/sg12_104_cif.got.tgz:206655.got - 2010.06.03 13:09:07.
