data_PCOD9185000
_publ_section_title
;
Structure prediction by ZEFSAII (Michael W. Deem and Ramdas Pophale) SiO2 
 PCOD9185000
Probable space group: C 2/M
;
_chemical_formula_sum "Si O2"
_cell_formula_units_Z 56
_cell_length_a 21.106471
_cell_length_b 7.558201
_cell_length_c 28.453281
_cell_angle_alpha 90.000000
_cell_angle_beta 35.132991
_cell_angle_gamma 90.000000
_cell_volume 2612.124180
_symmetry_space_group_name_H-M "C 2/M"
_symmetry_group_IT_number 12
_symmetry_cell_setting 'monoclinic'
loop_
_space_group_symop_operation_xyz
x,y,z
-x,y,-z
-x,-y,-z
x,-y,z
1/2+x,1/2+y,z
1/2-x,1/2+y,-z
1/2-x,1/2-y,-z
1/2+x,1/2-y,z
loop_
_atom_site_type_symbol
_atom_site_label
_atom_site_fract_x
_atom_site_fract_y
_atom_site_fract_z
Si Si1 0.814845 0.212286 0.508722
Si Si2 0.557557 0.711223 0.340682
Si Si3 0.784118 0.787800 0.032581
Si Si4 0.078667 0.713439 0.217668
Si Si5 0.649800 0.216967 0.689725
Si Si6 0.509684 0.713513 0.940430
Si Si7 0.718157 0.210634 0.751075
O O1 0.750000 0.250000 0.500000
O O2 0.742708 0.275554 0.596381
O O3 0.939225 0.281975 0.429171
O O4 0.821306 0.000000 0.509239
O O5 0.555074 0.500000 0.349788
O O6 0.570874 0.739322 0.276961
O O7 0.664671 0.782681 0.302506
O O8 0.689415 0.721255 0.125297
O O9 0.787240 0.000000 0.035631
O O10 0.750000 0.750000 0.000000
O O11 0.904934 0.721776 0.973813
O O12 0.079573 0.500000 0.214536
O O13 0.969624 0.774740 0.256365
O O14 0.677211 0.278455 0.725520
O O15 0.648312 0.000000 0.690536
O O16 0.505651 0.500000 0.943917
O O17 0.624018 0.761637 0.846811
O O18 0.500000 0.775936 0.000000
O O19 0.731536 0.000000 0.737318
#
# Coordination Sequence:
#
# PCOD9185000 Si02
#       7
#     8   8   8   8   8   8   8
#     4  10  19  34  55  81 109 139 176 217 264 317
#     4  10  21  34  53  82 110 135 173 224 268 310
#     4  10  21  35  54  80 108 139 178 223 270 318
#     4  10  19  34  56  78 102 140 182 216 260 321
#     4   9  18  33  55  79 106 141 177 214 261 317
#     4  10  21  38  57  78 107 144 183 222 266 319
#     4  10  21  37  55  79 109 141 179 222 269 318
#
# _framework density 21.438490999999999
#
# number of rings (size 3 to 8) (size 9 to 14) (size 15 to 20)
#    0.000    2.143    1.429    1.714    0.000    4.857 
#    0.000    4.286    0.000    0.000    0.000    3.000 
#    0.000    0.000    0.000    0.000    0.000    0.000 
#
# Total GULP energy -156482.760630 kJ/mol
# GULP energy per Si atom -5588.670022 kJ/mol
# Density = 2.138970 g / cm^3
# Si number density = 21.438491 Si / 1000 Ang^3
#
#
#
# Elastic Constant Matrix: (Units=GPa)
#
#
# Indices 1 2 3 4 5 6 
#
# 1 114.3445 -1.1614 19.3324 0.0059 -21.4926 -0.0175
# 2 -1.1614 50.4809 -0.8518 0.0237 -6.0915 0.0268
# 3 19.3324 -0.8518 107.5203 0.0097 -22.6506 -0.0092
# 4 0.0059 0.0237 0.0097 10.3160 0.0019 4.9048
# 5 -21.4926 -6.0915 -22.6506 0.0019 44.0710 0.0024
# 6 -0.0175 0.0268 -0.0092 4.9048 0.0024 21.0183
#
#
#
# Elastic Compliance Matrix: (Units=1/GPa)
#
#
# Indices 1 2 3 4 5 6 
#
# 1 0.009722 0.000744 -0.000809 -0.000012 0.004428 0.000009
# 2 0.000744 0.020270 0.000778 -0.000041 0.003564 -0.000016
# 3 -0.000809 0.000778 0.010532 -0.000015 0.005126 0.000006
# 4 -0.000012 -0.000041 -0.000015 0.109035 -0.000022 -0.025444
# 5 0.004428 0.003564 0.005126 -0.000022 0.027977 0.000003
# 6 0.000009 -0.000016 0.000006 -0.025444 0.000003 0.053515
#
#
# Mechanical properties :
#
#
# Convention : Reuss Voigt Hill
#
# Bulk Modulus (GPa) = 23.83817 34.10936 28.97377
# Shear Modulus (GPa) = 20.52467 32.08281 26.30374
#
# Velocity S-wave (km/s) = 3.09750 3.87267 3.50657
# Velocity P-wave (km/s) = 4.89246 5.99513 5.47164
#
# Compressibility (1/GPa) = 0.04194953
#
# Stress axis : x y z
#
# Youngs Moduli (GPa) = 102.85677 49.33435 94.94806
#
# Poissons Ratio (x) = -0.03672 0.07684
# Poissons Ratio (y) = -0.07656 -0.07383
# Poissons Ratio (z) = 0.08324 -0.03836
#
# Static dielectric constant tensor:
#      x y z
#    x 1.736130 -0.000170 -0.023470 
#    y -0.000170 1.863630 0.000180 
#    z -0.023470 0.000180 1.748220 
# 
# From -- ./inp_files/280402.got.cif
#   From: 2010.05.17/outbox.cif.g08.bks.cpg/sg12_141_cif.got.tgz:280402.got - 2010.06.03 13:09:07.
