data_PCOD9185167
_publ_section_title
;
Structure prediction by ZEFSAII (Michael W. Deem and Ramdas Pophale) SiO2 
 PCOD9185167
Probable space group: C 2/M
;
_chemical_formula_sum "Si O2"
_cell_formula_units_Z 56
_cell_length_a 25.779976
_cell_length_b 8.609955
_cell_length_c 17.228239
_cell_angle_alpha 90.000000
_cell_angle_beta 120.600791
_cell_angle_gamma 90.000000
_cell_volume 3291.499102
_symmetry_space_group_name_H-M "C 2/M"
_symmetry_group_IT_number 12
_symmetry_cell_setting 'monoclinic'
loop_
_space_group_symop_operation_xyz
x,y,z
-x,y,-z
-x,-y,-z
x,-y,z
1/2+x,1/2+y,z
1/2-x,1/2+y,-z
1/2-x,1/2-y,-z
1/2+x,1/2-y,z
loop_
_atom_site_type_symbol
_atom_site_label
_atom_site_fract_x
_atom_site_fract_y
_atom_site_fract_z
Si Si1 0.800387 0.312219 0.208721
Si Si2 0.870110 0.311324 0.107118
Si Si3 0.945251 0.186157 0.900920
Si Si4 0.168523 0.313720 0.094265
Si Si5 0.410250 0.186384 0.400735
Si Si6 0.528731 0.315061 0.406439
Si Si7 0.990029 0.313598 0.773034
O O1 0.795649 0.500000 0.203503
O O2 0.829969 0.260443 0.149385
O O3 0.734824 0.240670 0.168240
O O4 0.847668 0.270575 0.312257
O O5 0.870051 0.500000 0.108088
O O6 0.939647 0.262663 0.169071
O O7 0.844507 0.261293 0.004474
O O8 0.883250 0.244126 0.890936
O O9 0.957716 0.257305 0.826220
O O10 0.945232 0.000000 0.895596
O O11 0.000000 0.233536 0.000000
O O12 0.164594 0.500000 0.093288
O O13 0.465318 0.245999 0.389272
O O14 0.421884 0.255639 0.494485
O O15 0.414240 0.000000 0.407199
O O16 0.525653 0.500000 0.406636
O O17 0.537856 0.255854 0.326395
O O18 0.988915 0.500000 0.767964
#
# Coordination Sequence:
#
# PCOD9185167 Si02
#       7
#     8   8   8   8   8   8   8
#     4  10  20  36  55  79 112 149 186 228 273 324
#     4   9  18  33  53  79 110 146 184 221 268 323
#     4  11  23  38  56  81 110 144 186 234 279 319
#     4  11  22  36  55  80 110 150 191 226 271 329
#     4  10  19  34  56  79 109 150 188 222 274 335
#     4  11  21  33  52  83 116 142 179 231 282 327
#     4  11  20  36  59  81 110 146 187 228 273 332
#
# _framework density 17.013525000000001
#
# number of rings (size 3 to 8) (size 9 to 14) (size 15 to 20)
#    0.000    1.571    2.857    4.286    0.000    1.714 
#    0.000    0.714    0.000    0.857    0.000    0.000 
#    0.000    0.000    0.000    0.000    0.000    0.000 
#
# Total GULP energy -156412.459097 kJ/mol
# GULP energy per Si atom -5586.159253 kJ/mol
# Density = 1.697480 g / cm^3
# Si number density = 17.013525 Si / 1000 Ang^3
#
#
#
# Elastic Constant Matrix: (Units=GPa)
#
#
# Indices 1 2 3 4 5 6 
#
# 1 121.7827 29.5264 76.9403 0.0000 2.0890 0.0000
# 2 29.5264 48.8451 45.0545 0.0000 0.1819 0.0000
# 3 76.9403 45.0545 150.2517 0.0000 -12.7129 0.0000
# 4 0.0000 0.0000 0.0000 24.0983 0.0000 -1.5729
# 5 2.0890 0.1819 -12.7129 0.0000 24.0070 0.0000
# 6 0.0000 0.0000 0.0000 -1.5729 0.0000 19.8795
#
#
#
# Elastic Compliance Matrix: (Units=1/GPa)
#
#
# Indices 1 2 3 4 5 6 
#
# 1 0.012747 -0.001824 -0.006358 0.000000 -0.004462 0.000000
# 2 -0.001824 0.029130 -0.008172 0.000000 -0.004390 0.000000
# 3 -0.006358 -0.008172 0.012996 0.000000 0.007497 0.000000
# 4 0.000000 0.000000 0.000000 0.041712 0.000000 0.003300
# 5 -0.004462 -0.004390 0.007497 0.000000 0.046046 0.000000
# 6 0.000000 0.000000 0.000000 0.003300 0.000000 0.050564
#
#
# Mechanical properties :
#
#
# Convention : Reuss Voigt Hill
#
# Bulk Modulus (GPa) = 45.11762 69.32466 57.22114
# Shear Modulus (GPa) = 21.43230 24.88751 23.15991
#
# Velocity S-wave (km/s) = 3.55311 3.82882 3.69353
# Velocity P-wave (km/s) = 6.58855 7.77057 7.20384
#
# Compressibility (1/GPa) = 0.02216429
#
# Stress axis : x y z
#
# Youngs Moduli (GPa) = 78.44940 34.32896 76.94602
#
# Poissons Ratio (x) = 0.06263 0.48922
# Poissons Ratio (y) = 0.14311 0.62881
# Poissons Ratio (z) = 0.49878 0.28054
#
# Static dielectric constant tensor:
#      x y z
#    x 1.539210 0.000000 -0.002490 
#    y 0.000000 1.569780 0.000000 
#    z -0.002490 0.000000 1.577630 
# 
# From -- ./inp_files/287850.got.cif
#   From: 2010.05.17/outbox.cif.g08.bks.cpg/sg12_144_cif.got.tgz:287850.got - 2010.06.03 13:09:07.
