data_PCOD9185774
_publ_section_title
;
Structure prediction by ZEFSAII (Michael W. Deem and Ramdas Pophale) SiO2 
 PCOD9185774
Probable space group: C 2/M
;
_chemical_formula_sum "Si O2"
_cell_formula_units_Z 56
_cell_length_a 17.418105
_cell_length_b 23.418213
_cell_length_c 11.996574
_cell_angle_alpha 90.000000
_cell_angle_beta 141.327460
_cell_angle_gamma 90.000000
_cell_volume 3057.740039
_symmetry_space_group_name_H-M "C 2/M"
_symmetry_group_IT_number 12
_symmetry_cell_setting 'monoclinic'
loop_
_space_group_symop_operation_xyz
x,y,z
-x,y,-z
-x,-y,-z
x,-y,z
1/2+x,1/2+y,z
1/2-x,1/2+y,-z
1/2-x,1/2-y,-z
1/2+x,1/2-y,z
loop_
_atom_site_type_symbol
_atom_site_label
_atom_site_fract_x
_atom_site_fract_y
_atom_site_fract_z
Si Si1 0.710791 0.565621 0.482733
Si Si2 0.541945 0.562147 0.676806
Si Si3 0.128117 0.628456 0.154752
Si Si4 0.727130 0.663778 0.889818
Si Si5 0.779905 0.220015 0.888702
Si Si6 0.437516 0.766044 0.756193
Si Si7 0.240347 0.674327 0.600882
O O1 0.746193 0.500000 0.501018
O O2 0.569754 0.565591 0.362857
O O3 0.779225 0.592354 0.667180
O O4 0.741792 0.609380 0.418591
O O5 0.500000 0.563094 0.500000
O O6 0.603672 0.500000 0.763143
O O7 0.623505 0.617256 0.784449
O O8 0.173199 0.638249 0.080895
O O9 0.101232 0.688474 0.190113
O O10 0.000000 0.596800 0.000000
O O11 0.695695 0.723297 0.792625
O O12 0.761311 0.683218 0.052207
O O13 0.763795 0.185900 0.757061
O O14 0.921585 0.243448 0.070790
O O15 0.348613 0.711322 0.664734
O O16 0.389387 0.799735 0.591475
#
# Coordination Sequence:
#
# PCOD9185774 Si02
#       7
#     8   8   8   8   8   8   8
#     4  10  22  38  59  86 114 153 204 247 290 348
#     4  10  20  36  57  83 118 152 194 250 292 339
#     4  11  19  35  58  82 119 150 190 245 301 346
#     4  11  22  34  57  85 117 154 191 239 296 355
#     4  11  22  37  56  88 123 152 196 244 296 355
#     4  10  19  34  58  82 115 153 189 242 293 355
#     4  10  20  35  59  84 114 158 191 236 305 348
#
# _framework density 18.31418
#
# number of rings (size 3 to 8) (size 9 to 14) (size 15 to 20)
#    0.000    1.571    4.286    1.286    0.000    1.429 
#    0.000    2.857    0.000    3.429    0.000    1.000 
#    0.000    0.000    0.000    0.000    0.000    0.000 
#
# Total GULP energy -155983.093757 kJ/mol
# GULP energy per Si atom -5570.824777 kJ/mol
# Density = 1.827250 g / cm^3
# Si number density = 18.314180 Si / 1000 Ang^3
#
#
#
# Elastic Constant Matrix: (Units=GPa)
#
#
# Indices 1 2 3 4 5 6 
#
# 1 90.3964 53.9631 51.5136 0.0000 -23.6871 0.0000
# 2 53.9631 131.6590 39.7632 0.0000 -2.9656 0.0000
# 3 51.5136 39.7632 68.0470 0.0000 -3.3329 0.0000
# 4 0.0000 0.0000 0.0000 21.2472 0.0000 -0.5121
# 5 -23.6871 -2.9656 -3.3329 0.0000 22.7614 0.0000
# 6 0.0000 0.0000 0.0000 -0.5121 0.0000 30.8085
#
#
#
# Elastic Compliance Matrix: (Units=1/GPa)
#
#
# Indices 1 2 3 4 5 6 
#
# 1 0.037403 -0.007906 -0.021997 0.000000 0.034673 0.000000
# 2 -0.007906 0.010898 -0.000722 0.000000 -0.006913 0.000000
# 3 -0.021997 -0.000722 0.030865 0.000000 -0.018466 0.000000
# 4 0.000000 0.000000 0.000000 0.047084 0.000000 0.000783
# 5 0.034673 -0.006913 -0.018466 0.000000 0.076412 0.000000
# 6 0.000000 0.000000 0.000000 0.000783 0.000000 0.032472
#
#
# Mechanical properties :
#
#
# Convention : Reuss Voigt Hill
#
# Bulk Modulus (GPa) = 55.81347 64.50914 60.16131
# Shear Modulus (GPa) = 16.53685 24.62091 20.57888
#
# Velocity S-wave (km/s) = 3.00818 3.67053 3.35574
# Velocity P-wave (km/s) = 6.52742 7.29821 6.92355
#
# Compressibility (1/GPa) = 0.01791682
#
# Stress axis : x y z
#
# Youngs Moduli (GPa) = 26.73617 91.75959 32.39865
#
# Poissons Ratio (x) = 0.72543 0.71267
# Poissons Ratio (y) = 0.21137 0.02339
# Poissons Ratio (z) = 0.58811 0.06625
#
# Static dielectric constant tensor:
#      x y z
#    x 1.678360 0.000000 0.005030 
#    y 0.000000 1.640420 0.000000 
#    z 0.005030 0.000000 1.667450 
# 
# From -- ./inp_files/160359.got.cif
#   From: 2010.05.17/outbox.cif.g08.bks.cpg/sg12_81_cif.got.tgz:160359.got - 2010.06.03 13:09:07.
