data_PCOD9185178
_publ_section_title
;
Structure prediction by ZEFSAII (Michael W. Deem and Ramdas Pophale) SiO2 
 PCOD9185178
Probable space group: C 2/M
;
_chemical_formula_sum "Si O2"
_cell_formula_units_Z 40
_cell_length_a 25.555329
_cell_length_b 13.584815
_cell_length_c 19.756734
_cell_angle_alpha 90.000000
_cell_angle_beta 160.228720
_cell_angle_gamma 90.000000
_cell_volume 2320.112429
_symmetry_space_group_name_H-M "C 2/M"
_symmetry_group_IT_number 12
_symmetry_cell_setting 'monoclinic'
loop_
_space_group_symop_operation_xyz
x,y,z
-x,y,-z
-x,-y,-z
x,-y,z
1/2+x,1/2+y,z
1/2-x,1/2+y,-z
1/2-x,1/2-y,-z
1/2+x,1/2-y,z
loop_
_atom_site_type_symbol
_atom_site_label
_atom_site_fract_x
_atom_site_fract_y
_atom_site_fract_z
Si Si1 0.659279 0.778131 0.656070
Si Si2 0.928711 0.280656 0.714726
Si Si3 0.915380 0.386166 0.969151
Si Si4 0.502603 0.883220 0.342283
Si Si5 0.814904 0.884842 0.967496
O O1 0.500000 0.753464 0.500000
O O2 0.385677 0.825639 0.470037
O O3 0.746118 0.856605 0.810081
O O4 0.764898 0.682260 0.780292
O O5 0.750000 0.250000 0.500000
O O6 0.979465 0.339155 0.843878
O O7 0.964758 0.347093 0.693300
O O8 0.038749 0.184809 0.842681
O O9 0.879973 0.500000 0.941911
O O10 0.000000 0.382507 0.000000
O O11 0.527251 0.000000 0.379048
O O12 0.325654 0.863925 0.151177
O O13 0.852757 0.000000 0.017191
#
# Coordination Sequence:
#
# PCOD9185178 Si02
#       5
#     8   8   8   8   8
#     4   9  18  34  56  80 103 130 169 213 257 307
#     4  11  22  35  53  77 107 138 175 216 257 304
#     4  10  21  37  53  71 102 141 175 209 254 306
#     4  10  19  34  56  80 105 133 169 214 262 307
#     4   9  19  35  55  78 105 137 170 209 258 311
#
# _framework density 17.240544
#
# number of rings (size 3 to 8) (size 9 to 14) (size 15 to 20)
#    0.000    2.200    0.000    3.000    0.000    4.400 
#    0.000    1.000    0.000    6.600    0.000    0.000 
#    0.000    0.000    0.000    0.000    0.000    0.000 
#
# Total GULP energy -111615.405196 kJ/mol
# GULP energy per Si atom -5580.770260 kJ/mol
# Density = 1.720130 g / cm^3
# Si number density = 17.240544 Si / 1000 Ang^3
#
#
#
# Elastic Constant Matrix: (Units=GPa)
#
#
# Indices 1 2 3 4 5 6 
#
# 1 112.7960 59.1912 53.9908 -0.0001 -12.6959 -0.0001
# 2 59.1912 134.9524 79.9923 0.0000 -0.7114 -0.0001
# 3 53.9908 79.9923 127.2504 -0.0003 -9.2314 -0.0001
# 4 -0.0001 0.0000 -0.0003 15.6728 0.0000 2.6966
# 5 -12.6959 -0.7114 -9.2314 0.0000 13.1143 -0.0001
# 6 -0.0001 -0.0001 -0.0001 2.6966 -0.0001 23.9699
#
#
#
# Elastic Compliance Matrix: (Units=1/GPa)
#
#
# Indices 1 2 3 4 5 6 
#
# 1 0.013583 -0.004744 -0.001945 0.000000 0.011523 0.000000
# 2 -0.004744 0.013766 -0.007292 0.000000 -0.008979 0.000000
# 3 -0.001945 -0.007292 0.013807 0.000000 0.007441 0.000000
# 4 0.000000 0.000000 0.000000 0.065064 0.000000 -0.007320
# 5 0.011523 -0.008979 0.007441 0.000000 0.092159 0.000000
# 6 0.000000 0.000000 0.000000 -0.007320 0.000000 0.042542
#
#
# Mechanical properties :
#
#
# Convention : Reuss Voigt Hill
#
# Bulk Modulus (GPa) = 75.79049 84.59418 80.19233
# Shear Modulus (GPa) = 18.29613 22.67302 20.48457
#
# Velocity S-wave (km/s) = 3.26118 3.63036 3.45071
# Velocity P-wave (km/s) = 7.63128 8.16984 7.90515
#
# Compressibility (1/GPa) = 0.01319427
#
# Stress axis : x y z
#
# Youngs Moduli (GPa) = 73.62126 72.64418 72.42467
#
# Poissons Ratio (x) = 0.34462 0.14086
# Poissons Ratio (y) = 0.34926 0.52812
# Poissons Ratio (z) = 0.14319 0.52972
#
# Static dielectric constant tensor:
#      x y z
#    x 1.569640 0.000000 -0.001820 
#    y 0.000000 1.558360 0.000000 
#    z -0.001820 0.000000 1.564670 
# 
# From -- ./inp_files/284632.got.cif
#   From: 2010.05.17/outbox.cif.g08.bks.cpg/sg12_143_cif.got.tgz:284632.got - 2010.06.03 13:09:07.
