data_PCOD9185723
_publ_section_title
;
Structure prediction by ZEFSAII (Michael W. Deem and Ramdas Pophale) SiO2 
 PCOD9185723
Probable space group: C 2/M
;
_chemical_formula_sum "Si O2"
_cell_formula_units_Z 50
_cell_length_a 22.866102
_cell_length_b 7.453425
_cell_length_c 14.889686
_cell_angle_alpha 90.000000
_cell_angle_beta 125.255189
_cell_angle_gamma 90.000000
_cell_volume 2072.226566
_symmetry_space_group_name_H-M "C 2/M"
_symmetry_group_IT_number 12
_symmetry_cell_setting 'monoclinic'
loop_
_space_group_symop_operation_xyz
x,y,z
-x,y,-z
-x,-y,-z
x,-y,z
1/2+x,1/2+y,z
1/2-x,1/2+y,-z
1/2-x,1/2-y,-z
1/2+x,1/2-y,z
loop_
_atom_site_type_symbol
_atom_site_label
_atom_site_fract_x
_atom_site_fract_y
_atom_site_fract_z
Si Si1 0.156897 0.217296 0.353012
Si Si2 0.133231 0.296146 0.846530
Si Si3 0.602314 0.704551 0.123381
Si Si4 0.500000 0.000000 0.000000
Si Si5 0.073431 0.279608 0.613858
Si Si6 0.788016 0.283133 0.911821
Si Si7 0.688038 0.208289 0.573677
O O1 0.101719 0.269839 0.226095
O O2 0.235196 0.285629 0.389356
O O3 0.142715 0.280937 0.440732
O O4 0.158615 0.000000 0.355620
O O5 0.109485 0.500000 0.842358
O O6 0.081658 0.217823 0.724399
O O7 0.211064 0.294985 0.867194
O O8 0.154987 0.216922 0.962105
O O9 0.579607 0.500000 0.098380
O O10 0.682831 0.719752 0.157490
O O11 0.557534 0.842670 0.026651
O O12 0.075433 0.500000 0.617089
O O13 0.140855 0.216966 0.613002
O O14 0.000000 0.227760 0.500000
O O15 0.782826 0.500000 0.911171
O O16 0.700667 0.000000 0.605344
#
# Coordination Sequence:
#
# PCOD9185723 Si02
#       7
#     8   8   8   2   8   8   8
#     4   9  19  35  56  83 113 148 194 245 306 350
#     4   9  18  33  56  84 119 154 197 251 303 357
#     4  11  23  42  63  86 124 162 198 254 304 354
#     4  12  26  44  60  90 120 158 220 236 292 386
#     4   9  17  32  51  80 113 152 193 235 297 364
#     4  10  19  34  57  89 116 150 203 253 301 354
#     4   9  17  31  55  86 114 147 194 246 294 352
#
# _framework density 24.128634999999999
#
# number of rings (size 3 to 8) (size 9 to 14) (size 15 to 20)
#    0.000    2.400    0.800    1.680    1.120    3.200 
#    2.880    0.800    0.000    1.920    0.000    0.000 
#    0.000    0.000    0.000    0.000    0.000    0.000 
#
# Total GULP energy -139324.482940 kJ/mol
# GULP energy per Si atom -5572.979318 kJ/mol
# Density = 2.407372 g / cm^3
# Si number density = 24.128635 Si / 1000 Ang^3
#
#
#
# Elastic Constant Matrix: (Units=GPa)
#
#
# Indices 1 2 3 4 5 6 
#
# 1 17.7784 -0.0539 -1.0602 0.0000 -3.8620 0.0000
# 2 -0.0539 111.0217 -0.2320 0.0000 4.0001 0.0000
# 3 -1.0602 -0.2320 123.4980 0.0000 -12.6501 0.0000
# 4 0.0000 0.0000 0.0000 13.4810 0.0000 -0.4341
# 5 -3.8620 4.0001 -12.6501 0.0000 29.4210 0.0000
# 6 0.0000 0.0000 0.0000 -0.4341 0.0000 15.0222
#
#
#
# Elastic Compliance Matrix: (Units=1/GPa)
#
#
# Indices 1 2 3 4 5 6 
#
# 1 0.058118 -0.000266 0.001343 0.000000 0.008242 0.000000
# 2 -0.000266 0.009054 -0.000120 0.000000 -0.001318 0.000000
# 3 0.001343 -0.000120 0.008503 0.000000 0.003849 0.000000
# 4 0.000000 0.000000 0.000000 0.074248 0.000000 0.002146
# 5 0.008242 -0.001318 0.003849 0.000000 0.036905 0.000000
# 6 0.000000 0.000000 0.000000 0.002146 0.000000 0.066630
#
#
# Mechanical properties :
#
#
# Convention : Reuss Voigt Hill
#
# Bulk Modulus (GPa) = 12.88861 27.73400 20.31130
# Shear Modulus (GPa) = 18.02403 28.49446 23.25924
#
# Velocity S-wave (km/s) = 2.73609 3.44021 3.10815
# Velocity P-wave (km/s) = 3.91597 5.22487 4.61704
#
# Compressibility (1/GPa) = 0.07758791
#
# Stress axis : x y z
#
# Youngs Moduli (GPa) = 17.20646 110.44423 117.60818
#
# Poissons Ratio (x) = 0.02937 -0.15791
# Poissons Ratio (y) = 0.00458 0.01414
# Poissons Ratio (z) = -0.02310 0.01328
#
# Static dielectric constant tensor:
#      x y z
#    x 1.932730 0.000000 0.037480 
#    y 0.000000 1.893240 0.000000 
#    z 0.037480 0.000000 2.043690 
# 
# From -- ./inp_files/237967.got.cif
#   From: 2010.05.17/outbox.cif.g08.bks.cpg/sg12_119_cif.got.tgz:237967.got - 2010.06.03 13:09:07.
