data_PCOD9185681
_publ_section_title
;
Structure prediction by ZEFSAII (Michael W. Deem and Ramdas Pophale) SiO2 
 PCOD9185681
Probable space group: C 2/M
;
_chemical_formula_sum "Si O2"
_cell_formula_units_Z 40
_cell_length_a 22.815340
_cell_length_b 18.484026
_cell_length_c 8.736350
_cell_angle_alpha 90.000000
_cell_angle_beta 32.932974
_cell_angle_gamma 90.000000
_cell_volume 2002.990901
_symmetry_space_group_name_H-M "C 2/M"
_symmetry_group_IT_number 12
_symmetry_cell_setting 'monoclinic'
loop_
_space_group_symop_operation_xyz
x,y,z
-x,y,-z
-x,-y,-z
x,-y,z
1/2+x,1/2+y,z
1/2-x,1/2+y,-z
1/2-x,1/2-y,-z
1/2+x,1/2-y,z
loop_
_atom_site_type_symbol
_atom_site_label
_atom_site_fract_x
_atom_site_fract_y
_atom_site_fract_z
Si Si1 0.504947 0.807880 0.306831
Si Si2 0.234802 0.338428 0.680681
Si Si3 0.284952 0.168263 0.627627
Si Si4 0.966635 0.151596 0.243920
Si Si5 0.900021 0.081344 0.829160
O O1 0.500000 0.813233 0.500000
O O2 0.403054 0.840871 0.439932
O O3 0.496493 0.722836 0.277685
O O4 0.616166 0.844477 0.009829
O O5 0.261804 0.253093 0.648786
O O6 0.228584 0.360839 0.515874
O O7 0.341717 0.371422 0.523371
O O8 0.200474 0.134743 0.933098
O O9 0.042809 0.087571 0.131606
O O10 0.000000 0.173229 0.000000
O O11 0.000000 0.101397 0.500000
O O12 0.865861 0.000000 0.867137
#
# Coordination Sequence:
#
# PCOD9185681 Si02
#       5
#     8   8   8   8   8
#     4  11  22  32  56  91 118 150 186 240 305 349
#     4  10  19  34  57  86 116 154 183 239 297 352
#     4  10  20  37  57  80 121 154 192 234 290 350
#     4  11  20  36  58  85 120 150 193 238 294 352
#     4  11  24  40  60  86 119 157 197 239 283 339
#
# _framework density 19.970136
#
# number of rings (size 3 to 8) (size 9 to 14) (size 15 to 20)
#    0.000    1.400    4.000    3.600    2.800    2.000 
#    0.000    0.000    0.000    4.200    0.000    0.000 
#    0.000    0.000    0.000    0.000    0.000    0.000 
#
# Total GULP energy -111462.998067 kJ/mol
# GULP energy per Si atom -5573.149903 kJ/mol
# Density = 1.992468 g / cm^3
# Si number density = 19.970136 Si / 1000 Ang^3
#
#
#
# Elastic Constant Matrix: (Units=GPa)
#
#
# Indices 1 2 3 4 5 6 
#
# 1 64.9461 -11.2299 33.2790 0.0000 -18.2864 0.0000
# 2 -11.2299 14.8743 1.4761 0.0000 0.4473 0.0000
# 3 33.2790 1.4761 128.9489 0.0000 -19.2573 0.0000
# 4 0.0000 0.0000 0.0000 12.1182 0.0000 0.6259
# 5 -18.2864 0.4473 -19.2573 0.0000 49.0138 0.0000
# 6 0.0000 0.0000 0.0000 0.6259 0.0000 5.0106
#
#
#
# Elastic Compliance Matrix: (Units=1/GPa)
#
#
# Indices 1 2 3 4 5 6 
#
# 1 0.022866 0.017584 -0.005155 0.000000 0.006345 0.000000
# 2 0.017584 0.080873 -0.004881 0.000000 0.003905 0.000000
# 3 -0.005155 -0.004881 0.009413 0.000000 0.001820 0.000000
# 4 0.000000 0.000000 0.000000 0.083057 0.000000 -0.010375
# 5 0.006345 0.003905 0.001820 0.000000 0.023449 0.000000
# 6 0.000000 0.000000 0.000000 -0.010375 0.000000 0.200872
#
#
# Mechanical properties :
#
#
# Convention : Reuss Voigt Hill
#
# Bulk Modulus (GPa) = 7.79733 28.42442 18.11088
# Shear Modulus (GPa) = 11.15619 25.57811 18.36715
#
# Velocity S-wave (km/s) = 2.36613 3.58273 3.03600
# Velocity P-wave (km/s) = 3.37309 5.60170 4.62367
#
# Compressibility (1/GPa) = 0.12824895
#
# Stress axis : x y z
#
# Youngs Moduli (GPa) = 43.73327 12.36507 106.23603
#
# Poissons Ratio (x) = -0.21743 0.54764
# Poissons Ratio (y) = -0.76902 0.51851
# Poissons Ratio (z) = 0.22544 0.06035
#
# Static dielectric constant tensor:
#      x y z
#    x 1.758850 0.000000 0.021980 
#    y 0.000000 1.709510 0.000000 
#    z 0.021980 0.000000 1.755730 
# 
# From -- ./inp_files/47164.got.cif
#   From: 2010.05.17/outbox.cif.g08.bks.cpg/sg12_24_cif.got.tgz:47164.got - 2010.06.03 13:09:07.
