data_PCOD9185014
_publ_section_title
;
Structure prediction by ZEFSAII (Michael W. Deem and Ramdas Pophale) SiO2 
 PCOD9185014
Probable space group: C 2/M
;
_chemical_formula_sum "Si O2"
_cell_formula_units_Z 64
_cell_length_a 17.664676
_cell_length_b 16.810897
_cell_length_c 15.353723
_cell_angle_alpha 90.000000
_cell_angle_beta 135.513671
_cell_angle_gamma 90.000000
_cell_volume 3194.968574
_symmetry_space_group_name_H-M "C 2/M"
_symmetry_group_IT_number 12
_symmetry_cell_setting 'monoclinic'
loop_
_space_group_symop_operation_xyz
x,y,z
-x,y,-z
-x,-y,-z
x,-y,z
1/2+x,1/2+y,z
1/2-x,1/2+y,-z
1/2-x,1/2-y,-z
1/2+x,1/2-y,z
loop_
_atom_site_type_symbol
_atom_site_label
_atom_site_fract_x
_atom_site_fract_y
_atom_site_fract_z
Si Si1 0.674269 0.755914 0.057801
Si Si2 0.067713 0.912282 0.348893
Si Si3 0.239235 0.253044 0.296016
Si Si4 0.275687 0.907599 0.410416
Si Si5 0.413683 0.274764 0.189932
Si Si6 0.952858 0.585629 0.058243
Si Si7 0.128811 0.910773 0.591364
Si Si8 0.398335 0.154304 0.678577
O O1 0.660884 0.739202 0.148971
O O2 0.800371 0.750621 0.138424
O O3 0.608423 0.707720 0.930842
O O4 0.633204 0.844806 0.004777
O O5 0.150024 0.900399 0.336877
O O6 0.139196 0.908991 0.495097
O O7 0.972075 0.850406 0.277477
O O8 0.020680 0.000000 0.305089
O O9 0.295683 0.168542 0.363908
O O10 0.311892 0.330425 0.329211
O O11 0.178750 0.283398 0.333573
O O12 0.344190 0.890446 0.554046
O O13 0.293567 0.000000 0.396459
O O14 0.499745 0.204638 0.271151
O O15 0.902820 0.500000 0.033114
O O16 0.052114 0.598660 0.205744
O O17 0.000000 0.588929 0.000000
O O18 0.000000 0.906550 0.500000
O O19 0.165338 0.000000 0.651381
#
# Coordination Sequence:
#
# PCOD9185014 Si02
#       8
#     8   8   8   8   8   8   8   8
#     4  10  23  38  57  83 115 152 196 242 286 350
#     4  10  19  34  55  81 114 149 189 239 293 349
#     4  12  21  36  61  86 115 162 198 242 295 349
#     4  11  23  38  58  88 119 152 202 250 289 344
#     4  10  21  39  58  82 114 152 194 240 296 351
#     4  10  20  34  55  86 119 150 186 234 294 357
#     4  10  21  34  54  89 125 152 186 237 298 362
#     4  11  20  36  61  84 115 156 194 241 298 353
#
# _framework density 20.031496000000001
#
# number of rings (size 3 to 8) (size 9 to 14) (size 15 to 20)
#    0.000    1.500    3.750    2.250    0.000    1.500 
#    0.000    0.625    0.000    7.875    0.000    0.000 
#    0.000    0.000    0.000    0.000    0.000    0.000 
#
# Total GULP energy -178444.170744 kJ/mol
# GULP energy per Si atom -5576.380336 kJ/mol
# Density = 1.998590 g / cm^3
# Si number density = 20.031496 Si / 1000 Ang^3
#
#
#
# Elastic Constant Matrix: (Units=GPa)
#
#
# Indices 1 2 3 4 5 6 
#
# 1 18.6686 18.7383 -2.7237 0.0000 7.6556 0.0000
# 2 18.7383 108.2880 33.7360 0.0000 -5.2041 0.0000
# 3 -2.7237 33.7360 64.6400 0.0000 -9.4623 0.0000
# 4 0.0000 0.0000 0.0000 6.5150 0.0000 1.2174
# 5 7.6556 -5.2041 -9.4623 0.0000 29.8970 0.0000
# 6 0.0000 0.0000 0.0000 1.2174 0.0000 16.4053
#
#
#
# Elastic Compliance Matrix: (Units=1/GPa)
#
#
# Indices 1 2 3 4 5 6 
#
# 1 0.082003 -0.018292 0.009922 0.000000 -0.021042 0.000000
# 2 -0.018292 0.015108 -0.007954 0.000000 0.004797 0.000000
# 3 0.009922 -0.007954 0.020411 0.000000 0.002535 0.000000
# 4 0.000000 0.000000 0.000000 0.155650 0.000000 -0.011550
# 5 -0.021042 0.004797 0.002535 0.000000 0.040474 0.000000
# 6 0.000000 0.000000 0.000000 -0.011550 0.000000 0.061813
#
#
# Mechanical properties :
#
#
# Convention : Reuss Voigt Hill
#
# Bulk Modulus (GPa) = 11.78222 32.34418 22.06320
# Shear Modulus (GPa) = 11.45745 20.01987 15.73866
#
# Velocity S-wave (km/s) = 2.39419 3.16479 2.80607
# Velocity P-wave (km/s) = 3.67933 5.43473 4.64078
#
# Compressibility (1/GPa) = 0.08487363
#
# Stress axis : x y z
#
# Youngs Moduli (GPa) = 12.19470 66.18845 48.99431
#
# Poissons Ratio (x) = 1.21073 -0.48612
# Poissons Ratio (y) = 0.22307 0.38969
# Poissons Ratio (z) = -0.12099 0.52645
#
# Static dielectric constant tensor:
#      x y z
#    x 1.751480 0.000000 -0.012790 
#    y 0.000000 1.743010 0.000000 
#    z -0.012790 0.000000 1.721400 
# 
# From -- ./inp_files/226877.got.cif
#   From: 2010.05.17/outbox.cif.g08.bks.cpg/sg12_114_cif.got.tgz:226877.got - 2010.06.03 13:09:07.
