data_PCOD9185227
_publ_section_title
;
Structure prediction by ZEFSAII (Michael W. Deem and Ramdas Pophale) SiO2 
 PCOD9185227
Probable space group: C 2/M
;
_chemical_formula_sum "Si O2"
_cell_formula_units_Z 64
_cell_length_a 21.063361
_cell_length_b 7.853587
_cell_length_c 34.608405
_cell_angle_alpha 90.000000
_cell_angle_beta 146.351269
_cell_angle_gamma 90.000000
_cell_volume 3172.234458
_symmetry_space_group_name_H-M "C 2/M"
_symmetry_group_IT_number 12
_symmetry_cell_setting 'monoclinic'
loop_
_space_group_symop_operation_xyz
x,y,z
-x,y,-z
-x,-y,-z
x,-y,z
1/2+x,1/2+y,z
1/2-x,1/2+y,-z
1/2-x,1/2-y,-z
1/2+x,1/2-y,z
loop_
_atom_site_type_symbol
_atom_site_label
_atom_site_fract_x
_atom_site_fract_y
_atom_site_fract_z
Si Si1 0.003586 0.705561 0.046003
Si Si2 0.354240 0.206031 0.663407
Si Si3 0.240755 0.295724 0.805634
Si Si4 0.135815 0.295664 0.419786
Si Si5 0.229705 0.297439 0.034022
Si Si6 0.598346 0.208748 0.660197
Si Si7 0.113295 0.295561 0.580107
Si Si8 0.896597 0.704503 0.187698
O O1 0.998060 0.500000 0.042518
O O2 0.125810 0.754521 0.124897
O O3 0.892574 0.770680 0.012563
O O4 0.000000 0.767094 0.000000
O O5 0.362396 0.267224 0.623246
O O6 0.233404 0.258737 0.620189
O O7 0.471288 0.264322 0.743819
O O8 0.355350 0.000000 0.663940
O O9 0.227337 0.500000 0.799354
O O10 0.185840 0.234144 0.737761
O O11 0.173979 0.231470 0.810249
O O12 0.126713 0.500000 0.412959
O O13 0.250000 0.250000 0.500000
O O14 0.026096 0.236079 0.387981
O O15 0.224118 0.500000 0.033045
O O16 0.328517 0.244566 0.114117
O O17 0.250000 0.250000 0.000000
O O18 0.618505 0.268398 0.626858
O O19 0.601411 0.000000 0.661015
O O20 0.101165 0.500000 0.575764
O O21 0.000000 0.231164 0.500000
O O22 0.900001 0.500000 0.192714
#
# Coordination Sequence:
#
# PCOD9185227 Si02
#       8
#     8   8   8   8   8   8   8   8
#     4  10  21  38  58  83 116 150 184 232 292 337
#     4  10  21  37  58  83 114 151 189 232 290 348
#     4  10  19  34  60  87 111 147 195 239 279 339
#     4  10  19  34  56  81 109 143 184 232 280 331
#     4  11  24  41  61  86 120 157 192 236 287 343
#     4   9  18  35  56  79 110 145 185 232 280 327
#     4  10  21  37  57  82 114 153 194 238 285 338
#     4  10  20  37  60  86 116 151 191 237 291 345
#
# _framework density 20.175053999999999
#
# number of rings (size 3 to 8) (size 9 to 14) (size 15 to 20)
#    0.000    2.000    2.500    1.125    0.000    4.500 
#    0.000    4.375    0.000    0.000    0.000    0.000 
#    0.000    0.000    0.000    0.000    0.000    0.000 
#
# Total GULP energy -178682.380632 kJ/mol
# GULP energy per Si atom -5583.824395 kJ/mol
# Density = 2.012913 g / cm^3
# Si number density = 20.175054 Si / 1000 Ang^3
#
#
#
# Elastic Constant Matrix: (Units=GPa)
#
#
# Indices 1 2 3 4 5 6 
#
# 1 136.5695 11.0723 57.5288 0.0000 1.4550 0.0001
# 2 11.0723 20.2209 10.1176 0.0002 -3.2354 -0.0004
# 3 57.5288 10.1176 155.0962 -0.0002 8.0627 0.0004
# 4 0.0000 0.0002 -0.0002 19.5932 0.0000 4.1554
# 5 1.4550 -3.2354 8.0627 0.0000 37.8876 -0.0001
# 6 0.0001 -0.0004 0.0004 4.1554 -0.0001 19.5956
#
#
#
# Elastic Compliance Matrix: (Units=1/GPa)
#
#
# Indices 1 2 3 4 5 6 
#
# 1 0.008890 -0.003320 -0.003082 0.000000 0.000031 0.000000
# 2 -0.003320 0.053369 -0.002521 -0.000001 0.005222 0.000001
# 3 -0.003082 -0.002521 0.007847 0.000000 -0.001767 0.000000
# 4 0.000000 -0.000001 0.000000 0.053442 0.000000 -0.011333
# 5 0.000031 0.005222 -0.001767 0.000000 0.027215 0.000000
# 6 0.000000 0.000001 0.000000 -0.011333 0.000000 0.053435
#
#
# Mechanical properties :
#
#
# Convention : Reuss Voigt Hill
#
# Bulk Modulus (GPa) = 19.13595 52.14711 35.64153
# Shear Modulus (GPa) = 20.87994 30.95981 25.91988
#
# Velocity S-wave (km/s) = 3.22054 3.92159 3.58823
# Velocity P-wave (km/s) = 4.83060 6.81239 5.90522
#
# Compressibility (1/GPa) = 0.05225766
#
# Stress axis : x y z
#
# Youngs Moduli (GPa) = 112.49144 18.73747 127.43313
#
# Poissons Ratio (x) = 0.06222 0.39279
# Poissons Ratio (y) = 0.37352 0.32130
# Poissons Ratio (z) = 0.34674 0.04724
#
# Static dielectric constant tensor:
#      x y z
#    x 1.682110 0.000000 -0.006230 
#    y 0.000000 1.804970 0.000000 
#    z -0.006230 0.000000 1.721330 
# 
# From -- ./inp_files/320009.got.cif
#   From: 2010.05.17/outbox.cif.g08.bks.cpg/sg12_161_cif.got.tgz:320009.got - 2010.06.03 13:09:07.
