data_PCOD9185018
_publ_section_title
;
Structure prediction by ZEFSAII (Michael W. Deem and Ramdas Pophale) SiO2 
 PCOD9185018
Probable space group: C 2/M
;
_chemical_formula_sum "Si O2"
_cell_formula_units_Z 38
_cell_length_a 9.680105
_cell_length_b 15.536943
_cell_length_c 9.074244
_cell_angle_alpha 90.000000
_cell_angle_beta 103.920097
_cell_angle_gamma 90.000000
_cell_volume 1324.679362
_symmetry_space_group_name_H-M "C 2/M"
_symmetry_group_IT_number 12
_symmetry_cell_setting 'monoclinic'
loop_
_space_group_symop_operation_xyz
x,y,z
-x,y,-z
-x,-y,-z
x,-y,z
1/2+x,1/2+y,z
1/2-x,1/2+y,-z
1/2-x,1/2-y,-z
1/2+x,1/2-y,z
loop_
_atom_site_type_symbol
_atom_site_label
_atom_site_fract_x
_atom_site_fract_y
_atom_site_fract_z
Si Si1 0.212715 0.594742 0.826371
Si Si2 0.110530 0.094054 0.837969
Si Si3 0.500000 0.500000 0.500000
Si Si4 0.625340 0.731694 0.270869
Si Si5 0.500000 0.834268 0.000000
Si Si6 0.209727 0.591263 0.387598
O O1 0.204942 0.500000 0.761065
O O2 0.244994 0.665002 0.711725
O O3 0.074552 0.614979 0.887329
O O4 0.341545 0.594649 0.980201
O O5 0.253099 0.088983 0.778531
O O6 0.017388 0.174004 0.761746
O O7 0.039066 0.000000 0.780060
O O8 0.371711 0.574696 0.484375
O O9 0.614225 0.771355 0.103415
O O10 0.644339 0.813101 0.383638
O O11 0.132665 0.500000 0.402752
#
# Coordination Sequence:
#
# PCOD9185018 Si02
#       6
#     8   8   2   8   4   8
#     4  11  22  34  49  80 125 163 185 211 265 334
#     4  10  19  34  55  81 115 156 185 219 270 337
#     4   8  20  44  64  74 104 142 196 244 284 340
#     4  12  20  33  55  86 115 148 186 229 271 333
#     4  12  21  30  49  78 122 156 193 222 253 324
#     4   9  20  38  60  77 105 144 191 237 279 332
#
# _framework density 28.68619
#
# number of rings (size 3 to 8) (size 9 to 14) (size 15 to 20)
#    0.632    0.842    4.211    2.842    0.000    2.526 
#    0.000    1.053    0.000    0.000    0.000    1.474 
#    0.000    0.000    0.000    0.000    0.000    0.000 
#
# Total GULP energy -105980.368250 kJ/mol
# GULP energy per Si atom -5577.914118 kJ/mol
# Density = 2.862090 g / cm^3
# Si number density = 28.686190 Si / 1000 Ang^3
#
#
#
# Elastic Constant Matrix: (Units=GPa)
#
#
# Indices 1 2 3 4 5 6 
#
# 1 121.7844 68.5503 12.7719 0.0000 12.2230 0.0000
# 2 68.5503 285.9091 52.1459 0.0000 27.7041 0.0000
# 3 12.7719 52.1459 108.4963 0.0000 4.3293 0.0000
# 4 0.0000 0.0000 0.0000 -3.3399 0.0000 12.6304
# 5 12.2230 27.7041 4.3293 0.0000 35.9215 0.0000
# 6 0.0000 0.0000 0.0000 12.6304 0.0000 40.8883
#
#
#
# Elastic Compliance Matrix: (Units=1/GPa)
#
#
# Indices 1 2 3 4 5 6 
#
# 1 0.009578 -0.002134 -0.000038 0.000000 -0.001609 0.000000
# 2 -0.002134 0.004599 -0.001856 0.000000 -0.002598 0.000000
# 3 -0.000038 -0.001856 0.010104 0.000000 0.000226 0.000000
# 4 0.000000 0.000000 0.000000 -0.138094 0.000000 0.042657
# 5 -0.001609 -0.002598 0.000226 0.000000 0.030362 0.000000
# 6 0.000000 0.000000 0.000000 0.042657 0.000000 0.011280
#
#
# Mechanical properties :
#
#
# Convention : Reuss Voigt Hill
#
# Bulk Modulus (GPa) = 61.62582 87.01398 74.31990
# Shear Modulus (GPa) = -85.16815 40.20877 -22.47969
#
# Velocity S-wave (km/s) = -5.45473 3.74796 -2.80240
# Velocity P-wave (km/s) = 4.25942 7.00917 3.93610
#
# Compressibility (1/GPa) = 0.01622696
#
# Stress axis : x y z
#
# Youngs Moduli (GPa) = 104.41008 217.42347 98.96842
#
# Poissons Ratio (x) = 0.46388 0.00374
# Poissons Ratio (y) = 0.22276 0.18366
# Poissons Ratio (z) = 0.00395 0.40348
#
# Static dielectric constant tensor:
#      x y z
#    x 2.194280 0.000000 0.101160 
#    y 0.000000 2.310710 0.000000 
#    z 0.101160 0.000000 2.192840 
# 
# From -- ./inp_files/176355.got.cif
#   From: 2010.05.17/outbox.cif.g08.bks.cpg/sg12_89_cif.got.tgz:176355.got - 2010.06.03 13:09:07.
