data_PCOD9185276
_publ_section_title
;
Structure prediction by ZEFSAII (Michael W. Deem and Ramdas Pophale) SiO2 
 PCOD9185276
Probable space group: C 2/M
;
_chemical_formula_sum "Si O2"
_cell_formula_units_Z 48
_cell_length_a 16.107195
_cell_length_b 8.835260
_cell_length_c 20.169291
_cell_angle_alpha 90.000000
_cell_angle_beta 115.104919
_cell_angle_gamma 90.000000
_cell_volume 2599.165092
_symmetry_space_group_name_H-M "C 2/M"
_symmetry_group_IT_number 12
_symmetry_cell_setting 'monoclinic'
loop_
_space_group_symop_operation_xyz
x,y,z
-x,y,-z
-x,-y,-z
x,-y,z
1/2+x,1/2+y,z
1/2-x,1/2+y,-z
1/2-x,1/2-y,-z
1/2+x,1/2-y,z
loop_
_atom_site_type_symbol
_atom_site_label
_atom_site_fract_x
_atom_site_fract_y
_atom_site_fract_z
Si Si1 0.981907 0.334252 0.572980
Si Si2 0.511439 0.319047 0.083270
Si Si3 0.157653 0.819172 0.666139
Si Si4 0.817209 0.828554 0.474327
Si Si5 0.785724 0.319263 0.834308
Si Si6 0.322512 0.816952 0.077564
O O1 0.947454 0.500000 0.583217
O O2 0.912652 0.196059 0.544110
O O3 0.000000 0.350891 0.500000
O O4 0.067247 0.281504 0.645608
O O5 0.511073 0.500000 0.095751
O O6 0.611686 0.249435 0.132981
O O7 0.424295 0.244695 0.092182
O O8 0.500000 0.296226 0.000000
O O9 0.185322 0.768694 0.601354
O O10 0.235072 0.797689 0.746855
O O11 0.135408 0.000000 0.656600
O O12 0.750000 0.750000 0.500000
O O13 0.792675 0.000000 0.459734
O O14 0.791488 0.500000 0.850122
O O15 0.720246 0.241560 0.867353
O O16 0.322973 0.000000 0.075863
O O17 0.250000 0.750000 0.000000
#
# Coordination Sequence:
#
# PCOD9185276 Si02
#       6
#     8   8   8   8   8   8
#     4   9  17  31  54  80 105 140 184 226 273 335
#     4  11  23  40  64  92 122 159 204 251 300 360
#     4   9  20  38  58  82 114 150 188 235 294 350
#     4  10  19  34  56  82 113 149 190 237 287 346
#     4  11  23  41  64  90 123 160 201 254 309 361
#     4  12  24  40  64  92 121 159 204 250 302 363
#
# _framework density 18.467469000000001
#
# number of rings (size 3 to 8) (size 9 to 14) (size 15 to 20)
#    0.000    1.667    1.667    3.500    0.000    4.667 
#    3.000    0.000    0.000    0.000    0.000    0.000 
#    0.000    0.000    0.000    0.000    0.000    0.000 
#
# Total GULP energy -133620.064313 kJ/mol
# GULP energy per Si atom -5567.502680 kJ/mol
# Density = 1.842544 g / cm^3
# Si number density = 18.467469 Si / 1000 Ang^3
#
#
#
# Elastic Constant Matrix: (Units=GPa)
#
#
# Indices 1 2 3 4 5 6 
#
# 1 130.0484 60.8113 54.2690 0.0000 8.8765 0.0000
# 2 60.8113 98.7735 52.6854 0.0000 3.0264 0.0000
# 3 54.2690 52.6854 108.5572 0.0000 18.8663 0.0000
# 4 0.0000 0.0000 0.0000 22.6715 0.0000 1.5481
# 5 8.8765 3.0264 18.8663 0.0000 21.3869 0.0000
# 6 0.0000 0.0000 0.0000 1.5481 0.0000 35.6290
#
#
#
# Elastic Compliance Matrix: (Units=1/GPa)
#
#
# Indices 1 2 3 4 5 6 
#
# 1 0.011577 -0.005580 -0.002813 0.000000 -0.001534 0.000000
# 2 -0.005580 0.016749 -0.006294 0.000000 0.005499 0.000000
# 3 -0.002813 -0.006294 0.015726 0.000000 -0.011814 0.000000
# 4 0.000000 0.000000 0.000000 0.044240 0.000000 -0.001922
# 5 -0.001534 0.005499 -0.011814 0.000000 0.057038 0.000000
# 6 0.000000 0.000000 0.000000 -0.001922 0.000000 0.028151
#
#
# Mechanical properties :
#
#
# Convention : Reuss Voigt Hill
#
# Bulk Modulus (GPa) = 68.13453 74.76782 71.45118
# Shear Modulus (GPa) = 24.06761 27.24504 25.65632
#
# Velocity S-wave (km/s) = 3.61396 3.84513 3.73134
# Velocity P-wave (km/s) = 7.37487 7.76450 7.57219
#
# Compressibility (1/GPa) = 0.01467684
#
# Stress axis : x y z
#
# Youngs Moduli (GPa) = 86.37551 59.70563 63.58920
#
# Poissons Ratio (x) = 0.33319 0.17886
# Poissons Ratio (y) = 0.48202 0.40026
# Poissons Ratio (z) = 0.24295 0.37582
#
# Static dielectric constant tensor:
#      x y z
#    x 1.616730 0.000000 -0.022770 
#    y 0.000000 1.616630 0.000000 
#    z -0.022770 0.000000 1.563520 
# 
# From -- ./inp_files/313382.got.cif
#   From: 2010.05.17/outbox.cif.g08.bks.cpg/sg12_157_cif.got.tgz:313382.got - 2010.06.03 13:09:07.
