data_PCOD9185012
_publ_section_title
;
Structure prediction by ZEFSAII (Michael W. Deem and Ramdas Pophale) SiO2 
 PCOD9185012
Probable space group: C 2/M
;
_chemical_formula_sum "Si O2"
_cell_formula_units_Z 56
_cell_length_a 11.131053
_cell_length_b 14.979984
_cell_length_c 14.791893
_cell_angle_alpha 90.000000
_cell_angle_beta 113.755783
_cell_angle_gamma 90.000000
_cell_volume 2257.464739
_symmetry_space_group_name_H-M "C 2/M"
_symmetry_group_IT_number 12
_symmetry_cell_setting 'monoclinic'
loop_
_space_group_symop_operation_xyz
x,y,z
-x,y,-z
-x,-y,-z
x,-y,z
1/2+x,1/2+y,z
1/2-x,1/2+y,-z
1/2-x,1/2-y,-z
1/2+x,1/2-y,z
loop_
_atom_site_type_symbol
_atom_site_label
_atom_site_fract_x
_atom_site_fract_y
_atom_site_fract_z
Si Si1 0.581050 0.102924 0.703846
Si Si2 0.044202 0.147479 0.202132
Si Si3 0.145859 0.349500 0.243804
Si Si4 0.763859 0.641413 0.913597
Si Si5 0.209272 0.152639 0.091143
Si Si6 0.265335 0.102762 0.411652
Si Si7 0.151119 0.891335 0.562164
O O1 0.438185 0.104592 0.702993
O O2 0.671188 0.153538 0.802495
O O3 0.616508 0.138313 0.615204
O O4 0.625724 0.000000 0.717277
O O5 0.085162 0.251426 0.216250
O O6 0.091836 0.114841 0.117078
O O7 0.134631 0.106077 0.308420
O O8 0.889060 0.137266 0.162314
O O9 0.153180 0.393337 0.146758
O O10 0.290171 0.348063 0.330273
O O11 0.816777 0.743525 0.939701
O O12 0.757489 0.606049 0.014028
O O13 0.229672 0.142076 0.497435
O O14 0.298647 0.000000 0.441889
O O15 0.000000 0.870578 0.500000
O O16 0.160513 0.000000 0.573455
#
# Coordination Sequence:
#
# PCOD9185012 Si02
#       7
#     8   8   8   8   8   8   8
#     4  10  20  38  57  82 118 149 190 235 280 337
#     4  10  19  35  59  83 112 141 190 240 277 332
#     4  11  22  34  56  85 113 147 190 234 288 332
#     4  10  19  34  55  81 114 146 189 230 275 338
#     4   9  19  34  55  81 109 152 188 224 278 334
#     4   9  20  38  60  80 107 152 189 228 284 338
#     4  10  21  39  59  83 115 151 190 229 284 347
#
# _framework density 24.806588999999999
#
# number of rings (size 3 to 8) (size 9 to 14) (size 15 to 20)
#    0.000    2.143    1.429    1.714    0.000    1.714 
#    0.000    5.714    0.000    3.429    0.000    0.000 
#    0.000    0.000    0.000    0.000    0.000    0.000 
#
# Total GULP energy -156328.449422 kJ/mol
# GULP energy per Si atom -5583.158908 kJ/mol
# Density = 2.475013 g / cm^3
# Si number density = 24.806589 Si / 1000 Ang^3
#
#
#
# Elastic Constant Matrix: (Units=GPa)
#
#
# Indices 1 2 3 4 5 6 
#
# 1 111.7403 -0.0719 34.1642 0.0000 -36.7516 0.0000
# 2 -0.0719 57.3108 -8.0790 0.0000 -9.0479 0.0000
# 3 34.1642 -8.0790 116.5699 0.0000 -48.7263 0.0000
# 4 0.0000 0.0000 0.0000 16.2972 0.0000 5.2458
# 5 -36.7516 -9.0479 -48.7263 0.0000 46.0050 0.0000
# 6 0.0000 0.0000 0.0000 5.2458 0.0000 12.7239
#
#
#
# Elastic Compliance Matrix: (Units=1/GPa)
#
#
# Indices 1 2 3 4 5 6 
#
# 1 0.012411 0.002103 0.001481 0.000000 0.011897 0.000000
# 2 0.002103 0.020069 0.005611 0.000000 0.011569 0.000000
# 3 0.001481 0.005611 0.017028 0.000000 0.020322 0.000000
# 4 0.000000 0.000000 0.000000 0.070749 0.000000 -0.029169
# 5 0.011897 0.011569 0.020322 0.000000 0.055040 0.000000
# 6 0.000000 0.000000 0.000000 -0.029169 0.000000 0.090618
#
#
# Mechanical properties :
#
#
# Convention : Reuss Voigt Hill
#
# Bulk Modulus (GPa) = 14.72840 37.51640 26.12240
# Shear Modulus (GPa) = 18.50771 32.31239 25.41005
#
# Velocity S-wave (km/s) = 2.73441 3.61303 3.20398
# Velocity P-wave (km/s) = 3.98993 5.70629 4.92348
#
# Compressibility (1/GPa) = 0.06789603
#
# Stress axis : x y z
#
# Youngs Moduli (GPa) = 80.57589 49.82878 58.72745
#
# Poissons Ratio (x) = -0.10477 -0.08699
# Poissons Ratio (y) = -0.16942 -0.32949
# Poissons Ratio (z) = -0.11936 -0.27957
#
# Static dielectric constant tensor:
#      x y z
#    x 2.059930 0.000000 -0.028870 
#    y 0.000000 1.990820 0.000000 
#    z -0.028870 0.000000 1.954320 
# 
# From -- ./inp_files/206240.got.cif
#   From: 2010.05.17/outbox.cif.g08.bks.cpg/sg12_104_cif.got.tgz:206240.got - 2010.06.03 13:09:07.
