data_PCOD9185139
_publ_section_title
;
Structure prediction by ZEFSAII (Michael W. Deem and Ramdas Pophale) SiO2 
 PCOD9185139
Probable space group: C 2/M
;
_chemical_formula_sum "Si O2"
_cell_formula_units_Z 56
_cell_length_a 24.856959
_cell_length_b 17.951334
_cell_length_c 16.100761
_cell_angle_alpha 90.000000
_cell_angle_beta 18.175170
_cell_angle_gamma 90.000000
_cell_volume 2240.984282
_symmetry_space_group_name_H-M "C 2/M"
_symmetry_group_IT_number 12
_symmetry_cell_setting 'monoclinic'
loop_
_space_group_symop_operation_xyz
x,y,z
-x,y,-z
-x,-y,-z
x,-y,z
1/2+x,1/2+y,z
1/2-x,1/2+y,-z
1/2-x,1/2-y,-z
1/2+x,1/2-y,z
loop_
_atom_site_type_symbol
_atom_site_label
_atom_site_fract_x
_atom_site_fract_y
_atom_site_fract_z
Si Si1 0.778466 0.837800 0.890718
Si Si2 0.414723 0.411930 0.991933
Si Si3 0.048570 0.207400 0.205045
Si Si4 0.183331 0.699903 0.733184
Si Si5 0.327671 0.916257 0.099493
Si Si6 0.790188 0.585507 0.456736
Si Si7 0.974421 0.587658 0.437940
O O1 0.703006 0.763460 0.958708
O O2 0.799973 0.897765 0.787955
O O3 0.623741 0.864978 0.177024
O O4 0.929241 0.817275 0.732179
O O5 0.401254 0.500000 0.992891
O O6 0.442117 0.363331 0.868721
O O7 0.596123 0.403095 0.776062
O O8 0.220576 0.391929 0.304457
O O9 0.861027 0.244061 0.468707
O O10 0.187668 0.645618 0.647846
O O11 0.187241 0.644468 0.806269
O O12 0.000000 0.740896 0.000000
O O13 0.522687 0.911540 0.774533
O O14 0.304235 0.000000 0.166249
O O15 0.785069 0.500000 0.431464
O O16 0.000468 0.500000 0.381002
O O17 0.000000 0.596334 0.500000
#
# Coordination Sequence:
#
# PCOD9185139 Si02
#       7
#     8   8   8   8   8   8   8
#     4  11  23  37  52  78 116 147 176 216 274 330
#     4   9  17  33  59  82 100 135 190 233 260 306
#     4  10  22  38  54  79 110 146 182 217 270 324
#     4   9  18  36  58  81 106 140 184 223 264 319
#     4  10  20  35  56  83 114 144 174 222 278 322
#     4   8  15  31  56  82 108 140 180 222 267 321
#     4  10  19  34  56  79 101 135 185 230 265 310
#
# _framework density 24.989021000000001
#
# number of rings (size 3 to 8) (size 9 to 14) (size 15 to 20)
#    0.000    2.429    1.429    0.857    0.000    4.571 
#    0.000    9.286    0.000    3.429    0.000    0.000 
#    0.000    0.000    0.000    0.000    0.000    0.000 
#
# Total GULP energy -156385.563911 kJ/mol
# GULP energy per Si atom -5585.198711 kJ/mol
# Density = 2.493214 g / cm^3
# Si number density = 24.989021 Si / 1000 Ang^3
#
#
#
# Elastic Constant Matrix: (Units=GPa)
#
#
# Indices 1 2 3 4 5 6 
#
# 1 44.6296 6.6369 11.4781 -0.0025 -10.9765 0.0010
# 2 6.6369 53.6602 13.8422 -0.0021 7.0612 -0.0001
# 3 11.4781 13.8422 123.1241 -0.0055 -29.8633 0.0016
# 4 -0.0025 -0.0021 -0.0055 -27.6548 0.0027 27.4895
# 5 -10.9765 7.0612 -29.8633 0.0027 38.2883 -0.0015
# 6 0.0010 -0.0001 0.0016 27.4895 -0.0015 5.8869
#
#
#
# Elastic Compliance Matrix: (Units=1/GPa)
#
#
# Indices 1 2 3 4 5 6 
#
# 1 0.024969 -0.004159 0.000076 -0.000001 0.007985 0.000001
# 2 -0.004159 0.021266 -0.004000 0.000000 -0.008234 0.000001
# 3 0.000076 -0.004000 0.010790 0.000000 0.009175 0.000001
# 4 -0.000001 0.000000 0.000000 -0.006409 0.000001 0.029930
# 5 0.007985 -0.008234 0.009175 0.000001 0.037082 0.000000
# 6 0.000001 0.000001 0.000001 0.029930 0.000000 0.030110
#
#
# Mechanical properties :
#
#
# Convention : Reuss Voigt Hill
#
# Bulk Modulus (GPa) = 24.47391 31.70314 28.08852
# Shear Modulus (GPa) = 33.87730 15.93453 24.90591
#
# Velocity S-wave (km/s) = 3.68596 2.52793 3.16044
# Velocity P-wave (km/s) = 5.28490 4.60814 4.95808
#
# Compressibility (1/GPa) = 0.04085984
#
# Stress axis : x y z
#
# Youngs Moduli (GPa) = 40.04923 47.02433 92.67905
#
# Poissons Ratio (x) = 0.19556 -0.00709
# Poissons Ratio (y) = 0.16655 0.37074
# Poissons Ratio (z) = -0.00306 0.18811
#
# Static dielectric constant tensor:
#      x y z
#    x 1.968880 0.000000 -0.022220 
#    y 0.000000 1.947110 0.000000 
#    z -0.022220 0.000000 2.034950 
# 
# From -- ./inp_files/293822.got.cif
#   From: 2010.05.17/outbox.cif.g08.bks.cpg/sg12_147_cif.got.tgz:293822.got - 2010.06.03 13:09:07.
