data_PCOD9185269
_publ_section_title
;
Structure prediction by ZEFSAII (Michael W. Deem and Ramdas Pophale) SiO2 
 PCOD9185269
Probable space group: C 2/M
;
_chemical_formula_sum "Si O2"
_cell_formula_units_Z 56
_cell_length_a 16.010578
_cell_length_b 16.629031
_cell_length_c 11.236276
_cell_angle_alpha 90.000000
_cell_angle_beta 108.040956
_cell_angle_gamma 90.000000
_cell_volume 2844.472153
_symmetry_space_group_name_H-M "C 2/M"
_symmetry_group_IT_number 12
_symmetry_cell_setting 'monoclinic'
loop_
_space_group_symop_operation_xyz
x,y,z
-x,y,-z
-x,-y,-z
x,-y,z
1/2+x,1/2+y,z
1/2-x,1/2+y,-z
1/2-x,1/2-y,-z
1/2+x,1/2-y,z
loop_
_atom_site_type_symbol
_atom_site_label
_atom_site_fract_x
_atom_site_fract_y
_atom_site_fract_z
Si Si1 0.883906 0.593902 0.618418
Si Si2 0.773119 0.669203 0.789754
Si Si3 0.212630 0.293781 0.597441
Si Si4 0.910083 0.256070 0.030995
Si Si5 0.078839 0.410578 0.797433
Si Si6 0.151586 0.089899 0.918057
Si Si7 0.728808 0.586490 0.218135
O O1 0.858693 0.500000 0.591040
O O2 0.834260 0.629659 0.714169
O O3 0.858679 0.647325 0.492941
O O4 0.987912 0.596488 0.687222
O O5 0.699822 0.724536 0.690934
O O6 0.830101 0.725604 0.904027
O O7 0.726959 0.603411 0.853075
O O8 0.250000 0.250000 0.500000
O O9 0.289143 0.346651 0.692909
O O10 0.914968 0.336395 0.111199
O O11 0.900335 0.174414 0.103200
O O12 0.000000 0.248248 0.000000
O O13 0.079076 0.500000 0.855887
O O14 0.166379 0.407697 0.757033
O O15 0.111837 0.000000 0.884289
O O16 0.189112 0.091454 0.069383
O O17 0.705029 0.500000 0.257276
#
# Coordination Sequence:
#
# PCOD9185269 Si02
#       7
#     8   8   8   8   8   8   8
#     4  10  21  36  55  85 123 156 189 232 292 363
#     4  11  20  37  59  89 114 151 198 248 300 353
#     4  10  21  35  54  76 113 153 202 237 280 347
#     4  12  22  36  59  87 125 155 193 244 307 357
#     4  10  21  34  55  91 125 153 185 233 304 370
#     4  11  23  38  61  87 115 155 202 251 299 348
#     4  10  19  34  56  82 112 149 192 240 292 350
#
# _framework density 19.687308999999999
#
# number of rings (size 3 to 8) (size 9 to 14) (size 15 to 20)
#    0.000    1.429    4.286    2.143    0.000    1.714 
#    0.000    2.143    0.000    0.000    0.000    1.000 
#    0.000    0.000    0.000    0.000    0.000    0.000 
#
# Total GULP energy -155989.615404 kJ/mol
# GULP energy per Si atom -5571.057693 kJ/mol
# Density = 1.964250 g / cm^3
# Si number density = 19.687309 Si / 1000 Ang^3
#
#
#
# Elastic Constant Matrix: (Units=GPa)
#
#
# Indices 1 2 3 4 5 6 
#
# 1 16.4914 16.6500 -3.0911 0.0000 -2.4141 0.0000
# 2 16.6500 138.1301 32.3265 0.0000 6.7548 0.0000
# 3 -3.0911 32.3265 60.1775 0.0000 5.1456 0.0000
# 4 0.0000 0.0000 0.0000 36.9153 0.0000 9.1806
# 5 -2.4141 6.7548 5.1456 0.0000 16.3348 0.0000
# 6 0.0000 0.0000 0.0000 9.1806 0.0000 9.6209
#
#
#
# Elastic Compliance Matrix: (Units=1/GPa)
#
#
# Indices 1 2 3 4 5 6 
#
# 1 0.076482 -0.012038 0.009252 0.000000 0.013367 0.000000
# 2 -0.012038 0.010245 -0.005762 0.000000 -0.004200 0.000000
# 3 0.009252 -0.005762 0.020418 0.000000 -0.002681 0.000000
# 4 0.000000 0.000000 0.000000 0.035518 0.000000 -0.033892
# 5 0.013367 -0.004200 -0.002681 0.000000 0.065776 0.000000
# 6 0.000000 0.000000 0.000000 -0.033892 0.000000 0.136281
#
#
# Mechanical properties :
#
#
# Convention : Reuss Voigt Hill
#
# Bulk Modulus (GPa) = 11.10517 34.06331 22.58424
# Shear Modulus (GPa) = 12.76061 23.83513 18.29787
#
# Velocity S-wave (km/s) = 2.54867 3.48326 3.05195
# Velocity P-wave (km/s) = 3.78338 5.78941 4.89036
#
# Compressibility (1/GPa) = 0.09004816
#
# Stress axis : x y z
#
# Youngs Moduli (GPa) = 13.07493 97.61272 48.97746
#
# Poissons Ratio (x) = 1.17506 -0.45316
# Poissons Ratio (y) = 0.15740 0.28223
# Poissons Ratio (z) = -0.12097 0.56249
#
# Static dielectric constant tensor:
#      x y z
#    x 1.690040 0.000000 0.002700 
#    y 0.000000 1.798650 0.000000 
#    z 0.002700 0.000000 1.710380 
# 
# From -- ./inp_files/156139.got.cif
#   From: 2010.05.17/outbox.cif.g08.bks.cpg/sg12_79_cif.got.tgz:156139.got - 2010.06.03 13:09:07.
