data_PCOD9185452
_publ_section_title
;
Structure prediction by ZEFSAII (Michael W. Deem and Ramdas Pophale) SiO2 
 PCOD9185452
Probable space group: C 2/M
;
_chemical_formula_sum "Si O2"
_cell_formula_units_Z 36
_cell_length_a 18.517813
_cell_length_b 14.650719
_cell_length_c 16.551686
_cell_angle_alpha 90.000000
_cell_angle_beta 22.222887
_cell_angle_gamma 90.000000
_cell_volume 1698.339720
_symmetry_space_group_name_H-M "C 2/M"
_symmetry_group_IT_number 12
_symmetry_cell_setting 'monoclinic'
loop_
_space_group_symop_operation_xyz
x,y,z
-x,y,-z
-x,-y,-z
x,-y,z
1/2+x,1/2+y,z
1/2-x,1/2+y,-z
1/2-x,1/2-y,-z
1/2+x,1/2-y,z
loop_
_atom_site_type_symbol
_atom_site_label
_atom_site_fract_x
_atom_site_fract_y
_atom_site_fract_z
Si Si1 0.863440 0.394355 0.334930
Si Si2 0.966519 0.896741 0.439038
Si Si3 0.965567 0.892632 0.195163
Si Si4 0.500000 0.294706 0.000000
Si Si5 0.704997 0.769063 0.935253
O O1 0.918424 0.500000 0.288677
O O2 0.748565 0.385736 0.369353
O O3 0.706185 0.371346 0.565776
O O4 0.044623 0.330337 0.143670
O O5 0.000000 0.894820 0.500000
O O6 0.024400 0.000000 0.351346
O O7 0.093617 0.817499 0.268142
O O8 0.156978 0.833454 0.013937
O O9 0.000979 0.000000 0.160474
O O10 0.908522 0.857992 0.164475
O O11 0.350563 0.236847 0.102705
#
# Coordination Sequence:
#
# PCOD9185452 Si02
#       5
#     8   8   8   4   8
#     4  10  20  35  57  82 111 141 177 222 270 321
#     4  10  21  35  53  82 115 142 174 221 272 323
#     4   9  19  35  56  81 107 143 183 224 267 312
#     4   8  19  30  55  78 102 144 177 216 263 314
#     4  10  19  34  57  81 105 145 179 216 269 322
#
# _framework density 21.197171999999998
#
# number of rings (size 3 to 8) (size 9 to 14) (size 15 to 20)
#    1.333    1.111    0.000    3.000    0.000    0.889 
#    0.000    4.444    0.000    2.000    0.000    0.000 
#    0.000    0.000    0.000    0.000    0.000    0.000 
#
# Total GULP energy -100351.395254 kJ/mol
# GULP energy per Si atom -5575.077514 kJ/mol
# Density = 2.114893 g / cm^3
# Si number density = 21.197172 Si / 1000 Ang^3
#
#
#
# Elastic Constant Matrix: (Units=GPa)
#
#
# Indices 1 2 3 4 5 6 
#
# 1 79.8662 -3.5998 1.5214 0.0020 21.9914 -0.0003
# 2 -3.5998 88.0910 43.5333 0.0038 0.0198 -0.0023
# 3 1.5214 43.5333 34.3903 0.0060 3.3663 -0.0036
# 4 0.0020 0.0038 0.0060 29.5181 -0.0021 15.1596
# 5 21.9914 0.0198 3.3663 -0.0021 29.6676 0.0007
# 6 -0.0003 -0.0023 -0.0036 15.1596 0.0007 13.7951
#
#
#
# Elastic Compliance Matrix: (Units=1/GPa)
#
#
# Indices 1 2 3 4 5 6 
#
# 1 0.015782 0.001154 -0.001026 -0.000005 -0.011583 0.000007
# 2 0.001154 0.030977 -0.039617 0.000016 0.003619 -0.000023
# 3 -0.001026 -0.039617 0.080086 -0.000044 -0.008300 0.000063
# 4 -0.000005 0.000016 -0.000044 0.077767 0.000016 -0.085459
# 5 -0.011583 0.003619 -0.008300 0.000016 0.043232 -0.000022
# 6 0.000007 -0.000023 0.000063 -0.085459 -0.000022 0.166402
#
#
# Mechanical properties :
#
#
# Convention : Reuss Voigt Hill
#
# Bulk Modulus (GPa) = 20.89118 31.69528 26.29323
# Shear Modulus (GPa) = 9.81973 25.32231 17.57102
#
# Velocity S-wave (km/s) = 2.15468 3.46006 2.88224
# Velocity P-wave (km/s) = 4.00839 5.56307 4.84845
#
# Compressibility (1/GPa) = 0.04786709
#
# Stress axis : x y z
#
# Youngs Moduli (GPa) = 63.36370 32.28242 12.48658
#
# Poissons Ratio (x) = -0.03727 0.01281
# Poissons Ratio (y) = -0.07315 0.49469
# Poissons Ratio (z) = 0.06499 1.27895
#
# Static dielectric constant tensor:
#      x y z
#    x 1.820240 0.000000 0.022280 
#    y 0.000000 1.776630 0.000000 
#    z 0.022280 0.000000 1.729590 
# 
# From -- ./inp_files/284187.got.cif
#   From: 2010.05.17/outbox.cif.g08.bks.cpg/sg12_143_cif.got.tgz:284187.got - 2010.06.03 13:09:07.
