data_PCOD9185967
_publ_section_title
;
Structure prediction by ZEFSAII (Michael W. Deem and Ramdas Pophale) SiO2 
 PCOD9185967
Probable space group: C 2/M
;
_chemical_formula_sum "Si O2"
_cell_formula_units_Z 64
_cell_length_a 32.911170
_cell_length_b 8.253656
_cell_length_c 15.217726
_cell_angle_alpha 90.000000
_cell_angle_beta 47.441993
_cell_angle_gamma 90.000000
_cell_volume 3044.857858
_symmetry_space_group_name_H-M "C 2/M"
_symmetry_group_IT_number 12
_symmetry_cell_setting 'monoclinic'
loop_
_space_group_symop_operation_xyz
x,y,z
-x,y,-z
-x,-y,-z
x,-y,z
1/2+x,1/2+y,z
1/2-x,1/2+y,-z
1/2-x,1/2-y,-z
1/2+x,1/2-y,z
loop_
_atom_site_type_symbol
_atom_site_label
_atom_site_fract_x
_atom_site_fract_y
_atom_site_fract_z
Si Si1 0.669504 0.313742 0.752079
Si Si2 0.507408 0.807090 0.209876
Si Si3 0.388101 0.189467 0.326175
Si Si4 0.628919 0.194165 0.994896
Si Si5 0.149382 0.802681 0.335297
Si Si6 0.026313 0.195641 0.554819
Si Si7 0.686698 0.305086 0.089086
Si Si8 0.712469 0.691182 0.410778
O O1 0.656352 0.500000 0.755267
O O2 0.629917 0.209035 0.748115
O O3 0.660740 0.269529 0.866314
O O4 0.733250 0.280741 0.635670
O O5 0.449639 0.745251 0.254416
O O6 0.504570 0.770648 0.317566
O O7 0.507784 0.000000 0.195396
O O8 0.565423 0.745426 0.087961
O O9 0.341251 0.278458 0.451430
O O10 0.386833 0.000000 0.352790
O O11 0.629807 0.000000 0.984173
O O12 0.656698 0.237628 0.047002
O O13 0.090019 0.751427 0.458833
O O14 0.159095 0.750079 0.221333
O O15 0.196150 0.753367 0.336061
O O16 0.149126 0.000000 0.335226
O O17 0.000000 0.238113 0.500000
O O18 0.024241 0.000000 0.566551
O O19 0.684093 0.500000 0.089858
O O20 0.750000 0.250000 0.000000
O O21 0.724701 0.500000 0.390988
#
# Coordination Sequence:
#
# PCOD9185967 Si02
#       8
#     8   8   8   8   8   8   8   8
#     4  12  26  43  64  92 121 160 211 263 320 381
#     4  10  23  41  63  90 125 165 206 256 312 370
#     4  11  23  42  65  93 126 164 207 258 318 377
#     4  11  24  44  64  89 126 168 211 260 316 376
#     4   9  19  34  56  87 121 158 199 245 301 360
#     4  10  19  34  58  87 119 158 202 249 301 360
#     4  11  22  39  62  91 126 168 215 261 312 370
#     4  11  21  39  65  94 128 165 205 258 315 374
#
# _framework density 21.019044000000001
#
# number of rings (size 3 to 8) (size 9 to 14) (size 15 to 20)
#    0.000    1.375    1.250    4.500    0.000    4.250 
#    0.000    5.625    0.000    0.000    0.000    0.000 
#    0.000    0.000    0.000    0.000    0.000    0.000 
#
# Total GULP energy -178944.328910 kJ/mol
# GULP energy per Si atom -5592.010278 kJ/mol
# Density = 2.097120 g / cm^3
# Si number density = 21.019044 Si / 1000 Ang^3
#
#
#
# Elastic Constant Matrix: (Units=GPa)
#
#
# Indices 1 2 3 4 5 6 
#
# 1 98.9186 0.3245 13.2445 0.0000 -7.8688 -0.0001
# 2 0.3245 22.9105 1.3432 0.0001 -5.8649 -0.0003
# 3 13.2445 1.3432 74.8235 0.0000 -9.6644 0.0001
# 4 0.0000 0.0001 0.0000 22.1145 0.0000 3.8043
# 5 -7.8688 -5.8649 -9.6644 0.0000 39.1315 0.0000
# 6 -0.0001 -0.0003 0.0001 3.8043 0.0000 25.4972
#
#
#
# Elastic Compliance Matrix: (Units=1/GPa)
#
#
# Indices 1 2 3 4 5 6 
#
# 1 0.010467 0.000398 -0.001632 0.000000 0.001761 0.000000
# 2 0.000398 0.045405 0.000004 0.000000 0.006886 0.000000
# 3 -0.001632 0.000004 0.014060 0.000000 0.003145 0.000000
# 4 0.000000 0.000000 0.000000 0.046410 0.000000 -0.006925
# 5 0.001761 0.006886 0.003145 0.000000 0.027718 0.000000
# 6 0.000000 0.000000 0.000000 -0.006925 0.000000 0.040253
#
#
# Mechanical properties :
#
#
# Convention : Reuss Voigt Hill
#
# Bulk Modulus (GPa) = 14.82115 25.16412 19.99263
# Shear Modulus (GPa) = 23.89330 29.46468 26.67899
#
# Velocity S-wave (km/s) = 3.37522 3.74814 3.56656
# Velocity P-wave (km/s) = 4.71764 5.54341 5.14711
#
# Compressibility (1/GPa) = 0.06747116
#
# Stress axis : x y z
#
# Youngs Moduli (GPa) = 95.54121 22.02398 71.12455
#
# Poissons Ratio (x) = -0.00877 0.11610
# Poissons Ratio (y) = -0.03806 -0.00027
# Poissons Ratio (z) = 0.15596 -0.00008
#
# Static dielectric constant tensor:
#      x y z
#    x 1.753310 0.000000 -0.007660 
#    y 0.000000 1.727470 0.000000 
#    z -0.007660 0.000000 1.741480 
# 
# From -- ./inp_files/249835.got.cif
#   From: 2010.05.17/outbox.cif.g08.bks.cpg/sg12_125_cif.got.tgz:249835.got - 2010.06.03 13:09:07.
