data_PCOD9185146
_publ_section_title
;
Structure prediction by ZEFSAII (Michael W. Deem and Ramdas Pophale) SiO2 
 PCOD9185146
Probable space group: C 2/M
;
_chemical_formula_sum "Si O2"
_cell_formula_units_Z 64
_cell_length_a 14.629569
_cell_length_b 8.729290
_cell_length_c 28.196439
_cell_angle_alpha 90.000000
_cell_angle_beta 105.735668
_cell_angle_gamma 90.000000
_cell_volume 3465.898819
_symmetry_space_group_name_H-M "C 2/M"
_symmetry_group_IT_number 12
_symmetry_cell_setting 'monoclinic'
loop_
_space_group_symop_operation_xyz
x,y,z
-x,y,-z
-x,-y,-z
x,-y,z
1/2+x,1/2+y,z
1/2-x,1/2+y,-z
1/2-x,1/2-y,-z
1/2+x,1/2-y,z
loop_
_atom_site_type_symbol
_atom_site_label
_atom_site_fract_x
_atom_site_fract_y
_atom_site_fract_z
Si Si1 0.785092 0.814302 0.864585
Si Si2 0.990895 0.685436 0.612008
Si Si3 0.182483 0.817379 0.595558
Si Si4 0.576799 0.815574 0.866555
Si Si5 0.132322 0.315113 0.319625
Si Si6 0.396467 0.316181 0.787923
Si Si7 0.022961 0.185335 0.056934
Si Si8 0.107569 0.323733 0.493324
O O1 0.681399 0.761510 0.865677
O O2 0.818604 0.768479 0.816575
O O3 0.870746 0.768966 0.911789
O O4 0.782216 0.000000 0.864650
O O5 0.996342 0.500000 0.608806
O O6 0.957538 0.725034 0.659926
O O7 0.910673 0.734840 0.562349
O O8 0.090267 0.754681 0.610050
O O9 0.275428 0.767171 0.637216
O O10 0.173034 0.763173 0.539799
O O11 0.180991 0.000000 0.595205
O O12 0.496220 0.751994 0.819971
O O13 0.548205 0.756251 0.914603
O O14 0.574336 0.000000 0.865566
O O15 0.134380 0.500000 0.315237
O O16 0.128189 0.241615 0.267632
O O17 0.402421 0.500000 0.789485
O O18 0.017008 0.000000 0.059449
O O19 0.000000 0.230192 0.000000
O O20 0.138705 0.500000 0.495615
O O21 0.000000 0.321059 0.500000
#
# Coordination Sequence:
#
# PCOD9185146 Si02
#       8
#     8   8   8   8   8   8   8   8
#     4   8  17  34  54  76 104 140 176 210 257 310
#     4   9  19  36  54  71  99 138 171 201 249 315
#     4  10  20  33  51  77 105 129 162 212 258 299
#     4  10  19  34  56  79 105 139 179 219 259 305
#     4  10  22  38  53  74 104 134 166 209 263 312
#     4  10  21  38  56  75 101 133 173 217 261 311
#     4   9  18  34  54  79 115 151 180 215 256 299
#     4   8  15  30  51  72  97 133 170 200 243 309
#
# _framework density 18.465629
#
# number of rings (size 3 to 8) (size 9 to 14) (size 15 to 20)
#    0.000    2.750    0.000    2.625    0.000    6.000 
#    0.000   10.000    0.000    0.000    0.000    0.000 
#    0.000    0.000    0.000    0.000    0.000    0.000 
#
# Total GULP energy -178491.237529 kJ/mol
# GULP energy per Si atom -5577.851173 kJ/mol
# Density = 1.842360 g / cm^3
# Si number density = 18.465629 Si / 1000 Ang^3
#
#
#
# Elastic Constant Matrix: (Units=GPa)
#
#
# Indices 1 2 3 4 5 6 
#
# 1 114.0990 21.0819 51.6886 0.0000 -7.4898 0.0000
# 2 21.0819 27.1415 29.4601 0.0000 -2.5771 0.0000
# 3 51.6886 29.4601 133.3642 0.0000 -14.7889 0.0000
# 4 0.0000 0.0000 0.0000 33.4944 0.0000 -0.4272
# 5 -7.4898 -2.5771 -14.7889 0.0000 11.5366 0.0000
# 6 0.0000 0.0000 0.0000 -0.4272 0.0000 16.7308
#
#
#
# Elastic Compliance Matrix: (Units=1/GPa)
#
#
# Indices 1 2 3 4 5 6 
#
# 1 0.011223 -0.005336 -0.002909 0.000000 0.002366 0.000000
# 2 -0.005336 0.051114 -0.009723 0.000000 -0.004510 0.000000
# 3 -0.002909 -0.009723 0.012034 0.000000 0.011366 0.000000
# 4 0.000000 0.000000 0.000000 0.029865 0.000000 0.000763
# 5 0.002366 -0.004510 0.011366 0.000000 0.101779 0.000000
# 6 0.000000 0.000000 0.000000 0.000763 0.000000 0.059790
#
#
# Mechanical properties :
#
#
# Convention : Reuss Voigt Hill
#
# Bulk Modulus (GPa) = 26.01754 53.22956 39.62355
# Shear Modulus (GPa) = 15.89560 23.84397 19.86978
#
# Velocity S-wave (km/s) = 2.93716 3.59731 3.28387
# Velocity P-wave (km/s) = 5.06190 6.79287 5.99024
#
# Compressibility (1/GPa) = 0.03843561
#
# Stress axis : x y z
#
# Youngs Moduli (GPa) = 89.10097 19.56414 83.09837
#
# Poissons Ratio (x) = 0.10439 0.24172
# Poissons Ratio (y) = 0.47540 0.80799
# Poissons Ratio (z) = 0.25919 0.19023
#
# Static dielectric constant tensor:
#      x y z
#    x 1.645890 0.000000 -0.006290 
#    y 0.000000 1.626010 0.000000 
#    z -0.006290 0.000000 1.627000 
# 
# From -- ./inp_files/359973.got.cif
#   From: 2010.05.17/outbox.cif.g08.bks.cpg/sg12_180_cif.got.tgz:359973.got - 2010.06.03 13:09:07.
