data_PCOD9185282
_publ_section_title
;
Structure prediction by ZEFSAII (Michael W. Deem and Ramdas Pophale) SiO2 
 PCOD9185282
Probable space group: C 2/M
;
_chemical_formula_sum "Si O2"
_cell_formula_units_Z 56
_cell_length_a 20.593535
_cell_length_b 9.452314
_cell_length_c 20.425090
_cell_angle_alpha 90.000000
_cell_angle_beta 49.932323
_cell_angle_gamma 90.000000
_cell_volume 3042.678232
_symmetry_space_group_name_H-M "C 2/M"
_symmetry_group_IT_number 12
_symmetry_cell_setting 'monoclinic'
loop_
_space_group_symop_operation_xyz
x,y,z
-x,y,-z
-x,-y,-z
x,-y,z
1/2+x,1/2+y,z
1/2-x,1/2+y,-z
1/2-x,1/2-y,-z
1/2+x,1/2-y,z
loop_
_atom_site_type_symbol
_atom_site_label
_atom_site_fract_x
_atom_site_fract_y
_atom_site_fract_z
Si Si1 0.614626 0.342033 0.361181
Si Si2 0.587550 0.339313 0.521990
Si Si3 0.379406 0.839326 0.769297
Si Si4 0.970097 0.671372 0.230616
Si Si5 0.666430 0.831620 0.579266
Si Si6 0.457048 0.169976 0.957326
Si Si7 0.212125 0.837553 0.964577
O O1 0.648948 0.500000 0.328259
O O2 0.633890 0.301934 0.423678
O O3 0.512471 0.349243 0.424684
O O4 0.636038 0.242670 0.287649
O O5 0.615014 0.500000 0.523629
O O6 0.601038 0.219192 0.566283
O O7 0.451952 0.780898 0.772273
O O8 0.289835 0.841616 0.863842
O O9 0.405766 0.000000 0.736866
O O10 0.972025 0.500000 0.230641
O O11 0.880293 0.711958 0.322465
O O12 0.988118 0.710731 0.143340
O O13 0.750000 0.750000 0.500000
O O14 0.679448 0.000000 0.571570
O O15 0.441352 0.000000 0.962902
O O16 0.500000 0.196445 0.000000
O O17 0.369890 0.256112 0.008566
O O18 0.191063 0.000000 0.996189
O O19 0.250000 0.750000 0.000000
#
# Coordination Sequence:
#
# PCOD9185282 Si02
#       7
#     8   8   8   8   8   8   8
#     4   9  18  32  53  80 110 141 178 228 280 333
#     4   9  18  34  53  77 109 140 178 231 282 331
#     4  10  19  34  56  82 115 148 186 238 287 344
#     4   9  18  36  59  83 110 146 191 240 292 344
#     4  11  22  37  57  78 109 150 193 240 285 339
#     4  10  21  41  66  88 117 157 201 244 297 365
#     4  11  22  37  60  89 123 154 191 247 298 349
#
# _framework density 18.404837000000001
#
# number of rings (size 3 to 8) (size 9 to 14) (size 15 to 20)
#    0.000    2.143    2.857    1.714    0.000    2.000 
#    2.571    2.857    0.000    0.000    0.000    0.000 
#    0.000    0.000    0.000    0.000    0.000    0.000 
#
# Total GULP energy -155897.772552 kJ/mol
# GULP energy per Si atom -5567.777591 kJ/mol
# Density = 1.836295 g / cm^3
# Si number density = 18.404837 Si / 1000 Ang^3
#
#
#
# Elastic Constant Matrix: (Units=GPa)
#
#
# Indices 1 2 3 4 5 6 
#
# 1 60.3810 35.6477 36.9141 0.0000 0.0132 0.0000
# 2 35.6477 65.1322 47.9483 0.0001 9.0501 -0.0001
# 3 36.9141 47.9483 122.9798 0.0000 10.9163 0.0000
# 4 0.0000 0.0001 0.0000 27.3556 0.0000 -1.9128
# 5 0.0132 9.0501 10.9163 0.0000 31.2981 0.0000
# 6 0.0000 -0.0001 0.0000 -1.9128 0.0000 27.5726
#
#
#
# Elastic Compliance Matrix: (Units=1/GPa)
#
#
# Indices 1 2 3 4 5 6 
#
# 1 0.025925 -0.012356 -0.003385 0.000000 0.004743 0.000000
# 2 -0.012356 0.027780 -0.006615 0.000000 -0.005721 0.000000
# 3 -0.003385 -0.006615 0.011926 0.000000 -0.002245 0.000000
# 4 0.000000 0.000000 0.000000 0.036734 0.000000 0.002548
# 5 0.004743 -0.005721 -0.002245 0.000000 0.034386 0.000000
# 6 0.000000 0.000000 0.000000 0.002548 0.000000 0.036445
#
#
# Mechanical properties :
#
#
# Convention : Reuss Voigt Hill
#
# Bulk Modulus (GPa) = 47.80251 54.39037 51.09644
# Shear Modulus (GPa) = 22.23411 25.77744 24.00578
#
# Velocity S-wave (km/s) = 3.47948 3.74649 3.61545
# Velocity P-wave (km/s) = 6.49397 6.95207 6.72692
#
# Compressibility (1/GPa) = 0.02091940
#
# Stress axis : x y z
#
# Youngs Moduli (GPa) = 38.57340 35.99686 83.85170
#
# Poissons Ratio (x) = 0.44477 0.28386
# Poissons Ratio (y) = 0.47660 0.55465
# Poissons Ratio (z) = 0.13058 0.23811
#
# Static dielectric constant tensor:
#      x y z
#    x 1.689790 0.000000 -0.014700 
#    y 0.000000 1.637450 0.000000 
#    z -0.014700 0.000000 1.742570 
# 
# From -- ./inp_files/319674.got.cif
#   From: 2010.05.17/outbox.cif.g08.bks.cpg/sg12_160_cif.got.tgz:319674.got - 2010.06.03 13:09:07.
