data_PCOD9185728
_publ_section_title
;
Structure prediction by ZEFSAII (Michael W. Deem and Ramdas Pophale) SiO2 
 PCOD9185728
Probable space group: C 2/M
;
_chemical_formula_sum "Si O2"
_cell_formula_units_Z 34
_cell_length_a 20.164399
_cell_length_b 7.572168
_cell_length_c 9.618971
_cell_angle_alpha 90.000000
_cell_angle_beta 60.366837
_cell_angle_gamma 90.000000
_cell_volume 1276.610163
_symmetry_space_group_name_H-M "C 2/M"
_symmetry_group_IT_number 12
_symmetry_cell_setting 'monoclinic'
loop_
_space_group_symop_operation_xyz
x,y,z
-x,y,-z
-x,-y,-z
x,-y,z
1/2+x,1/2+y,z
1/2-x,1/2+y,-z
1/2-x,1/2-y,-z
1/2+x,1/2-y,z
loop_
_atom_site_type_symbol
_atom_site_label
_atom_site_fract_x
_atom_site_fract_y
_atom_site_fract_z
Si Si1 0.814946 0.786158 0.112629
Si Si2 0.075910 0.692552 0.232706
Si Si3 0.810445 0.289975 0.559074
Si Si4 0.433694 0.702326 0.229040
Si Si5 0.000000 0.000000 0.500000
O O1 0.732567 0.729229 0.257335
O O2 0.876671 0.733800 0.168517
O O3 0.814628 0.000000 0.111381
O O4 0.846248 0.719824 0.934435
O O5 0.077185 0.500000 0.299469
O O6 0.049342 0.845599 0.362814
O O7 0.010211 0.695588 0.181402
O O8 0.821862 0.500000 0.551285
O O9 0.750000 0.250000 0.500000
O O10 0.886474 0.202236 0.422828
O O11 0.453976 0.500000 0.177904
#
# Coordination Sequence:
#
# PCOD9185728 Si02
#       5
#     8   8   8   8   2
#     4   9  18  34  56  88 127 156 182 232 297 354
#     4  12  24  39  64  87 108 158 198 244 299 345
#     4   9  17  29  50  83 124 159 183 219 282 357
#     4  10  19  34  57  89 127 155 183 234 296 355
#     4  12  26  48  58  78 116 148 210 264 288 326
#
# _framework density 26.633030999999999
#
# number of rings (size 3 to 8) (size 9 to 14) (size 15 to 20)
#    0.000    1.882    2.353    3.882    0.000    8.471 
#    0.000    0.000    0.000    1.412    0.000    0.000 
#    0.000    0.000    0.000    0.000    0.000    0.000 
#
# Total GULP energy -94966.999525 kJ/mol
# GULP energy per Si atom -5586.294090 kJ/mol
# Density = 2.657241 g / cm^3
# Si number density = 26.633031 Si / 1000 Ang^3
#
#
#
# Elastic Constant Matrix: (Units=GPa)
#
#
# Indices 1 2 3 4 5 6 
#
# 1 83.1382 -10.1982 30.2634 0.0000 23.8328 0.0000
# 2 -10.1982 168.3707 76.8208 0.0000 -0.7590 0.0000
# 3 30.2634 76.8208 274.6774 0.0000 -26.1601 0.0000
# 4 0.0000 0.0000 0.0000 20.8579 0.0000 3.6714
# 5 23.8328 -0.7590 -26.1601 0.0000 44.6583 0.0000
# 6 0.0000 0.0000 0.0000 3.6714 0.0000 -4.4882
#
#
#
# Elastic Compliance Matrix: (Units=1/GPa)
#
#
# Indices 1 2 3 4 5 6 
#
# 1 0.016861 0.002637 -0.003652 0.000000 -0.011092 0.000000
# 2 0.002637 0.007268 -0.002590 0.000000 -0.002801 0.000000
# 3 -0.003652 -0.002590 0.005241 0.000000 0.004975 0.000000
# 4 0.000000 0.000000 0.000000 0.041909 0.000000 0.034282
# 5 -0.011092 -0.002801 0.004975 0.000000 0.031179 0.000000
# 6 0.000000 0.000000 0.000000 0.034282 0.000000 -0.194765
#
#
# Mechanical properties :
#
#
# Convention : Reuss Voigt Hill
#
# Bulk Modulus (GPa) = 45.12387 79.99535 62.55961
# Shear Modulus (GPa) = -64.34101 40.82563 -11.75769
#
# Velocity S-wave (km/s) = -4.92045 3.91947 -2.10340
# Velocity P-wave (km/s) = 3.91171 7.11227 4.20017
#
# Compressibility (1/GPa) = 0.02216122
#
# Stress axis : x y z
#
# Youngs Moduli (GPa) = 59.30930 137.58660 190.79688
#
# Poissons Ratio (x) = -0.36287 0.69674
# Poissons Ratio (y) = -0.15642 0.49418
# Poissons Ratio (z) = 0.21658 0.35636
#
# Static dielectric constant tensor:
#      x y z
#    x 2.304000 0.000000 -0.029130 
#    y 0.000000 2.454440 0.000000 
#    z -0.029130 0.000000 2.096670 
# 
# From -- ./inp_files/82057.got.cif
#   From: 2010.05.17/outbox.cif.g08.bks.cpg/sg12_42_cif.got.tgz:82057.got - 2010.06.03 13:09:07.
