data_PCOD9185011
_publ_section_title
;
Structure prediction by ZEFSAII (Michael W. Deem and Ramdas Pophale) SiO2 
 PCOD9185011
Probable space group: C 2/M
;
_chemical_formula_sum "Si O2"
_cell_formula_units_Z 56
_cell_length_a 30.400351
_cell_length_b 8.270454
_cell_length_c 22.155158
_cell_angle_alpha 90.000000
_cell_angle_beta 28.922050
_cell_angle_gamma 90.000000
_cell_volume 2693.930537
_symmetry_space_group_name_H-M "C 2/M"
_symmetry_group_IT_number 12
_symmetry_cell_setting 'monoclinic'
loop_
_space_group_symop_operation_xyz
x,y,z
-x,y,-z
-x,-y,-z
x,-y,z
1/2+x,1/2+y,z
1/2-x,1/2+y,-z
1/2-x,1/2-y,-z
1/2+x,1/2-y,z
loop_
_atom_site_type_symbol
_atom_site_label
_atom_site_fract_x
_atom_site_fract_y
_atom_site_fract_z
Si Si1 0.725054 0.811366 0.597221
Si Si2 0.231233 0.315388 0.804710
Si Si3 0.599300 0.191095 0.184068
Si Si4 0.400636 0.197688 0.144497
Si Si5 0.248918 0.810426 0.914148
Si Si6 0.590638 0.813741 0.574607
Si Si7 0.440386 0.314389 0.515220
O O1 0.750000 0.750000 0.500000
O O2 0.641719 0.746183 0.739790
O O3 0.817717 0.783523 0.523785
O O4 0.706583 0.000000 0.612345
O O5 0.201425 0.500000 0.854040
O O6 0.170763 0.254919 0.821936
O O7 0.229207 0.215472 0.868214
O O8 0.335681 0.320351 0.660010
O O9 0.652032 0.250075 0.181224
O O10 0.500223 0.256641 0.284953
O O11 0.583375 0.000000 0.210329
O O12 0.672391 0.221301 0.044513
O O13 0.401739 0.000000 0.146205
O O14 0.500000 0.247934 0.000000
O O15 0.244654 0.000000 0.934251
O O16 0.558673 0.798633 0.543860
O O17 0.609385 0.000000 0.568961
O O18 0.500000 0.258462 0.500000
O O19 0.468580 0.500000 0.466111
#
# Coordination Sequence:
#
# PCOD9185011 Si02
#       7
#     8   8   8   8   8   8   8
#     4  11  23  42  65  91 123 156 203 258 316 378
#     4  10  19  34  55  81 112 149 189 231 291 358
#     4   9  20  37  54  77 114 157 198 237 287 360
#     4   9  19  38  63  86 112 152 200 248 298 363
#     4  10  20  34  54  82 114 151 195 244 295 346
#     4  11  22  37  59  85 116 155 198 243 298 357
#     4  10  20  34  55  85 119 154 192 236 291 354
#
# _framework density 20.787471
#
# number of rings (size 3 to 8) (size 9 to 14) (size 15 to 20)
#    0.000    2.000    1.429    2.143    0.000    3.714 
#    0.000    2.857    0.000    3.000    0.000    0.000 
#    0.000    0.000    0.000    0.000    0.000    0.000 
#
# Total GULP energy -156070.645741 kJ/mol
# GULP energy per Si atom -5573.951634 kJ/mol
# Density = 2.074016 g / cm^3
# Si number density = 20.787471 Si / 1000 Ang^3
#
#
#
# Elastic Constant Matrix: (Units=GPa)
#
#
# Indices 1 2 3 4 5 6 
#
# 1 77.4118 8.2466 48.9144 0.0012 3.5231 -0.0021
# 2 8.2466 14.9443 8.5732 0.0036 7.3332 -0.0006
# 3 48.9144 8.5732 124.7555 0.0011 -2.1562 0.0006
# 4 0.0012 0.0036 0.0011 12.3332 0.0003 6.4811
# 5 3.5231 7.3332 -2.1562 0.0003 29.3122 0.0005
# 6 -0.0021 -0.0006 0.0006 6.4811 0.0005 30.5218
#
#
#
# Elastic Compliance Matrix: (Units=1/GPa)
#
#
# Indices 1 2 3 4 5 6 
#
# 1 0.017718 -0.005366 -0.006600 0.000000 -0.001272 0.000001
# 2 -0.005366 0.081991 -0.003879 -0.000027 -0.020153 0.000007
# 3 -0.006600 -0.003879 0.010914 0.000001 0.002566 -0.000001
# 4 0.000000 -0.000027 0.000001 0.091266 0.000006 -0.019380
# 5 -0.001272 -0.020153 0.002566 0.000006 0.039499 -0.000002
# 6 0.000001 0.000007 -0.000001 -0.019380 -0.000002 0.036879
#
#
# Mechanical properties :
#
#
# Convention : Reuss Voigt Hill
#
# Bulk Modulus (GPa) = 12.66905 38.73112 25.70008
# Shear Modulus (GPa) = 14.86910 24.52525 19.69718
#
# Velocity S-wave (km/s) = 2.67740 3.43856 3.08157
# Velocity P-wave (km/s) = 3.95799 5.86833 5.00515
#
# Compressibility (1/GPa) = 0.07893251
#
# Stress axis : x y z
#
# Youngs Moduli (GPa) = 56.43994 12.19653 91.62241
#
# Poissons Ratio (x) = 0.06545 0.60472
# Poissons Ratio (y) = 0.30288 0.35537
# Poissons Ratio (z) = 0.37251 0.04731
#
# Static dielectric constant tensor:
#      x y z
#    x 1.748660 0.000000 0.002290 
#    y 0.000000 1.759150 0.000000 
#    z 0.002290 0.000000 1.800190 
# 
# From -- ./inp_files/329501.got.cif
#   From: 2010.05.17/outbox.cif.g08.bks.cpg/sg12_165_cif.got.tgz:329501.got - 2010.06.03 13:09:07.
