data_PCOD9185293
_publ_section_title
;
Structure prediction by ZEFSAII (Michael W. Deem and Ramdas Pophale) SiO2 
 PCOD9185293
Probable space group: C 2/M
;
_chemical_formula_sum "Si O2"
_cell_formula_units_Z 64
_cell_length_a 18.353484
_cell_length_b 24.223241
_cell_length_c 14.065802
_cell_angle_alpha 90.000000
_cell_angle_beta 26.239616
_cell_angle_gamma 90.000000
_cell_volume 2764.785596
_symmetry_space_group_name_H-M "C 2/M"
_symmetry_group_IT_number 12
_symmetry_cell_setting 'monoclinic'
loop_
_space_group_symop_operation_xyz
x,y,z
-x,y,-z
-x,-y,-z
x,-y,z
1/2+x,1/2+y,z
1/2-x,1/2+y,-z
1/2-x,1/2-y,-z
1/2+x,1/2-y,z
loop_
_atom_site_type_symbol
_atom_site_label
_atom_site_fract_x
_atom_site_fract_y
_atom_site_fract_z
Si Si1 0.058983 0.302449 0.537837
Si Si2 0.011856 0.935457 0.100528
Si Si3 0.283872 0.891300 0.916579
Si Si4 0.863677 0.346720 0.241652
Si Si5 0.405991 0.290323 0.823814
Si Si6 0.345653 0.561743 0.612342
Si Si7 0.665248 0.326013 0.648449
Si Si8 0.940768 0.443850 0.899833
O O1 0.938354 0.350615 0.718704
O O2 0.025543 0.240483 0.612747
O O3 0.000000 0.302383 0.500000
O O4 0.241718 0.314788 0.361963
O O5 0.882168 0.891170 0.294244
O O6 0.986549 0.000000 0.154977
O O7 0.187971 0.914915 0.937455
O O8 0.000000 0.931050 0.000000
O O9 0.155650 0.851947 0.123374
O O10 0.346495 0.938628 0.911540
O O11 0.713319 0.383848 0.375438
O O12 0.783462 0.310410 0.420321
O O13 0.000000 0.328642 0.000000
O O14 0.961545 0.389686 0.192227
O O15 0.493824 0.295175 0.824002
O O16 0.250000 0.250000 0.000000
O O17 0.500000 0.572405 0.500000
O O18 0.374097 0.500000 0.533146
O O19 0.190053 0.554170 0.863124
O O20 0.043441 0.500000 0.782079
#
# Coordination Sequence:
#
# PCOD9185293 Si02
#       8
#     8   8   8   8   8   8   8   8
#     4  11  22  42  65  94 123 164 216 271 336 395
#     4  10  22  39  60  93 131 173 223 272 323 389
#     4  10  20  39  61  86 123 164 209 264 327 390
#     4  10  21  38  55  88 126 169 209 260 312 385
#     4   9  22  42  65  89 120 160 212 276 334 401
#     4   9  19  32  51  80 118 161 210 256 303 371
#     4  11  22  41  68  96 129 174 216 272 334 404
#     4  10  19  34  56  82 121 168 207 252 313 381
#
# _framework density 23.148268999999999
#
# number of rings (size 3 to 8) (size 9 to 14) (size 15 to 20)
#    0.000    2.000    1.250    1.875    3.500    2.500 
#    4.500    0.000    0.000    4.125    0.000    0.000 
#    0.000    0.000    0.000    0.000    0.000    0.000 
#
# Total GULP energy -178248.883736 kJ/mol
# GULP energy per Si atom -5570.277617 kJ/mol
# Density = 2.309558 g / cm^3
# Si number density = 23.148269 Si / 1000 Ang^3
#
#
#
# Elastic Constant Matrix: (Units=GPa)
#
#
# Indices 1 2 3 4 5 6 
#
# 1 128.2668 34.5201 26.0395 -0.0069 -18.8776 0.0043
# 2 34.5201 87.8043 16.4029 -0.0182 -4.0220 0.0165
# 3 26.0395 16.4029 42.9165 -0.0087 -17.4895 0.0171
# 4 -0.0069 -0.0182 -0.0087 26.1032 0.0036 -7.0827
# 5 -18.8776 -4.0220 -17.4895 0.0036 36.9109 -0.0031
# 6 0.0043 0.0165 0.0171 -7.0827 -0.0031 47.5495
#
#
#
# Elastic Compliance Matrix: (Units=1/GPa)
#
#
# Indices 1 2 3 4 5 6 
#
# 1 0.009776 -0.003043 -0.003552 -0.000001 0.002985 0.000002
# 2 -0.003043 0.013248 -0.004044 0.000007 -0.002029 -0.000002
# 3 -0.003552 -0.004044 0.032323 0.000003 0.013059 -0.000009
# 4 -0.000001 0.000007 0.000003 0.039923 -0.000002 0.005947
# 5 0.002985 -0.002029 0.013059 -0.000002 0.034585 -0.000002
# 6 0.000002 -0.000002 -0.000009 0.005947 -0.000002 0.021917
#
#
# Mechanical properties :
#
#
# Convention : Reuss Voigt Hill
#
# Bulk Modulus (GPa) = 29.35175 45.87920 37.61547
# Shear Modulus (GPa) = 27.11414 34.24772 30.68093
#
# Velocity S-wave (km/s) = 3.42617 3.85059 3.64457
# Velocity P-wave (km/s) = 5.32532 6.29541 5.83057
#
# Compressibility (1/GPa) = 0.03406952
#
# Stress axis : x y z
#
# Youngs Moduli (GPa) = 102.29573 75.48407 30.93735
#
# Poissons Ratio (x) = 0.22970 0.10988
# Poissons Ratio (y) = 0.31129 0.12511
# Poissons Ratio (z) = 0.36333 0.30525
#
# Static dielectric constant tensor:
#      x y z
#    x 1.818040 0.000010 0.124370 
#    y 0.000010 2.011610 0.000020 
#    z 0.124370 0.000020 1.788230 
# 
# From -- ./inp_files/228128.got.cif
#   From: 2010.05.17/outbox.cif.g08.bks.cpg/sg12_115_cif.got.tgz:228128.got - 2010.06.03 13:09:07.
