data_PCOD9185792
_publ_section_title
;
Structure prediction by ZEFSAII (Michael W. Deem and Ramdas Pophale) SiO2 
 PCOD9185792
Probable space group: C 2/M
;
_chemical_formula_sum "Si O2"
_cell_formula_units_Z 64
_cell_length_a 19.782853
_cell_length_b 7.655477
_cell_length_c 16.945443
_cell_angle_alpha 90.000000
_cell_angle_beta 90.413961
_cell_angle_gamma 90.000000
_cell_volume 2566.272509
_symmetry_space_group_name_H-M "C 2/M"
_symmetry_group_IT_number 12
_symmetry_cell_setting 'monoclinic'
loop_
_space_group_symop_operation_xyz
x,y,z
-x,y,-z
-x,-y,-z
x,-y,z
1/2+x,1/2+y,z
1/2-x,1/2+y,-z
1/2-x,1/2-y,-z
1/2+x,1/2-y,z
loop_
_atom_site_type_symbol
_atom_site_label
_atom_site_fract_x
_atom_site_fract_y
_atom_site_fract_z
Si Si1 0.535146 0.713667 0.827005
Si Si2 0.415872 0.300226 0.927842
Si Si3 0.838072 0.213617 0.080116
Si Si4 0.598786 0.787620 0.583688
Si Si5 0.664483 0.799234 0.421838
Si Si6 0.706676 0.798785 0.157254
Si Si7 0.966504 0.795336 0.665913
Si Si8 0.219362 0.699480 0.686046
O O1 0.533435 0.500000 0.825918
O O2 0.486050 0.774322 0.897556
O O3 0.611345 0.763293 0.848439
O O4 0.502874 0.774384 0.745043
O O5 0.429993 0.500000 0.950892
O O6 0.363859 0.297951 0.853947
O O7 0.374064 0.224407 0.000602
O O8 0.762749 0.275623 0.097278
O O9 0.834014 0.000000 0.078647
O O10 0.632068 0.728190 0.502115
O O11 0.522918 0.728011 0.598703
O O12 0.648213 0.727314 0.654839
O O13 0.598698 0.000000 0.582758
O O14 0.603392 0.792468 0.358376
O O15 0.729429 0.704225 0.387695
O O16 0.684309 0.000000 0.434905
O O17 0.742273 0.791231 0.242252
O O18 0.692256 0.000000 0.139060
O O19 0.952237 0.000000 0.676223
O O20 0.209268 0.500000 0.710425
#
# Coordination Sequence:
#
# PCOD9185792 Si02
#       8
#     8   8   8   8   8   8   8   8
#     4   9  18  33  54  81 110 141 184 235 280 324
#     4  10  19  34  58  83 109 144 187 235 281 328
#     4   9  18  33  55  82 109 143 188 233 278 330
#     4  10  23  41  60  84 115 151 190 238 292 343
#     4  11  23  40  61  85 116 151 188 235 293 347
#     4  11  22  36  55  81 115 150 184 227 283 344
#     4  11  22  36  58  87 119 156 196 236 280 338
#     4  11  23  40  61  85 113 147 193 241 288 345
#
# _framework density 24.938896
#
# number of rings (size 3 to 8) (size 9 to 14) (size 15 to 20)
#    0.000    1.750    0.000    4.500    0.000    7.000 
#    0.000    1.250    0.000    4.500    0.000    0.000 
#    0.000    0.000    0.000    0.000    0.000    0.000 
#
# Total GULP energy -179122.276728 kJ/mol
# GULP energy per Si atom -5597.571148 kJ/mol
# Density = 2.488213 g / cm^3
# Si number density = 24.938896 Si / 1000 Ang^3
#
#
#
# Elastic Constant Matrix: (Units=GPa)
#
#
# Indices 1 2 3 4 5 6 
#
# 1 108.6080 -2.7715 -11.8079 0.0000 3.4110 0.0000
# 2 -2.7715 63.8885 -0.5557 0.0000 1.8785 0.0000
# 3 -11.8079 -0.5557 64.4345 0.0000 0.0852 0.0000
# 4 0.0000 0.0000 0.0000 15.9270 0.0000 2.2533
# 5 3.4110 1.8785 0.0852 0.0000 45.8556 0.0000
# 6 0.0000 0.0000 0.0000 2.2533 0.0000 11.5390
#
#
#
# Elastic Compliance Matrix: (Units=1/GPa)
#
#
# Indices 1 2 3 4 5 6 
#
# 1 0.009430 0.000445 0.001733 0.000000 -0.000723 0.000000
# 2 0.000445 0.015693 0.000218 0.000000 -0.000676 0.000000
# 3 0.001733 0.000218 0.015839 0.000000 -0.000167 0.000000
# 4 0.000000 0.000000 0.000000 0.064570 0.000000 -0.012609
# 5 -0.000723 -0.000676 -0.000167 0.000000 0.021889 0.000000
# 6 0.000000 0.000000 0.000000 -0.012609 0.000000 0.089125
#
#
# Mechanical properties :
#
#
# Convention : Reuss Voigt Hill
#
# Bulk Modulus (GPa) = 21.85561 22.96230 22.40896
# Shear Modulus (GPa) = 22.02582 31.46873 26.74728
#
# Velocity S-wave (km/s) = 2.97508 3.55608 3.27848
# Velocity P-wave (km/s) = 4.53698 5.10768 4.83076
#
# Compressibility (1/GPa) = 0.04575483
#
# Stress axis : x y z
#
# Youngs Moduli (GPa) = 106.04574 63.72115 63.13414
#
# Poissons Ratio (x) = -0.02838 -0.10940
# Poissons Ratio (y) = -0.04723 -0.01375
# Poissons Ratio (z) = -0.18376 -0.01388
#
# Static dielectric constant tensor:
#      x y z
#    x 1.895270 0.000000 -0.002430 
#    y 0.000000 1.940320 0.000000 
#    z -0.002430 0.000000 2.036270 
# 
# From -- ./inp_files/281270.got.cif
#   From: 2010.05.17/outbox.cif.g08.bks.cpg/sg12_141_cif.got.tgz:281270.got - 2010.06.03 13:09:07.
