data_PCOD9185105
_publ_section_title
;
Structure prediction by ZEFSAII (Michael W. Deem and Ramdas Pophale) SiO2 
 PCOD9185105
Probable space group: C 2/M
;
_chemical_formula_sum "Si O2"
_cell_formula_units_Z 64
_cell_length_a 14.506261
_cell_length_b 13.032604
_cell_length_c 17.332097
_cell_angle_alpha 90.000000
_cell_angle_beta 70.971290
_cell_angle_gamma 90.000000
_cell_volume 3097.653738
_symmetry_space_group_name_H-M "C 2/M"
_symmetry_group_IT_number 12
_symmetry_cell_setting 'monoclinic'
loop_
_space_group_symop_operation_xyz
x,y,z
-x,y,-z
-x,-y,-z
x,-y,z
1/2+x,1/2+y,z
1/2-x,1/2+y,-z
1/2-x,1/2-y,-z
1/2+x,1/2-y,z
loop_
_atom_site_type_symbol
_atom_site_label
_atom_site_fract_x
_atom_site_fract_y
_atom_site_fract_z
Si Si1 0.129798 0.112255 0.462901
Si Si2 0.581907 0.323915 0.648668
Si Si3 0.243672 0.688745 0.273471
Si Si4 0.851869 0.614099 0.421754
Si Si5 0.587500 0.624706 0.080379
Si Si6 0.903198 0.335940 0.567522
Si Si7 0.364813 0.620676 0.761917
Si Si8 0.369085 0.622692 0.099990
O O1 0.110838 0.122212 0.559940
O O2 0.244782 0.119742 0.415711
O O3 0.085551 0.212496 0.435390
O O4 0.097468 0.000000 0.444300
O O5 0.667149 0.328091 0.690162
O O6 0.578252 0.202602 0.628103
O O7 0.478361 0.364252 0.706479
O O8 0.149529 0.634972 0.339420
O O9 0.207131 0.804479 0.265038
O O10 0.283213 0.648833 0.181600
O O11 0.890519 0.500000 0.400789
O O12 0.830367 0.638491 0.517378
O O13 0.586195 0.500000 0.081752
O O14 0.636249 0.653580 0.147607
O O15 0.474107 0.658745 0.104963
O O16 0.637984 0.658696 0.986812
O O17 0.000000 0.379664 0.500000
O O18 0.340349 0.500000 0.760738
O O19 0.375865 0.500000 0.094703
#
# Coordination Sequence:
#
# PCOD9185105 Si02
#       8
#     8   8   8   8   8   8   8   8
#     4  10  19  34  56  76 101 147 192 234 289 339
#     4  11  20  38  57  82 118 153 198 250 288 347
#     4  12  22  34  58  92 120 153 197 245 294 350
#     4  10  20  36  55  71 101 150 193 233 290 342
#     4   8  16  35  60  88 120 149 187 237 290 348
#     4  11  22  37  51  76 116 148 191 248 288 338
#     4  11  24  39  59  89 121 154 194 242 293 347
#     4   9  18  34  61  92 118 150 189 238 294 347
#
# _framework density 20.660798
#
# number of rings (size 3 to 8) (size 9 to 14) (size 15 to 20)
#    0.000    1.750    3.750    3.375    0.000    3.000 
#    0.000    1.875    0.000    0.000    0.000    2.625 
#    0.000    0.000    0.000    0.000    0.000    0.000 
#
# Total GULP energy -178474.832837 kJ/mol
# GULP energy per Si atom -5577.338526 kJ/mol
# Density = 2.061377 g / cm^3
# Si number density = 20.660798 Si / 1000 Ang^3
#
#
#
# Elastic Constant Matrix: (Units=GPa)
#
#
# Indices 1 2 3 4 5 6 
#
# 1 69.7225 4.8879 30.1598 0.0000 2.6680 0.0000
# 2 4.8879 63.0163 -1.6312 0.0000 -1.5812 0.0000
# 3 30.1598 -1.6312 155.3976 0.0000 2.4485 0.0000
# 4 0.0000 0.0000 0.0000 -106.5338 0.0000 -79.0177
# 5 2.6680 -1.5812 2.4485 0.0000 33.7032 0.0000
# 6 0.0000 0.0000 0.0000 -79.0177 0.0000 -19.9625
#
#
#
# Elastic Compliance Matrix: (Units=1/GPa)
#
#
# Indices 1 2 3 4 5 6 
#
# 1 0.015803 -0.001332 -0.003064 0.000000 -0.001091 0.000000
# 2 -0.001332 0.016004 0.000414 0.000000 0.000826 0.000000
# 3 -0.003064 0.000414 0.007038 0.000000 -0.000249 0.000000
# 4 0.000000 0.000000 0.000000 0.004849 0.000000 -0.019192
# 5 -0.001091 0.000826 -0.000249 0.000000 0.029814 0.000000
# 6 0.000000 0.000000 0.000000 -0.019192 0.000000 0.025876
#
#
# Mechanical properties :
#
#
# Convention : Reuss Voigt Hill
#
# Bulk Modulus (GPa) = 32.38419 39.44104 35.91262
# Shear Modulus (GPa) = 42.50187 -1.57729 20.46229
#
# Velocity S-wave (km/s) = 4.54048 -0.87469 3.15046
# Velocity P-wave (km/s) = 6.57238 4.25572 5.53657
#
# Compressibility (1/GPa) = 0.03087927
#
# Stress axis : x y z
#
# Youngs Moduli (GPa) = 63.27880 62.48556 142.08543
#
# Poissons Ratio (x) = 0.08326 0.43533
# Poissons Ratio (y) = 0.08432 -0.05876
# Poissons Ratio (z) = 0.19388 -0.02584
#
# Static dielectric constant tensor:
#      x y z
#    x 1.856290 0.000000 0.033510 
#    y 0.000000 1.754340 0.000000 
#    z 0.033510 0.000000 1.768940 
# 
# From -- ./inp_files/270268.got.cif
#   From: 2010.05.17/outbox.cif.g08.bks.cpg/sg12_136_cif.got.tgz:270268.got - 2010.06.03 13:09:07.
