data_PCOD9185394
_publ_section_title
;
Structure prediction by ZEFSAII (Michael W. Deem and Ramdas Pophale) SiO2 
 PCOD9185394
Probable space group: C 2/M
;
_chemical_formula_sum "Si O2"
_cell_formula_units_Z 56
_cell_length_a 16.536509
_cell_length_b 13.718418
_cell_length_c 12.512369
_cell_angle_alpha 90.000000
_cell_angle_beta 114.767964
_cell_angle_gamma 90.000000
_cell_volume 2577.382830
_symmetry_space_group_name_H-M "C 2/M"
_symmetry_group_IT_number 12
_symmetry_cell_setting 'monoclinic'
loop_
_space_group_symop_operation_xyz
x,y,z
-x,y,-z
-x,-y,-z
x,-y,z
1/2+x,1/2+y,z
1/2-x,1/2+y,-z
1/2-x,1/2-y,-z
1/2+x,1/2-y,z
loop_
_atom_site_type_symbol
_atom_site_label
_atom_site_fract_x
_atom_site_fract_y
_atom_site_fract_z
Si Si1 0.064008 0.305462 0.441655
Si Si2 0.565815 0.114783 0.791255
Si Si3 0.297899 0.384192 0.126549
Si Si4 0.195060 0.386893 0.663415
Si Si5 0.363978 0.755739 0.980090
Si Si6 0.902086 0.108302 0.832800
Si Si7 0.511333 0.390966 0.676646
O O1 0.160087 0.325533 0.543351
O O2 0.040213 0.192484 0.414227
O O3 0.000000 0.346232 0.500000
O O4 0.028262 0.356905 0.315096
O O5 0.642506 0.138760 0.744486
O O6 0.570664 0.000000 0.815743
O O7 0.584320 0.177721 0.906306
O O8 0.283535 0.500000 0.105423
O O9 0.210634 0.325756 0.113566
O O10 0.383552 0.371149 0.250559
O O11 0.320247 0.331733 0.026338
O O12 0.171926 0.500000 0.629462
O O13 0.300509 0.381459 0.735888
O O14 0.414603 0.698241 0.917111
O O15 0.970570 0.110763 0.773391
O O16 0.908516 0.000000 0.887082
O O17 0.498254 0.500000 0.627315
#
# Coordination Sequence:
#
# PCOD9185394 Si02
#       7
#     8   8   8   8   8   8   8
#     4  10  20  35  60  86 111 148 195 241 295 340
#     4  10  19  34  56  88 118 147 192 244 287 337
#     4  10  20  34  55  83 114 150 192 234 282 341
#     4   9  18  34  58  85 113 146 192 244 289 337
#     4  11  20  33  59  86 115 152 193 242 289 337
#     4  10  22  38  59  87 119 153 195 240 289 347
#     4  10  22  40  57  83 121 155 191 237 290 352
#
# _framework density 21.727467000000001
#
# number of rings (size 3 to 8) (size 9 to 14) (size 15 to 20)
#    0.000    2.000    1.429    3.000    2.000    4.286 
#    0.000    2.143    0.000    4.286    0.000    0.000 
#    0.000    0.000    0.000    0.000    0.000    0.000 
#
# Total GULP energy -156488.162283 kJ/mol
# GULP energy per Si atom -5588.862939 kJ/mol
# Density = 2.167801 g / cm^3
# Si number density = 21.727467 Si / 1000 Ang^3
#
#
#
# Elastic Constant Matrix: (Units=GPa)
#
#
# Indices 1 2 3 4 5 6 
#
# 1 43.7100 36.9109 47.7538 0.0000 19.1625 0.0000
# 2 36.9109 178.7512 83.2664 0.0000 16.5026 0.0000
# 3 47.7538 83.2664 119.9145 0.0000 23.9301 0.0000
# 4 0.0000 0.0000 0.0000 27.3300 0.0000 -21.8727
# 5 19.1625 16.5026 23.9301 0.0000 33.7078 0.0000
# 6 0.0000 0.0000 0.0000 -21.8727 0.0000 1.8490
#
#
#
# Elastic Compliance Matrix: (Units=1/GPa)
#
#
# Indices 1 2 3 4 5 6 
#
# 1 0.046801 -0.001467 -0.014509 0.000000 -0.015588 0.000000
# 2 -0.001467 0.008315 -0.005294 0.000000 0.000521 0.000000
# 3 -0.014509 -0.005294 0.018210 0.000000 -0.002088 0.000000
# 4 0.000000 0.000000 0.000000 -0.004321 0.000000 -0.051119
# 5 -0.015588 0.000521 -0.002088 0.000000 0.039755 0.000000
# 6 0.000000 0.000000 0.000000 -0.051119 0.000000 -0.063873
#
#
# Mechanical properties :
#
#
# Convention : Reuss Voigt Hill
#
# Bulk Modulus (GPa) = 32.48030 75.35979 53.92004
# Shear Modulus (GPa) = 51.18361 24.20700 37.69530
#
# Velocity S-wave (km/s) = 4.85883 3.34146 4.16975
# Velocity P-wave (km/s) = 6.81609 7.04603 6.93201
#
# Compressibility (1/GPa) = 0.03078789
#
# Stress axis : x y z
#
# Youngs Moduli (GPa) = 21.36693 120.26371 54.91600
#
# Poissons Ratio (x) = 0.17637 0.79676
# Poissons Ratio (y) = 0.03134 0.29071
# Poissons Ratio (z) = 0.31001 0.63665
#
# Static dielectric constant tensor:
#      x y z
#    x 1.805190 0.000000 0.031830 
#    y 0.000000 1.789550 0.000000 
#    z 0.031830 0.000000 1.821160 
# 
# From -- ./inp_files/156724.got.cif
#   From: 2010.05.17/outbox.cif.g08.bks.cpg/sg12_79_cif.got.tgz:156724.got - 2010.06.03 13:09:07.
