data_PCOD9185265
_publ_section_title
;
Structure prediction by ZEFSAII (Michael W. Deem and Ramdas Pophale) SiO2 
 PCOD9185265
Probable space group: C 2/M
;
_chemical_formula_sum "Si O2"
_cell_formula_units_Z 64
_cell_length_a 8.013491
_cell_length_b 22.025799
_cell_length_c 23.321928
_cell_angle_alpha 90.000000
_cell_angle_beta 45.490248
_cell_angle_gamma 90.000000
_cell_volume 2935.535096
_symmetry_space_group_name_H-M "C 2/M"
_symmetry_group_IT_number 12
_symmetry_cell_setting 'monoclinic'
loop_
_space_group_symop_operation_xyz
x,y,z
-x,y,-z
-x,-y,-z
x,-y,z
1/2+x,1/2+y,z
1/2-x,1/2+y,-z
1/2-x,1/2-y,-z
1/2+x,1/2-y,z
loop_
_atom_site_type_symbol
_atom_site_label
_atom_site_fract_x
_atom_site_fract_y
_atom_site_fract_z
Si Si1 0.959772 0.841760 0.645649
Si Si2 0.677939 0.571571 0.092786
Si Si3 0.778146 0.427967 0.946595
Si Si4 0.378936 0.071482 0.799313
Si Si5 0.977790 0.612549 0.652461
Si Si6 0.240170 0.771096 0.404887
Si Si7 0.221191 0.567028 0.488847
Si Si8 0.442969 0.573878 0.754298
O O1 0.158116 0.796133 0.621140
O O2 0.080433 0.884519 0.569719
O O3 0.874122 0.887180 0.715486
O O4 0.797377 0.795944 0.650068
O O5 0.731777 0.500000 0.080341
O O6 0.399471 0.575976 0.147471
O O7 0.699733 0.591309 0.153580
O O8 0.803499 0.597055 0.005335
O O9 0.834413 0.500000 0.935075
O O10 0.897827 0.403958 0.859798
O O11 0.500000 0.424505 0.000000
O O12 0.500713 0.100387 0.714786
O O13 0.439062 0.000000 0.785732
O O14 0.072059 0.680074 0.615611
O O15 0.134846 0.570285 0.574465
O O16 0.712422 0.594250 0.700390
O O17 0.000000 0.772208 0.500000
O O18 0.304749 0.500000 0.453199
O O19 0.000000 0.580074 0.500000
O O20 0.433796 0.500000 0.749638
#
# Coordination Sequence:
#
# PCOD9185265 Si02
#       8
#     8   8   8   8   8   8   8   8
#     4  12  24  40  58  75  99 134 179 225 270 311
#     4   7  11  20  39  69 104 137 169 201 240 297
#     4   7   9  16  33  63 101 137 168 199 239 290
#     4   8  13  22  40  67 103 140 169 204 250 299
#     4  11  20  34  52  76 104 135 177 215 257 310
#     4  12  26  42  56  75  96 136 183 230 268 309
#     4  11  21  34  55  78 103 137 174 212 262 320
#     4  10  19  34  56  82 112 144 173 209 260 316
#
# _framework density 21.801817
#
# number of rings (size 3 to 8) (size 9 to 14) (size 15 to 20)
#    0.000    2.250    2.500    5.250    0.000    0.000 
#    0.000    4.375    0.000    0.000    0.000    1.750 
#    0.000    4.000    0.000    0.000    0.000    0.000 
#
# Total GULP energy -178595.087348 kJ/mol
# GULP energy per Si atom -5581.096480 kJ/mol
# Density = 2.175220 g / cm^3
# Si number density = 21.801817 Si / 1000 Ang^3
#
#
#
# Elastic Constant Matrix: (Units=GPa)
#
#
# Indices 1 2 3 4 5 6 
#
# 1 92.2813 15.4953 38.7152 0.0000 19.9341 -0.0001
# 2 15.4953 73.9647 34.5919 0.0000 -5.1858 0.0000
# 3 38.7152 34.5919 177.6426 0.0000 24.7906 0.0001
# 4 0.0000 0.0000 0.0000 -18.0041 0.0000 13.7543
# 5 19.9341 -5.1858 24.7906 0.0000 40.5577 0.0000
# 6 -0.0001 0.0000 0.0001 13.7543 0.0000 12.1302
#
#
#
# Elastic Compliance Matrix: (Units=1/GPa)
#
#
# Indices 1 2 3 4 5 6 
#
# 1 0.013164 -0.002423 -0.001586 0.000000 -0.005810 0.000000
# 2 -0.002423 0.015944 -0.003310 0.000000 0.005253 0.000000
# 3 -0.001586 -0.003310 0.007182 0.000000 -0.004034 0.000000
# 4 0.000000 0.000000 0.000000 -0.029762 0.000000 0.033747
# 5 -0.005810 0.005253 -0.004034 0.000000 0.030649 0.000000
# 6 0.000000 0.000000 0.000000 0.033747 0.000000 0.044174
#
#
# Mechanical properties :
#
#
# Convention : Reuss Voigt Hill
#
# Bulk Modulus (GPa) = 46.18546 57.94372 52.06459
# Shear Modulus (GPa) = 48.44651 23.94250 36.19451
#
# Velocity S-wave (km/s) = 4.71906 3.31749 4.07893
# Velocity P-wave (km/s) = 7.13603 6.42724 6.79089
#
# Compressibility (1/GPa) = 0.02165184
#
# Stress axis : x y z
#
# Youngs Moduli (GPa) = 75.96524 62.72058 139.23006
#
# Poissons Ratio (x) = 0.15199 0.22084
# Poissons Ratio (y) = 0.18409 0.46079
# Poissons Ratio (z) = 0.12049 0.20758
#
# Static dielectric constant tensor:
#      x y z
#    x 1.961110 0.000000 -0.014240 
#    y 0.000000 1.719500 0.000000 
#    z -0.014240 0.000000 1.834780 
# 
# From -- ./inp_files/333985.got.cif
#   From: 2010.05.17/outbox.cif.g08.bks.cpg/sg12_167_cif.got.tgz:333985.got - 2010.06.03 13:09:07.
