data_PCOD9185044
_publ_section_title
;
Structure prediction by ZEFSAII (Michael W. Deem and Ramdas Pophale) SiO2 
 PCOD9185044
Probable space group: C 2/M
;
_chemical_formula_sum "Si O2"
_cell_formula_units_Z 56
_cell_length_a 17.270037
_cell_length_b 15.749638
_cell_length_c 17.237554
_cell_angle_alpha 90.000000
_cell_angle_beta 153.580341
_cell_angle_gamma 90.000000
_cell_volume 2086.139563
_symmetry_space_group_name_H-M "C 2/M"
_symmetry_group_IT_number 12
_symmetry_cell_setting 'monoclinic'
loop_
_space_group_symop_operation_xyz
x,y,z
-x,y,-z
-x,-y,-z
x,-y,z
1/2+x,1/2+y,z
1/2-x,1/2+y,-z
1/2-x,1/2-y,-z
1/2+x,1/2-y,z
loop_
_atom_site_type_symbol
_atom_site_label
_atom_site_fract_x
_atom_site_fract_y
_atom_site_fract_z
Si Si1 0.554635 0.847608 0.356358
Si Si2 0.674372 0.592743 0.521946
Si Si3 0.114805 0.599316 0.995993
Si Si4 0.914748 0.833636 0.174198
Si Si5 0.635826 0.401942 0.256309
Si Si6 0.833107 0.640307 0.294412
Si Si7 0.241939 0.329476 0.256261
O O1 0.646047 0.891195 0.364627
O O2 0.492603 0.754769 0.274597
O O3 0.715243 0.849278 0.562675
O O4 0.398852 0.886326 0.268423
O O5 0.681455 0.500000 0.563645
O O6 0.526864 0.599951 0.325248
O O7 0.640659 0.656028 0.562726
O O8 0.081300 0.500000 0.950676
O O9 0.217619 0.647476 0.020112
O O10 0.239705 0.604418 0.184019
O O11 0.947239 0.653125 0.873431
O O12 0.962301 0.854437 0.128424
O O13 0.641024 0.500000 0.285876
O O14 0.678077 0.401246 0.203589
O O15 0.781713 0.739427 0.253560
O O16 0.000000 0.624377 0.500000
#
# Coordination Sequence:
#
# PCOD9185044 Si02
#       7
#     8   8   8   8   8   8   8
#     4  10  19  34  55  82 117 152 185 231 284 334
#     4  11  21  34  57  87 117 145 185 237 287 336
#     4  11  23  39  60  82 117 156 190 236 290 350
#     4  11  20  37  58  86 116 151 191 234 287 343
#     4  10  20  34  57  89 122 152 191 239 284 337
#     4  10  20  36  59  86 117 153 193 232 282 338
#     4  11  22  39  58  83 116 149 191 234 288 344
#
# _framework density 26.843841000000001
#
# number of rings (size 3 to 8) (size 9 to 14) (size 15 to 20)
#    0.000    1.429    1.429    8.571    0.000    3.143 
#    0.000    4.286    0.000    0.000    0.000    3.000 
#    0.000    0.000    0.000    0.000    0.000    0.000 
#
# Total GULP energy -156664.853405 kJ/mol
# GULP energy per Si atom -5595.173336 kJ/mol
# Density = 2.678274 g / cm^3
# Si number density = 26.843841 Si / 1000 Ang^3
#
#
#
# Elastic Constant Matrix: (Units=GPa)
#
#
# Indices 1 2 3 4 5 6 
#
# 1 183.6864 9.9172 9.1766 0.0024 36.1284 -0.0010
# 2 9.9172 102.0570 5.9884 0.0068 0.6710 0.0021
# 3 9.1766 5.9884 93.6242 0.0064 13.9157 0.0010
# 4 0.0024 0.0068 0.0064 -14.8369 0.0068 -57.6289
# 5 36.1284 0.6710 13.9157 0.0068 42.8758 0.0094
# 6 -0.0010 0.0021 0.0010 -57.6289 0.0094 -93.8878
#
#
#
# Elastic Compliance Matrix: (Units=1/GPa)
#
#
# Indices 1 2 3 4 5 6 
#
# 1 0.006567 -0.000615 0.000228 -0.000001 -0.005598 0.000000
# 2 -0.000615 0.009893 -0.000658 -0.000002 0.000577 0.000002
# 3 0.000228 -0.000658 0.011272 -0.000003 -0.003840 0.000001
# 4 -0.000001 -0.000002 -0.000003 0.048695 0.000000 -0.029889
# 5 -0.005598 0.000577 -0.003840 0.000000 0.029277 0.000003
# 6 0.000000 0.000002 0.000001 -0.029889 0.000003 0.007695
#
#
# Mechanical properties :
#
#
# Convention : Reuss Voigt Hill
#
# Bulk Modulus (GPa) = 39.00030 47.72580 43.36305
# Shear Modulus (GPa) = 40.31091 10.44926 25.38008
#
# Velocity S-wave (km/s) = 3.87936 1.97511 3.07819
# Velocity P-wave (km/s) = 5.88439 4.79782 5.36866
#
# Compressibility (1/GPa) = 0.02564083
#
# Stress axis : x y z
#
# Youngs Moduli (GPa) = 152.27987 101.08147 88.71930
#
# Poissons Ratio (x) = 0.06213 -0.02020
# Poissons Ratio (y) = 0.09360 0.05840
# Poissons Ratio (z) = -0.03467 0.06654
#
# Static dielectric constant tensor:
#      x y z
#    x 2.116960 0.000000 0.030600 
#    y 0.000000 2.021440 0.000000 
#    z 0.030600 0.000000 2.256020 
# 
# From -- ./inp_files/316744.got.cif
#   From: 2010.05.17/outbox.cif.g08.bks.cpg/sg12_159_cif.got.tgz:316744.got - 2010.06.03 13:09:07.
