data_PCOD9185985
_publ_section_title
;
Structure prediction by ZEFSAII (Michael W. Deem and Ramdas Pophale) SiO2 
 PCOD9185985
Probable space group: C 2/M
;
_chemical_formula_sum "Si O2"
_cell_formula_units_Z 56
_cell_length_a 20.778591
_cell_length_b 8.863141
_cell_length_c 17.918969
_cell_angle_alpha 90.000000
_cell_angle_beta 71.095424
_cell_angle_gamma 90.000000
_cell_volume 3122.016656
_symmetry_space_group_name_H-M "C 2/M"
_symmetry_group_IT_number 12
_symmetry_cell_setting 'monoclinic'
loop_
_space_group_symop_operation_xyz
x,y,z
-x,y,-z
-x,-y,-z
x,-y,z
1/2+x,1/2+y,z
1/2-x,1/2+y,-z
1/2-x,1/2-y,-z
1/2+x,1/2-y,z
loop_
_atom_site_type_symbol
_atom_site_label
_atom_site_fract_x
_atom_site_fract_y
_atom_site_fract_z
Si Si1 0.310101 0.319681 0.572154
Si Si2 0.931216 0.819933 0.243781
Si Si3 0.320861 0.680787 0.157707
Si Si4 0.578910 0.819706 0.177130
Si Si5 0.676848 0.318820 0.262195
Si Si6 0.153048 0.679469 0.593548
Si Si7 0.322118 0.819289 0.997774
O O1 0.317247 0.500000 0.559088
O O2 0.332826 0.280018 0.646990
O O3 0.229567 0.284297 0.594051
O O4 0.348316 0.235530 0.491114
O O5 0.876636 0.783150 0.199608
O O6 0.900235 0.760827 0.333029
O O7 0.003118 0.743428 0.200695
O O8 0.939104 0.000000 0.243458
O O9 0.314285 0.500000 0.154395
O O10 0.248417 0.749997 0.208339
O O11 0.340665 0.749254 0.070498
O O12 0.618120 0.745627 0.231877
O O13 0.577998 0.000000 0.186427
O O14 0.622460 0.784655 0.086510
O O15 0.680088 0.500000 0.254831
O O16 0.144023 0.500000 0.601032
O O17 0.315567 0.000000 0.006318
O O18 0.250000 0.750000 0.000000
#
# Coordination Sequence:
#
# PCOD9185985 Si02
#       7
#     8   8   8   8   8   8   8
#     4   9  19  34  56  89 121 154 197 243 295 352
#     4  11  24  41  61  87 122 162 200 245 301 357
#     4  11  23  38  61  90 120 156 201 248 295 352
#     4  11  25  42  61  87 121 158 199 247 302 360
#     4  11  21  37  62  90 120 157 200 246 296 353
#     4  10  19  34  58  88 121 157 196 244 298 351
#     4  11  23  39  62  90 120 156 198 250 301 352
#
# _framework density 17.937124000000001
#
# number of rings (size 3 to 8) (size 9 to 14) (size 15 to 20)
#    0.000    1.429    2.857    2.571    0.000    5.714 
#    0.000    3.571    0.000    4.286    0.000    0.000 
#    0.000    0.000    0.000    0.000    0.000    0.000 
#
# Total GULP energy -156496.579407 kJ/mol
# GULP energy per Si atom -5589.163550 kJ/mol
# Density = 1.789630 g / cm^3
# Si number density = 17.937124 Si / 1000 Ang^3
#
#
#
# Elastic Constant Matrix: (Units=GPa)
#
#
# Indices 1 2 3 4 5 6 
#
# 1 77.0463 35.9389 40.8149 0.0000 -5.2192 0.0000
# 2 35.9389 51.8062 48.8281 0.0000 -1.6257 0.0000
# 3 40.8149 48.8281 125.2279 0.0000 4.8825 0.0000
# 4 0.0000 0.0000 0.0000 35.9251 0.0000 -0.7098
# 5 -5.2192 -1.6257 4.8825 0.0000 28.6750 0.0000
# 6 0.0000 0.0000 0.0000 -0.7098 0.0000 29.8271
#
#
#
# Elastic Compliance Matrix: (Units=1/GPa)
#
#
# Indices 1 2 3 4 5 6 
#
# 1 0.019710 -0.011693 -0.001992 0.000000 0.003264 0.000000
# 2 -0.011693 0.037868 -0.011028 0.000000 0.001896 0.000000
# 3 -0.001992 -0.011028 0.013060 0.000000 -0.003211 0.000000
# 4 0.000000 0.000000 0.000000 0.027849 0.000000 0.000663
# 5 0.003264 0.001896 -0.003211 0.000000 0.036122 0.000000
# 6 0.000000 0.000000 0.000000 0.000663 0.000000 0.033542
#
#
# Mechanical properties :
#
#
# Convention : Reuss Voigt Hill
#
# Bulk Modulus (GPa) = 47.14444 56.13825 51.64135
# Shear Modulus (GPa) = 22.25701 27.45200 24.85451
#
# Velocity S-wave (km/s) = 3.52637 3.91635 3.72647
# Velocity P-wave (km/s) = 6.55138 7.19830 6.88245
#
# Compressibility (1/GPa) = 0.02121141
#
# Stress axis : x y z
#
# Youngs Moduli (GPa) = 50.73594 26.40729 76.57050
#
# Poissons Ratio (x) = 0.30879 0.15251
# Poissons Ratio (y) = 0.59328 0.84443
# Poissons Ratio (z) = 0.10105 0.29122
#
# Static dielectric constant tensor:
#      x y z
#    x 1.585140 0.000000 0.010940 
#    y 0.000000 1.597390 0.000000 
#    z 0.010940 0.000000 1.599650 
# 
# From -- ./inp_files/275273.got.cif
#   From: 2010.05.17/outbox.cif.g08.bks.cpg/sg12_138_cif.got.tgz:275273.got - 2010.06.03 13:09:07.
