data_PCOD9185275
_publ_section_title
;
Structure prediction by ZEFSAII (Michael W. Deem and Ramdas Pophale) SiO2 
 PCOD9185275
Probable space group: C 2/M
;
_chemical_formula_sum "Si O2"
_cell_formula_units_Z 48
_cell_length_a 31.745776
_cell_length_b 7.739764
_cell_length_c 9.210732
_cell_angle_alpha 90.000000
_cell_angle_beta 88.794882
_cell_angle_gamma 90.000000
_cell_volume 2262.620613
_symmetry_space_group_name_H-M "C 2/M"
_symmetry_group_IT_number 12
_symmetry_cell_setting 'monoclinic'
loop_
_space_group_symop_operation_xyz
x,y,z
-x,y,-z
-x,-y,-z
x,-y,z
1/2+x,1/2+y,z
1/2-x,1/2+y,-z
1/2-x,1/2-y,-z
1/2+x,1/2-y,z
loop_
_atom_site_type_symbol
_atom_site_label
_atom_site_fract_x
_atom_site_fract_y
_atom_site_fract_z
Si Si1 0.291688 0.706502 0.406856
Si Si2 0.293702 0.198173 0.071894
Si Si3 0.541918 0.711109 0.580706
Si Si4 0.957318 0.788317 0.085222
Si Si5 0.122737 0.200252 0.088112
Si Si6 0.872284 0.788243 0.584500
O O1 0.294728 0.500000 0.392738
O O2 0.250000 0.750000 0.500000
O O3 0.290193 0.778650 0.244592
O O4 0.332355 0.769606 0.493164
O O5 0.334002 0.295145 0.004349
O O6 0.301660 0.000000 0.036476
O O7 0.250000 0.250000 0.000000
O O8 0.500000 0.767889 0.500000
O O9 0.541480 0.500000 0.581101
O O10 0.542577 0.768074 0.747655
O O11 0.584139 0.763528 0.493985
O O12 0.915984 0.726103 0.002016
O O13 0.956466 0.000000 0.088323
O O14 0.000000 0.737682 0.000000
O O15 0.111161 0.000000 0.112876
O O16 0.129123 0.273318 0.248994
O O17 0.870609 0.000000 0.584768
#
# Coordination Sequence:
#
# PCOD9185275 Si02
#       6
#     8   8   8   8   8   8
#     4  11  22  38  59  84 115 149 187 231 282 339
#     4  12  25  41  60  83 111 145 188 236 291 350
#     4   9  15  24  40  67 106 146 182 222 270 323
#     4   9  16  26  45  76 112 149 188 231 279 333
#     4  10  19  34  56  82 113 147 187 234 284 339
#     4   9  18  31  50  77 108 143 180 223 275 329
#
# _framework density 21.21434
#
# number of rings (size 3 to 8) (size 9 to 14) (size 15 to 20)
#    0.000    2.000    0.000    5.000    0.000    8.000 
#    0.000    0.833    0.000    0.500    0.000    0.000 
#    0.000    8.000    0.000    0.000    0.000    0.000 
#
# Total GULP energy -134145.565533 kJ/mol
# GULP energy per Si atom -5589.398564 kJ/mol
# Density = 2.116606 g / cm^3
# Si number density = 21.214340 Si / 1000 Ang^3
#
#
#
# Elastic Constant Matrix: (Units=GPa)
#
#
# Indices 1 2 3 4 5 6 
#
# 1 207.7280 -14.3755 115.8606 0.0000 18.9230 0.0000
# 2 -14.3755 35.4979 -10.0407 0.0000 10.0932 0.0000
# 3 115.8606 -10.0407 212.2995 0.0000 14.6823 0.0000
# 4 0.0000 0.0000 0.0000 11.2661 0.0000 -0.8496
# 5 18.9230 10.0932 14.6823 0.0000 46.7561 0.0000
# 6 0.0000 0.0000 0.0000 -0.8496 0.0000 8.9070
#
#
#
# Elastic Compliance Matrix: (Units=1/GPa)
#
#
# Indices 1 2 3 4 5 6 
#
# 1 0.007254 0.002562 -0.003676 0.000000 -0.002335 0.000000
# 2 0.002562 0.031694 0.000660 0.000000 -0.008086 0.000000
# 3 -0.003676 0.000660 0.006803 0.000000 -0.000791 0.000000
# 4 0.000000 0.000000 0.000000 0.089405 0.000000 0.008528
# 5 -0.002335 -0.008086 -0.000791 0.000000 0.024326 0.000000
# 6 0.000000 0.000000 0.000000 0.008528 0.000000 0.113085
#
#
# Mechanical properties :
#
#
# Convention : Reuss Voigt Hill
#
# Bulk Modulus (GPa) = 22.30065 70.93492 46.61779
# Shear Modulus (GPa) = 17.33560 37.65790 27.49675
#
# Velocity S-wave (km/s) = 2.86171 4.21778 3.60410
# Velocity P-wave (km/s) = 4.63185 7.56501 6.27230
#
# Compressibility (1/GPa) = 0.04484173
#
# Stress axis : x y z
#
# Youngs Moduli (GPa) = 137.84579 31.55185 147.00195
#
# Poissons Ratio (x) = -0.08083 0.54045
# Poissons Ratio (y) = -0.35312 -0.09704
# Poissons Ratio (z) = 0.50678 -0.02083
#
# Static dielectric constant tensor:
#      x y z
#    x 1.452560 0.000000 0.132230 
#    y 0.000000 1.841720 0.000000 
#    z 0.132230 0.000000 1.676830 
# 
# From -- ./inp_files/108623.got.cif
#   From: 2010.05.17/outbox.cif.g08.bks.cpg/sg12_55_cif.got.tgz:108623.got - 2010.06.03 13:09:07.
