data_PCOD9185224
_publ_section_title
;
Structure prediction by ZEFSAII (Michael W. Deem and Ramdas Pophale) SiO2 
 PCOD9185224
Probable space group: C 2/M
;
_chemical_formula_sum "Si O2"
_cell_formula_units_Z 40
_cell_length_a 9.332077
_cell_length_b 18.007842
_cell_length_c 16.738323
_cell_angle_alpha 90.000000
_cell_angle_beta 141.211099
_cell_angle_gamma 90.000000
_cell_volume 1762.139577
_symmetry_space_group_name_H-M "C 2/M"
_symmetry_group_IT_number 12
_symmetry_cell_setting 'monoclinic'
loop_
_space_group_symop_operation_xyz
x,y,z
-x,y,-z
-x,-y,-z
x,-y,z
1/2+x,1/2+y,z
1/2-x,1/2+y,-z
1/2-x,1/2-y,-z
1/2+x,1/2-y,z
loop_
_atom_site_type_symbol
_atom_site_label
_atom_site_fract_x
_atom_site_fract_y
_atom_site_fract_z
Si Si1 0.541417 0.194641 0.426142
Si Si2 0.867439 0.652228 0.103696
Si Si3 0.224549 0.081848 0.894489
Si Si4 0.266588 0.088168 0.618586
Si Si5 0.231771 0.729124 0.172725
O O1 0.500000 0.178153 0.500000
O O2 0.750000 0.250000 0.500000
O O3 0.600134 0.123484 0.398200
O O4 0.330456 0.240288 0.298444
O O5 0.763477 0.702303 0.127364
O O6 0.085160 0.610751 0.238777
O O7 0.976366 0.705497 0.083467
O O8 0.703560 0.599918 0.980004
O O9 0.148698 0.153802 0.809945
O O10 0.128384 0.000000 0.832621
O O11 0.500000 0.076307 0.000000
O O12 0.000000 0.114129 0.500000
O O13 0.263178 0.000000 0.612539
#
# Coordination Sequence:
#
# PCOD9185224 Si02
#       5
#     8   8   8   8   8
#     4  11  21  36  56  80 111 145 184 227 273 325
#     4  10  19  34  56  81 109 142 179 222 270 322
#     4   9  18  33  54  80 108 139 178 223 269 317
#     4  10  21  36  56  83 112 144 184 228 275 328
#     4  10  20  33  54  79 106 140 180 221 266 322
#
# _framework density 22.699677999999999
#
# number of rings (size 3 to 8) (size 9 to 14) (size 15 to 20)
#    0.000    2.000    0.000    5.400    0.000    1.200 
#    0.000    1.000    0.000   12.600    0.000    0.000 
#    0.000    0.800    0.000    0.000    0.000    0.000 
#
# Total GULP energy -111710.685040 kJ/mol
# GULP energy per Si atom -5585.534252 kJ/mol
# Density = 2.264801 g / cm^3
# Si number density = 22.699678 Si / 1000 Ang^3
#
#
#
# Elastic Constant Matrix: (Units=GPa)
#
#
# Indices 1 2 3 4 5 6 
#
# 1 75.6001 34.0024 16.1958 0.0000 -27.3558 -0.0001
# 2 34.0024 110.2702 36.4826 -0.0001 -10.7792 -0.0001
# 3 16.1958 36.4826 79.5328 0.0002 -19.7179 0.0000
# 4 0.0000 -0.0001 0.0002 31.2619 0.0001 -0.3973
# 5 -27.3558 -10.7792 -19.7179 0.0001 37.8018 0.0000
# 6 -0.0001 -0.0001 0.0000 -0.3973 0.0000 19.9826
#
#
#
# Elastic Compliance Matrix: (Units=1/GPa)
#
#
# Indices 1 2 3 4 5 6 
#
# 1 0.020460 -0.005549 0.001904 0.000000 0.014217 0.000000
# 2 -0.005549 0.012207 -0.005285 0.000000 -0.003292 0.000000
# 3 0.001904 -0.005285 0.016743 0.000000 0.008604 0.000000
# 4 0.000000 0.000000 0.000000 0.031996 0.000000 0.000636
# 5 0.014217 -0.003292 0.008604 0.000000 0.040291 0.000000
# 6 0.000000 0.000000 0.000000 0.000636 0.000000 0.050056
#
#
# Mechanical properties :
#
#
# Convention : Reuss Voigt Hill
#
# Bulk Modulus (GPa) = 31.69762 48.75165 40.22464
# Shear Modulus (GPa) = 24.98373 29.72410 27.35392
#
# Velocity S-wave (km/s) = 3.32116 3.62256 3.47513
# Velocity P-wave (km/s) = 5.35733 6.24665 5.81901
#
# Compressibility (1/GPa) = 0.03154811
#
# Stress axis : x y z
#
# Youngs Moduli (GPa) = 48.87664 81.92310 59.72504
#
# Poissons Ratio (x) = 0.45459 -0.11369
# Poissons Ratio (y) = 0.27121 0.31567
# Poissons Ratio (z) = -0.09304 0.43300
#
# Static dielectric constant tensor:
#      x y z
#    x 1.858240 0.000000 0.003030 
#    y 0.000000 1.894150 0.000000 
#    z 0.003030 0.000000 2.341740 
# 
# From -- ./inp_files/246849.got.cif
#   From: 2010.05.17/outbox.cif.g08.bks.cpg/sg12_124_cif.got.tgz:246849.got - 2010.06.03 13:09:07.
