data_PCOD9185049
_publ_section_title
;
Structure prediction by ZEFSAII (Michael W. Deem and Ramdas Pophale) SiO2 
 PCOD9185049
Probable space group: C 2/M
;
_chemical_formula_sum "Si O2"
_cell_formula_units_Z 56
_cell_length_a 7.974634
_cell_length_b 22.221937
_cell_length_c 21.590381
_cell_angle_alpha 90.000000
_cell_angle_beta 48.229433
_cell_angle_gamma 90.000000
_cell_volume 2853.553466
_symmetry_space_group_name_H-M "C 2/M"
_symmetry_group_IT_number 12
_symmetry_cell_setting 'monoclinic'
loop_
_space_group_symop_operation_xyz
x,y,z
-x,y,-z
-x,-y,-z
x,-y,z
1/2+x,1/2+y,z
1/2-x,1/2+y,-z
1/2-x,1/2-y,-z
1/2+x,1/2-y,z
loop_
_atom_site_type_symbol
_atom_site_label
_atom_site_fract_x
_atom_site_fract_y
_atom_site_fract_z
Si Si1 0.225989 0.378234 0.246492
Si Si2 0.163481 0.816116 0.906539
Si Si3 0.161655 0.068412 0.193816
Si Si4 0.857668 0.690437 0.147529
Si Si5 0.748829 0.931889 0.680654
Si Si6 0.503839 0.757137 0.321131
Si Si7 0.549519 0.316392 0.416056
O O1 0.346165 0.353185 0.154742
O O2 0.401089 0.417363 0.242539
O O3 0.147329 0.317380 0.301115
O O4 0.001856 0.413136 0.279723
O O5 0.103532 0.746587 0.907269
O O6 0.419732 0.817347 0.866575
O O7 0.000000 0.839680 0.000000
O O8 0.294095 0.126178 0.134005
O O9 0.220275 0.071897 0.252635
O O10 0.215399 0.000000 0.160107
O O11 0.650031 0.713999 0.241144
O O12 0.923382 0.885677 0.607670
O O13 0.791531 0.000000 0.651257
O O14 0.402262 0.720002 0.403488
O O15 0.290296 0.786322 0.339994
O O16 0.500000 0.310038 0.500000
#
# Coordination Sequence:
#
# PCOD9185049 Si02
#       7
#     8   8   8   8   8   8   8
#     4  10  20  38  61  87 113 149 198 244 289 348
#     4  11  22  36  61  91 121 151 182 248 311 349
#     4  11  21  35  61  86 110 150 202 248 279 333
#     4  11  19  37  58  86 117 149 200 238 286 356
#     4  10  21  38  59  82 112 153 202 245 283 343
#     4  10  19  34  55  83 110 148 190 236 291 349
#     4  11  21  34  54  83 117 150 186 241 305 350
#
# _framework density 19.624655000000001
#
# number of rings (size 3 to 8) (size 9 to 14) (size 15 to 20)
#    0.000    1.429    2.857    5.571    0.000    0.286 
#    0.000    0.000    0.000    6.857    0.000    5.000 
#    0.000    0.000    0.000    0.000    0.000    0.000 
#
# Total GULP energy -156196.170403 kJ/mol
# GULP energy per Si atom -5578.434657 kJ/mol
# Density = 1.957999 g / cm^3
# Si number density = 19.624655 Si / 1000 Ang^3
#
#
#
# Elastic Constant Matrix: (Units=GPa)
#
#
# Indices 1 2 3 4 5 6 
#
# 1 88.4393 25.4231 -8.4241 0.0000 0.4150 0.0000
# 2 25.4231 126.0574 15.5060 0.0000 6.8470 0.0000
# 3 -8.4241 15.5060 50.3981 0.0000 6.9583 0.0000
# 4 0.0000 0.0000 0.0000 14.8244 0.0000 0.9283
# 5 0.4150 6.8470 6.9583 0.0000 14.4641 0.0000
# 6 0.0000 0.0000 0.0000 0.9283 0.0000 21.6023
#
#
#
# Elastic Compliance Matrix: (Units=1/GPa)
#
#
# Indices 1 2 3 4 5 6 
#
# 1 0.012416 -0.002850 0.003015 0.000000 -0.000458 0.000000
# 2 -0.002850 0.009012 -0.002862 0.000000 -0.002808 0.000000
# 3 0.003015 -0.002862 0.022549 0.000000 -0.009580 0.000000
# 4 0.000000 0.000000 0.000000 0.067638 0.000000 -0.002907
# 5 -0.000458 -0.002808 -0.009580 0.000000 0.075087 0.000000
# 6 0.000000 0.000000 0.000000 -0.002907 0.000000 0.046416
#
#
# Mechanical properties :
#
#
# Convention : Reuss Voigt Hill
#
# Bulk Modulus (GPa) = 25.91695 36.65608 31.28651
# Shear Modulus (GPa) = 19.89074 25.67081 22.78077
#
# Velocity S-wave (km/s) = 3.18710 3.62068 3.41078
# Velocity P-wave (km/s) = 5.17479 6.01649 5.61145
#
# Compressibility (1/GPa) = 0.03858479
#
# Stress axis : x y z
#
# Youngs Moduli (GPa) = 80.54211 110.96077 44.34767
#
# Poissons Ratio (x) = 0.31625 -0.13373
# Poissons Ratio (y) = 0.22955 0.12690
# Poissons Ratio (z) = -0.24287 0.31752
#
# Static dielectric constant tensor:
#      x y z
#    x 1.754200 0.000000 0.000900 
#    y 0.000000 1.722400 0.000000 
#    z 0.000900 0.000000 1.679180 
# 
# From -- ./inp_files/257692.got.cif
#   From: 2010.05.17/outbox.cif.g08.bks.cpg/sg12_129_cif.got.tgz:257692.got - 2010.06.03 13:09:07.
