data_PCOD9185070
_publ_section_title
;
Structure prediction by ZEFSAII (Michael W. Deem and Ramdas Pophale) SiO2 
 PCOD9185070
Probable space group: C 2/M
;
_chemical_formula_sum "Si O2"
_cell_formula_units_Z 48
_cell_length_a 9.882109
_cell_length_b 22.782325
_cell_length_c 13.120695
_cell_angle_alpha 90.000000
_cell_angle_beta 60.547908
_cell_angle_gamma 90.000000
_cell_volume 2572.210763
_symmetry_space_group_name_H-M "C 2/M"
_symmetry_group_IT_number 12
_symmetry_cell_setting 'monoclinic'
loop_
_space_group_symop_operation_xyz
x,y,z
-x,y,-z
-x,-y,-z
x,-y,z
1/2+x,1/2+y,z
1/2-x,1/2+y,-z
1/2-x,1/2-y,-z
1/2+x,1/2-y,z
loop_
_atom_site_type_symbol
_atom_site_label
_atom_site_fract_x
_atom_site_fract_y
_atom_site_fract_z
Si Si1 0.975804 0.567908 0.387476
Si Si2 0.372349 0.428597 0.467046
Si Si3 0.321996 0.757334 0.084060
Si Si4 0.824266 0.388508 0.045873
Si Si5 0.485480 0.431645 0.200197
Si Si6 0.237669 0.636807 0.170307
O O1 0.991486 0.500000 0.346762
O O2 0.800046 0.589213 0.436294
O O3 0.000000 0.567772 0.500000
O O4 0.102972 0.607161 0.285999
O O5 0.500000 0.408155 0.500000
O O6 0.371526 0.500000 0.467850
O O7 0.417082 0.412470 0.335182
O O8 0.313923 0.826322 0.110801
O O9 0.248192 0.707088 0.180887
O O10 0.500000 0.741468 0.000000
O O11 0.250000 0.750000 0.000000
O O12 0.671997 0.425094 0.132474
O O13 0.800721 0.376069 0.933942
O O14 0.000000 0.411727 0.000000
O O15 0.445262 0.500000 0.198379
O O16 0.398991 0.392763 0.147288
#
# Coordination Sequence:
#
# PCOD9185070 Si02
#       6
#     8   8   8   8   8   8
#     4  10  19  34  55  84 117 150 193 238 287 354
#     4   9  19  35  55  78 112 157 193 226 280 351
#     4   9  18  36  57  79 106 146 197 235 283 341
#     4  10  23  38  55  84 115 153 194 243 298 345
#     4  11  22  37  58  87 122 155 191 239 297 359
#     4  11  20  34  60  84 112 153 196 243 285 344
#
# _framework density 18.660989000000001
#
# number of rings (size 3 to 8) (size 9 to 14) (size 15 to 20)
#    0.000    2.000    1.667    3.000    2.333    2.333 
#    0.000    0.000    0.000    2.000    0.000    0.000 
#    0.000    0.000    0.000    0.000    0.000    0.000 
#
# Total GULP energy -133819.951300 kJ/mol
# GULP energy per Si atom -5575.831304 kJ/mol
# Density = 1.861852 g / cm^3
# Si number density = 18.660989 Si / 1000 Ang^3
#
#
#
# Elastic Constant Matrix: (Units=GPa)
#
#
# Indices 1 2 3 4 5 6 
#
# 1 145.7057 23.2149 23.1281 0.0000 -10.1371 0.0000
# 2 23.2149 63.6203 34.5834 0.0000 -4.4287 0.0000
# 3 23.1281 34.5834 62.8921 0.0000 -11.7252 0.0000
# 4 0.0000 0.0000 0.0000 300.3146 0.0000 -92.1042
# 5 -10.1371 -4.4287 -11.7252 0.0000 29.0856 0.0000
# 6 0.0000 0.0000 0.0000 -92.1042 0.0000 50.7213
#
#
#
# Elastic Compliance Matrix: (Units=1/GPa)
#
#
# Indices 1 2 3 4 5 6 
#
# 1 0.007505 -0.001846 -0.001416 0.000000 0.001764 0.000000
# 2 -0.001846 0.022950 -0.012337 0.000000 -0.002122 0.000000
# 3 -0.001416 -0.012337 0.024612 0.000000 0.007550 0.000000
# 4 0.000000 0.000000 0.000000 0.007515 0.000000 0.013647
# 5 0.001764 -0.002122 0.007550 0.000000 0.037716 0.000000
# 6 0.000000 0.000000 0.000000 0.013647 0.000000 0.044497
#
#
# Mechanical properties :
#
#
# Convention : Reuss Voigt Hill
#
# Bulk Modulus (GPa) = 41.89374 48.23011 45.06192
# Shear Modulus (GPa) = 27.18135 88.77710 57.97922
#
# Velocity S-wave (km/s) = 3.82067 6.90485 5.58007
# Velocity P-wave (km/s) = 6.47780 9.45890 8.10656
#
# Compressibility (1/GPa) = 0.02386992
#
# Stress axis : x y z
#
# Youngs Moduli (GPa) = 133.24946 43.57240 40.63000
#
# Poissons Ratio (x) = 0.08043 0.05753
# Poissons Ratio (y) = 0.24598 0.50125
# Poissons Ratio (z) = 0.18867 0.53755
#
# Static dielectric constant tensor:
#      x y z
#    x 1.674250 0.000000 -0.002190 
#    y 0.000000 1.663090 0.000000 
#    z -0.002190 0.000000 1.622330 
# 
# From -- ./inp_files/122449.got.cif
#   From: 2010.05.17/outbox.cif.g08.bks.cpg/sg12_62_cif.got.tgz:122449.got - 2010.06.03 13:09:07.
