data_PCOD9185836
_publ_section_title
;
Structure prediction by ZEFSAII (Michael W. Deem and Ramdas Pophale) SiO2 
 PCOD9185836
Probable space group: C 2/M
;
_chemical_formula_sum "Si O2"
_cell_formula_units_Z 48
_cell_length_a 26.731326
_cell_length_b 7.644138
_cell_length_c 15.322340
_cell_angle_alpha 90.000000
_cell_angle_beta 140.039969
_cell_angle_gamma 90.000000
_cell_volume 2010.852908
_symmetry_space_group_name_H-M "C 2/M"
_symmetry_group_IT_number 12
_symmetry_cell_setting 'monoclinic'
loop_
_space_group_symop_operation_xyz
x,y,z
-x,y,-z
-x,-y,-z
x,-y,z
1/2+x,1/2+y,z
1/2-x,1/2+y,-z
1/2-x,1/2-y,-z
1/2+x,1/2-y,z
loop_
_atom_site_type_symbol
_atom_site_label
_atom_site_fract_x
_atom_site_fract_y
_atom_site_fract_z
Si Si1 0.316115 0.798947 0.950241
Si Si2 0.574970 0.786628 0.388402
Si Si3 0.846847 0.701230 0.335479
Si Si4 0.906884 0.285260 0.234121
Si Si5 0.666464 0.791196 0.346047
Si Si6 0.578810 0.297964 0.061498
O O1 0.243654 0.705170 0.809105
O O2 0.389773 0.791107 0.983717
O O3 0.292451 0.000000 0.928609
O O4 0.341305 0.727667 0.077824
O O5 0.633557 0.726008 0.543328
O O6 0.489897 0.733650 0.306438
O O7 0.602869 0.726006 0.331359
O O8 0.576526 0.000000 0.384825
O O9 0.873594 0.500000 0.375735
O O10 0.891340 0.777987 0.311178
O O11 0.904842 0.500000 0.232049
O O12 0.750000 0.750000 0.500000
O O13 0.645992 0.713104 0.224923
O O14 0.660934 0.000000 0.328751
O O15 0.563980 0.500000 0.019895
O O16 0.500000 0.224316 0.000000
#
# Coordination Sequence:
#
# PCOD9185836 Si02
#       6
#     8   8   8   8   8   8
#     4  11  22  36  56  82 114 149 185 228 280 343
#     4   9  18  33  55  82 109 142 186 231 274 325
#     4  10  19  34  58  84 112 145 182 228 277 330
#     4   9  18  33  55  83 111 143 186 230 274 329
#     4  11  22  37  59  86 119 156 194 237 285 342
#     4  11  24  41  60  83 112 148 194 246 297 346
#
# _framework density 23.870467999999999
#
# number of rings (size 3 to 8) (size 9 to 14) (size 15 to 20)
#    0.000    1.833    0.000    4.500    0.000    6.000 
#    0.000    1.667    0.000    6.000    0.000    0.000 
#    0.000    0.000    0.000    0.000    0.000    0.000 
#
# Total GULP energy -134253.863957 kJ/mol
# GULP energy per Si atom -5593.910998 kJ/mol
# Density = 2.381614 g / cm^3
# Si number density = 23.870468 Si / 1000 Ang^3
#
#
#
# Elastic Constant Matrix: (Units=GPa)
#
#
# Indices 1 2 3 4 5 6 
#
# 1 68.3325 0.2559 -30.9233 0.0000 -6.0721 0.0000
# 2 0.2559 54.9171 -2.8206 0.0000 -6.3355 0.0000
# 3 -30.9233 -2.8206 57.1965 0.0000 -9.1512 0.0000
# 4 0.0000 0.0000 0.0000 4.1368 0.0000 5.9177
# 5 -6.0721 -6.3355 -9.1512 0.0000 43.6620 0.0000
# 6 0.0000 0.0000 0.0000 5.9177 0.0000 6.1397
#
#
#
# Elastic Compliance Matrix: (Units=1/GPa)
#
#
# Indices 1 2 3 4 5 6 
#
# 1 0.020591 0.001166 0.012081 0.000000 0.005565 0.000000
# 2 0.001166 0.018693 0.002082 0.000000 0.003311 0.000000
# 3 0.012081 0.002082 0.025283 0.000000 0.007281 0.000000
# 4 0.000000 0.000000 0.000000 -0.638191 0.000000 0.615117
# 5 0.005565 0.003311 0.007281 0.000000 0.025684 0.000000
# 6 0.000000 0.000000 0.000000 0.615117 0.000000 -0.430001
#
#
# Mechanical properties :
#
#
# Convention : Reuss Voigt Hill
#
# Bulk Modulus (GPa) = 10.50137 12.60781 11.55459
# Shear Modulus (GPa) = -5.11845 25.04996 9.96575
#
# Velocity S-wave (km/s) = -1.46592 3.24298 2.04548
# Velocity P-wave (km/s) = 1.24244 4.39497 3.22951
#
# Compressibility (1/GPa) = 0.09522564
#
# Stress axis : x y z
#
# Youngs Moduli (GPa) = 48.56382 53.49664 39.55283
#
# Poissons Ratio (x) = -0.06240 -0.47782
# Poissons Ratio (y) = -0.05665 -0.08236
# Poissons Ratio (z) = -0.58668 -0.11139
#
# Static dielectric constant tensor:
#      x y z
#    x 1.892700 0.000000 0.016610 
#    y 0.000000 1.920550 0.000000 
#    z 0.016610 0.000000 1.888350 
# 
# From -- ./inp_files/249349.got.cif
#   From: 2010.05.17/outbox.cif.g08.bks.cpg/sg12_125_cif.got.tgz:249349.got - 2010.06.03 13:09:07.
