data_PCOD9185623
_publ_section_title
;
Structure prediction by ZEFSAII (Michael W. Deem and Ramdas Pophale) SiO2 
 PCOD9185623
Probable space group: C 2/M
;
_chemical_formula_sum "Si O2"
_cell_formula_units_Z 64
_cell_length_a 12.310341
_cell_length_b 23.359469
_cell_length_c 12.221160
_cell_angle_alpha 90.000000
_cell_angle_beta 87.918792
_cell_angle_gamma 90.000000
_cell_volume 3512.035574
_symmetry_space_group_name_H-M "C 2/M"
_symmetry_group_IT_number 12
_symmetry_cell_setting 'monoclinic'
loop_
_space_group_symop_operation_xyz
x,y,z
-x,y,-z
-x,-y,-z
x,-y,z
1/2+x,1/2+y,z
1/2-x,1/2+y,-z
1/2-x,1/2-y,-z
1/2+x,1/2-y,z
loop_
_atom_site_type_symbol
_atom_site_label
_atom_site_fract_x
_atom_site_fract_y
_atom_site_fract_z
Si Si1 0.642077 0.829025 0.212944
Si Si2 0.378945 0.227662 0.009924
Si Si3 0.897888 0.853108 0.702635
Si Si4 0.982840 0.932219 0.127893
Si Si5 0.131336 0.934388 0.491300
Si Si6 0.205293 0.728598 0.761945
Si Si7 0.982347 0.742310 0.374267
Si Si8 0.231787 0.066982 0.726545
O O1 0.611787 0.818454 0.087407
O O2 0.754131 0.793276 0.223329
O O3 0.559273 0.797575 0.297401
O O4 0.667748 0.892879 0.248001
O O5 0.500000 0.259623 0.000000
O O6 0.250000 0.250000 0.000000
O O7 0.371832 0.210513 0.136131
O O8 0.944798 0.895241 0.792233
O O9 0.845942 0.889186 0.605129
O O10 0.807899 0.812330 0.758414
O O11 0.988245 0.808288 0.655701
O O12 0.860419 0.924484 0.177051
O O13 0.008426 0.000000 0.138537
O O14 0.000000 0.916714 0.000000
O O15 0.179779 0.919704 0.608818
O O16 0.000000 0.934826 0.500000
O O17 0.165084 0.000000 0.463798
O O18 0.139977 0.727571 0.652856
O O19 0.000000 0.732961 0.500000
O O20 0.259616 0.000000 0.723954
#
# Coordination Sequence:
#
# PCOD9185623 Si02
#       8
#     8   8   8   8   8   8   8   8
#     4  10  22  38  60  83 116 156 194 252 294 366
#     4  10  20  41  64  88 123 160 206 251 302 365
#     4  11  22  35  57  83 116 158 193 239 305 371
#     4  10  21  37  57  86 121 151 192 251 307 359
#     4  10  19  34  57  84 115 153 200 252 307 370
#     4  10  23  37  53  88 117 154 199 240 300 364
#     4  11  24  38  55  83 118 155 195 249 299 358
#     4  10  21  37  59  85 113 154 200 247 307 366
#
# _framework density 18.223050000000001
#
# number of rings (size 3 to 8) (size 9 to 14) (size 15 to 20)
#    0.000    1.750    2.500    1.500    5.250    1.000 
#    4.500    0.000    0.000    2.250    0.000    0.000 
#    0.000    0.000    0.000    0.000    0.000    0.000 
#
# Total GULP energy -178220.229444 kJ/mol
# GULP energy per Si atom -5569.382170 kJ/mol
# Density = 1.818157 g / cm^3
# Si number density = 18.223050 Si / 1000 Ang^3
#
#
#
# Elastic Constant Matrix: (Units=GPa)
#
#
# Indices 1 2 3 4 5 6 
#
# 1 51.9216 15.7239 5.8860 0.0000 8.2762 0.0000
# 2 15.7239 68.6940 22.6655 0.0000 -0.3983 0.0000
# 3 5.8860 22.6655 89.3989 0.0000 7.4413 0.0000
# 4 0.0000 0.0000 0.0000 9.6303 0.0000 5.9956
# 5 8.2762 -0.3983 7.4413 0.0000 27.2687 0.0000
# 6 0.0000 0.0000 0.0000 5.9956 0.0000 21.6221
#
#
#
# Elastic Compliance Matrix: (Units=1/GPa)
#
#
# Indices 1 2 3 4 5 6 
#
# 1 0.021871 -0.005193 0.000446 0.000000 -0.006836 0.000000
# 2 -0.005193 0.017169 -0.004260 0.000000 0.002989 0.000000
# 3 0.000446 -0.004260 0.012538 0.000000 -0.003619 0.000000
# 4 0.000000 0.000000 0.000000 0.125505 0.000000 -0.034801
# 5 -0.006836 0.002989 -0.003619 0.000000 0.039778 0.000000
# 6 0.000000 0.000000 0.000000 -0.034801 0.000000 0.055899
#
#
# Mechanical properties :
#
#
# Convention : Reuss Voigt Hill
#
# Bulk Modulus (GPa) = 29.79418 33.17394 31.48406
# Shear Modulus (GPa) = 16.55837 22.75348 19.65593
#
# Velocity S-wave (km/s) = 3.01765 3.53740 3.28781
# Velocity P-wave (km/s) = 5.34105 5.91001 5.63272
#
# Compressibility (1/GPa) = 0.03356360
#
# Stress axis : x y z
#
# Youngs Moduli (GPa) = 45.72161 58.24521 79.75951
#
# Poissons Ratio (x) = 0.30247 -0.03554
# Poissons Ratio (y) = 0.23743 0.33976
# Poissons Ratio (z) = -0.02037 0.24811
#
# Static dielectric constant tensor:
#      x y z
#    x 1.664270 0.000000 -0.001560 
#    y 0.000000 1.622990 0.000000 
#    z -0.001560 0.000000 1.650380 
# 
# From -- ./inp_files/135383.got.cif
#   From: 2010.05.17/outbox.cif.g08.bks.cpg/sg12_68_cif.got.tgz:135383.got - 2010.06.03 13:09:07.
