data_PCOD9185470
_publ_section_title
;
Structure prediction by ZEFSAII (Michael W. Deem and Ramdas Pophale) SiO2 
 PCOD9185470
Probable space group: C 2/M
;
_chemical_formula_sum "Si O2"
_cell_formula_units_Z 64
_cell_length_a 8.127889
_cell_length_b 21.032565
_cell_length_c 24.297692
_cell_angle_alpha 90.000000
_cell_angle_beta 130.955908
_cell_angle_gamma 90.000000
_cell_volume 3136.932612
_symmetry_space_group_name_H-M "C 2/M"
_symmetry_group_IT_number 12
_symmetry_cell_setting 'monoclinic'
loop_
_space_group_symop_operation_xyz
x,y,z
-x,y,-z
-x,-y,-z
x,-y,z
1/2+x,1/2+y,z
1/2-x,1/2+y,-z
1/2-x,1/2-y,-z
1/2+x,1/2-y,z
loop_
_atom_site_type_symbol
_atom_site_label
_atom_site_fract_x
_atom_site_fract_y
_atom_site_fract_z
Si Si1 0.477144 0.766769 0.831065
Si Si2 0.890914 0.820863 0.563620
Si Si3 0.843266 0.689384 0.597273
Si Si4 0.018512 0.927184 0.140613
Si Si5 0.066762 0.845331 0.779311
Si Si6 0.460361 0.574221 0.331417
Si Si7 0.492481 0.073714 0.703171
Si Si8 0.057640 0.817316 0.075133
O O1 0.427345 0.712807 0.774506
O O2 0.685049 0.806896 0.858931
O O3 0.542777 0.730070 0.901632
O O4 0.276928 0.810873 0.800868
O O5 0.905053 0.764266 0.611953
O O6 0.693788 0.817951 0.476754
O O7 0.111109 0.814502 0.576681
O O8 0.896343 0.889121 0.592681
O O9 0.973015 0.631277 0.654353
O O10 0.883960 0.890226 0.157883
O O11 0.270720 0.922995 0.216546
O O12 0.996019 0.887995 0.079772
O O13 0.957324 0.000000 0.122521
O O14 0.986598 0.891101 0.714019
O O15 0.502132 0.500000 0.336549
O O16 0.208293 0.582362 0.297463
O O17 0.468924 0.000000 0.676700
O O18 0.000000 0.803996 0.000000
#
# Coordination Sequence:
#
# PCOD9185470 Si02
#       8
#     8   8   8   8   8   8   8   8
#     4   9  20  35  54  82 106 135 175 213 262 309
#     4   9  19  32  50  73 102 135 173 219 261 315
#     4   9  18  34  51  73 101 135 174 216 268 309
#     4  10  21  36  53  76 105 139 177 213 257 311
#     4  10  20  35  54  76 107 138 171 218 262 307
#     4  10  20  33  51  77 106 139 176 215 264 315
#     4   9  19  35  55  77 103 137 177 219 262 314
#     4  10  19  34  57  81 109 138 168 212 259 311
#
# _framework density 20.402096
#
# number of rings (size 3 to 8) (size 9 to 14) (size 15 to 20)
#    0.000    2.500    0.000    1.500    0.000    6.750 
#    0.000    3.125    0.000    0.750    0.000    6.125 
#    0.000    0.000    0.000    0.000    0.000    0.000 
#
# Total GULP energy -178417.366003 kJ/mol
# GULP energy per Si atom -5575.542688 kJ/mol
# Density = 2.035566 g / cm^3
# Si number density = 20.402096 Si / 1000 Ang^3
#
#
#
# Elastic Constant Matrix: (Units=GPa)
#
#
# Indices 1 2 3 4 5 6 
#
# 1 53.7725 43.5014 9.8508 0.0000 -15.6916 0.0000
# 2 43.5014 139.2465 31.5569 0.0000 -16.1854 0.0000
# 3 9.8508 31.5569 36.9360 0.0000 -17.1993 0.0000
# 4 0.0000 0.0000 0.0000 9.6249 0.0000 -3.7443
# 5 -15.6916 -16.1854 -17.1993 0.0000 23.6874 0.0000
# 6 0.0000 0.0000 0.0000 -3.7443 0.0000 25.2279
#
#
#
# Elastic Compliance Matrix: (Units=1/GPa)
#
#
# Indices 1 2 3 4 5 6 
#
# 1 0.030345 -0.009208 0.009374 0.000000 0.020617 0.000000
# 2 -0.009208 0.011711 -0.010068 0.000000 -0.005408 0.000000
# 3 0.009374 -0.010068 0.049651 0.000000 0.035382 0.000000
# 4 0.000000 0.000000 0.000000 0.110263 0.000000 0.016365
# 5 0.020617 -0.005408 0.035382 0.000000 0.077870 0.000000
# 6 0.000000 0.000000 0.000000 0.016365 0.000000 0.042068
#
#
# Mechanical properties :
#
#
# Convention : Reuss Voigt Hill
#
# Bulk Modulus (GPa) = 13.90747 44.41925 29.16336
# Shear Modulus (GPa) = 13.67316 21.37777 17.52546
#
# Velocity S-wave (km/s) = 2.59160 3.24052 2.93405
# Velocity P-wave (km/s) = 3.97324 5.98502 5.07972
#
# Compressibility (1/GPa) = 0.07190379
#
# Stress axis : x y z
#
# Youngs Moduli (GPa) = 32.95435 85.38801 20.14039
#
# Poissons Ratio (x) = 0.78625 -0.18880
# Poissons Ratio (y) = 0.30344 0.20278
# Poissons Ratio (z) = -0.30892 0.85970
#
# Static dielectric constant tensor:
#      x y z
#    x 1.741720 0.000000 0.001150 
#    y 0.000000 1.729170 0.000000 
#    z 0.001150 0.000000 1.735340 
# 
# From -- ./inp_files/333772.got.cif
#   From: 2010.05.17/outbox.cif.g08.bks.cpg/sg12_167_cif.got.tgz:333772.got - 2010.06.03 13:09:07.
