data_PCOD9185673
_publ_section_title
;
Structure prediction by ZEFSAII (Michael W. Deem and Ramdas Pophale) SiO2 
 PCOD9185673
Probable space group: C 2/M
;
_chemical_formula_sum "Si O2"
_cell_formula_units_Z 48
_cell_length_a 9.801462
_cell_length_b 22.334452
_cell_length_c 11.930974
_cell_angle_alpha 90.000000
_cell_angle_beta 72.442597
_cell_angle_gamma 90.000000
_cell_volume 2490.142118
_symmetry_space_group_name_H-M "C 2/M"
_symmetry_group_IT_number 12
_symmetry_cell_setting 'monoclinic'
loop_
_space_group_symop_operation_xyz
x,y,z
-x,y,-z
-x,-y,-z
x,-y,z
1/2+x,1/2+y,z
1/2-x,1/2+y,-z
1/2-x,1/2-y,-z
1/2+x,1/2-y,z
loop_
_atom_site_type_symbol
_atom_site_label
_atom_site_fract_x
_atom_site_fract_y
_atom_site_fract_z
Si Si1 0.700286 0.430217 0.168255
Si Si2 0.842409 0.431619 0.488126
Si Si3 0.617866 0.933821 0.072829
Si Si4 0.415369 0.143041 0.253740
Si Si5 0.912229 0.749033 0.415568
Si Si6 0.953161 0.888102 0.384133
O O1 0.743293 0.500000 0.186179
O O2 0.799256 0.376023 0.190138
O O3 0.549974 0.418616 0.265541
O O4 0.730684 0.426665 0.027489
O O5 0.804324 0.500000 0.474081
O O6 0.855383 0.394769 0.372147
O O7 0.713017 0.404140 0.590670
O O8 0.000000 0.429801 0.500000
O O9 0.564549 0.883637 0.171336
O O10 0.611118 0.000000 0.127819
O O11 0.500000 0.934467 0.000000
O O12 0.424667 0.209170 0.301088
O O13 0.750000 0.750000 0.500000
O O14 0.966640 0.816163 0.379658
O O15 0.000000 0.723135 0.500000
O O16 0.000000 0.906963 0.500000
#
# Coordination Sequence:
#
# PCOD9185673 Si02
#       6
#     8   8   8   8   8   8
#     4  10  19  34  57  86 113 138 182 238 282 323
#     4  11  22  33  50  82 114 140 175 224 283 337
#     4   8  16  30  52  81 110 141 180 228 278 321
#     4  11  18  32  54  79 109 146 179 225 270 325
#     4  11  22  37  54  79 113 150 188 222 271 328
#     4  11  21  35  55  80 108 148 185 226 275 325
#
# _framework density 19.276008999999998
#
# number of rings (size 3 to 8) (size 9 to 14) (size 15 to 20)
#    0.000    1.667    3.333    4.500    0.000    0.667 
#    0.000    0.833    0.000    1.000    0.000    4.667 
#    0.000    0.000    0.000    0.000    0.000    0.000 
#
# Total GULP energy -133707.130861 kJ/mol
# GULP energy per Si atom -5571.130453 kJ/mol
# Density = 1.923214 g / cm^3
# Si number density = 19.276009 Si / 1000 Ang^3
#
#
#
# Elastic Constant Matrix: (Units=GPa)
#
#
# Indices 1 2 3 4 5 6 
#
# 1 64.3708 -24.2119 0.6217 0.0000 -40.9299 0.0000
# 2 -24.2119 241.5930 158.0533 0.0000 70.7367 0.0000
# 3 0.6217 158.0533 199.7449 0.0000 13.2442 0.0000
# 4 0.0000 0.0000 0.0000-1123.0808 0.0000 -38.6730
# 5 -40.9299 70.7367 13.2442 0.0000 70.5144 0.0000
# 6 0.0000 0.0000 0.0000 -38.6730 0.0000 -9.4968
#
#
#
# Elastic Compliance Matrix: (Units=1/GPa)
#
#
# Indices 1 2 3 4 5 6 
#
# 1 0.025995 -0.004340 0.002090 0.000000 0.019049 0.000000
# 2 -0.004340 0.016255 -0.011747 0.000000 -0.016619 0.000000
# 3 0.002090 -0.011747 0.013603 0.000000 0.010442 0.000000
# 4 0.000000 0.000000 0.000000 -0.001036 0.000000 0.004217
# 5 0.019049 -0.016619 0.010442 0.000000 0.039949 0.000000
# 6 0.000000 0.000000 0.000000 0.004217 0.000000 -0.122473
#
#
# Mechanical properties :
#
#
# Convention : Reuss Voigt Hill
#
# Bulk Modulus (GPa) = 35.89439 86.07055 60.98247
# Shear Modulus (GPa) = 522.32840 -187.66292 167.33274
#
# Velocity S-wave (km/s) = 16.47913 -9.87760 9.32723
# Velocity P-wave (km/s) = 19.51266 9.23801 12.15325
#
# Compressibility (1/GPa) = 0.02785951
#
# Stress axis : x y z
#
# Youngs Moduli (GPa) = 38.46880 61.51898 73.51574
#
# Poissons Ratio (x) = 0.26696 -0.15363
# Poissons Ratio (y) = 0.16694 0.86358
# Poissons Ratio (z) = -0.08039 0.72266
#
# Static dielectric constant tensor:
#      x y z
#    x 1.773020 0.000000 0.015390 
#    y 0.000000 1.702880 0.000000 
#    z 0.015390 0.000000 1.705090 
# 
# From -- ./inp_files/132986.got.cif
#   From: 2010.05.17/outbox.cif.g08.bks.cpg/sg12_67_cif.got.tgz:132986.got - 2010.06.03 13:09:07.
