data_PCOD9185280
_publ_section_title
;
Structure prediction by ZEFSAII (Michael W. Deem and Ramdas Pophale) SiO2 
 PCOD9185280
Probable space group: C 2/M
;
_chemical_formula_sum "Si O2"
_cell_formula_units_Z 52
_cell_length_a 8.561967
_cell_length_b 27.250231
_cell_length_c 12.503660
_cell_angle_alpha 90.000000
_cell_angle_beta 100.711460
_cell_angle_gamma 90.000000
_cell_volume 2866.466607
_symmetry_space_group_name_H-M "C 2/M"
_symmetry_group_IT_number 12
_symmetry_cell_setting 'monoclinic'
loop_
_space_group_symop_operation_xyz
x,y,z
-x,y,-z
-x,-y,-z
x,-y,z
1/2+x,1/2+y,z
1/2-x,1/2+y,-z
1/2-x,1/2-y,-z
1/2+x,1/2-y,z
loop_
_atom_site_type_symbol
_atom_site_label
_atom_site_fract_x
_atom_site_fract_y
_atom_site_fract_z
Si Si1 0.247527 0.899078 0.288796
Si Si2 0.770817 0.500000 0.398414
Si Si3 0.646578 0.700450 0.379458
Si Si4 0.179703 0.054058 0.065381
Si Si5 0.226380 0.197530 0.628445
Si Si6 0.904786 0.605365 0.748313
Si Si7 0.000000 0.587065 0.000000
Si Si8 0.869368 0.500000 0.652673
O O1 0.201613 0.947809 0.350093
O O2 0.176947 0.849242 0.321558
O O3 0.193827 0.907492 0.161140
O O4 0.437665 0.893007 0.305378
O O5 0.776756 0.500000 0.528056
O O6 0.946955 0.500000 0.365659
O O7 0.694864 0.750984 0.328409
O O8 0.746608 0.695027 0.502433
O O9 0.460520 0.702637 0.378504
O O10 0.201203 0.000000 0.117246
O O11 0.331998 0.060221 0.006924
O O12 0.000000 0.056481 0.000000
O O13 0.292824 0.149355 0.695016
O O14 0.955343 0.611588 0.879479
O O15 0.841448 0.549768 0.717561
#
# Coordination Sequence:
#
# PCOD9185280 Si02
#       8
#     8   4   8   8   8   8   4   4
#     4  10  19  34  56  82 114 151 185 238 283 344
#     4   9  16  30  50  79 119 144 184 224 282 346
#     4  10  21  36  61  83 113 146 189 235 288 346
#     4  10  21  36  57  84 114 156 202 242 287 342
#     4  10  21  38  57  86 111 148 189 235 288 346
#     4  10  21  35  56  83 115 148 196 231 288 337
#     4  10  23  36  60  82 118 156 198 245 286 342
#     4   9  18  29  51  83 110 154 181 225 283 344
#
# _framework density 18.140799999999999
#
# number of rings (size 3 to 8) (size 9 to 14) (size 15 to 20)
#    0.000    2.154    0.769    2.077    6.462    3.077 
#    0.000    0.769    1.692    5.538    0.000    0.000 
#    0.000    0.000    0.000    0.000    0.000    0.000 
#
# Total GULP energy -144748.890048 kJ/mol
# GULP energy per Si atom -5567.265002 kJ/mol
# Density = 1.809951 g / cm^3
# Si number density = 18.140800 Si / 1000 Ang^3
#
#
#
# Elastic Constant Matrix: (Units=GPa)
#
#
# Indices 1 2 3 4 5 6 
#
# 1 63.2786 43.0703 20.5261 0.0000 5.4232 0.0000
# 2 43.0703 153.5583 49.2835 0.0000 -1.5858 0.0000
# 3 20.5261 49.2835 71.1646 0.0000 0.5864 0.0000
# 4 0.0000 0.0000 0.0000 11.1948 0.0000 -20.4136
# 5 5.4232 -1.5858 0.5864 0.0000 18.0299 0.0000
# 6 0.0000 0.0000 0.0000 -20.4136 0.0000 -466.8543
#
#
#
# Elastic Compliance Matrix: (Units=1/GPa)
#
#
# Indices 1 2 3 4 5 6 
#
# 1 0.020594 -0.005085 -0.002364 0.000000 -0.006565 0.000000
# 2 -0.005085 0.009644 -0.005233 0.000000 0.002548 0.000000
# 3 -0.002364 -0.005233 0.018361 0.000000 -0.000346 0.000000
# 4 0.000000 0.000000 0.000000 0.082731 0.000000 -0.003617
# 5 -0.006565 0.002548 -0.000346 0.000000 0.057674 0.000000
# 6 0.000000 0.000000 0.000000 -0.003617 0.000000 -0.001984
#
#
# Mechanical properties :
#
#
# Convention : Reuss Voigt Hill
#
# Bulk Modulus (GPa) = 43.04069 57.08459 50.06264
# Shear Modulus (GPa) = 22.71388 -75.85115 -26.56863
#
# Velocity S-wave (km/s) = 3.54232 -6.47327 -3.83113
# Velocity P-wave (km/s) = 6.36460 4.93307 2.84368
#
# Compressibility (1/GPa) = 0.02323383
#
# Stress axis : x y z
#
# Youngs Moduli (GPa) = 48.55808 103.68711 54.46366
#
# Poissons Ratio (x) = 0.52727 0.12876
# Poissons Ratio (y) = 0.24693 0.28502
# Poissons Ratio (z) = 0.11480 0.54262
#
# Static dielectric constant tensor:
#      x y z
#    x 1.657820 0.000000 0.000440 
#    y 0.000000 1.616110 0.000000 
#    z 0.000440 0.000000 1.625610 
# 
# From -- ./inp_files/123666.got.cif
#   From: 2010.05.17/outbox.cif.g08.bks.cpg/sg12_62_cif.got.tgz:123666.got - 2010.06.03 13:09:07.
