data_PCOD9185538
_publ_section_title
;
Structure prediction by ZEFSAII (Michael W. Deem and Ramdas Pophale) SiO2 
 PCOD9185538
Probable space group: C 2/M
;
_chemical_formula_sum "Si O2"
_cell_formula_units_Z 64
_cell_length_a 15.038960
_cell_length_b 7.580747
_cell_length_c 22.580966
_cell_angle_alpha 90.000000
_cell_angle_beta 79.095374
_cell_angle_gamma 90.000000
_cell_volume 2527.893643
_symmetry_space_group_name_H-M "C 2/M"
_symmetry_group_IT_number 12
_symmetry_cell_setting 'monoclinic'
loop_
_space_group_symop_operation_xyz
x,y,z
-x,y,-z
-x,-y,-z
x,-y,z
1/2+x,1/2+y,z
1/2-x,1/2+y,-z
1/2-x,1/2-y,-z
1/2+x,1/2-y,z
loop_
_atom_site_type_symbol
_atom_site_label
_atom_site_fract_x
_atom_site_fract_y
_atom_site_fract_z
Si Si1 0.218648 0.701746 0.596724
Si Si2 0.384860 0.796817 0.647500
Si Si3 0.386873 0.292106 0.145158
Si Si4 0.099852 0.797354 0.229900
Si Si5 0.392927 0.284907 0.272648
Si Si6 0.049779 0.716483 0.553573
Si Si7 0.287036 0.712811 0.896220
Si Si8 0.447892 0.715764 0.948289
O O1 0.239005 0.500000 0.579728
O O2 0.312721 0.788356 0.603450
O O3 0.158243 0.709396 0.664378
O O4 0.151512 0.776368 0.554935
O O5 0.352757 0.709182 0.712023
O O6 0.480478 0.723297 0.613319
O O7 0.396844 0.000000 0.661198
O O8 0.397064 0.500000 0.151866
O O9 0.354930 0.226184 0.213154
O O10 0.315811 0.266524 0.101374
O O11 0.485388 0.227712 0.113338
O O12 0.159713 0.721168 0.169529
O O13 0.998380 0.729463 0.254692
O O14 0.085379 0.000000 0.214201
O O15 0.386301 0.500000 0.279456
O O16 0.051633 0.500000 0.554094
O O17 0.000000 0.770581 0.500000
O O18 0.286531 0.500000 0.896668
O O19 0.346572 0.773392 0.944630
O O20 0.446431 0.500000 0.950863
O O21 0.500000 0.777041 0.000000
#
# Coordination Sequence:
#
# PCOD9185538 Si02
#       8
#     8   8   8   8   8   8   8   8
#     4  11  22  37  58  85 113 145 183 223 271 326
#     4  11  22  37  58  85 113 145 183 223 271 326
#     4  10  20  35  55  81 109 142 180 220 269 323
#     4  10  19  34  57  82 112 145 179 223 273 327
#     4  10  19  34  57  82 112 145 179 223 273 327
#     4   9  20  39  59  79 109 147 184 225 272 320
#     4  10  20  35  55  81 109 142 180 220 269 323
#     4   9  18  35  57  77 103 143 186 223 266 322
#
# _framework density 25.317522
#
# number of rings (size 3 to 8) (size 9 to 14) (size 15 to 20)
#    0.000    2.000    2.500    1.500    0.000    4.000 
#    0.000    0.625    0.000    6.000    0.000    0.000 
#    0.000    0.000    0.000    0.000    0.000    0.000 
#
# Total GULP energy -178863.989150 kJ/mol
# GULP energy per Si atom -5589.499661 kJ/mol
# Density = 2.525990 g / cm^3
# Si number density = 25.317522 Si / 1000 Ang^3
#
#
#
# Elastic Constant Matrix: (Units=GPa)
#
#
# Indices 1 2 3 4 5 6 
#
# 1 120.3959 -4.2192 6.8074 0.0000 31.6462 0.0000
# 2 -4.2192 63.5153 -2.8637 0.0000 -0.3696 0.0000
# 3 6.8074 -2.8637 72.6283 0.0000 32.6745 0.0000
# 4 0.0000 0.0000 0.0000 8.1260 0.0000 3.5520
# 5 31.6462 -0.3696 32.6745 0.0000 47.1637 0.0000
# 6 0.0000 0.0000 0.0000 3.5520 0.0000 16.6704
#
#
#
# Elastic Compliance Matrix: (Units=1/GPa)
#
#
# Indices 1 2 3 4 5 6 
#
# 1 0.010612 0.000797 0.003250 0.000000 -0.009366 0.000000
# 2 0.000797 0.015839 0.001067 0.000000 -0.001150 0.000000
# 3 0.003250 0.001067 0.021042 0.000000 -0.016750 0.000000
# 4 0.000000 0.000000 0.000000 0.135701 0.000000 -0.028914
# 5 -0.009366 -0.001150 -0.016750 0.000000 0.039083 0.000000
# 6 0.000000 0.000000 0.000000 -0.028914 0.000000 0.066148
#
#
# Mechanical properties :
#
#
# Convention : Reuss Voigt Hill
#
# Bulk Modulus (GPa) = 17.32453 28.44317 22.88385
# Shear Modulus (GPa) = 16.81037 31.51302 24.16170
#
# Velocity S-wave (km/s) = 2.57958 3.53187 3.09260
# Velocity P-wave (km/s) = 3.96611 5.28121 4.67018
#
# Compressibility (1/GPa) = 0.05772162
#
# Stress axis : x y z
#
# Youngs Moduli (GPa) = 94.23321 63.13688 47.52436
#
# Poissons Ratio (x) = -0.05032 -0.15448
# Poissons Ratio (y) = -0.07510 -0.05072
# Poissons Ratio (z) = -0.30630 -0.06738
#
# Static dielectric constant tensor:
#      x y z
#    x 1.995750 0.000000 0.034310 
#    y 0.000000 1.933070 0.000000 
#    z 0.034310 0.000000 2.048520 
# 
# From -- ./inp_files/338878.got.cif
#   From: 2010.05.17/outbox.cif.g08.bks.cpg/sg12_170_cif.got.tgz:338878.got - 2010.06.03 13:09:07.
