data_PCOD9185090
_publ_section_title
;
Structure prediction by ZEFSAII (Michael W. Deem and Ramdas Pophale) SiO2 
 PCOD9185090
Probable space group: C 2/M
;
_chemical_formula_sum "Si O2"
_cell_formula_units_Z 30
_cell_length_a 24.175671
_cell_length_b 5.520638
_cell_length_c 9.420083
_cell_angle_alpha 90.000000
_cell_angle_beta 123.674166
_cell_angle_gamma 90.000000
_cell_volume 1046.290893
_symmetry_space_group_name_H-M "C 2/M"
_symmetry_group_IT_number 12
_symmetry_cell_setting 'monoclinic'
loop_
_space_group_symop_operation_xyz
x,y,z
-x,y,-z
-x,-y,-z
x,-y,z
1/2+x,1/2+y,z
1/2-x,1/2+y,-z
1/2-x,1/2-y,-z
1/2+x,1/2-y,z
loop_
_atom_site_type_symbol
_atom_site_label
_atom_site_fract_x
_atom_site_fract_y
_atom_site_fract_z
Si Si1 0.500000 0.000000 0.000000
Si Si2 0.815747 0.000000 0.954398
Si Si3 0.773796 0.500000 0.913574
Si Si4 0.171681 0.500000 0.425941
Si Si5 0.829263 0.000000 0.589314
Si Si6 0.581708 0.500000 0.544325
Si Si7 0.027588 0.000000 0.855073
Si Si8 0.379424 0.000000 0.321029
O O1 0.485243 0.771427 0.094271
O O2 0.893282 0.000000 0.050695
O O3 0.792215 0.000000 0.085568
O O4 0.784356 0.751903 0.849709
O O5 0.829664 0.500000 0.117679
O O6 0.142196 0.745086 0.318332
O O7 0.250572 0.500000 0.506988
O O8 0.154310 0.500000 0.568463
O O9 0.849430 0.000000 0.452389
O O10 0.580844 0.248989 0.626013
O O11 0.476532 0.500000 0.652329
#
# Coordination Sequence:
#
# PCOD9185090 Si02
#       8
#     2   4   4   4   4   4   4   4
#     4  10  24  42  66  90 124 160 220 256 290 370
#     4  10  22  41  68  87 122 165 216 261 319 356
#     4  10  21  40  64  94 121 163 212 271 304 368
#     4   8  14  25  43  65 101 144 186 220 272 338
#     4   8  14  26  43  66 100 146 186 215 271 351
#     4  10  20  34  59  83 126 164 187 248 317 375
#     4  11  22  44  66  93 122 167 208 259 314 370
#     4  10  19  34  55  88 123 158 198 250 309 371
#
# _framework density 28.672712000000001
#
# number of rings (size 3 to 8) (size 9 to 14) (size 15 to 20)
#    0.000    2.400    0.000    2.400    0.000    0.000 
#    4.800    4.000   17.600    0.000    0.000    0.000 
#    0.000    0.000    0.000    0.000    0.000    0.000 
#
# Total GULP energy -83700.535263 kJ/mol
# GULP energy per Si atom -5580.035684 kJ/mol
# Density = 2.860745 g / cm^3
# Si number density = 28.672712 Si / 1000 Ang^3
#
#
#
# Elastic Constant Matrix: (Units=GPa)
#
#
# Indices 1 2 3 4 5 6 
#
# 1 139.8997 56.9945 26.7411 0.0000 1.1929 0.0000
# 2 56.9945 443.9057 52.7215 0.0000 16.6005 0.0000
# 3 26.7411 52.7215 109.5877 0.0000 -1.3821 0.0000
# 4 0.0000 0.0000 0.0000 17.3451 0.0000 -6.8732
# 5 1.1929 16.6005 -1.3821 0.0000 38.7007 0.0000
# 6 0.0000 0.0000 0.0000 -6.8732 0.0000 21.9735
#
#
#
# Elastic Compliance Matrix: (Units=1/GPa)
#
#
# Indices 1 2 3 4 5 6 
#
# 1 0.007769 -0.000822 -0.001500 0.000000 0.000059 0.000000
# 2 -0.000822 0.002521 -0.001026 0.000000 -0.001093 0.000000
# 3 -0.001500 -0.001026 0.009995 0.000000 0.000843 0.000000
# 4 0.000000 0.000000 0.000000 0.065810 0.000000 0.020585
# 5 0.000059 -0.001093 0.000843 0.000000 0.026336 0.000000
# 6 0.000000 0.000000 0.000000 0.020585 0.000000 0.051948
#
#
# Mechanical properties :
#
#
# Convention : Reuss Voigt Hill
#
# Bulk Modulus (GPa) = 73.58167 107.36748 90.47458
# Shear Modulus (GPa) = 28.47302 52.73293 40.60298
#
# Velocity S-wave (km/s) = 3.15467 4.29316 3.76717
# Velocity P-wave (km/s) = 6.24400 7.88049 7.10949
#
# Compressibility (1/GPa) = 0.01359034
#
# Stress axis : x y z
#
# Youngs Moduli (GPa) = 128.71937 396.67673 100.04653
#
# Poissons Ratio (x) = 0.32590 0.15004
# Poissons Ratio (y) = 0.10575 0.10266
# Poissons Ratio (z) = 0.19304 0.40703
#
# Static dielectric constant tensor:
#      x y z
#    x 2.249890 0.000000 -0.059830 
#    y 0.000000 2.286680 0.000000 
#    z -0.059830 0.000000 2.194010 
# 
# From -- ./inp_files/178771.got.cif
#   From: 2010.05.17/outbox.cif.g08.bks.cpg/sg12_90_cif.got.tgz:178771.got - 2010.06.03 13:09:07.
