data_PCOD9185262
_publ_section_title
;
Structure prediction by ZEFSAII (Michael W. Deem and Ramdas Pophale) SiO2 
 PCOD9185262
Probable space group: C 2/M
;
_chemical_formula_sum "Si O2"
_cell_formula_units_Z 64
_cell_length_a 17.323463
_cell_length_b 14.543367
_cell_length_c 15.080243
_cell_angle_alpha 90.000000
_cell_angle_beta 107.194255
_cell_angle_gamma 90.000000
_cell_volume 3629.538724
_symmetry_space_group_name_H-M "C 2/M"
_symmetry_group_IT_number 12
_symmetry_cell_setting 'monoclinic'
loop_
_space_group_symop_operation_xyz
x,y,z
-x,y,-z
-x,-y,-z
x,-y,z
1/2+x,1/2+y,z
1/2-x,1/2+y,-z
1/2-x,1/2-y,-z
1/2+x,1/2-y,z
loop_
_atom_site_type_symbol
_atom_site_label
_atom_site_fract_x
_atom_site_fract_y
_atom_site_fract_z
Si Si1 0.408453 0.198811 0.448007
Si Si2 0.825478 0.391715 0.584702
Si Si3 0.878041 0.609845 0.248739
Si Si4 0.330236 0.222617 0.080448
Si Si5 0.315516 0.602152 0.174681
Si Si6 0.352430 0.603722 0.396389
Si Si7 0.875808 0.392800 0.936271
Si Si8 0.948849 0.388989 0.778993
O O1 0.500000 0.167726 0.500000
O O2 0.351131 0.164524 0.507427
O O3 0.378523 0.155026 0.345477
O O4 0.405835 0.309044 0.439554
O O5 0.844103 0.500000 0.575426
O O6 0.732344 0.385750 0.580529
O O7 0.880037 0.359700 0.686199
O O8 0.870090 0.500000 0.251793
O O9 0.815273 0.654470 0.158381
O O10 0.964554 0.633345 0.232820
O O11 0.358730 0.317343 0.134835
O O12 0.250000 0.250000 0.000000
O O13 0.382878 0.168656 0.025999
O O14 0.339525 0.500000 0.153139
O O15 0.333189 0.609974 0.284910
O O16 0.218448 0.609266 0.126903
O O17 0.383664 0.500000 0.424299
O O18 0.894960 0.500000 0.963428
O O19 0.928194 0.358403 0.871235
O O20 0.944084 0.500000 0.782267
#
# Coordination Sequence:
#
# PCOD9185262 Si02
#       8
#     8   8   8   8   8   8   8   8
#     4  12  23  35  55  84 117 154 187 225 284 343
#     4  10  19  34  56  82 111 147 186 229 281 337
#     4  11  22  35  52  81 118 142 172 222 281 344
#     4  10  20  33  50  75 105 138 175 219 272 328
#     4   9  16  30  52  73  96 131 177 221 260 308
#     4  10  20  36  56  77 105 145 196 241 270 312
#     4   9  16  29  51  77 104 133 166 211 266 324
#     4   9  17  30  51  78 109 142 174 213 270 338
#
# _framework density 17.633095000000001
#
# number of rings (size 3 to 8) (size 9 to 14) (size 15 to 20)
#    0.000    2.000    3.750    1.125    0.000    1.750 
#    0.000    1.875    0.000    0.000    0.000    3.500 
#    0.000    0.000    0.000    0.000    0.000    0.000 
#
# Total GULP energy -178443.202789 kJ/mol
# GULP energy per Si atom -5576.350087 kJ/mol
# Density = 1.759296 g / cm^3
# Si number density = 17.633095 Si / 1000 Ang^3
#
#
#
# Elastic Constant Matrix: (Units=GPa)
#
#
# Indices 1 2 3 4 5 6 
#
# 1 30.9941 23.4732 33.4039 0.0000 -10.3219 0.0000
# 2 23.4732 105.9114 51.4097 0.0000 -18.2936 0.0000
# 3 33.4039 51.4097 112.9327 0.0000 -26.9453 0.0000
# 4 0.0000 0.0000 0.0000 33.1767 0.0000 -2.8604
# 5 -10.3219 -18.2936 -26.9453 0.0000 32.0364 0.0000
# 6 0.0000 0.0000 0.0000 -2.8604 0.0000 8.5115
#
#
#
# Elastic Compliance Matrix: (Units=1/GPa)
#
#
# Indices 1 2 3 4 5 6 
#
# 1 0.049593 -0.004717 -0.011700 0.000000 0.003444 0.000000
# 2 -0.004717 0.012781 -0.003808 0.000000 0.002575 0.000000
# 3 -0.011700 -0.003808 0.015802 0.000000 0.007347 0.000000
# 4 0.000000 0.000000 0.000000 0.031041 0.000000 0.010432
# 5 0.003444 0.002575 0.007347 0.000000 0.039974 0.000000
# 6 0.000000 0.000000 0.000000 0.010432 0.000000 0.120994
#
#
# Mechanical properties :
#
#
# Convention : Reuss Voigt Hill
#
# Bulk Modulus (GPa) = 26.50755 51.82351 39.16553
# Shear Modulus (GPa) = 15.46977 24.18168 19.82572
#
# Velocity S-wave (km/s) = 2.96516 3.70723 3.35677
# Velocity P-wave (km/s) = 5.17575 6.91220 6.10602
#
# Compressibility (1/GPa) = 0.03772510
#
# Stress axis : x y z
#
# Youngs Moduli (GPa) = 20.16401 78.24276 63.28325
#
# Poissons Ratio (x) = 0.36910 0.74040
# Poissons Ratio (y) = 0.09512 0.24101
# Poissons Ratio (z) = 0.23591 0.29798
#
# Static dielectric constant tensor:
#      x y z
#    x 1.605200 0.000000 0.026100 
#    y 0.000000 1.616400 0.000000 
#    z 0.026100 0.000000 1.616220 
# 
# From -- ./inp_files/224827.got.cif
#   From: 2010.05.17/outbox.cif.g08.bks.cpg/sg12_113_cif.got.tgz:224827.got - 2010.06.03 13:09:07.
