data_PCOD9185763
_publ_section_title
;
Structure prediction by ZEFSAII (Michael W. Deem and Ramdas Pophale) SiO2 
 PCOD9185763
Probable space group: C 2/M
;
_chemical_formula_sum "Si O2"
_cell_formula_units_Z 56
_cell_length_a 16.729266
_cell_length_b 9.653818
_cell_length_c 19.914353
_cell_angle_alpha 90.000000
_cell_angle_beta 116.506490
_cell_angle_gamma 90.000000
_cell_volume 2878.119671
_symmetry_space_group_name_H-M "C 2/M"
_symmetry_group_IT_number 12
_symmetry_cell_setting 'monoclinic'
loop_
_space_group_symop_operation_xyz
x,y,z
-x,y,-z
-x,-y,-z
x,-y,z
1/2+x,1/2+y,z
1/2-x,1/2+y,-z
1/2-x,1/2-y,-z
1/2+x,1/2-y,z
loop_
_atom_site_type_symbol
_atom_site_label
_atom_site_fract_x
_atom_site_fract_y
_atom_site_fract_z
Si Si1 0.095371 0.233344 0.679384
Si Si2 0.968407 0.851287 0.207108
Si Si3 0.237038 0.158916 0.192036
Si Si4 0.718720 0.665064 0.923426
Si Si5 0.433367 0.155132 0.539683
Si Si6 0.201147 0.842610 0.584836
Si Si7 0.635057 0.165733 0.265770
O O1 0.166664 0.343709 0.734044
O O2 0.142526 0.165940 0.632088
O O3 0.079289 0.141460 0.738431
O O4 0.998967 0.287438 0.620754
O O5 0.036239 0.724821 0.235836
O O6 0.889044 0.831316 0.124359
O O7 0.014172 0.000000 0.211891
O O8 0.245553 0.248819 0.127460
O O9 0.175839 0.247868 0.219223
O O10 0.208596 0.000000 0.169789
O O11 0.743550 0.500000 0.932616
O O12 0.750000 0.750000 0.000000
O O13 0.500000 0.151047 0.500000
O O14 0.348772 0.245529 0.486645
O O15 0.404852 0.000000 0.545123
O O16 0.300728 0.803924 0.646123
O O17 0.200161 0.000000 0.560488
O O18 0.638582 0.000000 0.256618
#
# Coordination Sequence:
#
# PCOD9185763 Si02
#       7
#     8   8   8   8   8   8   8
#     4   9  18  31  52  78 103 133 176 223 267 315
#     4  10  21  36  56  81 107 137 174 216 260 310
#     4  10  19  34  58  82 107 142 179 216 261 312
#     4  10  21  38  60  87 115 139 169 210 256 308
#     4   9  17  28  45  72 102 131 170 220 267 312
#     4   9  18  32  50  72 100 136 176 219 267 315
#     4  10  21  36  53  76 108 143 180 220 262 312
#
# _framework density 19.457146999999999
#
# number of rings (size 3 to 8) (size 9 to 14) (size 15 to 20)
#    0.000    2.429    0.000    2.143    0.000   14.000 
#    0.000    1.429    0.000    4.286    0.000    0.000 
#    0.000    0.000    0.000    0.000    0.000    0.000 
#
# Total GULP energy -156087.279899 kJ/mol
# GULP energy per Si atom -5574.545711 kJ/mol
# Density = 1.941286 g / cm^3
# Si number density = 19.457147 Si / 1000 Ang^3
#
#
#
# Elastic Constant Matrix: (Units=GPa)
#
#
# Indices 1 2 3 4 5 6 
#
# 1 45.6104 24.5616 18.2054 0.0000 11.3647 0.0000
# 2 24.5616 127.0898 47.4227 0.0000 14.2102 0.0000
# 3 18.2054 47.4227 111.6536 0.0000 11.4959 0.0000
# 4 0.0000 0.0000 0.0000 5.3462 0.0000 6.6992
# 5 11.3647 14.2102 11.4959 0.0000 18.0400 0.0000
# 6 0.0000 0.0000 0.0000 6.6992 0.0000 17.1068
#
#
#
# Elastic Compliance Matrix: (Units=1/GPa)
#
#
# Indices 1 2 3 4 5 6 
#
# 1 0.027792 -0.003161 -0.001758 0.000000 -0.013898 0.000000
# 2 -0.003161 0.010184 -0.003413 0.000000 -0.003856 0.000000
# 3 -0.001758 -0.003413 0.011025 0.000000 -0.003230 0.000000
# 4 0.000000 0.000000 0.000000 0.367287 0.000000 -0.143835
# 5 -0.013898 -0.003856 -0.003230 0.000000 0.069283 0.000000
# 6 0.000000 0.000000 0.000000 -0.143835 0.000000 0.114784
#
#
# Mechanical properties :
#
#
# Convention : Reuss Voigt Hill
#
# Bulk Modulus (GPa) = 30.92484 51.63703 41.28094
# Shear Modulus (GPa) = 7.96435 21.04287 14.50361
#
# Velocity S-wave (km/s) = 2.02538 3.29218 2.73319
# Velocity P-wave (km/s) = 4.62578 6.40685 5.58774
#
# Compressibility (1/GPa) = 0.03233646
#
# Stress axis : x y z
#
# Youngs Moduli (GPa) = 35.98196 98.19274 90.70234
#
# Poissons Ratio (x) = 0.31040 0.15945
# Poissons Ratio (y) = 0.11374 0.30957
# Poissons Ratio (z) = 0.06325 0.33514
#
# Static dielectric constant tensor:
#      x y z
#    x 1.715780 0.000000 -0.001310 
#    y 0.000000 1.713350 0.000000 
#    z -0.001310 0.000000 1.671170 
# 
# From -- ./inp_files/314356.got.cif
#   From: 2010.05.17/outbox.cif.g08.bks.cpg/sg12_158_cif.got.tgz:314356.got - 2010.06.03 13:09:07.
