data_PCOD9185214
_publ_section_title
;
Structure prediction by ZEFSAII (Michael W. Deem and Ramdas Pophale) SiO2 
 PCOD9185214
Probable space group: C 2/M
;
_chemical_formula_sum "Si O2"
_cell_formula_units_Z 48
_cell_length_a 20.547810
_cell_length_b 7.724344
_cell_length_c 14.546828
_cell_angle_alpha 90.000000
_cell_angle_beta 106.041503
_cell_angle_gamma 90.000000
_cell_volume 2218.946131
_symmetry_space_group_name_H-M "C 2/M"
_symmetry_group_IT_number 12
_symmetry_cell_setting 'monoclinic'
loop_
_space_group_symop_operation_xyz
x,y,z
-x,y,-z
-x,-y,-z
x,-y,z
1/2+x,1/2+y,z
1/2-x,1/2+y,-z
1/2-x,1/2-y,-z
1/2+x,1/2-y,z
loop_
_atom_site_type_symbol
_atom_site_label
_atom_site_fract_x
_atom_site_fract_y
_atom_site_fract_z
Si Si1 0.468532 0.710347 0.631628
Si Si2 0.783429 0.294772 0.244263
Si Si3 0.353323 0.206911 0.890694
Si Si4 0.897444 0.793768 0.422687
Si Si5 0.862161 0.712279 0.095348
Si Si6 0.983479 0.297885 0.842577
O O1 0.468052 0.500000 0.637874
O O2 0.542434 0.767478 0.622109
O O3 0.415421 0.766784 0.532381
O O4 0.457401 0.782476 0.728156
O O5 0.785928 0.500000 0.239784
O O6 0.705670 0.243004 0.204620
O O7 0.825303 0.245041 0.350748
O O8 0.822507 0.223143 0.169252
O O9 0.426053 0.277252 0.886647
O O10 0.360112 0.000000 0.899412
O O11 0.333446 0.268136 0.985119
O O12 0.905183 0.000000 0.428958
O O13 0.861272 0.500000 0.099206
O O14 0.940348 0.772342 0.126795
O O15 0.990753 0.500000 0.870118
#
# Coordination Sequence:
#
# PCOD9185214 Si02
#       6
#     8   8   8   8   8   8
#     4   9  18  33  55  81 107 135 170 217 265 314
#     4  11  21  34  54  81 110 137 174 225 266 301
#     4  10  21  36  54  75 108 149 179 209 258 320
#     4   9  18  34  55  79 106 138 174 210 262 324
#     4   9  18  34  55  79 104 138 182 220 257 306
#     4  10  19  34  56  81 107 138 178 219 260 309
#
# _framework density 21.631889999999999
#
# number of rings (size 3 to 8) (size 9 to 14) (size 15 to 20)
#    0.000    2.333    1.667    2.500    0.000    3.333 
#    0.000    4.167    0.000    2.000    0.000    0.000 
#    0.000    0.000    0.000    0.000    0.000    0.000 
#
# Total GULP energy -133983.622671 kJ/mol
# GULP energy per Si atom -5582.650945 kJ/mol
# Density = 2.158266 g / cm^3
# Si number density = 21.631890 Si / 1000 Ang^3
#
#
#
# Elastic Constant Matrix: (Units=GPa)
#
#
# Indices 1 2 3 4 5 6 
#
# 1 43.1557 -7.1080 -2.2480 0.0000 21.4396 0.0000
# 2 -7.1080 29.7707 -9.0892 0.0000 0.3564 0.0000
# 3 -2.2480 -9.0892 68.5475 0.0000 13.6423 0.0000
# 4 0.0000 0.0000 0.0000 -2.6083 0.0000 -3.7949
# 5 21.4396 0.3564 13.6423 0.0000 25.6156 0.0000
# 6 0.0000 0.0000 0.0000 -3.7949 0.0000 9.6507
#
#
#
# Elastic Compliance Matrix: (Units=1/GPa)
#
#
# Indices 1 2 3 4 5 6 
#
# 1 0.052638 0.017587 0.014402 0.000000 -0.051971 0.000000
# 2 0.017587 0.041136 0.010151 0.000000 -0.020698 0.000000
# 3 0.014402 0.010151 0.021067 0.000000 -0.023415 0.000000
# 4 0.000000 0.000000 0.000000 -0.243866 0.000000 -0.095895
# 5 -0.051971 -0.020698 -0.023415 0.000000 0.095296 0.000000
# 6 0.000000 0.000000 0.000000 -0.095895 0.000000 0.065911
#
#
# Mechanical properties :
#
#
# Convention : Reuss Voigt Hill
#
# Bulk Modulus (GPa) = 5.02212 11.62039 8.32125
# Shear Modulus (GPa) = 350.24754 17.19288 183.72021
#
# Velocity S-wave (km/s) = 12.73829 2.82227 9.22576
# Velocity P-wave (km/s) = 14.78779 4.00047 10.83242
#
# Compressibility (1/GPa) = 0.19911892
#
# Stress axis : x y z
#
# Youngs Moduli (GPa) = 18.99766 24.30964 47.46840
#
# Poissons Ratio (x) = -0.42753 -0.68362
# Poissons Ratio (y) = -0.33411 -0.48183
# Poissons Ratio (z) = -0.27360 -0.24676
#
# Static dielectric constant tensor:
#      x y z
#    x 1.800120 0.000000 0.033440 
#    y 0.000000 1.800090 0.000000 
#    z 0.033440 0.000000 1.837680 
# 
# From -- ./inp_files/229815.got.cif
#   From: 2010.05.17/outbox.cif.g08.bks.cpg/sg12_115_cif.got.tgz:229815.got - 2010.06.03 13:09:07.
