data_PCOD9185739
_publ_section_title
;
Structure prediction by ZEFSAII (Michael W. Deem and Ramdas Pophale) SiO2 
 PCOD9185739
Probable space group: C 2/M
;
_chemical_formula_sum "Si O2"
_cell_formula_units_Z 50
_cell_length_a 28.457730
_cell_length_b 14.110279
_cell_length_c 5.641094
_cell_angle_alpha 90.000000
_cell_angle_beta 70.547721
_cell_angle_gamma 90.000000
_cell_volume 2135.864344
_symmetry_space_group_name_H-M "C 2/M"
_symmetry_group_IT_number 12
_symmetry_cell_setting 'monoclinic'
loop_
_space_group_symop_operation_xyz
x,y,z
-x,y,-z
-x,-y,-z
x,-y,z
1/2+x,1/2+y,z
1/2-x,1/2+y,-z
1/2-x,1/2-y,-z
1/2+x,1/2-y,z
loop_
_atom_site_type_symbol
_atom_site_label
_atom_site_fract_x
_atom_site_fract_y
_atom_site_fract_z
Si Si1 0.228283 0.856994 0.053482
Si Si2 0.766842 0.360411 0.488916
Si Si3 0.000000 0.500000 0.500000
Si Si4 0.621229 0.285426 0.210476
Si Si5 0.370291 0.107857 0.125276
Si Si6 0.480845 0.651405 0.785106
Si Si7 0.948244 0.673280 0.342134
O O1 0.249414 0.898721 0.261960
O O2 0.168877 0.849044 0.175519
O O3 0.250000 0.750000 0.000000
O O4 0.243512 0.897577 0.772026
O O5 0.750000 0.250000 0.500000
O O6 0.826159 0.377027 0.390893
O O7 0.960796 0.584069 0.483783
O O8 0.578574 0.338231 0.130054
O O9 0.592871 0.246029 0.487630
O O10 0.638660 0.190159 0.048401
O O11 0.424374 0.128095 0.147487
O O12 0.368395 0.000000 0.041576
O O13 0.500000 0.611092 0.500000
O O14 0.504125 0.758055 0.752116
O O15 0.500000 0.608124 0.000000
#
# Coordination Sequence:
#
# PCOD9185739 Si02
#       7
#     8   8   2   8   8   8   8
#     4  10  19  34  58  68  93 122 170 219 262 315
#     4  10  20  38  52  75  95 128 166 223 266 316
#     4  12  20  36  46  64 106 156 174 224 256 300
#     4  11  21  33  51  72  93 132 184 221 256 304
#     4  12  24  32  52  75 100 134 182 225 262 304
#     4  10  20  33  48  65  97 131 167 209 250 283
#     4  11  22  35  45  69 101 142 178 217 257 295
#
# _framework density 23.409725999999999
#
# number of rings (size 3 to 8) (size 9 to 14) (size 15 to 20)
#    0.000    1.280    8.000    1.920    1.120    0.000 
#    0.000    2.000    0.000    0.000    0.000    0.000 
#    0.000    0.000    0.000    0.000    0.000  112.000 
#
# Total GULP energy -139335.560632 kJ/mol
# GULP energy per Si atom -5573.422425 kJ/mol
# Density = 2.335644 g / cm^3
# Si number density = 23.409726 Si / 1000 Ang^3
#
#
#
# Elastic Constant Matrix: (Units=GPa)
#
#
# Indices 1 2 3 4 5 6 
#
# 1 142.6136 9.1933 29.9694 0.0000 -0.6668 0.0000
# 2 9.1933 83.7325 8.8765 0.0000 5.4794 0.0000
# 3 29.9694 8.8765 131.1214 0.0000 21.6577 0.0000
# 4 0.0000 0.0000 0.0000 -15.5628 0.0000 -6.9956
# 5 -0.6668 5.4794 21.6577 0.0000 45.4751 0.0000
# 6 0.0000 0.0000 0.0000 -6.9956 0.0000 -10.6596
#
#
#
# Elastic Compliance Matrix: (Units=1/GPa)
#
#
# Indices 1 2 3 4 5 6 
#
# 1 0.007446 -0.000693 -0.001831 0.000000 0.001065 0.000000
# 2 -0.000693 0.012150 -0.000456 0.000000 -0.001257 0.000000
# 3 -0.001831 -0.000456 0.008760 0.000000 -0.004144 0.000000
# 4 0.000000 0.000000 0.000000 -0.091143 0.000000 0.059815
# 5 0.001065 -0.001257 -0.004144 0.000000 0.024131 0.000000
# 6 0.000000 0.000000 0.000000 0.059815 0.000000 -0.133067
#
#
# Mechanical properties :
#
#
# Convention : Reuss Voigt Hill
#
# Bulk Modulus (GPa) = 44.65237 50.39399 47.52318
# Shear Modulus (GPa) = -31.58620 24.47911 -3.55354
#
# Velocity S-wave (km/s) = -3.67724 3.23721 -1.23340
# Velocity P-wave (km/s) = 1.04225 5.96208 4.27976
#
# Compressibility (1/GPa) = 0.02239523
#
# Stress axis : x y z
#
# Youngs Moduli (GPa) = 134.29373 82.30772 114.15044
#
# Poissons Ratio (x) = 0.05705 0.20900
# Poissons Ratio (y) = 0.09308 0.05211
# Poissons Ratio (z) = 0.24588 0.03757
#
# Static dielectric constant tensor:
#      x y z
#    x 1.883050 0.000000 0.010660 
#    y 0.000000 1.826390 0.000000 
#    z 0.010660 0.000000 1.996730 
# 
# From -- ./inp_files/28482.got.cif
#   From: 2010.05.17/outbox.cif.g08.bks.cpg/sg12_15_cif.got.tgz:28482.got - 2010.06.03 13:09:07.
