data_PCOD9185625
_publ_section_title
;
Structure prediction by ZEFSAII (Michael W. Deem and Ramdas Pophale) SiO2 
 PCOD9185625
Probable space group: C 2/M
;
_chemical_formula_sum "Si O2"
_cell_formula_units_Z 64
_cell_length_a 20.784142
_cell_length_b 8.897368
_cell_length_c 19.673182
_cell_angle_alpha 90.000000
_cell_angle_beta 90.168310
_cell_angle_gamma 90.000000
_cell_volume 3638.030958
_symmetry_space_group_name_H-M "C 2/M"
_symmetry_group_IT_number 12
_symmetry_cell_setting 'monoclinic'
loop_
_space_group_symop_operation_xyz
x,y,z
-x,y,-z
-x,-y,-z
x,-y,z
1/2+x,1/2+y,z
1/2-x,1/2+y,-z
1/2-x,1/2-y,-z
1/2+x,1/2-y,z
loop_
_atom_site_type_symbol
_atom_site_label
_atom_site_fract_x
_atom_site_fract_y
_atom_site_fract_z
Si Si1 0.360295 0.679294 0.674814
Si Si2 0.312728 0.819550 0.965686
Si Si3 0.061321 0.320322 0.546796
Si Si4 0.689248 0.820143 0.461847
Si Si5 0.360884 0.819901 0.819307
Si Si6 0.511977 0.321097 0.680525
Si Si7 0.987411 0.320775 0.175483
Si Si8 0.934430 0.178551 0.041632
O O1 0.353323 0.500000 0.672104
O O2 0.321597 0.754481 0.613405
O O3 0.341762 0.739673 0.749325
O O4 0.436518 0.716164 0.666366
O O5 0.321085 0.776994 0.886176
O O6 0.310421 0.000000 0.968980
O O7 0.250000 0.750000 0.000000
O O8 0.375479 0.760662 0.005223
O O9 0.059698 0.500000 0.559115
O O10 0.125690 0.283967 0.505862
O O11 0.053523 0.234988 0.617493
O O12 0.000000 0.281839 0.500000
O O13 0.750000 0.750000 0.500000
O O14 0.695154 0.000000 0.458111
O O15 0.436381 0.784664 0.833249
O O16 0.356518 0.000000 0.809866
O O17 0.516514 0.500000 0.689159
O O18 0.530430 0.238563 0.750106
O O19 0.980260 0.500000 0.170919
O O20 0.947110 0.240638 0.116879
O O21 0.922920 0.000000 0.042643
O O22 0.000000 0.207273 0.000000
#
# Coordination Sequence:
#
# PCOD9185625 Si02
#       8
#     8   8   8   8   8   8   8   8
#     4  10  20  34  56  85 115 147 188 233 283 339
#     4  11  23  40  60  86 119 156 198 240 290 348
#     4  10  20  36  58  83 111 147 189 231 278 336
#     4  11  23  39  59  83 116 152 190 234 282 338
#     4   9  19  35  57  83 113 150 191 233 282 341
#     4  10  20  33  54  86 119 148 185 238 290 338
#     4  10  19  34  57  84 116 152 192 237 287 345
#     4  11  22  36  58  87 118 150 190 240 291 342
#
# _framework density 17.591934999999999
#
# number of rings (size 3 to 8) (size 9 to 14) (size 15 to 20)
#    0.000    1.750    2.500    2.250    0.000    4.250 
#    0.000    1.250    0.000    6.000    0.000    0.000 
#    0.000    0.000    0.000    0.000    0.000    0.000 
#
# Total GULP energy -178738.698404 kJ/mol
# GULP energy per Si atom -5585.584325 kJ/mol
# Density = 1.755189 g / cm^3
# Si number density = 17.591935 Si / 1000 Ang^3
#
#
#
# Elastic Constant Matrix: (Units=GPa)
#
#
# Indices 1 2 3 4 5 6 
#
# 1 95.1685 54.6865 73.8341 0.0000 1.6672 0.0000
# 2 54.6865 56.6098 67.2148 0.0000 0.5810 0.0000
# 3 73.8341 67.2148 170.3433 0.0000 2.4080 0.0000
# 4 0.0000 0.0000 0.0000 33.9212 0.0000 2.0729
# 5 1.6672 0.5810 2.4080 0.0000 27.1233 0.0000
# 6 0.0000 0.0000 0.0000 2.0729 0.0000 28.2837
#
#
#
# Elastic Compliance Matrix: (Units=1/GPa)
#
#
# Indices 1 2 3 4 5 6 
#
# 1 0.024136 -0.020508 -0.002358 0.000000 -0.000835 0.000000
# 2 -0.020508 0.050667 -0.011120 0.000000 0.001162 0.000000
# 3 -0.002358 -0.011120 0.011289 0.000000 -0.000619 0.000000
# 4 0.000000 0.000000 0.000000 0.029613 0.000000 -0.002170
# 5 -0.000835 0.001162 -0.000619 0.000000 0.036950 0.000000
# 6 0.000000 0.000000 0.000000 -0.002170 0.000000 0.035515
#
#
# Mechanical properties :
#
#
# Convention : Reuss Voigt Hill
#
# Bulk Modulus (GPa) = 55.18481 79.28804 67.23642
# Shear Modulus (GPa) = 19.07080 26.29140 22.68110
#
# Velocity S-wave (km/s) = 3.29609 3.87009 3.59456
# Velocity P-wave (km/s) = 6.77666 8.07085 7.45190
#
# Compressibility (1/GPa) = 0.01812093
#
# Stress axis : x y z
#
# Youngs Moduli (GPa) = 41.43213 19.73665 88.58325
#
# Poissons Ratio (x) = 0.40476 0.20884
# Poissons Ratio (y) = 0.84969 0.98503
# Poissons Ratio (z) = 0.09768 0.21947
#
# Static dielectric constant tensor:
#      x y z
#    x 1.577790 0.000000 -0.008330 
#    y 0.000000 1.582500 0.000000 
#    z -0.008330 0.000000 1.581660 
# 
# From -- ./inp_files/281245.got.cif
#   From: 2010.05.17/outbox.cif.g08.bks.cpg/sg12_141_cif.got.tgz:281245.got - 2010.06.03 13:09:07.
