data_PCOD9185581
_publ_section_title
;
Structure prediction by ZEFSAII (Michael W. Deem and Ramdas Pophale) SiO2 
 PCOD9185581
Probable space group: C 2/M
;
_chemical_formula_sum "Si O2"
_cell_formula_units_Z 56
_cell_length_a 8.369348
_cell_length_b 18.993283
_cell_length_c 28.062246
_cell_angle_alpha 90.000000
_cell_angle_beta 139.453209
_cell_angle_gamma 90.000000
_cell_volume 2899.835957
_symmetry_space_group_name_H-M "C 2/M"
_symmetry_group_IT_number 12
_symmetry_cell_setting 'monoclinic'
loop_
_space_group_symop_operation_xyz
x,y,z
-x,y,-z
-x,-y,-z
x,-y,z
1/2+x,1/2+y,z
1/2-x,1/2+y,-z
1/2-x,1/2-y,-z
1/2+x,1/2-y,z
loop_
_atom_site_type_symbol
_atom_site_label
_atom_site_fract_x
_atom_site_fract_y
_atom_site_fract_z
Si Si1 0.300762 0.915816 0.348448
Si Si2 0.119709 0.079916 0.203712
Si Si3 0.489001 0.416409 0.617636
Si Si4 0.141968 0.279026 0.175227
Si Si5 0.797512 0.334007 0.913607
Si Si6 0.770193 0.170000 0.484207
Si Si7 0.535967 0.832743 0.252192
O O1 0.156291 0.896624 0.267013
O O2 0.527444 0.861501 0.403896
O O3 0.135879 0.909343 0.358641
O O4 0.373588 0.000000 0.362579
O O5 0.311730 0.116528 0.212676
O O6 0.846439 0.093092 0.123461
O O7 0.184698 0.000000 0.218524
O O8 0.540340 0.500000 0.621601
O O9 0.313641 0.384291 0.537591
O O10 0.729083 0.366476 0.669184
O O11 0.105477 0.316431 0.116772
O O12 0.411625 0.241863 0.238818
O O13 0.924664 0.221213 0.128334
O O14 0.104070 0.326965 0.212426
O O15 0.000000 0.330183 0.000000
O O16 0.750000 0.250000 0.500000
O O17 0.000000 0.167670 0.500000
#
# Coordination Sequence:
#
# PCOD9185581 Si02
#       7
#     8   8   8   8   8   8   8
#     4  10  22  42  63  84 114 151 193 234 280 344
#     4  10  21  37  58  83 111 149 192 233 280 337
#     4  11  23  39  61  86 115 152 190 233 285 339
#     4   9  20  35  55  85 114 148 188 231 284 340
#     4  10  19  34  57  83 114 147 184 233 286 343
#     4  12  26  41  60  86 117 152 191 239 288 332
#     4  10  20  36  58  83 115 148 188 236 280 335
#
# _framework density 19.311437999999999
#
# number of rings (size 3 to 8) (size 9 to 14) (size 15 to 20)
#    0.000    1.714    0.000    4.286    0.000    9.429 
#    0.000    0.714    0.000    0.857    0.000    0.000 
#    0.000    0.000    0.000    0.000    0.000    0.000 
#
# Total GULP energy -156174.943266 kJ/mol
# GULP energy per Si atom -5577.676545 kJ/mol
# Density = 1.926748 g / cm^3
# Si number density = 19.311438 Si / 1000 Ang^3
#
#
#
# Elastic Constant Matrix: (Units=GPa)
#
#
# Indices 1 2 3 4 5 6 
#
# 1 88.7404 30.7785 -1.4711 -0.0002 -11.5905 -0.0001
# 2 30.7785 72.7415 27.9699 -0.0001 -7.9499 -0.0001
# 3 -1.4711 27.9699 54.3771 -0.0008 7.0773 -0.0003
# 4 -0.0002 -0.0001 -0.0008 23.6826 -0.0001 -5.0789
# 5 -11.5905 -7.9499 7.0773 -0.0001 23.2054 0.0000
# 6 -0.0001 -0.0001 -0.0003 -5.0789 0.0000 21.3346
#
#
#
# Elastic Compliance Matrix: (Units=1/GPa)
#
#
# Indices 1 2 3 4 5 6 
#
# 1 0.014217 -0.006957 0.003488 0.000000 0.003654 0.000000
# 2 -0.006957 0.022515 -0.012830 0.000000 0.008152 0.000000
# 3 0.003488 -0.012830 0.026481 0.000001 -0.010730 0.000001
# 4 0.000000 0.000000 0.000001 0.044497 0.000000 0.010593
# 5 0.003654 0.008152 -0.010730 0.000000 0.050984 0.000000
# 6 0.000000 0.000000 0.000001 0.010593 0.000000 0.049394
#
#
# Mechanical properties :
#
#
# Convention : Reuss Voigt Hill
#
# Bulk Modulus (GPa) = 32.66598 36.71261 34.68929
# Shear Modulus (GPa) = 19.92894 24.21662 22.07278
#
# Velocity S-wave (km/s) = 3.21592 3.54503 3.38448
# Velocity P-wave (km/s) = 5.54451 5.98401 5.76845
#
# Compressibility (1/GPa) = 0.03061289
#
# Stress axis : x y z
#
# Youngs Moduli (GPa) = 70.33887 44.41411 37.76363
#
# Poissons Ratio (x) = 0.30900 -0.13171
# Poissons Ratio (y) = 0.48936 0.48452
# Poissons Ratio (z) = -0.24532 0.56985
#
# Static dielectric constant tensor:
#      x y z
#    x 1.674170 0.000000 0.009210 
#    y 0.000000 1.711960 0.000000 
#    z 0.009210 0.000000 1.657860 
# 
# From -- ./inp_files/356747.got.cif
#   From: 2010.05.17/outbox.cif.g08.bks.cpg/sg12_179_cif.got.tgz:356747.got - 2010.06.03 13:09:07.
