data_PCOD9185887
_publ_section_title
;
Structure prediction by ZEFSAII (Michael W. Deem and Ramdas Pophale) SiO2 
 PCOD9185887
Probable space group: C 2/M
;
_chemical_formula_sum "Si O2"
_cell_formula_units_Z 36
_cell_length_a 8.685370
_cell_length_b 16.808430
_cell_length_c 15.411646
_cell_angle_alpha 90.000000
_cell_angle_beta 54.437902
_cell_angle_gamma 90.000000
_cell_volume 1830.266808
_symmetry_space_group_name_H-M "C 2/M"
_symmetry_group_IT_number 12
_symmetry_cell_setting 'monoclinic'
loop_
_space_group_symop_operation_xyz
x,y,z
-x,y,-z
-x,-y,-z
x,-y,z
1/2+x,1/2+y,z
1/2-x,1/2+y,-z
1/2-x,1/2-y,-z
1/2+x,1/2-y,z
loop_
_atom_site_type_symbol
_atom_site_label
_atom_site_fract_x
_atom_site_fract_y
_atom_site_fract_z
Si Si1 0.418088 0.412965 0.668346
Si Si2 0.309699 0.675078 0.318991
Si Si3 0.172367 0.289298 0.179710
Si Si4 0.554746 0.856984 0.891308
Si Si5 0.500000 0.722729 0.500000
O O1 0.419662 0.500000 0.626741
O O2 0.589274 0.403838 0.680591
O O3 0.218091 0.399871 0.782036
O O4 0.456503 0.338860 0.592047
O O5 0.204821 0.667356 0.261103
O O6 0.482243 0.736821 0.249706
O O7 0.174408 0.716037 0.434354
O O8 0.343848 0.226888 0.115179
O O9 0.126619 0.342402 0.110939
O O10 0.500000 0.896630 0.000000
#
# Coordination Sequence:
#
# PCOD9185887 Si02
#       5
#     8   8   8   8   4
#     4  11  24  38  55  85 120 148 184 238 290 333
#     4  10  19  34  61  83 110 149 190 232 279 332
#     4   9  17  34  55  87 111 141 192 240 268 323
#     4  10  19  34  58  85 115 149 187 230 282 337
#     4  12  19  38  65  78 108 154 198 228 277 346
#
# _framework density 19.669263999999998
#
# number of rings (size 3 to 8) (size 9 to 14) (size 15 to 20)
#    0.000    1.778    6.667    1.667    0.000    0.444 
#    0.000    1.667    0.000    1.333    0.000    0.000 
#    0.000    0.000    0.000    0.000    0.000    0.000 
#
# Total GULP energy -100236.954672 kJ/mol
# GULP energy per Si atom -5568.719704 kJ/mol
# Density = 1.962450 g / cm^3
# Si number density = 19.669264 Si / 1000 Ang^3
#
#
#
# Elastic Constant Matrix: (Units=GPa)
#
#
# Indices 1 2 3 4 5 6 
#
# 1 95.1727 8.6913 21.0836 0.0000 10.4970 0.0000
# 2 8.6913 51.2657 3.7162 0.0000 -1.3189 0.0000
# 3 21.0836 3.7162 90.9018 0.0000 6.9192 0.0000
# 4 0.0000 0.0000 0.0000 1.8856 0.0000 1.9290
# 5 10.4970 -1.3189 6.9192 0.0000 26.1900 0.0000
# 6 0.0000 0.0000 0.0000 1.9290 0.0000 -0.6813
#
#
#
# Elastic Compliance Matrix: (Units=1/GPa)
#
#
# Indices 1 2 3 4 5 6 
#
# 1 0.011652 -0.001915 -0.002308 0.000000 -0.004157 0.000000
# 2 -0.001915 0.019917 -0.000515 0.000000 0.001907 0.000000
# 3 -0.002308 -0.000515 0.011725 0.000000 -0.002198 0.000000
# 4 0.000000 0.000000 0.000000 0.136098 0.000000 0.385369
# 5 -0.004157 0.001907 -0.002198 0.000000 0.040525 0.000000
# 6 0.000000 0.000000 0.000000 0.385369 0.000000 -0.376693
#
#
# Mechanical properties :
#
#
# Convention : Reuss Voigt Hill
#
# Bulk Modulus (GPa) = 29.57043 33.81360 31.69201
# Shear Modulus (GPa) = -36.75711 19.06881 -8.84415
#
# Velocity S-wave (km/s) = -4.32760 3.11701 -2.12278
# Velocity P-wave (km/s) = 3.14713 5.49388 3.18421
#
# Compressibility (1/GPa) = 0.03381757
#
# Stress axis : x y z
#
# Youngs Moduli (GPa) = 85.82359 50.20765 85.29112
#
# Poissons Ratio (x) = 0.09615 0.19684
# Poissons Ratio (y) = 0.16435 0.04394
# Poissons Ratio (z) = 0.19806 0.02587
#
# Static dielectric constant tensor:
#      x y z
#    x 1.755210 0.000000 0.057910 
#    y 0.000000 1.680010 0.000000 
#    z 0.057910 0.000000 1.739260 
# 
# From -- ./inp_files/119688.got.cif
#   From: 2010.05.17/outbox.cif.g08.bks.cpg/sg12_60_cif.got.tgz:119688.got - 2010.06.03 13:09:07.
