data_PCOD9185080
_publ_section_title
;
Structure prediction by ZEFSAII (Michael W. Deem and Ramdas Pophale) SiO2 
 PCOD9185080
Probable space group: C 2/M
;
_chemical_formula_sum "Si O2"
_cell_formula_units_Z 48
_cell_length_a 8.910664
_cell_length_b 14.124090
_cell_length_c 19.468972
_cell_angle_alpha 90.000000
_cell_angle_beta 112.757268
_cell_angle_gamma 90.000000
_cell_volume 2259.519192
_symmetry_space_group_name_H-M "C 2/M"
_symmetry_group_IT_number 12
_symmetry_cell_setting 'monoclinic'
loop_
_space_group_symop_operation_xyz
x,y,z
-x,y,-z
-x,-y,-z
x,-y,z
1/2+x,1/2+y,z
1/2-x,1/2+y,-z
1/2-x,1/2-y,-z
1/2+x,1/2-y,z
loop_
_atom_site_type_symbol
_atom_site_label
_atom_site_fract_x
_atom_site_fract_y
_atom_site_fract_z
Si Si1 0.743368 0.646031 0.465912
Si Si2 0.502359 0.102200 0.612351
Si Si3 0.303580 0.107858 0.972513
Si Si4 0.640686 0.252004 0.221453
Si Si5 0.697025 0.198721 0.884688
Si Si6 0.478263 0.307096 0.323101
O O1 0.750000 0.750000 0.500000
O O2 0.865444 0.628008 0.423658
O O3 0.563869 0.637505 0.400918
O O4 0.828476 0.592920 0.543462
O O5 0.498467 0.194230 0.658671
O O6 0.544160 0.000000 0.650397
O O7 0.260075 0.132660 0.043838
O O8 0.258062 0.000000 0.946793
O O9 0.500000 0.116426 0.000000
O O10 0.225718 0.192215 0.914265
O O11 0.491101 0.189860 0.168401
O O12 0.703224 0.311057 0.167401
O O13 0.576366 0.320580 0.270100
O O14 0.787171 0.186818 0.275951
#
# Coordination Sequence:
#
# PCOD9185080 Si02
#       6
#     8   8   8   8   8   8
#     4   9  17  30  54  79 104 141 191 226 279 329
#     4  10  19  34  55  85 112 141 187 250 292 323
#     4  10  20  37  63  90 117 148 190 237 284 333
#     4  10  20  35  58  81 115 152 191 222 279 341
#     4  10  20  38  60  87 115 156 184 237 284 338
#     4  10  19  35  57  81 106 154 192 228 272 353
#
# _framework density 21.243456999999999
#
# number of rings (size 3 to 8) (size 9 to 14) (size 15 to 20)
#    0.000    2.167    3.333    1.000    0.000    0.000 
#    0.000    6.667    0.000    5.000    0.000    0.000 
#    0.000    0.000    0.000    0.000    0.000    0.000 
#
# Total GULP energy -133689.662723 kJ/mol
# GULP energy per Si atom -5570.402613 kJ/mol
# Density = 2.119511 g / cm^3
# Si number density = 21.243457 Si / 1000 Ang^3
#
#
#
# Elastic Constant Matrix: (Units=GPa)
#
#
# Indices 1 2 3 4 5 6 
#
# 1 66.9841 6.1764 13.0198 0.0000 9.9992 0.0000
# 2 6.1764 96.5897 10.1986 0.0000 4.4491 0.0000
# 3 13.0198 10.1986 71.0743 0.0000 15.7512 0.0000
# 4 0.0000 0.0000 0.0000 84.1044 0.0000 -78.6972
# 5 9.9992 4.4491 15.7512 0.0000 36.4005 0.0000
# 6 0.0000 0.0000 0.0000 -78.6972 0.0000 91.3384
#
#
#
# Elastic Compliance Matrix: (Units=1/GPa)
#
#
# Indices 1 2 3 4 5 6 
#
# 1 0.015897 -0.000642 -0.002068 0.000000 -0.003394 0.000000
# 2 -0.000642 0.010554 -0.001272 0.000000 -0.000563 0.000000
# 3 -0.002068 -0.001272 0.016006 0.000000 -0.006202 0.000000
# 4 0.000000 0.000000 0.000000 0.061354 0.000000 0.052863
# 5 -0.003394 -0.000563 -0.006202 0.000000 0.031157 0.000000
# 6 0.000000 0.000000 0.000000 0.052863 0.000000 0.056495
#
#
# Mechanical properties :
#
#
# Convention : Reuss Voigt Hill
#
# Bulk Modulus (GPa) = 28.99131 32.60418 30.79775
# Shear Modulus (GPa) = 23.70519 56.05221 39.87870
#
# Velocity S-wave (km/s) = 3.34411 5.14227 4.33739
# Velocity P-wave (km/s) = 5.34673 7.11607 6.29388
#
# Compressibility (1/GPa) = 0.03449309
#
# Stress axis : x y z
#
# Youngs Moduli (GPa) = 62.90646 94.74747 62.47785
#
# Poissons Ratio (x) = 0.06081 0.12920
# Poissons Ratio (y) = 0.04038 0.07948
# Poissons Ratio (z) = 0.13008 0.12052
#
# Static dielectric constant tensor:
#      x y z
#    x 1.813670 0.000000 0.014450 
#    y 0.000000 1.724090 0.000000 
#    z 0.014450 0.000000 1.801570 
# 
# From -- ./inp_files/299901.got.cif
#   From: 2010.05.17/outbox.cif.g08.bks.cpg/sg12_150_cif.got.tgz:299901.got - 2010.06.03 13:09:07.
