data_PCOD9185932
_publ_section_title
;
Structure prediction by ZEFSAII (Michael W. Deem and Ramdas Pophale) SiO2 
 PCOD9185932
Probable space group: C 2/M
;
_chemical_formula_sum "Si O2"
_cell_formula_units_Z 56
_cell_length_a 20.642413
_cell_length_b 15.490504
_cell_length_c 20.752781
_cell_angle_alpha 90.000000
_cell_angle_beta 22.387856
_cell_angle_gamma 90.000000
_cell_volume 2527.458923
_symmetry_space_group_name_H-M "C 2/M"
_symmetry_group_IT_number 12
_symmetry_cell_setting 'monoclinic'
loop_
_space_group_symop_operation_xyz
x,y,z
-x,y,-z
-x,-y,-z
x,-y,z
1/2+x,1/2+y,z
1/2-x,1/2+y,-z
1/2-x,1/2-y,-z
1/2+x,1/2-y,z
loop_
_atom_site_type_symbol
_atom_site_label
_atom_site_fract_x
_atom_site_fract_y
_atom_site_fract_z
Si Si1 0.401127 0.603933 0.528095
Si Si2 0.655981 0.165323 0.174493
Si Si3 0.306119 0.894165 0.545333
Si Si4 0.598483 0.403260 0.614192
Si Si5 0.994522 0.104296 0.080294
Si Si6 0.485212 0.102498 0.084028
Si Si7 0.262086 0.856816 0.035158
O O1 0.500000 0.637986 0.500000
O O2 0.438789 0.500000 0.492107
O O3 0.432473 0.638012 0.427469
O O4 0.203269 0.619512 0.719347
O O5 0.496005 0.144815 0.367333
O O6 0.629356 0.122152 0.128549
O O7 0.833268 0.136521 0.043706
O O8 0.688884 0.261606 0.118007
O O9 0.216649 0.864373 0.560623
O O10 0.175887 0.868917 0.722935
O O11 0.317287 0.000000 0.535782
O O12 0.667561 0.500000 0.538560
O O13 0.410323 0.409392 0.815491
O O14 0.996047 0.000000 0.080700
O O15 0.000000 0.130760 0.000000
O O16 0.626384 0.126224 0.005043
O O17 0.501990 0.000000 0.061960
O O18 0.500000 0.143197 0.000000
#
# Coordination Sequence:
#
# PCOD9185932 Si02
#       7
#     8   8   8   8   8   8   8
#     4   9  17  30  49  79 115 151 198 252 300 345
#     4  11  24  41  60  91 127 164 205 249 308 380
#     4  10  21  39  66  96 121 156 208 264 322 376
#     4  10  19  34  58  86 117 157 206 257 304 356
#     4  10  22  43  70  95 121 155 201 268 332 384
#     4  10  20  35  58  85 116 158 206 254 299 351
#     4  11  23  38  57  88 125 171 207 246 305 366
#
# _framework density 22.156641
#
# number of rings (size 3 to 8) (size 9 to 14) (size 15 to 20)
#    0.000    1.857    1.429    2.571    0.000    6.857 
#    2.571    2.143    3.143    0.000    0.000    0.000 
#    0.000    0.000    0.000    0.000    0.000    0.000 
#
# Total GULP energy -156099.056540 kJ/mol
# GULP energy per Si atom -5574.966305 kJ/mol
# Density = 2.210621 g / cm^3
# Si number density = 22.156641 Si / 1000 Ang^3
#
#
#
# Elastic Constant Matrix: (Units=GPa)
#
#
# Indices 1 2 3 4 5 6 
#
# 1 124.8225 16.7396 55.5216 -0.0290 18.2573 -0.0016
# 2 16.7396 35.0885 20.1991 0.0337 3.0785 -0.0011
# 3 55.5216 20.1991 165.1554 0.0239 9.2437 -0.0012
# 4 -0.0290 0.0337 0.0239 9.2274 -0.0004 -0.1039
# 5 18.2573 3.0785 9.2437 -0.0004 39.7354 -0.0013
# 6 -0.0016 -0.0011 -0.0012 -0.1039 -0.0013 5.4448
#
#
#
# Elastic Compliance Matrix: (Units=1/GPa)
#
#
# Indices 1 2 3 4 5 6 
#
# 1 0.010235 -0.002894 -0.002874 0.000050 -0.003810 0.000002
# 2 -0.002894 0.031568 -0.002863 -0.000117 -0.000450 0.000003
# 3 -0.002874 -0.002863 0.007381 -0.000018 -0.000175 0.000000
# 4 0.000050 -0.000117 -0.000018 0.108396 -0.000009 0.002069
# 5 -0.003810 -0.000450 -0.000175 -0.000009 0.026993 0.000005
# 6 0.000002 0.000003 0.000000 0.002069 0.000005 0.183700
#
#
# Mechanical properties :
#
#
# Convention : Reuss Voigt Hill
#
# Bulk Modulus (GPa) = 31.32596 56.66521 43.99559
# Shear Modulus (GPa) = 12.62069 26.38860 19.50465
#
# Velocity S-wave (km/s) = 2.38924 3.45483 2.97022
# Velocity P-wave (km/s) = 4.66695 6.44553 5.62696
#
# Compressibility (1/GPa) = 0.03192240
#
# Stress axis : x y z
#
# Youngs Moduli (GPa) = 97.70418 31.67799 135.48622
#
# Poissons Ratio (x) = 0.09169 0.38933
# Poissons Ratio (y) = 0.28279 0.38784
# Poissons Ratio (z) = 0.28076 0.09068
#
# Static dielectric constant tensor:
#      x y z
#    x 1.923380 -0.000080 0.142670 
#    y -0.000080 1.805240 0.000010 
#    z 0.142670 0.000010 1.868300 
# 
# From -- ./inp_files/322677.got.cif
#   From: 2010.05.17/outbox.cif.g08.bks.cpg/sg12_162_cif.got.tgz:322677.got - 2010.06.03 13:09:07.
