data_PCOD9185803
_publ_section_title
;
Structure prediction by ZEFSAII (Michael W. Deem and Ramdas Pophale) SiO2 
 PCOD9185803
Probable space group: C 2/M
;
_chemical_formula_sum "Si O2"
_cell_formula_units_Z 56
_cell_length_a 16.046943
_cell_length_b 14.137736
_cell_length_c 21.915847
_cell_angle_alpha 90.000000
_cell_angle_beta 146.703588
_cell_angle_gamma 90.000000
_cell_volume 2729.476920
_symmetry_space_group_name_H-M "C 2/M"
_symmetry_group_IT_number 12
_symmetry_cell_setting 'monoclinic'
loop_
_space_group_symop_operation_xyz
x,y,z
-x,y,-z
-x,-y,-z
x,-y,z
1/2+x,1/2+y,z
1/2-x,1/2+y,-z
1/2-x,1/2-y,-z
1/2+x,1/2-y,z
loop_
_atom_site_type_symbol
_atom_site_label
_atom_site_fract_x
_atom_site_fract_y
_atom_site_fract_z
Si Si1 0.968550 0.613078 0.550378
Si Si2 0.370999 0.609992 0.472043
Si Si3 0.546601 0.400615 0.154800
Si Si4 0.775963 0.335641 0.062258
Si Si5 0.083310 0.732999 0.264857
Si Si6 0.279858 0.109453 0.196497
Si Si7 0.118424 0.111694 0.379346
O O1 0.990219 0.500000 0.560101
O O2 0.797394 0.626850 0.471044
O O3 0.000000 0.648727 0.500000
O O4 0.091839 0.643259 0.676803
O O5 0.500000 0.623152 0.500000
O O6 0.322966 0.500000 0.439671
O O7 0.233060 0.678573 0.373819
O O8 0.414169 0.626955 0.569101
O O9 0.603198 0.500000 0.217626
O O10 0.603742 0.307569 0.223184
O O11 0.621650 0.396433 0.134921
O O12 0.364903 0.401168 0.041866
O O13 0.759167 0.326697 0.124738
O O14 0.957580 0.345488 0.170397
O O15 0.750000 0.250000 0.000000
O O16 0.035891 0.807483 0.289215
O O17 0.319226 0.000000 0.201498
O O18 0.083861 0.000000 0.345542
#
# Coordination Sequence:
#
# PCOD9185803 Si02
#       7
#     8   8   8   8   8   8   8
#     4   9  17  29  50  86 124 149 175 220 288 372
#     4  10  23  41  58  80 114 160 210 248 282 341
#     4  10  21  37  58  86 116 145 185 241 304 366
#     4  10  22  36  50  77 114 151 195 238 281 342
#     4  11  22  36  58  85 113 149 192 244 303 355
#     4  10  19  34  58  83 112 151 187 229 296 367
#     4  10  20  36  58  85 119 154 190 240 302 364
#
# _framework density 20.516752
#
# number of rings (size 3 to 8) (size 9 to 14) (size 15 to 20)
#    0.000    2.000    0.000    3.429    0.000    8.571 
#    0.000    0.000    0.000    0.429    0.000    1.000 
#    0.000   28.571    0.000    0.000    0.000    0.000 
#
# Total GULP energy -155981.226594 kJ/mol
# GULP energy per Si atom -5570.758093 kJ/mol
# Density = 2.047005 g / cm^3
# Si number density = 20.516752 Si / 1000 Ang^3
#
#
#
# Elastic Constant Matrix: (Units=GPa)
#
#
# Indices 1 2 3 4 5 6 
#
# 1 97.6966 24.8428 11.5925 -0.0002 -32.7439 -0.0001
# 2 24.8428 73.9140 25.1325 -0.0003 -1.8388 -0.0001
# 3 11.5925 25.1325 53.4686 -0.0009 -22.6795 -0.0002
# 4 -0.0002 -0.0003 -0.0009 -19.1781 -0.0003 -1.8719
# 5 -32.7439 -1.8388 -22.6795 -0.0003 32.3159 -0.0001
# 6 -0.0001 -0.0001 -0.0002 -1.8719 -0.0001 13.5657
#
#
#
# Elastic Compliance Matrix: (Units=1/GPa)
#
#
# Indices 1 2 3 4 5 6 
#
# 1 0.021973 -0.011313 0.013846 -0.000001 0.031337 0.000000
# 2 -0.011313 0.022869 -0.017951 0.000001 -0.022760 0.000000
# 3 0.013846 -0.017951 0.042225 -0.000002 0.042642 0.000000
# 4 -0.000001 0.000001 -0.000002 -0.051450 -0.000003 -0.007099
# 5 0.031337 -0.022760 0.042642 -0.000003 0.091328 0.000001
# 6 0.000000 0.000000 0.000000 -0.007099 0.000001 0.072736
#
#
# Mechanical properties :
#
#
# Convention : Reuss Voigt Hill
#
# Bulk Modulus (GPa) = 17.78366 38.69053 28.23709
# Shear Modulus (GPa) = 20.05930 16.24146 18.15038
#
# Velocity S-wave (km/s) = 3.13022 2.81663 2.97755
# Velocity P-wave (km/s) = 4.66380 5.42925 5.06102
#
# Compressibility (1/GPa) = 0.05623141
#
# Stress axis : x y z
#
# Youngs Moduli (GPa) = 45.51116 43.72707 23.68240
#
# Poissons Ratio (x) = 0.49471 -0.32791
# Poissons Ratio (y) = 0.51489 0.42511
# Poissons Ratio (z) = -0.63015 0.78492
#
# Static dielectric constant tensor:
#      x y z
#    x 1.759140 0.000000 -0.001740 
#    y 0.000000 1.774360 0.000000 
#    z -0.001740 0.000000 1.767480 
# 
# From -- ./inp_files/310851.got.cif
#   From: 2010.05.17/outbox.cif.g08.bks.cpg/sg12_156_cif.got.tgz:310851.got - 2010.06.03 13:09:07.
