data_PCOD9185992
_publ_section_title
;
Structure prediction by ZEFSAII (Michael W. Deem and Ramdas Pophale) SiO2 
 PCOD9185992
Probable space group: C 2/M
;
_chemical_formula_sum "Si O2"
_cell_formula_units_Z 48
_cell_length_a 11.496480
_cell_length_b 27.459963
_cell_length_c 15.014612
_cell_angle_alpha 90.000000
_cell_angle_beta 28.910250
_cell_angle_gamma 90.000000
_cell_volume 2291.504034
_symmetry_space_group_name_H-M "C 2/M"
_symmetry_group_IT_number 12
_symmetry_cell_setting 'monoclinic'
loop_
_space_group_symop_operation_xyz
x,y,z
-x,y,-z
-x,-y,-z
x,-y,z
1/2+x,1/2+y,z
1/2-x,1/2+y,-z
1/2-x,1/2-y,-z
1/2+x,1/2-y,z
loop_
_atom_site_type_symbol
_atom_site_label
_atom_site_fract_x
_atom_site_fract_y
_atom_site_fract_z
Si Si1 0.335612 0.944669 0.357582
Si Si2 0.313522 0.305262 0.436433
Si Si3 0.658633 0.780372 0.972886
Si Si4 0.089859 0.056026 0.034388
Si Si5 0.726772 0.152843 0.675827
Si Si6 0.730178 0.898341 0.403633
O O1 0.263329 0.905472 0.330716
O O2 0.267605 0.925086 0.501823
O O3 0.250207 0.000000 0.402426
O O4 0.624591 0.944423 0.158562
O O5 0.250000 0.250000 0.500000
O O6 0.602999 0.303617 0.231216
O O7 0.176965 0.332427 0.608052
O O8 0.228839 0.339547 0.412824
O O9 0.500000 0.754322 0.000000
O O10 0.750000 0.750000 0.000000
O O11 0.473734 0.821761 0.130829
O O12 0.971696 0.086640 0.191287
O O13 0.003116 0.000000 0.100755
O O14 0.000000 0.075543 0.000000
O O15 0.000000 0.172342 0.500000
O O16 0.500000 0.914386 0.500000
#
# Coordination Sequence:
#
# PCOD9185992 Si02
#       6
#     8   8   8   8   8   8
#     4  10  22  39  61  92 128 171 224 273 330 399
#     4  11  24  43  63  90 131 169 219 275 339 399
#     4  12  25  44  72 102 132 179 222 278 345 408
#     4  10  19  34  58  88 130 170 203 261 335 401
#     4  11  23  43  68  90 129 174 218 276 337 399
#     4  11  22  36  61  94 126 170 221 276 337 408
#
# _framework density 20.946940999999999
#
# number of rings (size 3 to 8) (size 9 to 14) (size 15 to 20)
#    0.000    1.167    5.000    1.500    0.000    3.000 
#    0.000    0.000    0.000    0.500    0.000    0.000 
#    0.000    0.000    0.000    0.000    0.000    0.000 
#
# Total GULP energy -133642.896197 kJ/mol
# GULP energy per Si atom -5568.454008 kJ/mol
# Density = 2.089926 g / cm^3
# Si number density = 20.946941 Si / 1000 Ang^3
#
#
#
# Elastic Constant Matrix: (Units=GPa)
#
#
# Indices 1 2 3 4 5 6 
#
# 1 56.5658 14.7440 21.4832 -0.0009 -0.4456 -0.0004
# 2 14.7440 118.1182 42.2546 -0.0001 13.1111 -0.0001
# 3 21.4832 42.2546 142.2928 -0.0017 9.4973 -0.0006
# 4 -0.0009 -0.0001 -0.0017 36.1928 0.0012 3.5604
# 5 -0.4456 13.1111 9.4973 0.0012 29.6613 0.0005
# 6 -0.0004 -0.0001 -0.0006 3.5604 0.0005 24.1226
#
#
#
# Elastic Compliance Matrix: (Units=1/GPa)
#
#
# Indices 1 2 3 4 5 6 
#
# 1 0.019084 -0.001691 -0.002502 0.000000 0.001835 0.000000
# 2 -0.001691 0.009961 -0.002460 0.000000 -0.003641 0.000000
# 3 -0.002502 -0.002460 0.008242 0.000000 -0.001589 0.000000
# 4 0.000000 0.000000 0.000000 0.028037 -0.000001 -0.004138
# 5 0.001835 -0.003641 -0.001589 -0.000001 0.035860 -0.000001
# 6 0.000000 0.000000 0.000000 -0.004138 -0.000001 0.042066
#
#
# Mechanical properties :
#
#
# Convention : Reuss Voigt Hill
#
# Bulk Modulus (GPa) = 41.69707 52.66004 47.17856
# Shear Modulus (GPa) = 30.38624 33.89500 32.14062
#
# Velocity S-wave (km/s) = 3.81284 4.02697 3.92137
# Velocity P-wave (km/s) = 6.27160 6.84224 6.56313
#
# Compressibility (1/GPa) = 0.02398250
#
# Stress axis : x y z
#
# Youngs Moduli (GPa) = 52.40039 100.38912 121.33031
#
# Poissons Ratio (x) = 0.16975 0.30352
# Poissons Ratio (y) = 0.08860 0.29844
# Poissons Ratio (z) = 0.13109 0.24693
#
# Static dielectric constant tensor:
#      x y z
#    x 1.845390 0.000000 0.011120 
#    y 0.000000 1.869380 0.000000 
#    z 0.011120 0.000000 1.708770 
# 
# From -- ./inp_files/209315.got.cif
#   From: 2010.05.17/outbox.cif.g08.bks.cpg/sg12_105_cif.got.tgz:209315.got - 2010.06.03 13:09:07.
