data_PCOD9185613
_publ_section_title
;
Structure prediction by ZEFSAII (Michael W. Deem and Ramdas Pophale) SiO2 
 PCOD9185613
Probable space group: C 2/M
;
_chemical_formula_sum "Si O2"
_cell_formula_units_Z 48
_cell_length_a 25.125293
_cell_length_b 9.826805
_cell_length_c 10.822283
_cell_angle_alpha 90.000000
_cell_angle_beta 78.857474
_cell_angle_gamma 90.000000
_cell_volume 2621.667115
_symmetry_space_group_name_H-M "C 2/M"
_symmetry_group_IT_number 12
_symmetry_cell_setting 'monoclinic'
loop_
_space_group_symop_operation_xyz
x,y,z
-x,y,-z
-x,-y,-z
x,-y,z
1/2+x,1/2+y,z
1/2-x,1/2+y,-z
1/2-x,1/2-y,-z
1/2+x,1/2-y,z
loop_
_atom_site_type_symbol
_atom_site_label
_atom_site_fract_x
_atom_site_fract_y
_atom_site_fract_z
Si Si1 0.497506 0.347401 0.647340
Si Si2 0.717335 0.835474 0.617576
Si Si3 0.888618 0.160244 0.832151
Si Si4 0.092892 0.653246 0.690109
Si Si5 0.437419 0.154452 0.014662
Si Si6 0.736433 0.337276 0.130294
O O1 0.500000 0.351697 0.500000
O O2 0.507371 0.500000 0.692454
O O3 0.437053 0.306863 0.715674
O O4 0.544489 0.249268 0.670975
O O5 0.750000 0.750000 0.500000
O O6 0.653546 0.805657 0.627143
O O7 0.733218 0.802887 0.753965
O O8 0.725638 0.000000 0.599850
O O9 0.827638 0.184664 0.815343
O O10 0.892087 0.000000 0.859755
O O11 0.902759 0.249309 0.944124
O O12 0.083109 0.500000 0.648121
O O13 0.089434 0.649573 0.839753
O O14 0.439905 0.000000 0.962798
O O15 0.500000 0.201534 0.000000
O O16 0.745507 0.500000 0.102404
O O17 0.750000 0.250000 0.000000
#
# Coordination Sequence:
#
# PCOD9185613 Si02
#       6
#     8   8   8   8   8   8
#     4  10  22  37  56  83 113 150 189 228 282 342
#     4  10  23  41  62  87 118 156 199 246 294 347
#     4  10  21  36  57  86 116 146 187 235 283 338
#     4  10  21  38  58  84 115 147 187 234 283 339
#     4  10  19  34  57  84 114 148 183 223 281 343
#     4  10  22  41  63  87 119 157 198 246 294 346
#
# _framework density 18.308959999999999
#
# number of rings (size 3 to 8) (size 9 to 14) (size 15 to 20)
#    0.000    2.000    1.667    1.000    2.333    4.667 
#    0.000    0.000    0.000    0.000    0.000    0.000 
#    0.000    0.000    0.000    0.000    0.000    0.000 
#
# Total GULP energy -133822.033164 kJ/mol
# GULP energy per Si atom -5575.918048 kJ/mol
# Density = 1.826729 g / cm^3
# Si number density = 18.308960 Si / 1000 Ang^3
#
#
#
# Elastic Constant Matrix: (Units=GPa)
#
#
# Indices 1 2 3 4 5 6 
#
# 1 111.7853 54.9179 31.0744 0.0000 -17.1056 0.0000
# 2 54.9179 43.9143 36.7231 0.0000 -6.8977 0.0000
# 3 31.0744 36.7231 80.4315 0.0000 -13.5715 0.0000
# 4 0.0000 0.0000 0.0000 43.8368 0.0000 39.2435
# 5 -17.1056 -6.8977 -13.5715 0.0000 31.4992 0.0000
# 6 0.0000 0.0000 0.0000 39.2435 0.0000 165.2734
#
#
#
# Elastic Compliance Matrix: (Units=1/GPa)
#
#
# Indices 1 2 3 4 5 6 
#
# 1 0.028845 -0.043001 0.010292 0.000000 0.010682 0.000000
# 2 -0.043001 0.100964 -0.032022 0.000000 -0.015040 0.000000
# 3 0.010292 -0.032022 0.024628 0.000000 0.009188 0.000000
# 4 0.000000 0.000000 0.000000 0.028970 0.000000 -0.006879
# 5 0.010682 -0.015040 0.009188 0.000000 0.038213 0.000000
# 6 0.000000 0.000000 0.000000 -0.006879 0.000000 0.007684
#
#
# Mechanical properties :
#
#
# Convention : Reuss Voigt Hill
#
# Bulk Modulus (GPa) = 40.04312 53.50686 46.77499
# Shear Modulus (GPa) = 13.62060 55.68292 34.65176
#
# Velocity S-wave (km/s) = 2.73047 5.52078 4.35514
# Velocity P-wave (km/s) = 5.64437 8.36220 7.13391
#
# Compressibility (1/GPa) = 0.02497308
#
# Stress axis : x y z
#
# Youngs Moduli (GPa) = 34.66784 9.90454 40.60496
#
# Poissons Ratio (x) = 0.42591 -0.41789
# Poissons Ratio (y) = 1.49077 1.30025
# Poissons Ratio (z) = -0.35679 0.31716
#
# Static dielectric constant tensor:
#      x y z
#    x 1.632370 0.000000 0.065540 
#    y 0.000000 1.650870 0.000000 
#    z 0.065540 0.000000 1.390830 
# 
# From -- ./inp_files/172196.got.cif
#   From: 2010.05.17/outbox.cif.g08.bks.cpg/sg12_87_cif.got.tgz:172196.got - 2010.06.03 13:09:07.
