data_PCOD9185094
_publ_section_title
;
Structure prediction by ZEFSAII (Michael W. Deem and Ramdas Pophale) SiO2 
 PCOD9185094
Probable space group: C 2/M
;
_chemical_formula_sum "Si O2"
_cell_formula_units_Z 20
_cell_length_a 5.408737
_cell_length_b 19.510342
_cell_length_c 9.440003
_cell_angle_alpha 90.000000
_cell_angle_beta 69.203015
_cell_angle_gamma 90.000000
_cell_volume 931.262664
_symmetry_space_group_name_H-M "C 2/M"
_symmetry_group_IT_number 12
_symmetry_cell_setting 'monoclinic'
loop_
_space_group_symop_operation_xyz
x,y,z
-x,y,-z
-x,-y,-z
x,-y,z
1/2+x,1/2+y,z
1/2-x,1/2+y,-z
1/2-x,1/2-y,-z
1/2+x,1/2-y,z
loop_
_atom_site_type_symbol
_atom_site_label
_atom_site_fract_x
_atom_site_fract_y
_atom_site_fract_z
Si Si1 0.252816 0.575200 0.849032
Si Si2 0.600570 0.722697 0.173215
Si Si3 0.687887 0.000000 0.596528
O O1 0.374598 0.500000 0.857845
O O2 0.433686 0.641054 0.828433
O O3 0.148677 0.564480 0.709980
O O4 0.000000 0.585241 0.000000
O O5 0.321714 0.759633 0.244095
O O6 0.750000 0.750000 0.000000
O O7 0.500000 0.000000 0.500000
O O8 0.000000 0.000000 0.500000
#
# Coordination Sequence:
#
# PCOD9185094 Si02
#       3
#     8   8   4
#     4   9  19  39  63  96 113 157 211 252 288 357
#     4  10  19  34  55  89 124 148 184 252 310 337
#     4  10  23  42  59  86 124 162 196 250 301 352
#
# _framework density 21.476216000000001
#
# number of rings (size 3 to 8) (size 9 to 14) (size 15 to 20)
#    1.200    1.200    4.000    0.000    0.000    3.200 
#    0.000    6.000    0.000    7.200    0.000    0.000 
#    0.000    0.000    0.000    0.000    0.000    0.000 
#
# Total GULP energy -55680.404500 kJ/mol
# GULP energy per Si atom -5568.040450 kJ/mol
# Density = 2.142734 g / cm^3
# Si number density = 21.476216 Si / 1000 Ang^3
#
#
#
# Elastic Constant Matrix: (Units=GPa)
#
#
# Indices 1 2 3 4 5 6 
#
# 1 129.7237 20.1587 31.6094 0.0000 2.5836 0.0000
# 2 20.1587 153.9597 -12.0422 0.0000 -0.3418 0.0000
# 3 31.6094 -12.0422 93.3331 0.0000 13.7477 0.0000
# 4 0.0000 0.0000 0.0000 -3.6517 0.0000 10.7523
# 5 2.5836 -0.3418 13.7477 0.0000 19.8562 0.0000
# 6 0.0000 0.0000 0.0000 10.7523 0.0000 18.6366
#
#
#
# Elastic Compliance Matrix: (Units=1/GPa)
#
#
# Indices 1 2 3 4 5 6 
#
# 1 0.008706 -0.001395 -0.003294 0.000000 0.001124 0.000000
# 2 -0.001395 0.006790 0.001453 0.000000 -0.000707 0.000000
# 3 -0.003294 0.001453 0.013308 0.000000 -0.008760 0.000000
# 4 0.000000 0.000000 0.000000 -0.101470 0.000000 0.058543
# 5 0.001124 -0.000707 -0.008760 0.000000 0.056269 0.000000
# 6 0.000000 0.000000 0.000000 0.058543 0.000000 0.019882
#
#
# Mechanical properties :
#
#
# Convention : Reuss Voigt Hill
#
# Bulk Modulus (GPa) = 44.78111 50.71870 47.74991
# Shear Modulus (GPa) = 287.34492 29.45426 158.39959
#
# Velocity S-wave (km/s) = 11.57961 3.70737 8.59744
# Velocity P-wave (km/s) = 14.13081 6.48025 10.99258
#
# Compressibility (1/GPa) = 0.02233084
#
# Stress axis : x y z
#
# Youngs Moduli (GPa) = 114.86711 147.27715 75.14462
#
# Poissons Ratio (x) = 0.20546 0.24752
# Poissons Ratio (y) = 0.16024 -0.10916
# Poissons Ratio (z) = 0.37836 -0.21395
#
# Static dielectric constant tensor:
#      x y z
#    x 1.963700 0.000000 0.073360 
#    y 0.000000 1.806740 0.000000 
#    z 0.073360 0.000000 1.812850 
# 
# From -- ./inp_files/32983.got.cif
#   From: 2010.05.17/outbox.cif.g08.bks.cpg/sg12_17_cif.got.tgz:32983.got - 2010.06.03 13:09:07.
