data_PCOD9185268
_publ_section_title
;
Structure prediction by ZEFSAII (Michael W. Deem and Ramdas Pophale) SiO2 
 PCOD9185268
Probable space group: C 2/M
;
_chemical_formula_sum "Si O2"
_cell_formula_units_Z 52
_cell_length_a 19.876544
_cell_length_b 7.754131
_cell_length_c 13.206806
_cell_angle_alpha 90.000000
_cell_angle_beta 107.413958
_cell_angle_gamma 90.000000
_cell_volume 1942.210974
_symmetry_space_group_name_H-M "C 2/M"
_symmetry_group_IT_number 12
_symmetry_cell_setting 'monoclinic'
loop_
_space_group_symop_operation_xyz
x,y,z
-x,y,-z
-x,-y,-z
x,-y,z
1/2+x,1/2+y,z
1/2-x,1/2+y,-z
1/2-x,1/2-y,-z
1/2+x,1/2-y,z
loop_
_atom_site_type_symbol
_atom_site_label
_atom_site_fract_x
_atom_site_fract_y
_atom_site_fract_z
Si Si1 0.913697 0.806020 0.880197
Si Si2 0.217773 0.305717 0.091133
Si Si3 0.161782 0.303770 0.734629
Si Si4 0.676811 0.706785 0.367436
Si Si5 0.540208 0.291200 0.418182
Si Si6 0.294832 0.500000 0.378560
Si Si7 0.456801 0.801187 0.177493
O O1 0.866666 0.700812 0.938340
O O2 0.871900 0.775817 0.755229
O O3 0.995136 0.782768 0.887165
O O4 0.902937 0.000000 0.907920
O O5 0.239067 0.500000 0.127520
O O6 0.256661 0.192499 0.193223
O O7 0.250000 0.250000 0.000000
O O8 0.141172 0.500000 0.697576
O O9 0.155039 0.152386 0.651305
O O10 0.120016 0.248474 0.818249
O O11 0.695144 0.500000 0.386168
O O12 0.622033 0.749453 0.433224
O O13 0.738882 0.845335 0.389662
O O14 0.500000 0.229423 0.500000
O O15 0.537182 0.500000 0.414439
O O16 0.498678 0.222950 0.301988
O O17 0.454563 0.000000 0.149555
#
# Coordination Sequence:
#
# PCOD9185268 Si02
#       7
#     8   8   8   8   8   4   8
#     4  10  19  34  56  82 112 147 192 238 278 340
#     4  12  23  38  60  87 117 153 193 238 289 341
#     4  11  23  39  57  87 118 150 195 242 286 345
#     4   9  18  32  53  86 112 142 194 242 282 337
#     4   9  19  35  57  87 117 150 189 242 293 344
#     4  12  20  32  61  82 110 155 194 238 288 338
#     4  10  22  36  58  87 115 149 190 240 289 339
#
# _framework density 26.773612
#
# number of rings (size 3 to 8) (size 9 to 14) (size 15 to 20)
#    0.000    1.692    2.308    3.692    6.462    0.308 
#    0.000    0.769    0.000    5.538    0.000    0.000 
#    0.000    0.000    0.000    0.000    0.000    0.000 
#
# Total GULP energy -145029.319761 kJ/mol
# GULP energy per Si atom -5578.050760 kJ/mol
# Density = 2.671267 g / cm^3
# Si number density = 26.773612 Si / 1000 Ang^3
#
#
#
# Elastic Constant Matrix: (Units=GPa)
#
#
# Indices 1 2 3 4 5 6 
#
# 1 160.6967 53.2321 40.1627 0.0000 -40.5686 0.0000
# 2 53.2321 140.2498 26.3274 0.0000 -32.6188 0.0000
# 3 40.1627 26.3274 97.0227 0.0000 -25.7677 0.0000
# 4 0.0000 0.0000 0.0000 18.9303 0.0000 -12.0594
# 5 -40.5686 -32.6188 -25.7677 0.0000 50.9754 0.0000
# 6 0.0000 0.0000 0.0000 -12.0594 0.0000 38.4500
#
#
#
# Elastic Compliance Matrix: (Units=1/GPa)
#
#
# Indices 1 2 3 4 5 6 
#
# 1 0.008436 -0.001782 -0.001765 0.000000 0.004681 0.000000
# 2 -0.001782 0.008835 -0.000618 0.000000 0.003923 0.000000
# 3 -0.001765 -0.000618 0.012391 0.000000 0.004463 0.000000
# 4 0.000000 0.000000 0.000000 0.066015 0.000000 0.020705
# 5 0.004681 0.003923 0.004463 0.000000 0.028109 0.000000
# 6 0.000000 0.000000 0.000000 0.020705 0.000000 0.032502
#
#
# Mechanical properties :
#
#
# Convention : Reuss Voigt Hill
#
# Bulk Modulus (GPa) = 46.87915 70.82374 58.85145
# Shear Modulus (GPa) = 29.11571 40.22092 34.66832
#
# Velocity S-wave (km/s) = 3.30127 3.88010 3.60233
# Velocity P-wave (km/s) = 5.66380 6.82524 6.27146
#
# Compressibility (1/GPa) = 0.02133144
#
# Stress axis : x y z
#
# Youngs Moduli (GPa) = 118.53690 113.18875 80.70615
#
# Poissons Ratio (x) = 0.20168 0.14248
# Poissons Ratio (y) = 0.21121 0.04987
# Poissons Ratio (z) = 0.20926 0.06994
#
# Static dielectric constant tensor:
#      x y z
#    x 2.109650 0.000000 -0.005370 
#    y 0.000000 1.951940 0.000000 
#    z -0.005370 0.000000 2.243050 
# 
# From -- ./inp_files/230217.got.cif
#   From: 2010.05.17/outbox.cif.g08.bks.cpg/sg12_116_cif.got.tgz:230217.got - 2010.06.03 13:09:07.
