data_PCOD9185614
_publ_section_title
;
Structure prediction by ZEFSAII (Michael W. Deem and Ramdas Pophale) SiO2 
 PCOD9185614
Probable space group: C 2/M
;
_chemical_formula_sum "Si O2"
_cell_formula_units_Z 48
_cell_length_a 12.594601
_cell_length_b 13.266261
_cell_length_c 22.465177
_cell_angle_alpha 90.000000
_cell_angle_beta 143.043533
_cell_angle_gamma 90.000000
_cell_volume 2256.667546
_symmetry_space_group_name_H-M "C 2/M"
_symmetry_group_IT_number 12
_symmetry_cell_setting 'monoclinic'
loop_
_space_group_symop_operation_xyz
x,y,z
-x,y,-z
-x,-y,-z
x,-y,z
1/2+x,1/2+y,z
1/2-x,1/2+y,-z
1/2-x,1/2-y,-z
1/2+x,1/2-y,z
loop_
_atom_site_type_symbol
_atom_site_label
_atom_site_fract_x
_atom_site_fract_y
_atom_site_fract_z
Si Si1 0.497044 0.316936 0.775667
Si Si2 0.749111 0.884468 0.771451
Si Si3 0.146655 0.321685 0.115973
Si Si4 0.402251 0.386892 0.396956
Si Si5 0.515523 0.892328 0.182845
Si Si6 0.074132 0.744032 0.382825
O O1 0.365448 0.368831 0.763286
O O2 0.674520 0.368745 0.831530
O O3 0.570254 0.213756 0.839172
O O4 0.396582 0.285687 0.670177
O O5 0.812373 0.793006 0.842629
O O6 0.540078 0.858830 0.669348
O O7 0.770976 0.000000 0.801155
O O8 0.079360 0.381605 0.143571
O O9 0.000000 0.319968 0.000000
O O10 0.500000 0.348542 0.500000
O O11 0.472195 0.500000 0.418924
O O12 0.191215 0.393438 0.303010
O O13 0.444325 0.318817 0.359782
O O14 0.422471 0.000000 0.149315
O O15 0.250000 0.750000 0.500000
#
# Coordination Sequence:
#
# PCOD9185614 Si02
#       6
#     8   8   8   8   8   8
#     4  10  20  39  59  86 117 162 196 251 304 358
#     4  10  23  41  59  88 124 160 204 251 304 365
#     4  10  22  41  63  89 121 159 204 254 311 367
#     4  10  19  34  57  84 114 150 196 242 289 350
#     4  10  20  37  59  86 118 152 198 250 299 357
#     4  11  22  36  61  85 123 161 201 245 303 355
#
# _framework density 21.270299999999999
#
# number of rings (size 3 to 8) (size 9 to 14) (size 15 to 20)
#    0.000    1.833    5.000    1.000    0.000    8.000 
#    0.000    2.500    0.000    0.000    0.000    0.000 
#    0.000    0.000    0.000    0.000    0.000    0.000 
#
# Total GULP energy -133803.909484 kJ/mol
# GULP energy per Si atom -5575.162895 kJ/mol
# Density = 2.122189 g / cm^3
# Si number density = 21.270300 Si / 1000 Ang^3
#
#
#
# Elastic Constant Matrix: (Units=GPa)
#
#
# Indices 1 2 3 4 5 6 
#
# 1 94.6265 2.0997 19.0043 0.0000 -11.0147 0.0000
# 2 2.0997 84.4474 -5.4804 0.0000 -6.2670 0.0000
# 3 19.0043 -5.4804 115.5527 -0.0001 -11.5055 0.0000
# 4 0.0000 0.0000 -0.0001 10.8531 0.0000 0.6528
# 5 -11.0147 -6.2670 -11.5055 0.0000 18.9073 0.0000
# 6 0.0000 0.0000 0.0000 0.6528 0.0000 1.3742
#
#
#
# Elastic Compliance Matrix: (Units=1/GPa)
#
#
# Indices 1 2 3 4 5 6 
#
# 1 0.011519 0.000070 -0.001299 0.000000 0.005943 0.000000
# 2 0.000070 0.012259 0.001042 0.000000 0.004738 0.000000
# 3 -0.001299 0.001042 0.009449 0.000000 0.005338 0.000000
# 4 0.000000 0.000000 0.000000 0.094850 0.000000 -0.045056
# 5 0.005943 0.004738 0.005338 0.000000 0.061171 0.000000
# 6 0.000000 0.000000 0.000000 -0.045056 0.000000 0.749122
#
#
# Mechanical properties :
#
#
# Convention : Reuss Voigt Hill
#
# Bulk Modulus (GPa) = 30.43949 36.20820 33.32384
# Shear Modulus (GPa) = 5.26485 24.82711 15.04598
#
# Velocity S-wave (km/s) = 1.57499 3.42017 2.66253
# Velocity P-wave (km/s) = 4.20111 5.71459 5.01527
#
# Compressibility (1/GPa) = 0.03285207
#
# Stress axis : x y z
#
# Youngs Moduli (GPa) = 86.81261 81.57157 105.83504
#
# Poissons Ratio (x) = -0.00574 0.13752
# Poissons Ratio (y) = -0.00610 -0.11024
# Poissons Ratio (z) = 0.11280 -0.08497
#
# Static dielectric constant tensor:
#      x y z
#    x 1.800610 0.000000 0.026280 
#    y 0.000000 1.814870 0.000000 
#    z 0.026280 0.000000 1.804180 
# 
# From -- ./inp_files/305697.got.cif
#   From: 2010.05.17/outbox.cif.g08.bks.cpg/sg12_153_cif.got.tgz:305697.got - 2010.06.03 13:09:07.
