data_PCOD9185785
_publ_section_title
;
Structure prediction by ZEFSAII (Michael W. Deem and Ramdas Pophale) SiO2 
 PCOD9185785
Probable space group: C 2/M
;
_chemical_formula_sum "Si O2"
_cell_formula_units_Z 64
_cell_length_a 20.850008
_cell_length_b 8.895629
_cell_length_c 19.587874
_cell_angle_alpha 90.000000
_cell_angle_beta 89.530557
_cell_angle_gamma 90.000000
_cell_volume 3632.918142
_symmetry_space_group_name_H-M "C 2/M"
_symmetry_group_IT_number 12
_symmetry_cell_setting 'monoclinic'
loop_
_space_group_symop_operation_xyz
x,y,z
-x,y,-z
-x,-y,-z
x,-y,z
1/2+x,1/2+y,z
1/2-x,1/2+y,-z
1/2-x,1/2-y,-z
1/2+x,1/2-y,z
loop_
_atom_site_type_symbol
_atom_site_label
_atom_site_fract_x
_atom_site_fract_y
_atom_site_fract_z
Si Si1 0.799925 0.819578 0.946457
Si Si2 0.631278 0.819079 0.577526
Si Si3 0.880664 0.179868 0.571760
Si Si4 0.756293 0.180750 0.662805
Si Si5 0.498765 0.181326 0.652017
Si Si6 0.549964 0.821229 0.201953
Si Si7 0.798450 0.321901 0.799881
Si Si8 0.051370 0.818881 0.056034
O O1 0.783760 0.761308 0.870732
O O2 0.874516 0.773743 0.959390
O O3 0.796801 0.000000 0.948912
O O4 0.750000 0.750000 0.000000
O O5 0.628766 0.743019 0.503909
O O6 0.694226 0.776363 0.619500
O O7 0.567880 0.780449 0.621055
O O8 0.632269 0.000000 0.568137
O O9 0.819597 0.220571 0.619027
O O10 0.943843 0.247861 0.605674
O O11 0.885395 0.000000 0.569490
O O12 0.759918 0.258631 0.736072
O O13 0.755606 0.000000 0.672163
O O14 0.488316 0.229160 0.730617
O O15 0.491606 0.000000 0.650391
O O16 0.625695 0.795410 0.214879
O O17 0.533922 0.741036 0.131239
O O18 0.540806 0.000000 0.193314
O O19 0.788861 0.500000 0.807875
O O20 0.050375 0.000000 0.057511
O O21 0.000000 0.767701 0.000000
#
# Coordination Sequence:
#
# PCOD9185785 Si02
#       8
#     8   8   8   8   8   8   8   8
#     4  10  20  36  58  83 114 146 181 222 265 319
#     4  10  22  38  55  76 109 145 178 222 276 327
#     4  11  22  35  56  81 107 139 182 227 270 323
#     4  10  21  37  55  79 109 143 181 223 272 323
#     4  10  20  37  57  78 106 141 181 223 270 322
#     4   9  18  33  55  81 106 137 181 223 259 314
#     4  10  19  34  58  83 108 141 183 226 266 317
#     4   9  19  36  57  81 111 144 177 218 268 318
#
# _framework density 17.616692
#
# number of rings (size 3 to 8) (size 9 to 14) (size 15 to 20)
#    0.000    2.125    1.250    1.875    0.000    4.750 
#    2.250    0.000    0.000    0.000    0.000    0.000 
#    0.000    0.000    0.000    0.000    0.000    0.000 
#
# Total GULP energy -178636.946602 kJ/mol
# GULP energy per Si atom -5582.404581 kJ/mol
# Density = 1.757660 g / cm^3
# Si number density = 17.616692 Si / 1000 Ang^3
#
#
#
# Elastic Constant Matrix: (Units=GPa)
#
#
# Indices 1 2 3 4 5 6 
#
# 1 61.8294 22.3197 42.4566 0.0000 3.0683 0.0000
# 2 22.3197 19.5032 34.4854 0.0000 -4.1578 0.0000
# 3 42.4566 34.4854 134.6514 0.0000 2.1624 0.0000
# 4 0.0000 0.0000 0.0000 36.2950 0.0000 0.4102
# 5 3.0683 -4.1578 2.1624 0.0000 31.4954 0.0000
# 6 0.0000 0.0000 0.0000 0.4102 0.0000 19.8427
#
#
#
# Elastic Compliance Matrix: (Units=1/GPa)
#
#
# Indices 1 2 3 4 5 6 
#
# 1 0.029171 -0.034551 -0.000230 0.000000 -0.007387 0.000000
# 2 -0.034551 0.141269 -0.025668 0.000000 0.023777 0.000000
# 3 -0.000230 -0.025668 0.014143 0.000000 -0.004337 0.000000
# 4 0.000000 0.000000 0.000000 0.027558 0.000000 -0.000570
# 5 -0.007387 0.023777 -0.004337 0.000000 0.035907 0.000000
# 6 0.000000 0.000000 0.000000 -0.000570 0.000000 0.050408
#
#
# Mechanical properties :
#
#
# Convention : Reuss Voigt Hill
#
# Bulk Modulus (GPa) = 15.70252 46.05636 30.87944
# Shear Modulus (GPa) = 11.34864 25.30813 18.32838
#
# Velocity S-wave (km/s) = 2.54086 3.79436 3.22902
# Velocity P-wave (km/s) = 4.18817 6.73770 5.60969
#
# Compressibility (1/GPa) = 0.06368403
#
# Stress axis : x y z
#
# Youngs Moduli (GPa) = 34.28095 7.07871 70.70828
#
# Poissons Ratio (x) = 0.24458 0.01629
# Poissons Ratio (y) = 1.18444 1.81493
# Poissons Ratio (z) = 0.00790 0.18170
#
# Static dielectric constant tensor:
#      x y z
#    x 1.589230 0.000000 -0.005630 
#    y 0.000000 1.590960 0.000000 
#    z -0.005630 0.000000 1.570640 
# 
# From -- ./inp_files/281324.got.cif
#   From: 2010.05.17/outbox.cif.g08.bks.cpg/sg12_141_cif.got.tgz:281324.got - 2010.06.03 13:09:07.
