data_PCOD9185323
_publ_section_title
;
Structure prediction by ZEFSAII (Michael W. Deem and Ramdas Pophale) SiO2 
 PCOD9185323
Probable space group: C 2/M
;
_chemical_formula_sum "Si O2"
_cell_formula_units_Z 56
_cell_length_a 20.240180
_cell_length_b 21.560138
_cell_length_c 15.814593
_cell_angle_alpha 90.000000
_cell_angle_beta 24.375455
_cell_angle_gamma 90.000000
_cell_volume 2848.219165
_symmetry_space_group_name_H-M "C 2/M"
_symmetry_group_IT_number 12
_symmetry_cell_setting 'monoclinic'
loop_
_space_group_symop_operation_xyz
x,y,z
-x,y,-z
-x,-y,-z
x,-y,z
1/2+x,1/2+y,z
1/2-x,1/2+y,-z
1/2-x,1/2-y,-z
1/2+x,1/2-y,z
loop_
_atom_site_type_symbol
_atom_site_label
_atom_site_fract_x
_atom_site_fract_y
_atom_site_fract_z
Si Si1 0.348008 0.425682 0.240213
Si Si2 0.289822 0.069217 0.902031
Si Si3 0.932510 0.853351 0.492620
Si Si4 0.824757 0.358597 0.692596
Si Si5 0.593797 0.569754 0.637055
Si Si6 0.224227 0.688321 0.975652
Si Si7 0.148100 0.732723 0.890619
O O1 0.327851 0.500000 0.264529
O O2 0.202195 0.390874 0.365756
O O3 0.369402 0.404355 0.312068
O O4 0.500000 0.413999 0.000000
O O5 0.308824 0.088671 0.782377
O O6 0.356672 0.000000 0.840937
O O7 0.341355 0.128646 0.897294
O O8 0.099177 0.065808 0.140026
O O9 0.859396 0.894028 0.502094
O O10 0.801220 0.802767 0.672432
O O11 0.000000 0.886073 0.500000
O O12 0.095167 0.825205 0.265738
O O13 0.698308 0.303629 0.849527
O O14 0.000000 0.330635 0.500000
O O15 0.659387 0.500000 0.557043
O O16 0.118865 0.701949 0.015846
O O17 0.250000 0.750000 0.000000
O O18 0.000000 0.729613 0.000000
#
# Coordination Sequence:
#
# PCOD9185323 Si02
#       7
#     8   8   8   8   8   8   8
#     4  10  19  34  56  83 122 161 194 237 295 366
#     4  10  20  35  61  91 121 157 202 244 296 362
#     4   9  20  38  60  86 117 153 204 253 297 355
#     4  12  23  36  58  84 121 159 201 245 306 362
#     4   9  18  35  61  90 117 153 201 248 298 359
#     4  10  19  38  65  87 121 161 199 252 301 355
#     4  11  24  41  60  86 118 158 206 254 307 362
#
# _framework density 19.661408999999999
#
# number of rings (size 3 to 8) (size 9 to 14) (size 15 to 20)
#    0.000    1.857    2.857    2.143    0.000    1.429 
#    2.571    3.571    0.000    0.857    0.000    0.000 
#    0.000    0.000    0.000    0.000    0.000    0.000 
#
# Total GULP energy -156116.849278 kJ/mol
# GULP energy per Si atom -5575.601760 kJ/mol
# Density = 1.961666 g / cm^3
# Si number density = 19.661409 Si / 1000 Ang^3
#
#
#
# Elastic Constant Matrix: (Units=GPa)
#
#
# Indices 1 2 3 4 5 6 
#
# 1 169.1106 76.5899 26.2355 0.0009 10.6269 -0.0180
# 2 76.5899 106.4637 12.7473 -0.0104 13.8632 -0.0266
# 3 26.2355 12.7473 25.3568 -0.0134 4.3215 -0.0025
# 4 0.0009 -0.0104 -0.0134 12.4383 0.0028 4.9477
# 5 10.6269 13.8632 4.3215 0.0028 33.5331 0.0067
# 6 -0.0180 -0.0266 -0.0025 4.9477 0.0067 33.5710
#
#
#
# Elastic Compliance Matrix: (Units=1/GPa)
#
#
# Indices 1 2 3 4 5 6 
#
# 1 0.009829 -0.006274 -0.007082 -0.000014 0.000392 0.000002
# 2 -0.006274 0.014434 -0.000089 0.000010 -0.003967 0.000007
# 3 -0.007082 -0.000089 0.047463 0.000056 -0.003836 -0.000008
# 4 -0.000014 0.000010 0.000056 0.085403 -0.000011 -0.012587
# 5 0.000392 -0.003967 -0.003836 -0.000011 0.031832 -0.000008
# 6 0.000002 0.000007 -0.000008 -0.012587 -0.000008 0.031643
#
#
# Mechanical properties :
#
#
# Convention : Reuss Voigt Hill
#
# Bulk Modulus (GPa) = 22.30344 59.11962 40.71153
# Shear Modulus (GPa) = 19.05213 28.26569 23.65891
#
# Velocity S-wave (km/s) = 3.11627 3.79571 3.47265
# Velocity P-wave (km/s) = 4.93119 7.02453 6.06880
#
# Compressibility (1/GPa) = 0.04483614
#
# Stress axis : x y z
#
# Youngs Moduli (GPa) = 101.74161 69.28319 21.06904
#
# Poissons Ratio (x) = 0.43467 0.14921
# Poissons Ratio (y) = 0.63831 0.00187
# Poissons Ratio (z) = 0.72055 0.00614
#
# Static dielectric constant tensor:
#      x y z
#    x 1.731010 -0.000010 0.004510 
#    y -0.000010 1.712640 0.000010 
#    z 0.004510 0.000010 1.703680 
# 
# From -- ./inp_files/227586.got.cif
#   From: 2010.05.17/outbox.cif.g08.bks.cpg/sg12_114_cif.got.tgz:227586.got - 2010.06.03 13:09:07.
