data_PCOD9185089
_publ_section_title
;
Structure prediction by ZEFSAII (Michael W. Deem and Ramdas Pophale) SiO2 
 PCOD9185089
Probable space group: C 2/M
;
_chemical_formula_sum "Si O2"
_cell_formula_units_Z 64
_cell_length_a 30.787959
_cell_length_b 17.630238
_cell_length_c 12.682624
_cell_angle_alpha 90.000000
_cell_angle_beta 150.775787
_cell_angle_gamma 90.000000
_cell_volume 3361.021787
_symmetry_space_group_name_H-M "C 2/M"
_symmetry_group_IT_number 12
_symmetry_cell_setting 'monoclinic'
loop_
_space_group_symop_operation_xyz
x,y,z
-x,y,-z
-x,-y,-z
x,-y,z
1/2+x,1/2+y,z
1/2-x,1/2+y,-z
1/2-x,1/2-y,-z
1/2+x,1/2-y,z
loop_
_atom_site_type_symbol
_atom_site_label
_atom_site_fract_x
_atom_site_fract_y
_atom_site_fract_z
Si Si1 0.295199 0.413220 0.671209
Si Si2 0.962745 0.848253 0.310769
Si Si3 0.782806 0.088890 0.012654
Si Si4 0.110526 0.218892 0.034297
Si Si5 0.708715 0.310638 0.543274
Si Si6 0.147421 0.091319 0.614766
Si Si7 0.650950 0.087458 0.552948
Si Si8 0.452987 0.194587 0.801923
O O1 0.317215 0.500000 0.693185
O O2 0.371379 0.367631 0.893747
O O3 0.278109 0.365137 0.529448
O O4 0.214358 0.412971 0.583496
O O5 0.000000 0.819171 0.500000
O O6 0.044789 0.889074 0.425964
O O7 0.879236 0.901400 0.162665
O O8 0.922319 0.782338 0.154448
O O9 0.708037 0.119200 0.773033
O O10 0.763861 0.000000 0.980032
O O11 0.795462 0.115828 0.159985
O O12 0.199987 0.266535 0.239516
O O13 0.030634 0.249065 0.933744
O O14 0.677493 0.360966 0.576761
O O15 0.633959 0.246481 0.360973
O O16 0.156230 0.000000 0.619151
O O17 0.570920 0.139893 0.345551
O O18 0.625694 0.000000 0.519907
O O19 0.500000 0.152194 0.000000
#
# Coordination Sequence:
#
# PCOD9185089 Si02
#       8
#     8   8   8   8   8   8   8   8
#     4  11  22  38  63  89 115 152 198 244 290 347
#     4  10  19  34  55  88 117 151 198 246 292 346
#     4   9  17  34  60  87 117 153 194 247 297 338
#     4  12  23  40  60  87 122 160 192 239 301 350
#     4  12  23  41  58  86 125 159 192 235 298 359
#     4  10  21  36  58  88 121 157 195 240 296 355
#     4  10  21  39  63  88 113 151 205 250 284 337
#     4  12  23  39  60  86 119 157 195 236 300 353
#
# _framework density 19.041829
#
# number of rings (size 3 to 8) (size 9 to 14) (size 15 to 20)
#    0.000    1.250    5.000    1.875    0.000    2.250 
#    2.250    3.750    0.000    0.000    0.000    2.625 
#    0.000    0.000    0.000    0.000    0.000    0.000 
#
# Total GULP energy -178458.791570 kJ/mol
# GULP energy per Si atom -5576.837237 kJ/mol
# Density = 1.899849 g / cm^3
# Si number density = 19.041829 Si / 1000 Ang^3
#
#
#
# Elastic Constant Matrix: (Units=GPa)
#
#
# Indices 1 2 3 4 5 6 
#
# 1 50.9792 8.2074 21.4028 0.0000 -17.7157 0.0000
# 2 8.2074 60.4205 35.6376 0.0000 -6.2865 0.0000
# 3 21.4028 35.6376 126.6677 0.0000 -22.7170 0.0000
# 4 0.0000 0.0000 0.0000 22.6309 0.0000 -13.3013
# 5 -17.7157 -6.2865 -22.7170 0.0000 37.1658 0.0000
# 6 0.0000 0.0000 0.0000 -13.3013 0.0000 14.3512
#
#
#
# Elastic Compliance Matrix: (Units=1/GPa)
#
#
# Indices 1 2 3 4 5 6 
#
# 1 0.024129 -0.001068 -0.001961 0.000000 0.010122 0.000000
# 2 -0.001068 0.019891 -0.005507 0.000000 -0.000511 0.000000
# 3 -0.001961 -0.005507 0.010603 0.000000 0.004615 0.000000
# 4 0.000000 0.000000 0.000000 0.097063 0.000000 0.089963
# 5 0.010122 -0.000511 0.004615 0.000000 0.034465 0.000000
# 6 0.000000 0.000000 0.000000 0.089963 0.000000 0.153063
#
#
# Mechanical properties :
#
#
# Convention : Reuss Voigt Hill
#
# Bulk Modulus (GPa) = 26.63116 40.95143 33.79129
# Shear Modulus (GPa) = 13.55734 26.35088 19.95411
#
# Velocity S-wave (km/s) = 2.67118 3.72404 3.24065
# Velocity P-wave (km/s) = 4.85073 6.32803 5.63798
#
# Compressibility (1/GPa) = 0.03755000
#
# Stress axis : x y z
#
# Youngs Moduli (GPa) = 41.44458 50.27391 94.31133
#
# Poissons Ratio (x) = 0.05367 0.18497
# Poissons Ratio (y) = 0.04425 0.51942
# Poissons Ratio (z) = 0.08128 0.27688
#
# Static dielectric constant tensor:
#      x y z
#    x 1.699600 0.000000 -0.046730 
#    y 0.000000 1.667700 0.000000 
#    z -0.046730 0.000000 1.702300 
# 
# From -- ./inp_files/190074.got.cif
#   From: 2010.05.17/outbox.cif.g08.bks.cpg/sg12_96_cif.got.tgz:190074.got - 2010.06.03 13:09:07.
