data_PCOD9185228
_publ_section_title
;
Structure prediction by ZEFSAII (Michael W. Deem and Ramdas Pophale) SiO2 
 PCOD9185228
Probable space group: C 2/M
;
_chemical_formula_sum "Si O2"
_cell_formula_units_Z 40
_cell_length_a 14.577953
_cell_length_b 17.709653
_cell_length_c 12.397530
_cell_angle_alpha 90.000000
_cell_angle_beta 46.108090
_cell_angle_gamma 90.000000
_cell_volume 2306.564270
_symmetry_space_group_name_H-M "C 2/M"
_symmetry_group_IT_number 12
_symmetry_cell_setting 'monoclinic'
loop_
_space_group_symop_operation_xyz
x,y,z
-x,y,-z
-x,-y,-z
x,-y,z
1/2+x,1/2+y,z
1/2-x,1/2+y,-z
1/2-x,1/2-y,-z
1/2+x,1/2-y,z
loop_
_atom_site_type_symbol
_atom_site_label
_atom_site_fract_x
_atom_site_fract_y
_atom_site_fract_z
Si Si1 0.458539 0.279802 0.332287
Si Si2 0.704029 0.804766 0.133901
Si Si3 0.844535 0.913596 0.879687
Si Si4 0.257168 0.765021 0.323722
Si Si5 0.854926 0.416069 0.154572
O O1 0.552321 0.207151 0.251879
O O2 0.546150 0.354361 0.246178
O O3 0.355465 0.278265 0.320695
O O4 0.378255 0.273884 0.507327
O O5 0.746146 0.773805 0.215929
O O6 0.750000 0.750000 0.000000
O O7 0.772279 0.882379 0.045199
O O8 0.737359 0.912666 0.873793
O O9 0.889337 0.000000 0.855340
O O10 0.312325 0.848743 0.264747
O O11 0.843751 0.500000 0.211538
O O12 0.000000 0.404822 0.000000
#
# Coordination Sequence:
#
# PCOD9185228 Si02
#       5
#     8   8   8   8   8
#     4  10  22  36  55  84 112 151 189 232 274 337
#     4  10  19  34  56  81 109 145 185 232 275 331
#     4  10  21  37  57  85 114 148 187 233 287 330
#     4  11  21  35  57  82 114 149 190 230 283 327
#     4  10  20  33  54  83 113 143 181 234 287 330
#
# _framework density 17.341809000000001
#
# number of rings (size 3 to 8) (size 9 to 14) (size 15 to 20)
#    0.000    1.800    4.000    1.800    2.800    0.800 
#    0.000    4.000    0.000    4.800    0.000    0.000 
#    0.000    0.000    0.000    0.000    0.000    0.000 
#
# Total GULP energy -111448.990402 kJ/mol
# GULP energy per Si atom -5572.449520 kJ/mol
# Density = 1.730234 g / cm^3
# Si number density = 17.341809 Si / 1000 Ang^3
#
#
#
# Elastic Constant Matrix: (Units=GPa)
#
#
# Indices 1 2 3 4 5 6 
#
# 1 83.3818 21.6010 41.1973 0.0000 -3.4312 0.0000
# 2 21.6010 77.3831 49.8405 0.0000 -9.5265 0.0000
# 3 41.1973 49.8405 78.2532 0.0000 -8.6358 -0.0001
# 4 0.0000 0.0000 0.0000 20.0167 0.0000 -7.6270
# 5 -3.4312 -9.5265 -8.6358 0.0000 32.4254 0.0000
# 6 0.0000 0.0000 -0.0001 -7.6270 0.0000 18.0708
#
#
#
# Elastic Compliance Matrix: (Units=1/GPa)
#
#
# Indices 1 2 3 4 5 6 
#
# 1 0.016338 0.001628 -0.009679 0.000000 -0.000371 0.000000
# 2 0.001628 0.022323 -0.014766 0.000000 0.002798 0.000000
# 3 -0.009679 -0.014766 0.027496 0.000000 0.001960 0.000000
# 4 0.000000 0.000000 0.000000 0.059532 0.000000 0.025126
# 5 -0.000371 0.002798 0.001960 0.000000 0.032145 0.000000
# 6 0.000000 0.000000 0.000000 0.025126 0.000000 0.065943
#
#
# Mechanical properties :
#
#
# Convention : Reuss Voigt Hill
#
# Bulk Modulus (GPa) = 48.72738 51.58840 50.15789
# Shear Modulus (GPa) = 18.09933 22.52788 20.31361
#
# Velocity S-wave (km/s) = 3.23411 3.60814 3.42624
# Velocity P-wave (km/s) = 6.48885 6.86810 6.68117
#
# Compressibility (1/GPa) = 0.02052234
#
# Stress axis : x y z
#
# Youngs Moduli (GPa) = 61.20570 44.79621 36.36922
#
# Poissons Ratio (x) = -0.07291 0.35202
# Poissons Ratio (y) = -0.09962 0.53703
# Poissons Ratio (z) = 0.59242 0.66147
#
# Static dielectric constant tensor:
#      x y z
#    x 1.603870 0.000000 -0.006280 
#    y 0.000000 1.631180 0.000000 
#    z -0.006280 0.000000 1.601170 
# 
# From -- ./inp_files/145281.got.cif
#   From: 2010.05.17/outbox.cif.g08.bks.cpg/sg12_73_cif.got.tgz:145281.got - 2010.06.03 13:09:07.
