data_PCOD9185817
_publ_section_title
;
Structure prediction by ZEFSAII (Michael W. Deem and Ramdas Pophale) SiO2 
 PCOD9185817
Probable space group: C 2/M
;
_chemical_formula_sum "Si O2"
_cell_formula_units_Z 64
_cell_length_a 19.619743
_cell_length_b 10.555704
_cell_length_c 19.764439
_cell_angle_alpha 90.000000
_cell_angle_beta 128.866171
_cell_angle_gamma 90.000000
_cell_volume 3187.036921
_symmetry_space_group_name_H-M "C 2/M"
_symmetry_group_IT_number 12
_symmetry_cell_setting 'monoclinic'
loop_
_space_group_symop_operation_xyz
x,y,z
-x,y,-z
-x,-y,-z
x,-y,z
1/2+x,1/2+y,z
1/2-x,1/2+y,-z
1/2-x,1/2-y,-z
1/2+x,1/2-y,z
loop_
_atom_site_type_symbol
_atom_site_label
_atom_site_fract_x
_atom_site_fract_y
_atom_site_fract_z
Si Si1 0.065470 0.139531 0.145247
Si Si2 0.815303 0.643549 0.127412
Si Si3 0.394934 0.648087 0.670863
Si Si4 0.631185 0.719433 0.967635
Si Si5 0.296067 0.153166 0.412389
Si Si6 0.895483 0.635433 0.922695
Si Si7 0.338665 0.850808 0.292674
Si Si8 0.540684 0.851204 0.391252
O O1 0.082888 0.150752 0.235705
O O2 0.114661 0.247191 0.133904
O O3 0.960671 0.155029 0.071307
O O4 0.092725 0.000000 0.138900
O O5 0.851473 0.500000 0.152571
O O6 0.868999 0.729562 0.108684
O O7 0.813605 0.697431 0.202511
O O8 0.717676 0.639558 0.035923
O O9 0.405548 0.500000 0.655415
O O10 0.292670 0.687476 0.604215
O O11 0.449645 0.750538 0.663162
O O12 0.642109 0.835587 0.026880
O O13 0.299222 0.203362 0.337329
O O14 0.383802 0.182926 0.507965
O O15 0.293446 0.000000 0.405502
O O16 0.865064 0.500000 0.876934
O O17 0.000000 0.628344 0.000000
O O18 0.444005 0.842471 0.362379
O O19 0.314723 0.000000 0.276161
O O20 0.552949 0.000000 0.378648
#
# Coordination Sequence:
#
# PCOD9185817 Si02
#       8
#     8   8   8   8   8   8   8   8
#     4  10  21  35  53  78 107 141 182 220 262 316
#     4  10  20  32  50  75 104 139 178 223 266 310
#     4  10  21  35  54  81 113 146 175 218 273 324
#     4  10  20  33  50  74 104 142 182 219 261 316
#     4   9  18  33  54  81 110 139 174 221 273 322
#     4   9  19  34  52  73 102 139 175 218 268 314
#     4   9  18  32  54  81 106 135 178 227 271 315
#     4  10  19  34  58  84 107 138 179 224 269 323
#
# _framework density 20.081347999999998
#
# number of rings (size 3 to 8) (size 9 to 14) (size 15 to 20)
#    0.000    2.375    0.000    2.250    1.750    5.250 
#    0.000    0.000    0.000    3.000    0.000    0.000 
#    0.000    0.000    0.000    0.000    0.000    0.000 
#
# Total GULP energy -178489.625533 kJ/mol
# GULP energy per Si atom -5577.800798 kJ/mol
# Density = 2.003564 g / cm^3
# Si number density = 20.081348 Si / 1000 Ang^3
#
#
#
# Elastic Constant Matrix: (Units=GPa)
#
#
# Indices 1 2 3 4 5 6 
#
# 1 55.8204 24.3731 0.5991 0.0000 -7.9991 0.0000
# 2 24.3731 92.9880 14.6934 0.0000 -19.0887 0.0000
# 3 0.5991 14.6934 54.6845 0.0000 -1.1306 0.0000
# 4 0.0000 0.0000 0.0000 22.0154 0.0000 -8.5512
# 5 -7.9991 -19.0887 -1.1306 0.0000 34.1202 0.0000
# 6 0.0000 0.0000 0.0000 -8.5512 0.0000 7.3973
#
#
#
# Elastic Compliance Matrix: (Units=1/GPa)
#
#
# Indices 1 2 3 4 5 6 
#
# 1 0.020427 -0.005143 0.001198 0.000000 0.001951 0.000000
# 2 -0.005143 0.014003 -0.003572 0.000000 0.006510 0.000000
# 3 0.001198 -0.003572 0.019211 0.000000 -0.001081 0.000000
# 4 0.000000 0.000000 0.000000 0.082437 0.000000 0.095297
# 5 0.001951 0.006510 -0.001081 0.000000 0.033372 0.000000
# 6 0.000000 0.000000 0.000000 0.095297 0.000000 0.245346
#
#
# Mechanical properties :
#
#
# Convention : Reuss Voigt Hill
#
# Bulk Modulus (GPa) = 25.90098 31.42491 28.66295
# Shear Modulus (GPa) = 11.29439 23.62840 17.46140
#
# Velocity S-wave (km/s) = 2.37414 3.43393 2.95198
# Velocity P-wave (km/s) = 4.52122 5.60404 5.09150
#
# Compressibility (1/GPa) = 0.03860857
#
# Stress axis : x y z
#
# Youngs Moduli (GPa) = 48.95501 71.41434 52.05382
#
# Poissons Ratio (x) = 0.36728 -0.06238
# Poissons Ratio (y) = 0.25177 0.18591
# Poissons Ratio (z) = -0.05867 0.25506
#
# Static dielectric constant tensor:
#      x y z
#    x 1.717060 0.000000 0.014950 
#    y 0.000000 1.711090 0.000000 
#    z 0.014950 0.000000 1.736560 
# 
# From -- ./inp_files/283343.got.cif
#   From: 2010.05.17/outbox.cif.g08.bks.cpg/sg12_142_cif.got.tgz:283343.got - 2010.06.03 13:09:07.
