data_PCOD9185029
_publ_section_title
;
Structure prediction by ZEFSAII (Michael W. Deem and Ramdas Pophale) SiO2 
 PCOD9185029
Probable space group: C 2/M
;
_chemical_formula_sum "Si O2"
_cell_formula_units_Z 58
_cell_length_a 18.932803
_cell_length_b 9.073277
_cell_length_c 18.688472
_cell_angle_alpha 90.000000
_cell_angle_beta 90.016615
_cell_angle_gamma 90.000000
_cell_volume 3210.353540
_symmetry_space_group_name_H-M "C 2/M"
_symmetry_group_IT_number 12
_symmetry_cell_setting 'monoclinic'
loop_
_space_group_symop_operation_xyz
x,y,z
-x,y,-z
-x,-y,-z
x,-y,z
1/2+x,1/2+y,z
1/2-x,1/2+y,-z
1/2-x,1/2-y,-z
1/2+x,1/2-y,z
loop_
_atom_site_type_symbol
_atom_site_label
_atom_site_fract_x
_atom_site_fract_y
_atom_site_fract_z
Si Si1 0.429930 0.830112 0.156067
Si Si2 0.080705 0.170929 0.982916
Si Si3 0.946292 0.161329 0.362536
Si Si4 0.284907 0.326320 0.931073
Si Si5 0.947627 0.824709 0.763754
Si Si6 0.327626 0.829607 0.293214
Si Si7 0.500000 0.500000 0.500000
Si Si8 0.296059 0.824220 0.781132
O O1 0.396626 0.772837 0.082720
O O2 0.497529 0.731533 0.176389
O O3 0.375069 0.819119 0.221154
O O4 0.451528 0.000000 0.149137
O O5 0.084804 0.000000 0.959886
O O6 0.131505 0.185124 0.050739
O O7 0.000000 0.206809 0.000000
O O8 0.011157 0.205555 0.311002
O O9 0.880372 0.269109 0.353879
O O10 0.922156 0.000000 0.332807
O O11 0.973580 0.126110 0.441558
O O12 0.266443 0.500000 0.926028
O O13 0.271414 0.243430 0.857225
O O14 0.250000 0.250000 0.000000
O O15 0.874059 0.739764 0.767279
O O16 0.935492 0.000000 0.770400
O O17 0.258230 0.734270 0.278710
O O18 0.308901 0.000000 0.304577
O O19 0.296572 0.000000 0.784393
#
# Coordination Sequence:
#
# PCOD9185029 Si02
#       8
#     8   8   8   8   8   8   2   8
#     4  10  20  33  52  76 104 135 181 238 284 331
#     4  10  21  35  50  68  94 136 182 232 286 340
#     4   8  17  34  61  90 115 148 178 219 268 329
#     4  11  23  38  54  74 105 146 196 244 296 352
#     4  10  19  34  55  82 111 145 182 228 281 339
#     4  10  20  35  55  83 113 144 185 231 276 326
#     4   8  16  36  66  96 120 148 180 214 266 336
#     4  12  24  36  54  80 111 151 193 243 292 336
#
# _framework density 18.066547
#
# number of rings (size 3 to 8) (size 9 to 14) (size 15 to 20)
#    0.414    1.517    0.000    4.552    0.000    6.897 
#    0.000    0.345    0.000    0.828    0.000    0.000 
#    0.000    0.000    0.000    0.000    0.000    0.000 
#
# Total GULP energy -161579.949990 kJ/mol
# GULP energy per Si atom -5571.722413 kJ/mol
# Density = 1.802543 g / cm^3
# Si number density = 18.066547 Si / 1000 Ang^3
#
#
#
# Elastic Constant Matrix: (Units=GPa)
#
#
# Indices 1 2 3 4 5 6 
#
# 1 71.9507 42.7139 16.5626 0.0000 18.5529 0.0000
# 2 42.7139 87.4105 32.6728 0.0000 15.5863 0.0000
# 3 16.5626 32.6728 90.4359 0.0000 22.1067 0.0000
# 4 0.0000 0.0000 0.0000 28.1585 0.0000 5.0619
# 5 18.5529 15.5863 22.1067 0.0000 12.9840 0.0000
# 6 0.0000 0.0000 0.0000 5.0619 0.0000 27.1168
#
#
#
# Elastic Compliance Matrix: (Units=1/GPa)
#
#
# Indices 1 2 3 4 5 6 
#
# 1 0.029479 -0.009621 0.009508 0.000000 -0.046762 0.000000
# 2 -0.009621 0.017849 -0.004812 0.000000 0.000515 0.000000
# 3 0.009508 -0.004812 0.022206 0.000000 -0.045617 0.000000
# 4 0.000000 0.000000 0.000000 0.036746 0.000000 -0.006859
# 5 -0.046762 0.000515 -0.045617 0.000000 0.220886 0.000000
# 6 0.000000 0.000000 0.000000 -0.006859 0.000000 0.038158
#
#
# Mechanical properties :
#
#
# Convention : Reuss Voigt Hill
#
# Bulk Modulus (GPa) = 16.75534 48.18840 32.47187
# Shear Modulus (GPa) = 12.65605 24.17503 18.41554
#
# Velocity S-wave (km/s) = 2.64961 3.66199 3.19614
# Velocity P-wave (km/s) = 4.31914 6.67913 5.62431
#
# Compressibility (1/GPa) = 0.05968246
#
# Stress axis : x y z
#
# Youngs Moduli (GPa) = 33.92242 56.02702 45.03362
#
# Poissons Ratio (x) = 0.53903 -0.42816
# Poissons Ratio (y) = 0.32636 0.21671
# Poissons Ratio (z) = -0.32252 0.26961
#
# Static dielectric constant tensor:
#      x y z
#    x 1.652870 0.000000 0.005180 
#    y 0.000000 1.620580 0.000000 
#    z 0.005180 0.000000 1.602230 
# 
# From -- ./inp_files/314324.got.cif
#   From: 2010.05.17/outbox.cif.g08.bks.cpg/sg12_158_cif.got.tgz:314324.got - 2010.06.03 13:09:07.
