data_PCOD9185522
_publ_section_title
;
Structure prediction by ZEFSAII (Michael W. Deem and Ramdas Pophale) SiO2 
 PCOD9185522
Probable space group: C 2/M
;
_chemical_formula_sum "Si O2"
_cell_formula_units_Z 48
_cell_length_a 7.844396
_cell_length_b 29.863192
_cell_length_c 14.510621
_cell_angle_alpha 90.000000
_cell_angle_beta 136.990141
_cell_angle_gamma 90.000000
_cell_volume 2318.703351
_symmetry_space_group_name_H-M "C 2/M"
_symmetry_group_IT_number 12
_symmetry_cell_setting 'monoclinic'
loop_
_space_group_symop_operation_xyz
x,y,z
-x,y,-z
-x,-y,-z
x,-y,z
1/2+x,1/2+y,z
1/2-x,1/2+y,-z
1/2-x,1/2-y,-z
1/2+x,1/2-y,z
loop_
_atom_site_type_symbol
_atom_site_label
_atom_site_fract_x
_atom_site_fract_y
_atom_site_fract_z
Si Si1 0.128861 0.201349 0.452454
Si Si2 0.232559 0.657274 0.935552
Si Si3 0.708274 0.050368 0.374705
Si Si4 0.604461 0.660716 0.810656
Si Si5 0.056301 0.639642 0.674156
Si Si6 0.052013 0.422087 0.118025
O O1 0.250000 0.250000 0.500000
O O2 0.948591 0.194436 0.293754
O O3 0.350961 0.165361 0.534009
O O4 0.000000 0.193960 0.500000
O O5 0.053150 0.662093 0.776245
O O6 0.195066 0.604810 0.946800
O O7 0.500000 0.667246 0.000000
O O8 0.238617 0.679217 0.039272
O O9 0.534353 0.088489 0.350385
O O10 0.649053 0.050722 0.242356
O O11 0.000000 0.062922 0.500000
O O12 0.672458 0.000000 0.397301
O O13 0.334648 0.645166 0.744051
O O14 0.754606 0.618544 0.827914
O O15 0.000000 0.445079 0.000000
#
# Coordination Sequence:
#
# PCOD9185522 Si02
#       6
#     8   8   8   8   8   8
#     4  12  24  38  57  83 111 142 182 225 272 326
#     4   8  16  31  55  81 106 142 182 219 267 326
#     4  10  20  34  53  78 109 146 186 226 271 323
#     4  10  19  34  57  82 110 145 182 222 272 326
#     4  10  19  36  58  80 110 146 182 225 274 322
#     4   9  17  31  53  79 107 144 182 224 273 320
#
# _framework density 20.701224
#
# number of rings (size 3 to 8) (size 9 to 14) (size 15 to 20)
#    0.000    2.167    0.000    5.000    0.000    0.333 
#    0.000    1.667    0.000   56.000    0.000    0.000 
#    0.000    0.000    0.000    0.000    0.000    0.000 
#
# Total GULP energy -133723.546717 kJ/mol
# GULP energy per Si atom -5571.814447 kJ/mol
# Density = 2.065411 g / cm^3
# Si number density = 20.701224 Si / 1000 Ang^3
#
#
#
# Elastic Constant Matrix: (Units=GPa)
#
#
# Indices 1 2 3 4 5 6 
#
# 1 96.8444 21.5280 6.3513 0.0000 -3.8575 0.0000
# 2 21.5280 57.4799 14.1121 0.0000 -5.5254 0.0000
# 3 6.3513 14.1121 98.3582 0.0000 -26.5762 0.0000
# 4 0.0000 0.0000 0.0000 -29.0048 0.0000 -15.1865
# 5 -3.8575 -5.5254 -26.5762 0.0000 31.1787 0.0000
# 6 0.0000 0.0000 0.0000 -15.1865 0.0000 11.7587
#
#
#
# Elastic Compliance Matrix: (Units=1/GPa)
#
#
# Indices 1 2 3 4 5 6 
#
# 1 0.011277 -0.004171 0.000062 0.000000 0.000709 0.000000
# 2 -0.004171 0.019615 -0.002267 0.000000 0.001027 0.000000
# 3 0.000062 -0.002267 0.013488 0.000000 0.011103 0.000000
# 4 0.000000 0.000000 0.000000 -0.020568 0.000000 -0.026564
# 5 0.000709 0.001027 0.011103 0.000000 0.041807 0.000000
# 6 0.000000 0.000000 0.000000 -0.026564 0.000000 0.050735
#
#
# Mechanical properties :
#
#
# Convention : Reuss Voigt Hill
#
# Bulk Modulus (GPa) = 31.61793 37.40724 34.51258
# Shear Modulus (GPa) = 35.80391 16.83258 26.31825
#
# Velocity S-wave (km/s) = 4.16330 2.85462 3.56945
# Velocity P-wave (km/s) = 6.19818 5.38279 5.80482
#
# Compressibility (1/GPa) = 0.03162763
#
# Stress axis : x y z
#
# Youngs Moduli (GPa) = 88.67501 50.98173 74.13853
#
# Poissons Ratio (x) = 0.21263 -0.00457
# Poissons Ratio (y) = 0.36983 0.16810
# Poissons Ratio (z) = -0.00547 0.11559
#
# Static dielectric constant tensor:
#      x y z
#    x 1.783250 0.000000 -0.032490 
#    y 0.000000 1.699480 0.000000 
#    z -0.032490 0.000000 1.802430 
# 
# From -- ./inp_files/201035.got.cif
#   From: 2010.05.17/outbox.cif.g08.bks.cpg/sg12_101_cif.got.tgz:201035.got - 2010.06.03 13:09:07.
