data_PCOD9185615
_publ_section_title
;
Structure prediction by ZEFSAII (Michael W. Deem and Ramdas Pophale) SiO2 
 PCOD9185615
Probable space group: C 2/M
;
_chemical_formula_sum "Si O2"
_cell_formula_units_Z 48
_cell_length_a 13.044439
_cell_length_b 13.650592
_cell_length_c 17.813028
_cell_angle_alpha 90.000000
_cell_angle_beta 132.052849
_cell_angle_gamma 90.000000
_cell_volume 2355.196108
_symmetry_space_group_name_H-M "C 2/M"
_symmetry_group_IT_number 12
_symmetry_cell_setting 'monoclinic'
loop_
_space_group_symop_operation_xyz
x,y,z
-x,y,-z
-x,-y,-z
x,-y,z
1/2+x,1/2+y,z
1/2-x,1/2+y,-z
1/2-x,1/2-y,-z
1/2+x,1/2-y,z
loop_
_atom_site_type_symbol
_atom_site_label
_atom_site_fract_x
_atom_site_fract_y
_atom_site_fract_z
Si Si1 0.827460 0.607796 0.832580
Si Si2 0.453070 0.610499 0.393936
Si Si3 0.119347 0.204076 0.217571
Si Si4 0.117967 0.735970 0.384315
Si Si5 0.174208 0.792622 0.890822
Si Si6 0.369398 0.114191 0.246563
O O1 0.891959 0.500000 0.864887
O O2 0.706767 0.606655 0.709210
O O3 0.914054 0.702198 0.851588
O O4 0.760068 0.634699 0.879474
O O5 0.500000 0.645401 0.500000
O O6 0.507907 0.500000 0.415563
O O7 0.517119 0.678656 0.362640
O O8 0.159154 0.244552 0.319006
O O9 0.245910 0.143934 0.243636
O O10 0.969966 0.155944 0.156598
O O11 0.250000 0.750000 0.500000
O O12 0.025854 0.638401 0.350832
O O13 0.144633 0.694604 0.826441
O O14 0.250000 0.750000 0.000000
O O15 0.357117 0.000000 0.220439
#
# Coordination Sequence:
#
# PCOD9185615 Si02
#       6
#     8   8   8   8   8   8
#     4  10  20  37  59  86 117 151 199 249 297 358
#     4  10  19  34  57  84 114 150 196 245 294 351
#     4  10  20  39  59  86 117 162 196 252 305 361
#     4  11  22  36  61  85 123 162 204 247 303 359
#     4  10  22  41  63  89 121 159 204 254 311 369
#     4  10  23  41  59  88 125 161 203 253 307 369
#
# _framework density 20.380469000000002
#
# number of rings (size 3 to 8) (size 9 to 14) (size 15 to 20)
#    0.000    1.833    5.000    1.000    0.000    8.000 
#    0.000    2.500    0.000    0.000    0.000    0.000 
#    0.000    0.000    0.000    0.000    0.000    0.000 
#
# Total GULP energy -133711.442148 kJ/mol
# GULP energy per Si atom -5571.310090 kJ/mol
# Density = 2.033408 g / cm^3
# Si number density = 20.380469 Si / 1000 Ang^3
#
#
#
# Elastic Constant Matrix: (Units=GPa)
#
#
# Indices 1 2 3 4 5 6 
#
# 1 54.8803 3.3328 21.0584 0.0000 -7.5833 0.0000
# 2 3.3328 84.2741 -8.0132 0.0000 -9.2090 0.0000
# 3 21.0584 -8.0132 85.1978 0.0000 -7.8195 0.0000
# 4 0.0000 0.0000 0.0000 14.2815 0.0000 0.7949
# 5 -7.5833 -9.2090 -7.8195 0.0000 21.4102 0.0000
# 6 0.0000 0.0000 0.0000 0.7949 0.0000 3.7652
#
#
#
# Elastic Compliance Matrix: (Units=1/GPa)
#
#
# Indices 1 2 3 4 5 6 
#
# 1 0.020813 -0.000687 -0.004718 0.000000 0.005354 0.000000
# 2 -0.000687 0.012722 0.001910 0.000000 0.005927 0.000000
# 3 -0.004718 0.001910 0.013456 0.000000 0.004065 0.000000
# 4 0.000000 0.000000 0.000000 0.070853 0.000000 -0.014958
# 5 0.005354 0.005927 0.004065 0.000000 0.052637 0.000000
# 6 0.000000 0.000000 0.000000 -0.014958 0.000000 0.268750
#
#
# Mechanical properties :
#
#
# Convention : Reuss Voigt Hill
#
# Bulk Modulus (GPa) = 24.99766 28.56759 26.78263
# Shear Modulus (GPa) = 10.88009 21.75631 16.31820
#
# Velocity S-wave (km/s) = 2.31302 3.27082 2.83270
# Velocity P-wave (km/s) = 4.40744 5.32089 4.88556
#
# Compressibility (1/GPa) = 0.04000374
#
# Stress axis : x y z
#
# Youngs Moduli (GPa) = 48.04657 78.60106 74.31502
#
# Poissons Ratio (x) = 0.05397 0.35059
# Poissons Ratio (y) = 0.03299 -0.14196
# Poissons Ratio (z) = 0.22667 -0.15015
#
# Static dielectric constant tensor:
#      x y z
#    x 1.774810 0.000000 0.065870 
#    y 0.000000 1.732570 0.000000 
#    z 0.065870 0.000000 1.839490 
# 
# From -- ./inp_files/205128.got.cif
#   From: 2010.05.17/outbox.cif.g08.bks.cpg/sg12_103_cif.got.tgz:205128.got - 2010.06.03 13:09:07.
