data_PCOD9185381
_publ_section_title
;
Structure prediction by ZEFSAII (Michael W. Deem and Ramdas Pophale) SiO2 
 PCOD9185381
Probable space group: C 2/M
;
_chemical_formula_sum "Si O2"
_cell_formula_units_Z 40
_cell_length_a 19.100058
_cell_length_b 15.635019
_cell_length_c 16.388673
_cell_angle_alpha 90.000000
_cell_angle_beta 21.275908
_cell_angle_gamma 90.000000
_cell_volume 1775.886930
_symmetry_space_group_name_H-M "C 2/M"
_symmetry_group_IT_number 12
_symmetry_cell_setting 'monoclinic'
loop_
_space_group_symop_operation_xyz
x,y,z
-x,y,-z
-x,-y,-z
x,-y,z
1/2+x,1/2+y,z
1/2-x,1/2+y,-z
1/2-x,1/2-y,-z
1/2+x,1/2-y,z
loop_
_atom_site_type_symbol
_atom_site_label
_atom_site_fract_x
_atom_site_fract_y
_atom_site_fract_z
Si Si1 0.746928 0.909332 0.603154
Si Si2 0.451490 0.899078 0.789211
Si Si3 0.763110 0.780256 0.358815
Si Si4 0.731777 0.092806 0.253960
Si Si5 0.933185 0.137251 0.867812
O O1 0.539611 0.904047 0.783927
O O2 0.785363 0.818536 0.603345
O O3 0.900142 0.911440 0.362107
O O4 0.762120 0.000000 0.632011
O O5 0.593269 0.837805 0.583283
O O6 0.447054 0.000000 0.765990
O O7 0.241477 0.857358 0.006447
O O8 0.801167 0.830511 0.234731
O O9 0.943062 0.786053 0.226335
O O10 0.500000 0.099426 0.500000
O O11 0.775446 0.000000 0.244526
O O12 0.830108 0.096905 0.058805
#
# Coordination Sequence:
#
# PCOD9185381 Si02
#       5
#     8   8   8   8   8
#     4  10  23  40  59  86 119 158 203 247 288 338
#     4  10  19  34  56  86 122 151 185 237 295 354
#     4  11  23  37  57  88 123 157 197 241 289 355
#     4  11  22  38  59  89 124 155 187 236 302 366
#     4  11  21  37  63  89 119 156 191 238 302 359
#
# _framework density 22.523955999999998
#
# number of rings (size 3 to 8) (size 9 to 14) (size 15 to 20)
#    0.000    1.400    2.000    5.400    0.000    8.000 
#    0.000    0.000    0.000    3.000    0.000    0.000 
#    0.000    0.000    0.000    0.000    0.000    0.000 
#
# Total GULP energy -111543.402778 kJ/mol
# GULP energy per Si atom -5577.170139 kJ/mol
# Density = 2.247269 g / cm^3
# Si number density = 22.523956 Si / 1000 Ang^3
#
#
#
# Elastic Constant Matrix: (Units=GPa)
#
#
# Indices 1 2 3 4 5 6 
#
# 1 40.4302 21.7948 21.2513 -0.0097 -9.2681 -0.0142
# 2 21.7948 212.5862 28.4915 -0.0238 2.9409 -0.0083
# 3 21.2513 28.4915 81.9782 -0.0162 -33.1056 0.0023
# 4 -0.0097 -0.0238 -0.0162 -2.7278 0.0221 -11.5710
# 5 -9.2681 2.9409 -33.1056 0.0221 36.2723 0.0067
# 6 -0.0142 -0.0083 0.0023 -11.5710 0.0067 12.2503
#
#
#
# Elastic Compliance Matrix: (Units=1/GPa)
#
#
# Indices 1 2 3 4 5 6 
#
# 1 0.029618 -0.002271 -0.005952 -0.000034 0.002320 0.000001
# 2 -0.002271 0.005340 -0.002655 -0.000013 -0.003436 -0.000009
# 3 -0.005952 -0.002655 0.022389 0.000033 0.019129 0.000008
# 4 -0.000034 -0.000013 0.000033 -0.073221 0.000080 -0.069161
# 5 0.002320 -0.003436 0.019129 0.000080 0.045899 0.000047
# 6 0.000001 -0.000009 0.000008 -0.069161 0.000047 0.016305
#
#
# Mechanical properties :
#
#
# Convention : Reuss Voigt Hill
#
# Bulk Modulus (GPa) = 28.09654 53.11888 40.60771
# Shear Modulus (GPa) = 62.53867 26.72275 44.63071
#
# Velocity S-wave (km/s) = 5.27501 3.44817 4.45621
# Velocity P-wave (km/s) = 7.04287 6.28392 6.67419
#
# Compressibility (1/GPa) = 0.03559157
#
# Stress axis : x y z
#
# Youngs Moduli (GPa) = 33.76268 187.25994 44.66506
#
# Poissons Ratio (x) = 0.42526 0.26585
# Poissons Ratio (y) = 0.07667 0.11859
# Poissons Ratio (z) = 0.20096 0.49718
#
# Static dielectric constant tensor:
#      x y z
#    x 1.862120 0.000000 -0.029270 
#    y 0.000000 1.876160 0.000000 
#    z -0.029270 0.000000 1.861020 
# 
# From -- ./inp_files/284430.got.cif
#   From: 2010.05.17/outbox.cif.g08.bks.cpg/sg12_143_cif.got.tgz:284430.got - 2010.06.03 13:09:07.
