data_PCOD9185561
_publ_section_title
;
Structure prediction by ZEFSAII (Michael W. Deem and Ramdas Pophale) SiO2 
 PCOD9185561
Probable space group: C 2/M
;
_chemical_formula_sum "Si O2"
_cell_formula_units_Z 56
_cell_length_a 15.941393
_cell_length_b 7.655466
_cell_length_c 24.280735
_cell_angle_alpha 90.000000
_cell_angle_beta 58.593305
_cell_angle_gamma 90.000000
_cell_volume 2529.054112
_symmetry_space_group_name_H-M "C 2/M"
_symmetry_group_IT_number 12
_symmetry_cell_setting 'monoclinic'
loop_
_space_group_symop_operation_xyz
x,y,z
-x,y,-z
-x,-y,-z
x,-y,z
1/2+x,1/2+y,z
1/2-x,1/2+y,-z
1/2-x,1/2-y,-z
1/2+x,1/2-y,z
loop_
_atom_site_type_symbol
_atom_site_label
_atom_site_fract_x
_atom_site_fract_y
_atom_site_fract_z
Si Si1 0.047134 0.285776 0.426355
Si Si2 0.271364 0.708957 0.338204
Si Si3 0.211163 0.308531 0.072270
Si Si4 0.619991 0.785985 0.208828
Si Si5 0.449525 0.790505 0.347010
Si Si6 0.096574 0.703770 0.934720
Si Si7 0.322425 0.710431 0.201807
O O1 0.047426 0.500000 0.426231
O O2 0.159966 0.227279 0.381798
O O3 0.000000 0.229825 0.500000
O O4 0.985213 0.228085 0.394347
O O5 0.264732 0.500000 0.334541
O O6 0.339733 0.747398 0.366602
O O7 0.322497 0.774874 0.264427
O O8 0.170033 0.500000 0.075992
O O9 0.135795 0.218995 0.140869
O O10 0.310158 0.308637 0.075018
O O11 0.250000 0.250000 0.000000
O O12 0.524149 0.725536 0.274055
O O13 0.715860 0.740074 0.212543
O O14 0.618804 0.000000 0.206783
O O15 0.459089 0.000000 0.344467
O O16 0.113034 0.500000 0.942695
O O17 0.096421 0.722542 0.868906
O O18 0.000000 0.761563 0.000000
O O19 0.328809 0.500000 0.199314
#
# Coordination Sequence:
#
# PCOD9185561 Si02
#       7
#     8   8   8   8   8   8   8
#     4   9  18  35  60  84 111 152 192 224 268 335
#     4  10  20  35  56  84 115 144 185 234 279 328
#     4  10  20  34  53  75 104 142 184 229 280 333
#     4   8  15  31  53  72  95 137 183 224 268 328
#     4  10  19  34  57  83 110 144 189 229 273 333
#     4  10  21  35  51  74 106 142 182 229 280 332
#     4   9  17  33  55  74  98 140 187 229 277 331
#
# _framework density 22.142665999999998
#
# number of rings (size 3 to 8) (size 9 to 14) (size 15 to 20)
#    0.000    2.571    1.429    1.714    0.000    3.429 
#    0.000    8.571    0.000    0.857    0.000    0.000 
#    0.000    0.000    0.000    0.000    0.000    0.000 
#
# Total GULP energy -156221.658679 kJ/mol
# GULP energy per Si atom -5579.344953 kJ/mol
# Density = 2.209227 g / cm^3
# Si number density = 22.142666 Si / 1000 Ang^3
#
#
#
# Elastic Constant Matrix: (Units=GPa)
#
#
# Indices 1 2 3 4 5 6 
#
# 1 106.1428 -4.5572 69.8918 -0.0001 18.4674 -0.0001
# 2 -4.5572 39.3269 6.8689 -0.0003 2.2825 -0.0003
# 3 69.8918 6.8689 180.3665 0.0001 25.4737 0.0001
# 4 -0.0001 -0.0003 0.0001 2.2938 -0.0001 6.2180
# 5 18.4674 2.2825 25.4737 -0.0001 26.2514 -0.0001
# 6 -0.0001 -0.0003 0.0001 6.2180 -0.0001 13.9322
#
#
#
# Elastic Compliance Matrix: (Units=1/GPa)
#
#
# Indices 1 2 3 4 5 6 
#
# 1 0.013464 0.002665 -0.004575 -0.000002 -0.005264 0.000001
# 2 0.002665 0.026176 -0.001672 -0.000011 -0.002528 0.000005
# 3 -0.004575 -0.001672 0.008003 0.000002 -0.004401 -0.000001
# 4 -0.000002 -0.000011 0.000002 -2.077364 -0.000002 0.927144
# 5 -0.005264 -0.002528 -0.004401 -0.000002 0.046287 0.000001
# 6 0.000001 0.000005 -0.000001 0.927144 0.000001 -0.342016
#
#
# Mechanical properties :
#
#
# Convention : Reuss Voigt Hill
#
# Bulk Modulus (GPa) = 24.70584 52.24924 38.47754
# Shear Modulus (GPa) = -2.16939 25.40432 11.61746
#
# Velocity S-wave (km/s) = -0.99089 3.39086 2.29304
# Velocity P-wave (km/s) = 3.14208 6.24327 4.94222
#
# Compressibility (1/GPa) = 0.04047625
#
# Stress axis : x y z
#
# Youngs Moduli (GPa) = 74.27043 38.20363 124.95988
#
# Poissons Ratio (x) = -0.10181 0.57175
# Poissons Ratio (y) = -0.19792 0.20899
# Poissons Ratio (z) = 0.33982 0.06390
#
# Static dielectric constant tensor:
#      x y z
#    x 1.804880 0.000000 0.019310 
#    y 0.000000 1.840470 0.000000 
#    z 0.019310 0.000000 1.853070 
# 
# From -- ./inp_files/338540.got.cif
#   From: 2010.05.17/outbox.cif.g08.bks.cpg/sg12_170_cif.got.tgz:338540.got - 2010.06.03 13:09:07.
