data_PCOD9185362
_publ_section_title
;
Structure prediction by ZEFSAII (Michael W. Deem and Ramdas Pophale) SiO2 
 PCOD9185362
Probable space group: C 2/M
;
_chemical_formula_sum "Si O2"
_cell_formula_units_Z 56
_cell_length_a 9.136253
_cell_length_b 28.534723
_cell_length_c 20.706208
_cell_angle_alpha 90.000000
_cell_angle_beta 31.333106
_cell_angle_gamma 90.000000
_cell_volume 2807.089978
_symmetry_space_group_name_H-M "C 2/M"
_symmetry_group_IT_number 12
_symmetry_cell_setting 'monoclinic'
loop_
_space_group_symop_operation_xyz
x,y,z
-x,y,-z
-x,-y,-z
x,-y,z
1/2+x,1/2+y,z
1/2-x,1/2+y,-z
1/2-x,1/2-y,-z
1/2+x,1/2-y,z
loop_
_atom_site_type_symbol
_atom_site_label
_atom_site_fract_x
_atom_site_fract_y
_atom_site_fract_z
Si Si1 0.772018 0.799167 0.348837
Si Si2 0.403870 0.445675 0.961266
Si Si3 0.752144 0.945026 0.772819
Si Si4 0.013036 0.784602 0.385772
Si Si5 0.297501 0.125332 0.737533
Si Si6 0.190862 0.553051 0.365177
Si Si7 0.676231 0.380023 0.377967
O O1 0.500000 0.809441 0.500000
O O2 0.754140 0.747310 0.325297
O O3 0.779759 0.833996 0.284772
O O4 0.021240 0.797329 0.307214
O O5 0.477470 0.500000 0.915353
O O6 0.551340 0.405001 0.864214
O O7 0.500000 0.440636 0.000000
O O8 0.067255 0.441335 0.082644
O O9 0.781497 0.912875 0.699141
O O10 0.993751 0.931889 0.733141
O O11 0.803831 0.000000 0.737532
O O12 0.998188 0.833920 0.426731
O O13 0.750000 0.750000 0.500000
O O14 0.439029 0.086793 0.638024
O O15 0.524568 0.137455 0.706540
O O16 0.201778 0.500000 0.337980
O O17 0.000000 0.555006 0.500000
O O18 0.500000 0.405276 0.500000
#
# Coordination Sequence:
#
# PCOD9185362 Si02
#       7
#     8   8   8   8   8   8   8
#     4  10  19  34  56  85 120 151 195 254 315 380
#     4  10  21  41  62  86 123 171 227 272 303 356
#     4  10  22  40  61  87 125 171 214 266 312 363
#     4  10  20  37  58  86 124 160 196 248 310 387
#     4  12  22  34  59  89 119 164 209 259 313 368
#     4  10  21  37  55  84 126 161 197 254 320 380
#     4  12  22  34  58  91 123 160 205 254 320 385
#
# _framework density 19.949484999999999
#
# number of rings (size 3 to 8) (size 9 to 14) (size 15 to 20)
#    0.000    1.429    1.429    6.429    0.000    1.429 
#    0.000    2.143    0.000    0.857    0.000    0.000 
#    0.000    0.000    0.000    0.000    0.000    0.000 
#
# Total GULP energy -156156.981669 kJ/mol
# GULP energy per Si atom -5577.035060 kJ/mol
# Density = 1.990408 g / cm^3
# Si number density = 19.949485 Si / 1000 Ang^3
#
#
#
# Elastic Constant Matrix: (Units=GPa)
#
#
# Indices 1 2 3 4 5 6 
#
# 1 80.7507 30.7813 6.2132 0.0002 -2.2905 0.0008
# 2 30.7813 77.5252 25.1368 -0.0002 12.3124 -0.0008
# 3 6.2132 25.1368 55.2188 -0.0036 1.7140 -0.0130
# 4 0.0002 -0.0002 -0.0036 21.2716 0.0005 -8.3638
# 5 -2.2905 12.3124 1.7140 0.0005 30.4816 0.0034
# 6 0.0008 -0.0008 -0.0130 -8.3638 0.0034 -105.6201
#
#
#
# Elastic Compliance Matrix: (Units=1/GPa)
#
#
# Indices 1 2 3 4 5 6 
#
# 1 0.015078 -0.007060 0.001396 0.000000 0.003906 0.000000
# 2 -0.007060 0.019510 -0.007840 -0.000001 -0.007970 0.000001
# 3 0.001396 -0.007840 0.021457 0.000002 0.002065 -0.000003
# 4 0.000000 -0.000001 0.000002 0.045591 0.000000 -0.003610
# 5 0.003906 -0.007970 0.002065 0.000000 0.036204 0.000001
# 6 0.000000 0.000001 -0.000003 -0.003610 0.000001 -0.009182
#
#
# Mechanical properties :
#
#
# Convention : Reuss Voigt Hill
#
# Bulk Modulus (GPa) = 34.43688 37.52859 35.98274
# Shear Modulus (GPa) = 30.23981 -0.68249 14.77866
#
# Velocity S-wave (km/s) = 3.89758 -0.58553 2.72472
# Velocity P-wave (km/s) = 6.12816 4.28900 5.28913
#
# Compressibility (1/GPa) = 0.02903864
#
# Stress axis : x y z
#
# Youngs Moduli (GPa) = 66.32042 51.25612 46.60407
#
# Poissons Ratio (x) = 0.36186 -0.06506
# Poissons Ratio (y) = 0.46821 0.36536
# Poissons Ratio (z) = -0.09258 0.40183
#
# Static dielectric constant tensor:
#      x y z
#    x 1.762530 0.000000 -0.030450 
#    y 0.000000 1.701980 0.000000 
#    z -0.030450 0.000000 1.732310 
# 
# From -- ./inp_files/302999.got.cif
#   From: 2010.05.17/outbox.cif.g08.bks.cpg/sg12_152_cif.got.tgz:302999.got - 2010.06.03 13:09:07.
