data_PCOD9185959
_publ_section_title
;
Structure prediction by ZEFSAII (Michael W. Deem and Ramdas Pophale) SiO2 
 PCOD9185959
Probable space group: C 2/M
;
_chemical_formula_sum "Si O2"
_cell_formula_units_Z 56
_cell_length_a 29.138912
_cell_length_b 8.777319
_cell_length_c 11.170519
_cell_angle_alpha 90.000000
_cell_angle_beta 70.697121
_cell_angle_gamma 90.000000
_cell_volume 2696.381471
_symmetry_space_group_name_H-M "C 2/M"
_symmetry_group_IT_number 12
_symmetry_cell_setting 'monoclinic'
loop_
_space_group_symop_operation_xyz
x,y,z
-x,y,-z
-x,-y,-z
x,-y,z
1/2+x,1/2+y,z
1/2-x,1/2+y,-z
1/2-x,1/2-y,-z
1/2+x,1/2-y,z
loop_
_atom_site_type_symbol
_atom_site_label
_atom_site_fract_x
_atom_site_fract_y
_atom_site_fract_z
Si Si1 0.153550 0.678647 0.534170
Si Si2 0.602779 0.325615 0.942913
Si Si3 0.053856 0.682113 0.764305
Si Si4 0.024815 0.314343 0.356320
Si Si5 0.626114 0.819572 0.171611
Si Si6 0.796483 0.825305 0.291134
Si Si7 0.798381 0.178707 0.732728
O O1 0.156126 0.500000 0.501147
O O2 0.100637 0.708232 0.637492
O O3 0.192458 0.721316 0.603281
O O4 0.166160 0.776870 0.407846
O O5 0.592416 0.500000 0.986027
O O6 0.563994 0.264251 0.880465
O O7 0.654530 0.321871 0.829529
O O8 0.609150 0.221973 0.053288
O O9 0.051232 0.500000 0.787350
O O10 0.006702 0.733356 0.731499
O O11 0.023163 0.500000 0.358858
O O12 0.080778 0.271736 0.294306
O O13 0.000000 0.260988 0.500000
O O14 0.674517 0.734612 0.171467
O O15 0.633471 0.000000 0.177141
O O16 0.751411 0.765531 0.253801
O O17 0.787930 0.000000 0.336815
O O18 0.789504 0.000000 0.744247
#
# Coordination Sequence:
#
# PCOD9185959 Si02
#       7
#     8   8   8   8   8   8   8
#     4  10  19  34  58  87 117 148 186 232 281 333
#     4  10  22  40  59  82 114 148 186 233 282 334
#     4   9  18  35  61  87 113 149 191 233 275 325
#     4   9  18  35  60  89 116 144 184 231 276 326
#     4  11  23  39  60  83 111 148 190 235 279 330
#     4  10  21  38  59  82 111 149 191 233 279 333
#     4  12  24  37  55  81 115 151 188 233 285 338
#
# _framework density 20.768574999999998
#
# number of rings (size 3 to 8) (size 9 to 14) (size 15 to 20)
#    0.000    1.857    0.000    4.286    0.000    5.714 
#    0.000    4.286    0.000    3.000    0.000    0.000 
#    0.000    0.000    0.000    0.000    0.000    0.000 
#
# Total GULP energy -156546.296073 kJ/mol
# GULP energy per Si atom -5590.939145 kJ/mol
# Density = 2.072131 g / cm^3
# Si number density = 20.768575 Si / 1000 Ang^3
#
#
#
# Elastic Constant Matrix: (Units=GPa)
#
#
# Indices 1 2 3 4 5 6 
#
# 1 110.3918 9.8853 -3.0590 0.0000 21.2963 0.0000
# 2 9.8853 41.7860 -4.5666 0.0000 -4.3428 0.0000
# 3 -3.0590 -4.5666 30.4076 0.0000 15.7966 0.0000
# 4 0.0000 0.0000 0.0000 28.9615 0.0000 8.8904
# 5 21.2963 -4.3428 15.7966 0.0000 22.5294 0.0000
# 6 0.0000 0.0000 0.0000 8.8904 0.0000 23.2606
#
#
#
# Elastic Compliance Matrix: (Units=1/GPa)
#
#
# Indices 1 2 3 4 5 6 
#
# 1 0.014358 -0.004422 0.013015 0.000000 -0.023550 0.000000
# 2 -0.004422 0.025854 -0.002080 0.000000 0.010623 0.000000
# 3 0.013015 -0.002080 0.063677 0.000000 -0.057351 0.000000
# 4 0.000000 0.000000 0.000000 0.039118 0.000000 -0.014951
# 5 -0.023550 0.010623 -0.057351 0.000000 0.108907 0.000000
# 6 0.000000 0.000000 0.000000 -0.014951 0.000000 0.048706
#
#
# Mechanical properties :
#
#
# Convention : Reuss Voigt Hill
#
# Bulk Modulus (GPa) = 8.55332 20.78942 14.67137
# Shear Modulus (GPa) = 15.31076 26.97200 21.14138
#
# Velocity S-wave (km/s) = 2.71810 3.60765 3.19400
# Velocity P-wave (km/s) = 3.73873 5.23309 4.54771
#
# Compressibility (1/GPa) = 0.11691373
#
# Stress axis : x y z
#
# Youngs Moduli (GPa) = 69.64524 38.67834 15.70431
#
# Poissons Ratio (x) = 0.17104 -0.20439
# Poissons Ratio (y) = 0.30798 0.03267
# Poissons Ratio (z) = -0.90641 0.08047
#
# Static dielectric constant tensor:
#      x y z
#    x 1.732390 0.000000 -0.013620 
#    y 0.000000 1.696750 0.000000 
#    z -0.013620 0.000000 1.749980 
# 
# From -- ./inp_files/186446.got.cif
#   From: 2010.05.17/outbox.cif.g08.bks.cpg/sg12_94_cif.got.tgz:186446.got - 2010.06.03 13:09:07.
