data_PCOD9185804
_publ_section_title
;
Structure prediction by ZEFSAII (Michael W. Deem and Ramdas Pophale) SiO2 
 PCOD9185804
Probable space group: C 2/M
;
_chemical_formula_sum "Si O2"
_cell_formula_units_Z 56
_cell_length_a 14.579973
_cell_length_b 17.780548
_cell_length_c 14.049809
_cell_angle_alpha 90.000000
_cell_angle_beta 53.080389
_cell_angle_gamma 90.000000
_cell_volume 2911.919722
_symmetry_space_group_name_H-M "C 2/M"
_symmetry_group_IT_number 12
_symmetry_cell_setting 'monoclinic'
loop_
_space_group_symop_operation_xyz
x,y,z
-x,y,-z
-x,-y,-z
x,-y,z
1/2+x,1/2+y,z
1/2-x,1/2+y,-z
1/2-x,1/2-y,-z
1/2+x,1/2-y,z
loop_
_atom_site_type_symbol
_atom_site_label
_atom_site_fract_x
_atom_site_fract_y
_atom_site_fract_z
Si Si1 0.037348 0.417341 0.706855
Si Si2 0.188570 0.806583 0.762828
Si Si3 0.494362 0.418258 0.888470
Si Si4 0.712409 0.360224 0.098376
Si Si5 0.889132 0.360957 0.139226
Si Si6 0.660583 0.197464 0.157943
Si Si7 0.866736 0.413790 0.550272
O O1 0.982569 0.500000 0.728966
O O2 0.079525 0.409427 0.788415
O O3 0.131801 0.411081 0.565548
O O4 0.946387 0.351849 0.745902
O O5 0.155816 0.718678 0.788890
O O6 0.230805 0.822449 0.844299
O O7 0.290043 0.845812 0.638802
O O8 0.075285 0.851189 0.805790
O O9 0.541345 0.500000 0.831935
O O10 0.371784 0.409201 0.913547
O O11 0.500000 0.415293 0.000000
O O12 0.785320 0.393426 0.139609
O O13 0.643761 0.286526 0.177077
O O14 0.808054 0.324671 0.968677
O O15 0.000000 0.350846 0.000000
O O16 0.831672 0.500000 0.600743
O O17 0.000000 0.406036 0.500000
#
# Coordination Sequence:
#
# PCOD9185804 Si02
#       7
#     8   8   8   8   8   8   8
#     4  11  23  38  59  87 118 151 195 242 286 344
#     4  11  21  36  61  85 116 151 192 237 290 346
#     4  11  22  33  52  84 118 149 189 237 288 347
#     4  10  21  37  55  80 118 160 184 231 288 350
#     4  11  23  39  61  86 116 158 196 235 287 341
#     4  10  19  34  58  83 112 151 190 231 286 347
#     4  10  21  38  60  87 119 152 187 239 299 341
#
# _framework density 19.231300000000001
#
# number of rings (size 3 to 8) (size 9 to 14) (size 15 to 20)
#    0.000    1.429    4.286    1.714    2.000    2.571 
#    0.000    0.000    0.000    0.000    0.000    3.000 
#    0.000    0.000    0.000    0.000    0.000    0.000 
#
# Total GULP energy -155981.427372 kJ/mol
# GULP energy per Si atom -5570.765263 kJ/mol
# Density = 1.918753 g / cm^3
# Si number density = 19.231300 Si / 1000 Ang^3
#
#
#
# Elastic Constant Matrix: (Units=GPa)
#
#
# Indices 1 2 3 4 5 6 
#
# 1 95.7160 18.6010 11.6879 0.0000 12.4066 0.0000
# 2 18.6010 62.7573 28.5670 0.0000 -2.0943 0.0000
# 3 11.6879 28.5670 65.2219 0.0000 8.1413 0.0000
# 4 0.0000 0.0000 0.0000 -194.7364 0.0000 370.4207
# 5 12.4066 -2.0943 8.1413 0.0000 23.8667 0.0000
# 6 0.0000 0.0000 0.0000 370.4207 0.0000 -632.4337
#
#
#
# Elastic Compliance Matrix: (Units=1/GPa)
#
#
# Indices 1 2 3 4 5 6 
#
# 1 0.012047 -0.003994 0.000435 0.000000 -0.006761 0.000000
# 2 -0.003994 0.021798 -0.009745 0.000000 0.007313 0.000000
# 3 0.000435 -0.009745 0.020532 0.000000 -0.008085 0.000000
# 4 0.000000 0.000000 0.000000 0.045001 0.000000 0.026358
# 5 -0.006761 0.007313 -0.008085 0.000000 0.048813 0.000000
# 6 0.000000 0.000000 0.000000 0.026358 0.000000 0.013857
#
#
# Mechanical properties :
#
#
# Convention : Reuss Voigt Hill
#
# Bulk Modulus (GPa) = 36.01217 37.93411 36.97314
# Shear Modulus (GPa) = 25.26367 -149.67138 -62.20386
#
# Velocity S-wave (km/s) = 3.62840 -8.83153 -5.69345
# Velocity P-wave (km/s) = 6.02662 9.17750 4.89420
#
# Compressibility (1/GPa) = 0.02776839
#
# Stress axis : x y z
#
# Youngs Moduli (GPa) = 83.00764 45.87572 48.70523
#
# Poissons Ratio (x) = 0.18323 -0.02116
# Poissons Ratio (y) = 0.33154 0.47461
# Poissons Ratio (z) = -0.03607 0.44704
#
# Static dielectric constant tensor:
#      x y z
#    x 1.688850 0.000000 0.012450 
#    y 0.000000 1.686610 0.000000 
#    z 0.012450 0.000000 1.686700 
# 
# From -- ./inp_files/146062.got.cif
#   From: 2010.05.17/outbox.cif.g08.bks.cpg/sg12_74_cif.got.tgz:146062.got - 2010.06.03 13:09:07.
