data_PCOD9185580
_publ_section_title
;
Structure prediction by ZEFSAII (Michael W. Deem and Ramdas Pophale) SiO2 
 PCOD9185580
Probable space group: C 2/M
;
_chemical_formula_sum "Si O2"
_cell_formula_units_Z 56
_cell_length_a 19.858634
_cell_length_b 7.737870
_cell_length_c 14.757719
_cell_angle_alpha 90.000000
_cell_angle_beta 86.731774
_cell_angle_gamma 90.000000
_cell_volume 2264.034914
_symmetry_space_group_name_H-M "C 2/M"
_symmetry_group_IT_number 12
_symmetry_cell_setting 'monoclinic'
loop_
_space_group_symop_operation_xyz
x,y,z
-x,y,-z
-x,-y,-z
x,-y,z
1/2+x,1/2+y,z
1/2-x,1/2+y,-z
1/2-x,1/2-y,-z
1/2+x,1/2-y,z
loop_
_atom_site_type_symbol
_atom_site_label
_atom_site_fract_x
_atom_site_fract_y
_atom_site_fract_z
Si Si1 0.140681 0.289164 0.139548
Si Si2 0.444333 0.805051 0.380729
Si Si3 0.214866 0.210118 0.791572
Si Si4 0.005405 0.712195 0.806101
Si Si5 0.264286 0.204889 0.602614
Si Si6 0.897379 0.701011 0.055748
Si Si7 0.086471 0.807012 0.425011
O O1 0.141999 0.500000 0.140859
O O2 0.211650 0.236624 0.175612
O O3 0.072352 0.235813 0.196263
O O4 0.129969 0.227774 0.036749
O O5 0.447639 0.727859 0.280191
O O6 0.409911 0.706026 0.465614
O O7 0.524450 0.810512 0.399740
O O8 0.417919 0.000000 0.382673
O O9 0.214822 0.267771 0.686199
O O10 0.159506 0.285880 0.862746
O O11 0.209288 0.000000 0.796147
O O12 0.007712 0.500000 0.803205
O O13 0.036303 0.771288 0.899107
O O14 0.250000 0.250000 0.500000
O O15 0.340497 0.263304 0.617615
O O16 0.263593 0.000000 0.608808
O O17 0.912223 0.500000 0.035334
O O18 0.066365 0.000000 0.402221
#
# Coordination Sequence:
#
# PCOD9185580 Si02
#       7
#     8   8   8   8   8   8   8
#     4   9  17  34  59  85 116 151 193 237 281 340
#     4  10  19  34  57  83 113 154 196 238 287 345
#     4  10  22  39  59  83 114 155 192 233 291 352
#     4   9  18  32  55  86 115 147 191 240 288 337
#     4  11  24  41  60  83 113 152 195 240 293 351
#     4  10  20  34  58  90 118 149 190 240 287 337
#     4  11  22  37  56  82 114 149 193 243 293 345
#
# _framework density 24.734601999999999
#
# number of rings (size 3 to 8) (size 9 to 14) (size 15 to 20)
#    0.000    2.000    0.000    4.714    2.000    5.143 
#    0.000    0.714    0.000    4.286    0.000    0.000 
#    0.000    0.000    0.000    0.000    0.000    0.000 
#
# Total GULP energy -156609.767236 kJ/mol
# GULP energy per Si atom -5593.205973 kJ/mol
# Density = 2.467830 g / cm^3
# Si number density = 24.734602 Si / 1000 Ang^3
#
#
#
# Elastic Constant Matrix: (Units=GPa)
#
#
# Indices 1 2 3 4 5 6 
#
# 1 79.7630 -7.8209 -0.8256 0.0000 -3.6594 0.0000
# 2 -7.8209 64.4997 -2.2336 0.0000 3.2463 0.0000
# 3 -0.8256 -2.2336 116.9500 0.0000 -5.1915 0.0000
# 4 0.0000 0.0000 0.0000 14.5878 0.0000 -7.1351
# 5 -3.6594 3.2463 -5.1915 0.0000 44.3489 0.0000
# 6 0.0000 0.0000 0.0000 -7.1351 0.0000 8.0202
#
#
#
# Elastic Compliance Matrix: (Units=1/GPa)
#
#
# Indices 1 2 3 4 5 6 
#
# 1 0.012730 0.001501 0.000161 0.000000 0.000959 0.000000
# 2 0.001501 0.015745 0.000267 0.000000 -0.000997 0.000000
# 3 0.000161 0.000267 0.008601 0.000000 0.001001 0.000000
# 4 0.000000 0.000000 0.000000 0.121357 0.000000 0.107963
# 5 0.000959 -0.000997 0.001001 0.000000 0.022818 0.000000
# 6 0.000000 0.000000 0.000000 0.107963 0.000000 0.220732
#
#
# Mechanical properties :
#
#
# Convention : Reuss Voigt Hill
#
# Bulk Modulus (GPa) = 24.42915 26.60585 25.51750
# Shear Modulus (GPa) = 12.14270 31.53090 21.83680
#
# Velocity S-wave (km/s) = 2.21807 3.57426 2.97449
# Velocity P-wave (km/s) = 4.05682 5.27387 4.70486
#
# Compressibility (1/GPa) = 0.04093470
#
# Stress axis : x y z
#
# Youngs Moduli (GPa) = 78.55474 63.51072 116.26128
#
# Poissons Ratio (x) = -0.09532 -0.01873
# Poissons Ratio (y) = -0.11790 -0.03105
# Poissons Ratio (z) = -0.01266 -0.01696
#
# Static dielectric constant tensor:
#      x y z
#    x 1.933190 0.000000 0.024230 
#    y 0.000000 1.903510 0.000000 
#    z 0.024230 0.000000 2.011530 
# 
# From -- ./inp_files/230940.got.cif
#   From: 2010.05.17/outbox.cif.g08.bks.cpg/sg12_116_cif.got.tgz:230940.got - 2010.06.03 13:09:07.
