data_PCOD9185295
_publ_section_title
;
Structure prediction by ZEFSAII (Michael W. Deem and Ramdas Pophale) SiO2 
 PCOD9185295
Probable space group: C 2/M
;
_chemical_formula_sum "Si O2"
_cell_formula_units_Z 48
_cell_length_a 22.526450
_cell_length_b 12.335437
_cell_length_c 23.184581
_cell_angle_alpha 90.000000
_cell_angle_beta 21.240142
_cell_angle_gamma 90.000000
_cell_volume 2333.931581
_symmetry_space_group_name_H-M "C 2/M"
_symmetry_group_IT_number 12
_symmetry_cell_setting 'monoclinic'
loop_
_space_group_symop_operation_xyz
x,y,z
-x,y,-z
-x,-y,-z
x,-y,z
1/2+x,1/2+y,z
1/2-x,1/2+y,-z
1/2-x,1/2-y,-z
1/2+x,1/2-y,z
loop_
_atom_site_type_symbol
_atom_site_label
_atom_site_fract_x
_atom_site_fract_y
_atom_site_fract_z
Si Si1 0.825187 0.238722 0.251795
Si Si2 0.110618 0.127794 0.533676
Si Si3 0.833225 0.799493 0.012119
Si Si4 0.415926 0.625980 0.813634
Si Si5 0.844652 0.121086 0.684319
Si Si6 0.689953 0.500000 0.763027
Si Si7 0.209960 0.000000 0.877088
O O1 0.740922 0.302838 0.380626
O O2 0.772509 0.292556 0.239022
O O3 0.766178 0.114048 0.305444
O O4 0.019816 0.245284 0.082251
O O5 0.081461 0.148562 0.627532
O O6 0.933165 0.147771 0.664025
O O7 0.146996 0.000000 0.492055
O O8 0.921091 0.855665 0.877236
O O9 0.720088 0.706903 0.088211
O O10 0.741736 0.892661 0.131328
O O11 0.374677 0.500000 0.839854
O O12 0.000000 0.116386 0.500000
O O13 0.772362 0.000000 0.752561
O O14 0.757728 0.500000 0.767012
O O15 0.490163 0.500000 0.943685
#
# Coordination Sequence:
#
# PCOD9185295 Si02
#       7
#     8   8   8   8   8   4   4
#     4  10  19  34  56  83 108 145 185 223 270 329
#     4   9  19  36  58  81 112 146 180 223 281 334
#     4  10  21  36  60  79 108 144 189 237 266 321
#     4  10  21  38  57  81 108 145 185 229 284 327
#     4   8  15  30  51  75 106 139 169 212 271 324
#     4   9  20  32  54  83 114 147 180 217 273 334
#     4   9  18  38  55  78 111 152 181 218 279 329
#
# _framework density 20.566154999999998
#
# number of rings (size 3 to 8) (size 9 to 14) (size 15 to 20)
#    0.000    2.667    0.833    1.500    2.333    2.000 
#    0.000    4.583    0.000    3.000    0.000    0.000 
#    0.000    0.000    0.000    0.000    0.000    0.000 
#
# Total GULP energy -133867.361638 kJ/mol
# GULP energy per Si atom -5577.806735 kJ/mol
# Density = 2.051935 g / cm^3
# Si number density = 20.566155 Si / 1000 Ang^3
#
#
#
# Elastic Constant Matrix: (Units=GPa)
#
#
# Indices 1 2 3 4 5 6 
#
# 1 39.2701 8.5111 3.7510 0.0017 8.9938 0.0007
# 2 8.5111 88.6359 19.6949 0.0082 -5.1091 -0.0065
# 3 3.7510 19.6949 27.6784 0.0037 13.9862 -0.0049
# 4 0.0017 0.0082 0.0037 18.0188 -0.0030 1.8732
# 5 8.9938 -5.1091 13.9862 -0.0030 37.0559 0.0029
# 6 0.0007 -0.0065 -0.0049 1.8732 0.0029 33.6197
#
#
#
# Elastic Compliance Matrix: (Units=1/GPa)
#
#
# Indices 1 2 3 4 5 6 
#
# 1 0.027963 -0.003923 0.003342 -0.000003 -0.008589 0.000000
# 2 -0.003923 0.015463 -0.014865 -0.000002 0.008694 0.000000
# 3 0.003342 -0.014865 0.058940 -0.000011 -0.025107 0.000008
# 4 -0.000003 -0.000002 -0.000011 0.055821 0.000009 -0.003110
# 5 -0.008589 0.008694 -0.025107 0.000009 0.039746 -0.000006
# 6 0.000000 0.000000 0.000008 -0.003110 -0.000006 0.029918
#
#
# Mechanical properties :
#
#
# Convention : Reuss Voigt Hill
#
# Bulk Modulus (GPa) = 13.99090 24.38870 19.18980
# Shear Modulus (GPa) = 17.69496 25.98071 21.83784
#
# Velocity S-wave (km/s) = 2.93643 3.55811 3.26211
# Velocity P-wave (km/s) = 4.27954 5.36327 4.85176
#
# Compressibility (1/GPa) = 0.07147503
#
# Stress axis : x y z
#
# Youngs Moduli (GPa) = 35.76187 64.67105 16.96631
#
# Poissons Ratio (x) = 0.25369 -0.05670
# Poissons Ratio (y) = 0.14028 0.25220
# Poissons Ratio (z) = -0.11951 0.96131
#
# Static dielectric constant tensor:
#      x y z
#    x 1.767020 0.000000 0.043520 
#    y 0.000000 1.740360 0.000000 
#    z 0.043520 0.000000 1.743640 
# 
# From -- ./inp_files/367960.got.cif
#   From: 2010.05.17/outbox.cif.g08.bks.cpg/sg12_184_cif.got.tgz:367960.got - 2010.06.03 13:09:07.
