data_PCOD9185051
_publ_section_title
;
Structure prediction by ZEFSAII (Michael W. Deem and Ramdas Pophale) SiO2 
 PCOD9185051
Probable space group: C 2/M
;
_chemical_formula_sum "Si O2"
_cell_formula_units_Z 50
_cell_length_a 30.786384
_cell_length_b 7.255644
_cell_length_c 12.762258
_cell_angle_alpha 90.000000
_cell_angle_beta 129.978642
_cell_angle_gamma 90.000000
_cell_volume 2184.499379
_symmetry_space_group_name_H-M "C 2/M"
_symmetry_group_IT_number 12
_symmetry_cell_setting 'monoclinic'
loop_
_space_group_symop_operation_xyz
x,y,z
-x,y,-z
-x,-y,-z
x,-y,z
1/2+x,1/2+y,z
1/2-x,1/2+y,-z
1/2-x,1/2-y,-z
1/2+x,1/2-y,z
loop_
_atom_site_type_symbol
_atom_site_label
_atom_site_fract_x
_atom_site_fract_y
_atom_site_fract_z
Si Si1 0.898530 0.222510 0.293789
Si Si2 0.092049 0.791364 0.134135
Si Si3 0.433040 0.724837 0.673711
Si Si4 0.222610 0.718070 0.343635
Si Si5 0.500000 0.000000 0.500000
Si Si6 0.941464 0.223011 0.144059
Si Si7 0.825968 0.777030 0.368349
O O1 0.898742 0.271049 0.170902
O O2 0.843165 0.267482 0.276482
O O3 0.950286 0.338541 0.419674
O O4 0.908191 0.000000 0.318761
O O5 0.072355 0.711610 0.214341
O O6 0.160010 0.798021 0.241566
O O7 0.069381 0.000000 0.099433
O O8 0.073140 0.708601 0.994433
O O9 0.431790 0.500000 0.671118
O O10 0.494627 0.782165 0.727296
O O11 0.378744 0.783919 0.523085
O O12 0.215499 0.500000 0.318947
O O13 0.250000 0.750000 0.500000
O O14 0.267035 0.787808 0.325890
O O15 0.941376 0.000000 0.139139
O O16 0.824338 0.000000 0.373789
#
# Coordination Sequence:
#
# PCOD9185051 Si02
#       7
#     8   8   8   8   2   8   8
#     4  10  21  39  58  84 121 157 195 243 290 346
#     4  10  19  34  55  83 112 145 189 236 286 348
#     4   9  15  27  52  84 110 142 185 231 278 345
#     4  11  21  37  57  83 111 148 192 242 296 343
#     4  12  22  36  60  94 118 156 202 236 294 342
#     4   9  18  33  57  81 111 154 191 225 286 356
#     4   9  18  34  58  80 110 149 193 236 290 345
#
# _framework density 22.888541
#
# number of rings (size 3 to 8) (size 9 to 14) (size 15 to 20)
#    0.000    2.240    1.600    2.160    0.000    4.480 
#    4.320    0.800    0.000    0.960    0.000    0.000 
#    0.000    0.000    0.000    0.000    0.000    0.000 
#
# Total GULP energy -139419.928206 kJ/mol
# GULP energy per Si atom -5576.797128 kJ/mol
# Density = 2.283645 g / cm^3
# Si number density = 22.888541 Si / 1000 Ang^3
#
#
#
# Elastic Constant Matrix: (Units=GPa)
#
#
# Indices 1 2 3 4 5 6 
#
# 1 161.0350 -3.0323 29.2170 0.0000 -27.9116 0.0000
# 2 -3.0323 116.1185 -8.9991 0.0000 -2.8118 0.0000
# 3 29.2170 -8.9991 62.9599 0.0000 -13.5512 0.0000
# 4 0.0000 0.0000 0.0000 -15.2925 0.0000 9.2723
# 5 -27.9116 -2.8118 -13.5512 0.0000 40.7947 0.0000
# 6 0.0000 0.0000 0.0000 9.2723 0.0000 5.4438
#
#
#
# Elastic Compliance Matrix: (Units=1/GPa)
#
#
# Indices 1 2 3 4 5 6 
#
# 1 0.007401 0.000102 -0.002508 0.000000 0.004238 0.000000
# 2 0.000102 0.008755 0.001453 0.000000 0.001156 0.000000
# 3 -0.002508 0.001453 0.018209 0.000000 0.004433 0.000000
# 4 0.000000 0.000000 0.000000 -0.032169 0.000000 0.054793
# 5 0.004238 0.001156 0.004433 0.000000 0.028965 0.000000
# 6 0.000000 0.000000 0.000000 0.054793 0.000000 0.090369
#
#
# Mechanical properties :
#
#
# Convention : Reuss Voigt Hill
#
# Bulk Modulus (GPa) = 30.80874 41.60939 36.20907
# Shear Modulus (GPa) = 37.24233 27.71771 32.48002
#
# Velocity S-wave (km/s) = 4.03813 3.48370 3.77112
# Velocity P-wave (km/s) = 5.93562 5.86516 5.90050
#
# Compressibility (1/GPa) = 0.03245832
#
# Stress axis : x y z
#
# Youngs Moduli (GPa) = 135.11135 114.21864 54.91864
#
# Poissons Ratio (x) = -0.01160 0.13774
# Poissons Ratio (y) = -0.01372 -0.07980
# Poissons Ratio (z) = 0.33886 -0.16596
#
# Static dielectric constant tensor:
#      x y z
#    x 1.996690 0.000000 0.029270 
#    y 0.000000 1.886040 0.000000 
#    z 0.029270 0.000000 1.885070 
# 
# From -- ./inp_files/180146.got.cif
#   From: 2010.05.17/outbox.cif.g08.bks.cpg/sg12_91_cif.got.tgz:180146.got - 2010.06.03 13:09:07.
