data_PCOD9185232
_publ_section_title
;
Structure prediction by ZEFSAII (Michael W. Deem and Ramdas Pophale) SiO2 
 PCOD9185232
Probable space group: C 2/M
;
_chemical_formula_sum "Si O2"
_cell_formula_units_Z 64
_cell_length_a 20.738148
_cell_length_b 7.774475
_cell_length_c 21.716936
_cell_angle_alpha 90.000000
_cell_angle_beta 49.841991
_cell_angle_gamma 90.000000
_cell_volume 2675.997856
_symmetry_space_group_name_H-M "C 2/M"
_symmetry_group_IT_number 12
_symmetry_cell_setting 'monoclinic'
loop_
_space_group_symop_operation_xyz
x,y,z
-x,y,-z
-x,-y,-z
x,-y,z
1/2+x,1/2+y,z
1/2-x,1/2+y,-z
1/2-x,1/2-y,-z
1/2+x,1/2-y,z
loop_
_atom_site_type_symbol
_atom_site_label
_atom_site_fract_x
_atom_site_fract_y
_atom_site_fract_z
Si Si1 0.244997 0.699517 0.851135
Si Si2 0.076844 0.696095 0.636824
Si Si3 0.253847 0.798101 0.412505
Si Si4 0.402821 0.295790 0.692523
Si Si5 0.827071 0.205074 0.234361
Si Si6 0.662669 0.204586 0.021360
Si Si7 0.597321 0.289260 0.442370
Si Si8 0.494874 0.697199 0.191468
O O1 0.255486 0.500000 0.863183
O O2 0.339883 0.774434 0.783973
O O3 0.206508 0.712339 0.807017
O O4 0.180449 0.772025 0.941121
O O5 0.088020 0.500000 0.611172
O O6 0.171068 0.775126 0.590196
O O7 0.002547 0.774143 0.641180
O O8 0.032407 0.698272 0.731724
O O9 0.289363 0.779808 0.320877
O O10 0.158909 0.728539 0.459317
O O11 0.248169 0.000000 0.430597
O O12 0.388947 0.500000 0.699899
O O13 0.373904 0.230352 0.643440
O O14 0.927051 0.233555 0.180103
O O15 0.811545 0.000000 0.242717
O O16 0.647196 0.000000 0.030470
O O17 0.750000 0.250000 0.000000
O O18 0.586591 0.281772 0.107054
O O19 0.500000 0.237213 0.500000
O O20 0.599311 0.500000 0.443489
O O21 0.483175 0.500000 0.219285
#
# Coordination Sequence:
#
# PCOD9185232 Si02
#       8
#     8   8   8   8   8   8   8   8
#     4  10  21  36  54  76 104 140 180 223 271 322
#     4  10  20  33  55  82 109 145 185 228 274 324
#     4   9  17  34  56  79 110 144 181 223 268 324
#     4  10  19  34  56  81 110 142 181 229 273 322
#     4  10  20  33  54  81 105 137 179 225 272 322
#     4  11  23  37  54  76 104 142 184 228 277 326
#     4   9  17  32  58  86 108 140 185 225 266 325
#     4  10  21  37  54  76 109 143 181 227 275 325
#
# _framework density 23.916312000000001
#
# number of rings (size 3 to 8) (size 9 to 14) (size 15 to 20)
#    0.000    2.125    1.250    2.250    0.000    5.000 
#    0.000    3.125    0.000    1.500    0.000    0.000 
#    0.000    0.000    0.000    0.000    0.000    0.000 
#
# Total GULP energy -178653.979957 kJ/mol
# GULP energy per Si atom -5582.936874 kJ/mol
# Density = 2.386188 g / cm^3
# Si number density = 23.916312 Si / 1000 Ang^3
#
#
#
# Elastic Constant Matrix: (Units=GPa)
#
#
# Indices 1 2 3 4 5 6 
#
# 1 143.6362 -0.3963 29.6581 0.0002 -18.6860 0.0001
# 2 -0.3963 39.5285 9.0208 0.0007 -0.8705 0.0002
# 3 29.6581 9.0208 84.5673 0.0002 -16.6256 -0.0001
# 4 0.0002 0.0007 0.0002 17.6396 -0.0002 -2.8895
# 5 -18.6860 -0.8705 -16.6256 -0.0002 48.1326 0.0003
# 6 0.0001 0.0002 -0.0001 -2.8895 0.0003 25.6911
#
#
#
# Elastic Compliance Matrix: (Units=1/GPa)
#
#
# Indices 1 2 3 4 5 6 
#
# 1 0.007736 0.000662 -0.002351 0.000000 0.002203 0.000000
# 2 0.000662 0.025998 -0.003071 -0.000001 -0.000333 0.000000
# 3 -0.002351 -0.003071 0.013718 0.000000 0.003770 0.000000
# 4 0.000000 -0.000001 0.000000 0.057755 0.000000 0.006496
# 5 0.002203 -0.000333 0.003770 0.000000 0.022928 0.000000
# 6 0.000000 0.000000 0.000000 0.006496 0.000000 0.039655
#
#
# Mechanical properties :
#
#
# Convention : Reuss Voigt Hill
#
# Bulk Modulus (GPa) = 26.36161 38.25525 32.30843
# Shear Modulus (GPa) = 26.32242 33.58928 29.95585
#
# Velocity S-wave (km/s) = 3.32114 3.75167 3.54295
# Velocity P-wave (km/s) = 5.07474 5.89889 5.50226
#
# Compressibility (1/GPa) = 0.03793395
#
# Stress axis : x y z
#
# Youngs Moduli (GPa) = 129.26868 38.46400 72.89655
#
# Poissons Ratio (x) = -0.02548 0.17134
# Poissons Ratio (y) = -0.08564 0.22387
# Poissons Ratio (z) = 0.30385 0.11813
#
# Static dielectric constant tensor:
#      x y z
#    x 1.935610 0.000000 -0.021970 
#    y 0.000000 1.874590 0.000000 
#    z -0.021970 0.000000 1.989140 
# 
# From -- ./inp_files/346043.got.cif
#   From: 2010.05.17/outbox.cif.g08.bks.cpg/sg12_174_cif.got.tgz:346043.got - 2010.06.03 13:09:07.
