data_PCOD9185672
_publ_section_title
;
Structure prediction by ZEFSAII (Michael W. Deem and Ramdas Pophale) SiO2 
 PCOD9185672
Probable space group: C 2/M
;
_chemical_formula_sum "Si O2"
_cell_formula_units_Z 60
_cell_length_a 14.290348
_cell_length_b 15.419885
_cell_length_c 12.397618
_cell_angle_alpha 90.000000
_cell_angle_beta 89.318695
_cell_angle_gamma 90.000000
_cell_volume 2731.690459
_symmetry_space_group_name_H-M "C 2/M"
_symmetry_group_IT_number 12
_symmetry_cell_setting 'monoclinic'
loop_
_space_group_symop_operation_xyz
x,y,z
-x,y,-z
-x,-y,-z
x,-y,z
1/2+x,1/2+y,z
1/2-x,1/2+y,-z
1/2-x,1/2-y,-z
1/2+x,1/2-y,z
loop_
_atom_site_type_symbol
_atom_site_label
_atom_site_fract_x
_atom_site_fract_y
_atom_site_fract_z
Si Si1 0.081337 0.287479 0.687443
Si Si2 0.904492 0.201226 0.683859
Si Si3 0.254450 0.000000 0.642101
Si Si4 0.447149 0.599572 0.895885
Si Si5 0.758720 0.599126 0.007671
Si Si6 0.740024 0.095011 0.582294
Si Si7 0.746304 0.327261 0.778659
Si Si8 0.948972 0.397364 0.112085
O O1 0.151262 0.347599 0.617538
O O2 0.150568 0.218964 0.743425
O O3 0.030293 0.344481 0.781038
O O4 0.995115 0.243159 0.627147
O O5 0.949789 0.149724 0.784205
O O6 0.837549 0.139365 0.614547
O O7 0.832155 0.271617 0.731387
O O8 0.260232 0.074257 0.544194
O O9 0.247999 0.076671 0.731702
O O10 0.481309 0.500000 0.880895
O O11 0.500000 0.636927 0.000000
O O12 0.339318 0.598553 0.931237
O O13 0.778827 0.500000 0.970523
O O14 0.756076 0.663144 0.907086
O O15 0.839954 0.619235 0.090661
O O16 0.733274 0.000000 0.638250
O O17 0.966516 0.500000 0.128340
O O18 0.000000 0.372085 0.000000
#
# Coordination Sequence:
#
# PCOD9185672 Si02
#       8
#     8   8   4   8   8   8   8   8
#     4  11  23  39  65 102 132 165 216 270 325 390
#     4  11  23  39  65 102 132 165 216 270 325 390
#     4  10  24  50  70  88 120 172 222 276 350 392
#     4  10  21  36  58  92 136 178 211 249 305 386
#     4  10  19  34  57  85 123 176 220 246 296 383
#     4   9  22  47  73  89 123 178 212 276 332 400
#     4  11  23  41  64  91 132 169 213 281 333 381
#     4  10  21  36  58  92 136 178 211 249 305 386
#
# _framework density 21.964421999999999
#
# number of rings (size 3 to 8) (size 9 to 14) (size 15 to 20)
#    0.400    1.333    0.667    4.000    0.000    8.000 
#    4.800    4.000    0.000    0.000    0.000    0.000 
#    0.000    0.000    0.000    0.000    0.000    0.000 
#
# Total GULP energy -167193.478667 kJ/mol
# GULP energy per Si atom -5573.115956 kJ/mol
# Density = 2.191443 g / cm^3
# Si number density = 21.964422 Si / 1000 Ang^3
#
#
#
# Elastic Constant Matrix: (Units=GPa)
#
#
# Indices 1 2 3 4 5 6 
#
# 1 91.0976 16.3118 -3.8647 0.0000 -0.2711 0.0000
# 2 16.3118 99.4761 28.2257 0.0000 -2.3312 0.0000
# 3 -3.8647 28.2257 75.8482 0.0000 -2.9568 0.0000
# 4 0.0000 0.0000 0.0000 -76.2761 0.0000 12.7117
# 5 -0.2711 -2.3312 -2.9568 0.0000 -16.5251 0.0000
# 6 0.0000 0.0000 0.0000 12.7117 0.0000 27.4330
#
#
#
# Elastic Compliance Matrix: (Units=1/GPa)
#
#
# Indices 1 2 3 4 5 6 
#
# 1 0.011447 -0.002285 0.001429 0.000000 -0.000121 0.000000
# 2 -0.002285 0.011684 -0.004496 0.000000 -0.000806 0.000000
# 3 0.001429 -0.004496 0.014850 0.000000 -0.002046 0.000000
# 4 0.000000 0.000000 0.000000 -0.012170 0.000000 0.005639
# 5 -0.000121 -0.000806 -0.002046 0.000000 -0.060032 0.000000
# 6 0.000000 0.000000 0.000000 0.005639 0.000000 0.033839
#
#
# Mechanical properties :
#
#
# Convention : Reuss Voigt Hill
#
# Bulk Modulus (GPa) = 36.66137 38.64085 37.65111
# Shear Modulus (GPa) = 257.53528 1.97630 129.75579
#
# Velocity S-wave (km/s) = 10.84000 0.94959 7.69439
# Velocity P-wave (km/s) = 13.16821 4.33970 9.80394
#
# Compressibility (1/GPa) = 0.02727667
#
# Stress axis : x y z
#
# Youngs Moduli (GPa) = 87.36142 85.58560 67.33838
#
# Poissons Ratio (x) = 0.19559 -0.09622
# Poissons Ratio (y) = 0.19965 0.30275
# Poissons Ratio (z) = -0.12484 0.38479
#
# Static dielectric constant tensor:
#      x y z
#    x 1.778600 0.000000 0.015370 
#    y 0.000000 1.858230 0.000000 
#    z 0.015370 0.000000 1.750750 
# 
# From -- ./inp_files/214848.got.cif
#   From: 2010.05.17/outbox.cif.g08.bks.cpg/sg12_108_cif.got.tgz:214848.got - 2010.06.03 13:09:07.
