data_PCOD9185692
_publ_section_title
;
Structure prediction by ZEFSAII (Michael W. Deem and Ramdas Pophale) SiO2 
 PCOD9185692
Probable space group: C 2/M
;
_chemical_formula_sum "Si O2"
_cell_formula_units_Z 42
_cell_length_a 20.801445
_cell_length_b 7.334456
_cell_length_c 12.437598
_cell_angle_alpha 90.000000
_cell_angle_beta 98.880242
_cell_angle_gamma 90.000000
_cell_volume 1874.824656
_symmetry_space_group_name_H-M "C 2/M"
_symmetry_group_IT_number 12
_symmetry_cell_setting 'monoclinic'
loop_
_space_group_symop_operation_xyz
x,y,z
-x,y,-z
-x,-y,-z
x,-y,z
1/2+x,1/2+y,z
1/2-x,1/2+y,-z
1/2-x,1/2-y,-z
1/2+x,1/2-y,z
loop_
_atom_site_type_symbol
_atom_site_label
_atom_site_fract_x
_atom_site_fract_y
_atom_site_fract_z
Si Si1 0.685188 0.717074 0.914254
Si Si2 0.376733 0.290364 0.713141
Si Si3 0.725481 0.280529 0.690333
Si Si4 0.000000 0.500000 0.500000
Si Si5 0.897469 0.780150 0.480753
Si Si6 0.073544 0.776796 0.044491
O O1 0.676212 0.500000 0.901818
O O2 0.697383 0.785846 0.797258
O O3 0.750000 0.750000 0.000000
O O4 0.623920 0.785867 0.966260
O O5 0.398406 0.500000 0.716516
O O6 0.298461 0.287363 0.692960
O O7 0.400267 0.213488 0.605594
O O8 0.402816 0.213118 0.831862
O O9 0.730672 0.500000 0.695967
O O10 0.673797 0.237292 0.584587
O O11 0.047908 0.661752 0.561958
O O12 0.906496 0.000000 0.475100
O O13 0.076304 0.000000 0.046272
O O14 0.000000 0.724291 0.000000
#
# Coordination Sequence:
#
# PCOD9185692 Si02
#       6
#     8   8   8   2   8   8
#     4  10  19  34  57  86 119 160 203 256 310 366
#     4  10  20  36  63  89 121 160 203 266 315 371
#     4  10  21  36  61  90 125 161 203 265 320 371
#     4  12  26  44  68  90 130 176 204 254 314 392
#     4  10  24  43  63  95 127 164 212 260 314 378
#     4   9  18  33  56  86 118 160 207 250 314 381
#
# _framework density 22.402094000000002
#
# number of rings (size 3 to 8) (size 9 to 14) (size 15 to 20)
#    0.000    2.095    1.905    0.857    2.667    1.524 
#    0.000    5.714    0.000    1.143    0.000    0.000 
#    0.000    0.000    0.000    0.000    0.000    0.000 
#
# Total GULP energy -117066.330696 kJ/mol
# GULP energy per Si atom -5574.587176 kJ/mol
# Density = 2.235111 g / cm^3
# Si number density = 22.402094 Si / 1000 Ang^3
#
#
#
# Elastic Constant Matrix: (Units=GPa)
#
#
# Indices 1 2 3 4 5 6 
#
# 1 110.5934 1.1157 26.5654 0.0000 11.0865 0.0000
# 2 1.1157 99.1675 7.5655 0.0000 3.1377 0.0000
# 3 26.5654 7.5655 83.7418 0.0000 -7.6755 0.0000
# 4 0.0000 0.0000 0.0000 2.8382 0.0000 14.3545
# 5 11.0865 3.1377 -7.6755 0.0000 38.2542 0.0000
# 6 0.0000 0.0000 0.0000 14.3545 0.0000 -12.7553
#
#
#
# Elastic Compliance Matrix: (Units=1/GPa)
#
#
# Indices 1 2 3 4 5 6 
#
# 1 0.010285 0.000279 -0.003630 0.000000 -0.003732 0.000000
# 2 0.000279 0.010202 -0.001115 0.000000 -0.001141 0.000000
# 3 -0.003630 -0.001115 0.013548 0.000000 0.003862 0.000000
# 4 0.000000 0.000000 0.000000 0.052653 0.000000 0.059254
# 5 -0.003732 -0.001141 0.003862 0.000000 0.028091 0.000000
# 6 0.000000 0.000000 0.000000 0.059254 0.000000 -0.011716
#
#
# Mechanical properties :
#
#
# Convention : Reuss Voigt Hill
#
# Bulk Modulus (GPa) = 39.83483 40.44399 40.13941
# Shear Modulus (GPa) = 41.54117 22.88449 32.21283
#
# Velocity S-wave (km/s) = 4.31088 3.19961 3.79613
# Velocity P-wave (km/s) = 6.52676 5.63408 6.09678
#
# Compressibility (1/GPa) = 0.02510366
#
# Stress axis : x y z
#
# Youngs Moduli (GPa) = 97.22493 98.02017 73.81305
#
# Poissons Ratio (x) = -0.02738 0.26795
# Poissons Ratio (y) = -0.02716 0.08229
# Poissons Ratio (z) = 0.35294 0.10928
#
# Static dielectric constant tensor:
#      x y z
#    x 1.827300 0.000000 -0.046620 
#    y 0.000000 1.879370 0.000000 
#    z -0.046620 0.000000 1.823420 
# 
# From -- ./inp_files/163311.got.cif
#   From: 2010.05.17/outbox.cif.g08.bks.cpg/sg12_82_cif.got.tgz:163311.got - 2010.06.03 13:09:07.
