data_PCOD9185235
_publ_section_title
;
Structure prediction by ZEFSAII (Michael W. Deem and Ramdas Pophale) SiO2 
 PCOD9185235
Probable space group: C 2/M
;
_chemical_formula_sum "Si O2"
_cell_formula_units_Z 56
_cell_length_a 25.523245
_cell_length_b 8.562975
_cell_length_c 37.179614
_cell_angle_alpha 90.000000
_cell_angle_beta 156.398142
_cell_angle_gamma 90.000000
_cell_volume 3253.392488
_symmetry_space_group_name_H-M "C 2/M"
_symmetry_group_IT_number 12
_symmetry_cell_setting 'monoclinic'
loop_
_space_group_symop_operation_xyz
x,y,z
-x,y,-z
-x,-y,-z
x,-y,z
1/2+x,1/2+y,z
1/2-x,1/2+y,-z
1/2-x,1/2-y,-z
1/2+x,1/2-y,z
loop_
_atom_site_type_symbol
_atom_site_label
_atom_site_fract_x
_atom_site_fract_y
_atom_site_fract_z
Si Si1 0.028582 0.812990 0.222096
Si Si2 0.230263 0.313065 0.906336
Si Si3 0.272993 0.688923 0.783267
Si Si4 0.689301 0.684914 0.599197
Si Si5 0.652928 0.186580 0.093793
Si Si6 0.564342 0.813339 0.593362
Si Si7 0.977928 0.810248 0.108237
O O1 0.166535 0.740458 0.320398
O O2 0.907800 0.761891 0.170554
O O3 0.998589 0.759061 0.162201
O O4 0.040565 0.000000 0.229369
O O5 0.219954 0.500000 0.902144
O O6 0.280789 0.265423 0.898869
O O7 0.341526 0.259283 0.004804
O O8 0.276673 0.500000 0.788615
O O9 0.280178 0.762507 0.826987
O O10 0.145909 0.731599 0.679928
O O11 0.401061 0.738110 0.840885
O O12 0.685402 0.500000 0.601683
O O13 0.649143 0.765384 0.611718
O O14 0.576553 0.735343 0.500454
O O15 0.658216 0.000000 0.092964
O O16 0.500000 0.234035 0.000000
O O17 0.549336 0.000000 0.583443
O O18 0.978057 0.000000 0.108523
#
# Coordination Sequence:
#
# PCOD9185235 Si02
#       7
#     8   8   8   8   8   8   8
#     4  11  21  37  56  79 113 149 185 226 274 329
#     4  11  22  37  56  79 109 148 190 228 272 325
#     4  10  19  35  58  82 108 144 185 226 274 325
#     4  11  21  33  52  81 114 145 182 223 272 328
#     4  11  23  37  54  80 110 145 187 231 274 317
#     4  10  19  34  56  81 110 144 182 224 278 328
#     4   9  18  33  54  80 110 146 183 221 271 325
#
# _framework density 17.212800999999999
#
# number of rings (size 3 to 8) (size 9 to 14) (size 15 to 20)
#    0.000    1.571    2.857    4.286    0.000    1.714 
#    0.000    2.143    0.000    0.857    0.000    0.000 
#    0.000    0.000    0.000    0.000    0.000    0.000 
#
# Total GULP energy -156414.937131 kJ/mol
# GULP energy per Si atom -5586.247755 kJ/mol
# Density = 1.717362 g / cm^3
# Si number density = 17.212801 Si / 1000 Ang^3
#
#
#
# Elastic Constant Matrix: (Units=GPa)
#
#
# Indices 1 2 3 4 5 6 
#
# 1 62.5539 5.9365 38.8664 0.0005 12.8776 -0.0010
# 2 5.9365 20.6313 11.0370 0.0003 -1.3443 -0.0005
# 3 38.8664 11.0370 124.5858 0.0008 6.9859 0.0023
# 4 0.0005 0.0003 0.0008 18.4175 0.0002 7.9178
# 5 12.8776 -1.3443 6.9859 0.0002 25.6787 -0.0001
# 6 -0.0010 -0.0005 0.0023 7.9178 -0.0001 12.0476
#
#
#
# Elastic Compliance Matrix: (Units=1/GPa)
#
#
# Indices 1 2 3 4 5 6 
#
# 1 0.022057 -0.003760 -0.006008 -0.000002 -0.009624 0.000004
# 2 -0.003760 0.051920 -0.003742 -0.000003 0.005622 0.000005
# 3 -0.006008 -0.003742 0.010231 0.000001 0.000034 -0.000003
# 4 -0.000002 -0.000003 0.000001 0.075678 0.000000 -0.049736
# 5 -0.009624 0.005622 0.000034 0.000000 0.044054 0.000000
# 6 0.000004 0.000005 -0.000003 -0.049736 0.000000 0.115692
#
#
# Mechanical properties :
#
#
# Convention : Reuss Voigt Hill
#
# Bulk Modulus (GPa) = 17.48621 35.49453 26.49037
# Shear Modulus (GPa) = 13.67187 21.35749 17.51468
#
# Velocity S-wave (km/s) = 2.82136 3.52631 3.19335
# Velocity P-wave (km/s) = 4.56008 6.10291 5.38702
#
# Compressibility (1/GPa) = 0.05718793
#
# Stress axis : x y z
#
# Youngs Moduli (GPa) = 45.33623 19.26046 97.74591
#
# Poissons Ratio (x) = 0.07241 0.58730
# Poissons Ratio (y) = 0.17045 0.36575
# Poissons Ratio (z) = 0.27240 0.07207
#
# Static dielectric constant tensor:
#      x y z
#    x 1.548910 0.000000 -0.001290 
#    y 0.000000 1.576620 0.000000 
#    z -0.001290 0.000000 1.586930 
# 
# From -- ./inp_files/380809.got.cif
#   From: 2010.05.17/outbox.cif.g08.bks.cpg/sg12_191_cif.got.tgz:380809.got - 2010.06.03 13:09:07.
