data_PCOD9185954
_publ_section_title
;
Structure prediction by ZEFSAII (Michael W. Deem and Ramdas Pophale) SiO2 
 PCOD9185954
Probable space group: C 2/M
;
_chemical_formula_sum "Si O2"
_cell_formula_units_Z 48
_cell_length_a 13.974426
_cell_length_b 19.413029
_cell_length_c 11.730552
_cell_angle_alpha 90.000000
_cell_angle_beta 48.938371
_cell_angle_gamma 90.000000
_cell_volume 2399.490715
_symmetry_space_group_name_H-M "C 2/M"
_symmetry_group_IT_number 12
_symmetry_cell_setting 'monoclinic'
loop_
_space_group_symop_operation_xyz
x,y,z
-x,y,-z
-x,-y,-z
x,-y,z
1/2+x,1/2+y,z
1/2-x,1/2+y,-z
1/2-x,1/2-y,-z
1/2+x,1/2-y,z
loop_
_atom_site_type_symbol
_atom_site_label
_atom_site_fract_x
_atom_site_fract_y
_atom_site_fract_z
Si Si1 0.192658 0.918985 0.041086
Si Si2 0.630895 0.209521 0.468916
Si Si3 0.647469 0.851035 0.907600
Si Si4 0.511018 0.578995 0.619619
Si Si5 0.251197 0.354443 0.575119
Si Si6 0.345642 0.304932 0.112285
O O1 0.312312 0.904443 0.027972
O O2 0.077740 0.892026 0.212460
O O3 0.177973 0.000000 0.025143
O O4 0.196087 0.868936 0.931431
O O5 0.500000 0.204434 0.500000
O O6 0.657278 0.286983 0.492503
O O7 0.638691 0.162271 0.575681
O O8 0.757183 0.192899 0.294624
O O9 0.709991 0.867082 0.736583
O O10 0.682609 0.772127 0.913376
O O11 0.500000 0.851962 0.000000
O O12 0.500000 0.608161 0.500000
O O13 0.468856 0.500000 0.643538
O O14 0.657172 0.585471 0.538406
O O15 0.500000 0.308890 0.000000
#
# Coordination Sequence:
#
# PCOD9185954 Si02
#       6
#     8   8   8   8   8   8
#     4  11  23  38  62  89 119 161 204 250 300 357
#     4  10  22  36  61  90 119 157 195 244 300 360
#     4  10  22  37  59  91 120 157 199 248 303 359
#     4  10  19  34  58  87 116 149 195 247 299 349
#     4  10  20  37  59  87 121 150 193 245 303 350
#     4  10  22  41  60  89 124 160 201 251 302 362
#
# _framework density 20.004245999999998
#
# number of rings (size 3 to 8) (size 9 to 14) (size 15 to 20)
#    0.000    1.833    1.667    2.000    4.667    2.000 
#    0.000    0.833    0.000    1.000    0.000    0.000 
#    0.000    0.000    0.000    0.000    0.000    0.000 
#
# Total GULP energy -133761.423790 kJ/mol
# GULP energy per Si atom -5573.392658 kJ/mol
# Density = 1.995872 g / cm^3
# Si number density = 20.004246 Si / 1000 Ang^3
#
#
#
# Elastic Constant Matrix: (Units=GPa)
#
#
# Indices 1 2 3 4 5 6 
#
# 1 85.7288 15.6556 4.9578 0.0000 -3.9789 0.0000
# 2 15.6556 44.1131 29.3143 0.0000 4.5905 0.0000
# 3 4.9578 29.3143 56.2347 0.0000 0.1472 0.0000
# 4 0.0000 0.0000 0.0000 17.1604 0.0000 -7.3052
# 5 -3.9789 4.5905 0.1472 0.0000 23.2001 0.0000
# 6 0.0000 0.0000 0.0000 -7.3052 0.0000 12.1595
#
#
#
# Elastic Compliance Matrix: (Units=1/GPa)
#
#
# Indices 1 2 3 4 5 6 
#
# 1 0.012863 -0.006372 0.002179 0.000000 0.003453 0.000000
# 2 -0.006372 0.038930 -0.019709 0.000000 -0.008671 0.000000
# 3 0.002179 -0.019709 0.027854 0.000000 0.004097 0.000000
# 4 0.000000 0.000000 0.000000 0.078299 0.000000 0.047041
# 5 0.003453 -0.008671 0.004097 0.000000 0.045385 0.000000
# 6 0.000000 0.000000 0.000000 0.047041 0.000000 0.110502
#
#
# Mechanical properties :
#
#
# Convention : Reuss Voigt Hill
#
# Bulk Modulus (GPa) = 31.40564 31.77022 31.58793
# Shear Modulus (GPa) = 13.43181 19.58058 16.50619
#
# Velocity S-wave (km/s) = 2.59404 3.13201 2.87563
# Velocity P-wave (km/s) = 4.97048 5.38475 5.18175
#
# Compressibility (1/GPa) = 0.03184141
#
# Stress axis : x y z
#
# Youngs Moduli (GPa) = 77.74482 25.68726 35.90172
#
# Poissons Ratio (x) = 0.16368 -0.07821
# Poissons Ratio (y) = 0.49538 0.70759
# Poissons Ratio (z) = -0.16937 0.50627
#
# Static dielectric constant tensor:
#      x y z
#    x 1.751410 0.000000 -0.000020 
#    y 0.000000 1.735260 0.000000 
#    z -0.000020 0.000000 1.767270 
# 
# From -- ./inp_files/133717.got.cif
#   From: 2010.05.17/outbox.cif.g08.bks.cpg/sg12_67_cif.got.tgz:133717.got - 2010.06.03 13:09:07.
