data_PCOD9185964
_publ_section_title
;
Structure prediction by ZEFSAII (Michael W. Deem and Ramdas Pophale) SiO2 
 PCOD9185964
Probable space group: C 2/M
;
_chemical_formula_sum "Si O2"
_cell_formula_units_Z 56
_cell_length_a 23.852256
_cell_length_b 9.107247
_cell_length_c 30.000049
_cell_angle_alpha 90.000000
_cell_angle_beta 26.369489
_cell_angle_gamma 90.000000
_cell_volume 2894.517377
_symmetry_space_group_name_H-M "C 2/M"
_symmetry_group_IT_number 12
_symmetry_cell_setting 'monoclinic'
loop_
_space_group_symop_operation_xyz
x,y,z
-x,y,-z
-x,-y,-z
x,-y,z
1/2+x,1/2+y,z
1/2-x,1/2+y,-z
1/2-x,1/2-y,-z
1/2+x,1/2-y,z
loop_
_atom_site_type_symbol
_atom_site_label
_atom_site_fract_x
_atom_site_fract_y
_atom_site_fract_z
Si Si1 0.783819 0.826506 0.366967
Si Si2 0.634942 0.674274 0.225321
Si Si3 0.487167 0.837270 0.760525
Si Si4 0.412290 0.326016 0.182166
Si Si5 0.859284 0.174893 0.118345
Si Si6 0.649316 0.324936 0.537748
Si Si7 0.139075 0.339369 0.055986
O O1 0.822112 0.787188 0.288669
O O2 0.675266 0.736610 0.469479
O O3 0.903647 0.783341 0.312553
O O4 0.760010 0.000000 0.385885
O O5 0.644457 0.500000 0.211370
O O6 0.627183 0.767749 0.185436
O O7 0.750544 0.733399 0.171802
O O8 0.495959 0.705314 0.345384
O O9 0.449882 0.858483 0.837836
O O10 0.523439 0.000000 0.716962
O O11 0.436244 0.500000 0.169846
O O12 0.354464 0.298691 0.174931
O O13 0.548019 0.246400 0.087484
O O14 0.839752 0.000000 0.124413
O O15 0.000000 0.210130 0.000000
O O16 0.668272 0.500000 0.525538
O O17 0.750000 0.250000 0.500000
O O18 0.179353 0.500000 0.010768
O O19 0.250000 0.250000 0.000000
#
# Coordination Sequence:
#
# PCOD9185964 Si02
#       7
#     8   8   8   8   8   8   8
#     4  10  19  34  58  87 119 154 191 238 295 352
#     4  11  24  39  58  87 121 154 198 249 298 352
#     4  10  20  34  54  81 116 155 193 235 290 354
#     4   9  20  39  59  82 115 153 196 245 295 354
#     4  10  23  43  65  86 114 157 205 250 298 355
#     4  11  22  36  58  89 124 160 196 240 301 361
#     4  10  21  34  53  82 113 149 191 240 298 356
#
# _framework density 19.346920999999998
#
# number of rings (size 3 to 8) (size 9 to 14) (size 15 to 20)
#    0.000    1.857    1.429    2.143    2.000    4.857 
#    0.000    0.714    0.000    4.286    0.000    0.000 
#    0.000    0.000    0.000    0.000    0.000    0.000 
#
# Total GULP energy -156058.312350 kJ/mol
# GULP energy per Si atom -5573.511155 kJ/mol
# Density = 1.930289 g / cm^3
# Si number density = 19.346921 Si / 1000 Ang^3
#
#
#
# Elastic Constant Matrix: (Units=GPa)
#
#
# Indices 1 2 3 4 5 6 
#
# 1 91.4707 37.2994 28.1561 0.0077 -2.5585 -0.0169
# 2 37.2994 72.1980 28.7088 0.0144 -6.1246 -0.0322
# 3 28.1561 28.7088 69.9858 0.0038 -2.8923 -0.0069
# 4 0.0077 0.0144 0.0038 29.9679 -0.0054 -5.9731
# 5 -2.5585 -6.1246 -2.8923 -0.0054 28.8243 0.0144
# 6 -0.0169 -0.0322 -0.0069 -5.9731 0.0144 25.3629
#
#
#
# Elastic Compliance Matrix: (Units=1/GPa)
#
#
# Indices 1 2 3 4 5 6 
#
# 1 0.014461 -0.006192 -0.003293 0.000000 -0.000363 0.000001
# 2 -0.006192 0.019438 -0.005357 -0.000003 0.003043 0.000017
# 3 -0.003293 -0.005357 0.017825 0.000000 0.000358 -0.000004
# 4 0.000000 -0.000003 0.000000 0.035013 0.000002 0.008246
# 5 -0.000363 0.003043 0.000358 0.000002 0.035343 -0.000016
# 6 0.000001 0.000017 -0.000004 0.008246 -0.000016 0.041370
#
#
# Mechanical properties :
#
#
# Convention : Reuss Voigt Hill
#
# Bulk Modulus (GPa) = 45.36966 46.88701 46.12833
# Shear Modulus (GPa) = 24.94011 26.13037 25.53524
#
# Velocity S-wave (km/s) = 3.59430 3.67907 3.63693
# Velocity P-wave (km/s) = 6.38176 6.50652 6.44444
#
# Compressibility (1/GPa) = 0.02204116
#
# Stress axis : x y z
#
# Youngs Moduli (GPa) = 69.15177 51.44529 56.09961
#
# Poissons Ratio (x) = 0.31857 0.18471
# Poissons Ratio (y) = 0.42821 0.30051
# Poissons Ratio (z) = 0.22769 0.27558
#
# Static dielectric constant tensor:
#      x y z
#    x 1.665700 0.000000 0.059510 
#    y 0.000000 1.726120 0.000000 
#    z 0.059510 0.000000 1.748010 
# 
# From -- ./inp_files/329700.got.cif
#   From: 2010.05.17/outbox.cif.g08.bks.cpg/sg12_165_cif.got.tgz:329700.got - 2010.06.03 13:09:07.
