data_PCOD9185500
_publ_section_title
;
Structure prediction by ZEFSAII (Michael W. Deem and Ramdas Pophale) SiO2 
 PCOD9185500
Probable space group: C 2/M
;
_chemical_formula_sum "Si O2"
_cell_formula_units_Z 64
_cell_length_a 20.835577
_cell_length_b 7.591509
_cell_length_c 19.448332
_cell_angle_alpha 90.000000
_cell_angle_beta 92.905396
_cell_angle_gamma 90.000000
_cell_volume 3072.255967
_symmetry_space_group_name_H-M "C 2/M"
_symmetry_group_IT_number 12
_symmetry_cell_setting 'monoclinic'
loop_
_space_group_symop_operation_xyz
x,y,z
-x,y,-z
-x,-y,-z
x,-y,z
1/2+x,1/2+y,z
1/2-x,1/2+y,-z
1/2-x,1/2-y,-z
1/2+x,1/2-y,z
loop_
_atom_site_type_symbol
_atom_site_label
_atom_site_fract_x
_atom_site_fract_y
_atom_site_fract_z
Si Si1 0.433543 0.785377 0.912171
Si Si2 0.975702 0.286093 0.303749
Si Si3 0.396829 0.793388 0.762368
Si Si4 0.297873 0.709916 0.440474
Si Si5 0.357961 0.214918 0.197979
Si Si6 0.255929 0.705917 0.712483
Si Si7 0.940350 0.796077 0.455684
Si Si8 0.916822 0.714482 0.062559
O O1 0.400293 0.722128 0.840506
O O2 0.509297 0.738977 0.915068
O O3 0.430838 0.000000 0.913876
O O4 0.405214 0.725114 0.983809
O O5 0.975618 0.500000 0.310265
O O6 0.920912 0.239011 0.245794
O O7 0.957380 0.211365 0.376480
O O8 0.044983 0.222997 0.280849
O O9 0.327244 0.778676 0.725217
O O10 0.411849 0.000000 0.770046
O O11 0.303240 0.500000 0.433897
O O12 0.250000 0.750000 0.500000
O O13 0.271595 0.773982 0.365736
O O14 0.369215 0.782232 0.459901
O O15 0.295305 0.279578 0.235234
O O16 0.369743 0.274567 0.120534
O O17 0.355402 0.000000 0.197273
O O18 0.261881 0.500000 0.727149
O O19 0.000000 0.714428 0.500000
O O20 0.935573 0.000000 0.478693
O O21 0.914858 0.500000 0.062361
#
# Coordination Sequence:
#
# PCOD9185500 Si02
#       8
#     8   8   8   8   8   8   8   8
#     4   8  13  23  44  76 110 138 171 226 282 321
#     4  10  19  34  57  82 107 139 181 229 269 314
#     4  10  20  34  53  82 114 143 182 233 279 321
#     4  11  24  42  62  84 113 147 181 219 265 324
#     4   9  16  30  51  76 105 139 183 227 267 318
#     4  11  23  38  56  77 109 151 187 224 271 326
#     4  10  23  41  59  83 113 141 171 217 270 322
#     4   8  12  22  45  76 106 137 177 225 276 322
#
# _framework density 20.831598
#
# number of rings (size 3 to 8) (size 9 to 14) (size 15 to 20)
#    0.000    2.375    2.500    1.500    1.750    1.250 
#    0.000    0.625    0.000    0.000    0.000    3.500 
#    0.000    0.000    0.000    0.000    0.000    0.000 
#
# Total GULP energy -178594.461603 kJ/mol
# GULP energy per Si atom -5581.076925 kJ/mol
# Density = 2.078418 g / cm^3
# Si number density = 20.831598 Si / 1000 Ang^3
#
#
#
# Elastic Constant Matrix: (Units=GPa)
#
#
# Indices 1 2 3 4 5 6 
#
# 1 146.6807 -7.5856 61.4681 0.0000 -14.4617 0.0000
# 2 -7.5856 39.1809 -11.9859 0.0000 0.9683 0.0000
# 3 61.4681 -11.9859 101.9496 0.0000 -22.6625 0.0000
# 4 0.0000 0.0000 0.0000 -27.8624 0.0000 -27.5969
# 5 -14.4617 0.9683 -22.6625 0.0000 37.1386 0.0000
# 6 0.0000 0.0000 0.0000 -27.5969 0.0000 -22.8903
#
#
#
# Elastic Compliance Matrix: (Units=1/GPa)
#
#
# Indices 1 2 3 4 5 6 
#
# 1 0.009124 0.000097 -0.005438 0.000000 0.000232 0.000000
# 2 0.000097 0.026539 0.003374 0.000000 0.001405 0.000000
# 3 -0.005438 0.003374 0.015033 0.000000 0.006968 0.000000
# 4 0.000000 0.000000 0.000000 0.184881 0.000000 -0.222895
# 5 0.000232 0.001405 0.006968 0.000000 0.031232 0.000000
# 6 0.000000 0.000000 0.000000 -0.222895 0.000000 0.225039
#
#
# Mechanical properties :
#
#
# Convention : Reuss Voigt Hill
#
# Bulk Modulus (GPa) = 21.38511 41.28939 31.33725
# Shear Modulus (GPa) = 9.77765 13.67148 11.72456
#
# Velocity S-wave (km/s) = 2.16884 2.56459 2.37497
# Velocity P-wave (km/s) = 4.06937 5.35099 4.75357
#
# Compressibility (1/GPa) = 0.04676150
#
# Stress axis : x y z
#
# Youngs Moduli (GPa) = 109.59583 37.68066 66.51920
#
# Poissons Ratio (x) = -0.00366 0.36176
# Poissons Ratio (y) = -0.01064 -0.22442
# Poissons Ratio (z) = 0.59603 -0.12713
#
# Static dielectric constant tensor:
#      x y z
#    x 1.735880 0.000000 -0.015150 
#    y 0.000000 1.792130 0.000000 
#    z -0.015150 0.000000 1.730550 
# 
# From -- ./inp_files/314149.got.cif
#   From: 2010.05.17/outbox.cif.g08.bks.cpg/sg12_158_cif.got.tgz:314149.got - 2010.06.03 13:09:07.
