data_PCOD9185678
_publ_section_title
;
Structure prediction by ZEFSAII (Michael W. Deem and Ramdas Pophale) SiO2 
 PCOD9185678
Probable space group: C 2/M
;
_chemical_formula_sum "Si O2"
_cell_formula_units_Z 64
_cell_length_a 17.495033
_cell_length_b 13.620495
_cell_length_c 24.691187
_cell_angle_alpha 90.000000
_cell_angle_beta 29.863046
_cell_angle_gamma 90.000000
_cell_volume 2929.655965
_symmetry_space_group_name_H-M "C 2/M"
_symmetry_group_IT_number 12
_symmetry_cell_setting 'monoclinic'
loop_
_space_group_symop_operation_xyz
x,y,z
-x,y,-z
-x,-y,-z
x,-y,z
1/2+x,1/2+y,z
1/2-x,1/2+y,-z
1/2-x,1/2-y,-z
1/2+x,1/2-y,z
loop_
_atom_site_type_symbol
_atom_site_label
_atom_site_fract_x
_atom_site_fract_y
_atom_site_fract_z
Si Si1 0.968011 0.113924 0.934891
Si Si2 0.153523 0.284068 0.936243
Si Si3 0.673537 0.893686 0.417808
Si Si4 0.737385 0.743438 0.238411
Si Si5 0.817698 0.176561 0.620561
Si Si6 0.464724 0.111218 0.264092
Si Si7 0.314348 0.114797 0.967484
Si Si8 0.473079 0.113374 0.383233
O O1 0.859014 0.119371 0.949166
O O2 0.112442 0.187569 0.846117
O O3 0.005011 0.000000 0.922463
O O4 0.862021 0.165907 0.045774
O O5 0.275587 0.298341 0.814175
O O6 0.171691 0.331082 0.983703
O O7 0.000000 0.320310 0.000000
O O8 0.500000 0.899074 0.500000
O O9 0.733141 0.789849 0.360352
O O10 0.665011 0.885756 0.488539
O O11 0.746205 0.000000 0.358463
O O12 0.728743 0.660450 0.288797
O O13 0.595901 0.815221 0.334077
O O14 0.709436 0.113027 0.649591
O O15 0.000000 0.166213 0.500000
O O16 0.456355 0.146371 0.331333
O O17 0.524396 0.000000 0.231488
O O18 0.572111 0.155177 0.150053
O O19 0.352588 0.000000 0.952546
O O20 0.526489 0.000000 0.350527
#
# Coordination Sequence:
#
# PCOD9185678 Si02
#       8
#     8   8   8   8   8   8   8   8
#     4  10  21  35  57  87 120 153 184 227 290 351
#     4  10  21  34  54  83 116 147 193 238 284 335
#     4   9  17  33  56  83 116 150 183 226 284 344
#     4  11  21  34  56  89 117 153 189 233 287 346
#     4  11  22  40  59  83 115 153 197 239 290 339
#     4  10  22  38  61  86 111 151 198 241 287 338
#     4  10  21  41  61  82 115 155 196 238 286 342
#     4  10  19  34  57  86 116 148 191 236 279 337
#
# _framework density 21.845568
#
# number of rings (size 3 to 8) (size 9 to 14) (size 15 to 20)
#    0.000    1.875    2.500    3.000    0.000    6.250 
#    0.000    0.625    0.000    0.000    0.000    0.000 
#    0.000    0.000    0.000    0.000    0.000    0.000 
#
# Total GULP energy -178298.261380 kJ/mol
# GULP energy per Si atom -5571.820668 kJ/mol
# Density = 2.179585 g / cm^3
# Si number density = 21.845568 Si / 1000 Ang^3
#
#
#
# Elastic Constant Matrix: (Units=GPa)
#
#
# Indices 1 2 3 4 5 6 
#
# 1 119.8646 12.2455 31.6514 -0.0005 32.5122 0.0002
# 2 12.2455 42.1974 4.3825 -0.0021 10.8434 0.0001
# 3 31.6514 4.3825 53.8659 -0.0060 26.0811 0.0007
# 4 -0.0005 -0.0021 -0.0060 10.4993 0.0008 1.9871
# 5 32.5122 10.8434 26.0811 0.0008 42.9032 -0.0001
# 6 0.0002 0.0001 0.0007 1.9871 -0.0001 23.6078
#
#
#
# Elastic Compliance Matrix: (Units=1/GPa)
#
#
# Indices 1 2 3 4 5 6 
#
# 1 0.010996 -0.001319 -0.003515 -0.000001 -0.005862 0.000000
# 2 -0.001319 0.025585 0.001900 0.000007 -0.006621 -0.000001
# 3 -0.003515 0.001900 0.027518 0.000017 -0.014544 -0.000002
# 4 -0.000001 0.000007 0.000017 0.096786 -0.000013 -0.008147
# 5 -0.005862 -0.006621 -0.014544 -0.000013 0.038266 0.000002
# 6 0.000000 -0.000001 -0.000002 -0.008147 0.000002 0.043045
#
#
# Mechanical properties :
#
#
# Convention : Reuss Voigt Hill
#
# Bulk Modulus (GPa) = 17.17362 34.72073 25.94717
# Shear Modulus (GPa) = 18.69330 26.57863 22.63596
#
# Velocity S-wave (km/s) = 2.92841 3.49185 3.22247
# Velocity P-wave (km/s) = 4.39461 5.67323 5.07435
#
# Compressibility (1/GPa) = 0.05822884
#
# Stress axis : x y z
#
# Youngs Moduli (GPa) = 90.94309 39.08503 36.33992
#
# Poissons Ratio (x) = 0.05157 0.12775
# Poissons Ratio (y) = 0.11999 -0.06904
# Poissons Ratio (z) = 0.31970 -0.07425
#
# Static dielectric constant tensor:
#      x y z
#    x 1.824650 0.000000 0.026820 
#    y 0.000000 1.820610 0.000000 
#    z 0.026820 0.000000 1.905600 
# 
# From -- ./inp_files/344051.got.cif
#   From: 2010.05.17/outbox.cif.g08.bks.cpg/sg12_173_cif.got.tgz:344051.got - 2010.06.03 13:09:07.
