data_PCOD9185446
_publ_section_title
;
Structure prediction by ZEFSAII (Michael W. Deem and Ramdas Pophale) SiO2 
 PCOD9185446
Probable space group: C 2/M
;
_chemical_formula_sum "Si O2"
_cell_formula_units_Z 56
_cell_length_a 9.290167
_cell_length_b 19.191488
_cell_length_c 16.060214
_cell_angle_alpha 90.000000
_cell_angle_beta 72.020484
_cell_angle_gamma 90.000000
_cell_volume 2723.580659
_symmetry_space_group_name_H-M "C 2/M"
_symmetry_group_IT_number 12
_symmetry_cell_setting 'monoclinic'
loop_
_space_group_symop_operation_xyz
x,y,z
-x,y,-z
-x,-y,-z
x,-y,z
1/2+x,1/2+y,z
1/2-x,1/2+y,-z
1/2-x,1/2-y,-z
1/2+x,1/2-y,z
loop_
_atom_site_type_symbol
_atom_site_label
_atom_site_fract_x
_atom_site_fract_y
_atom_site_fract_z
Si Si1 0.844915 0.917368 0.981111
Si Si2 0.302255 0.280307 0.360928
Si Si3 0.089114 0.708911 0.252237
Si Si4 0.938901 0.318421 0.926498
Si Si5 0.122278 0.577838 0.680907
Si Si6 0.281184 0.080260 0.163284
Si Si7 0.676883 0.644303 0.480440
O O1 0.851181 0.908614 0.879550
O O2 0.811387 0.000000 0.003685
O O3 0.707805 0.866949 0.032101
O O4 0.000000 0.900875 0.000000
O O5 0.239393 0.290230 0.279555
O O6 0.476778 0.261913 0.317834
O O7 0.286359 0.342084 0.429572
O O8 0.219139 0.214958 0.421011
O O9 0.096561 0.722919 0.152191
O O10 0.007816 0.634294 0.280878
O O11 0.079768 0.369582 0.882741
O O12 0.000000 0.280873 0.000000
O O13 0.062063 0.500000 0.698794
O O14 0.243818 0.589305 0.734273
O O15 0.210825 0.589016 0.580079
O O16 0.330375 0.000000 0.142205
O O17 0.500000 0.629222 0.500000
#
# Coordination Sequence:
#
# PCOD9185446 Si02
#       7
#     8   8   8   8   8   8   8
#     4   9  16  27  46  74 107 140 176 217 259 310
#     4  10  20  36  57  81 104 136 192 228 269 306
#     4  10  20  37  58  81 106 142 182 232 266 312
#     4   9  17  31  50  75 102 138 178 213 262 320
#     4   9  19  33  54  81 112 145 177 214 273 334
#     4   8  14  28  48  69  99 142 182 212 247 312
#     4  10  19  34  57  80 106 141 180 231 264 321
#
# _framework density 20.561167999999999
#
# number of rings (size 3 to 8) (size 9 to 14) (size 15 to 20)
#    0.000    2.714    1.429    0.429    0.000    2.571 
#    2.571    3.571    0.000    0.000    0.000    0.000 
#    0.000    0.000    0.000    0.000    0.000    0.000 
#
# Total GULP energy -156041.670906 kJ/mol
# GULP energy per Si atom -5572.916818 kJ/mol
# Density = 2.051437 g / cm^3
# Si number density = 20.561168 Si / 1000 Ang^3
#
#
#
# Elastic Constant Matrix: (Units=GPa)
#
#
# Indices 1 2 3 4 5 6 
#
# 1 71.4907 -3.5340 10.5236 0.0000 24.4251 0.0000
# 2 -3.5340 23.4051 10.1814 0.0000 4.6498 0.0000
# 3 10.5236 10.1814 82.9031 0.0000 25.7982 0.0000
# 4 0.0000 0.0000 0.0000 17.2474 0.0000 5.1120
# 5 24.4251 4.6498 25.7982 0.0000 34.4959 0.0000
# 6 0.0000 0.0000 0.0000 5.1120 0.0000 -6.6168
#
#
#
# Elastic Compliance Matrix: (Units=1/GPa)
#
#
# Indices 1 2 3 4 5 6 
#
# 1 0.019373 0.005276 0.001802 0.000000 -0.015776 0.000000
# 2 0.005276 0.046743 -0.004284 0.000000 -0.006832 0.000000
# 3 0.001802 -0.004284 0.016392 0.000000 -0.012957 0.000000
# 4 0.000000 0.000000 0.000000 0.047177 0.000000 0.036448
# 5 -0.015776 -0.006832 -0.012957 0.000000 0.050771 0.000000
# 6 0.000000 0.000000 0.000000 0.036448 0.000000 -0.122972
#
#
# Mechanical properties :
#
#
# Convention : Reuss Voigt Hill
#
# Bulk Modulus (GPa) = 11.35129 23.57121 17.46125
# Shear Modulus (GPa) = 61.52851 19.73381 40.63116
#
# Velocity S-wave (km/s) = 5.47627 3.10136 4.45017
# Velocity P-wave (km/s) = 6.74676 4.93086 5.90899
#
# Compressibility (1/GPa) = 0.08809575
#
# Stress axis : x y z
#
# Youngs Moduli (GPa) = 51.61716 21.39341 61.00609
#
# Poissons Ratio (x) = -0.11286 -0.10995
# Poissons Ratio (y) = -0.27231 0.26136
# Poissons Ratio (z) = -0.09303 0.09165
#
# Static dielectric constant tensor:
#      x y z
#    x 1.699750 0.000000 0.045670 
#    y 0.000000 1.748460 0.000000 
#    z 0.045670 0.000000 1.778190 
# 
# From -- ./inp_files/198340.got.cif
#   From: 2010.05.17/outbox.cif.g08.bks.cpg/sg12_100_cif.got.tgz:198340.got - 2010.06.03 13:09:07.
