data_PCOD9185190
_publ_section_title
;
Structure prediction by ZEFSAII (Michael W. Deem and Ramdas Pophale) SiO2 
 PCOD9185190
Probable space group: C 2/M
;
_chemical_formula_sum "Si O2"
_cell_formula_units_Z 64
_cell_length_a 27.529286
_cell_length_b 7.667133
_cell_length_c 24.502623
_cell_angle_alpha 90.000000
_cell_angle_beta 149.211229
_cell_angle_gamma 90.000000
_cell_volume 2647.305299
_symmetry_space_group_name_H-M "C 2/M"
_symmetry_group_IT_number 12
_symmetry_cell_setting 'monoclinic'
loop_
_space_group_symop_operation_xyz
x,y,z
-x,y,-z
-x,-y,-z
x,-y,z
1/2+x,1/2+y,z
1/2-x,1/2+y,-z
1/2-x,1/2-y,-z
1/2+x,1/2-y,z
loop_
_atom_site_type_symbol
_atom_site_label
_atom_site_fract_x
_atom_site_fract_y
_atom_site_fract_z
Si Si1 0.445063 0.797377 0.173628
Si Si2 0.550569 0.292025 0.165640
Si Si3 0.619697 0.793421 0.064685
Si Si4 0.591265 0.297029 0.710195
Si Si5 0.273266 0.211708 0.945731
Si Si6 0.419764 0.198280 0.604134
Si Si7 0.231975 0.714792 0.620482
Si Si8 0.303874 0.200276 0.297692
O O1 0.498307 0.791526 0.166986
O O2 0.518001 0.717489 0.287589
O O3 0.430863 0.000000 0.174961
O O4 0.340587 0.719626 0.059297
O O5 0.548602 0.500000 0.170893
O O6 0.658804 0.232227 0.271051
O O7 0.489663 0.251181 0.052538
O O8 0.670400 0.745743 0.055944
O O9 0.690192 0.707711 0.176152
O O10 0.627148 0.000000 0.079948
O O11 0.573496 0.500000 0.703654
O O12 0.667347 0.229418 0.828790
O O13 0.493699 0.198026 0.624998
O O14 0.640623 0.284887 0.698961
O O15 0.271341 0.000000 0.947300
O O16 0.323875 0.275755 0.487051
O O17 0.398195 0.000000 0.600685
O O18 0.229506 0.500000 0.618152
O O19 0.182479 0.774214 0.628819
O O20 0.333721 0.000000 0.326140
#
# Coordination Sequence:
#
# PCOD9185190 Si02
#       8
#     8   8   8   8   8   8   8   8
#     4   9  18  34  56  80 107 141 179 222 271 320
#     4  10  19  34  56  80 108 143 180 218 268 324
#     4   9  17  32  53  81 113 138 169 217 271 322
#     4  10  20  35  54  79 111 140 173 225 280 323
#     4   7  13  28  49  73 103 133 159 200 260 318
#     4  10  21  38  56  75 104 145 190 227 266 319
#     4   9  21  38  54  76 107 143 186 231 265 312
#     4  10  19  35  58  80 105 142 183 218 265 325
#
# _framework density 24.175526999999999
#
# number of rings (size 3 to 8) (size 9 to 14) (size 15 to 20)
#    0.000    2.750    0.000    3.000    0.000    2.500 
#    0.000   10.625    0.000    0.000    0.000    0.000 
#    0.000    0.000    0.000    0.000    0.000    0.000 
#
# Total GULP energy -178657.381183 kJ/mol
# GULP energy per Si atom -5583.043162 kJ/mol
# Density = 2.412050 g / cm^3
# Si number density = 24.175527 Si / 1000 Ang^3
#
#
#
# Elastic Constant Matrix: (Units=GPa)
#
#
# Indices 1 2 3 4 5 6 
#
# 1 43.0927 -4.9781 10.9182 0.0000 -6.1748 0.0000
# 2 -4.9781 62.2245 -7.9021 0.0000 -5.5516 -0.0001
# 3 10.9182 -7.9021 107.1550 0.0000 -14.6871 0.0000
# 4 0.0000 0.0000 0.0000 8.9418 0.0000 2.6468
# 5 -6.1748 -5.5516 -14.6871 0.0000 30.6552 0.0000
# 6 0.0000 -0.0001 0.0000 2.6468 0.0000 9.8024
#
#
#
# Elastic Compliance Matrix: (Units=1/GPa)
#
#
# Indices 1 2 3 4 5 6 
#
# 1 0.024536 0.002146 -0.001724 0.000000 0.004505 0.000000
# 2 0.002146 0.016825 0.001604 0.000000 0.004248 0.000000
# 3 -0.001724 0.001604 0.010295 0.000000 0.004875 0.000000
# 4 0.000000 0.000000 0.000000 0.121550 0.000000 -0.032820
# 5 0.004505 0.004248 0.004875 0.000000 0.036633 0.000000
# 6 0.000000 0.000000 0.000000 -0.032820 0.000000 0.110878
#
#
# Mechanical properties :
#
#
# Convention : Reuss Voigt Hill
#
# Bulk Modulus (GPa) = 17.95089 23.17203 20.56146
# Shear Modulus (GPa) = 14.91493 24.17548 19.54521
#
# Velocity S-wave (km/s) = 2.48653 3.16571 2.84645
# Velocity P-wave (km/s) = 3.96044 4.79249 4.39620
#
# Compressibility (1/GPa) = 0.05570756
#
# Stress axis : x y z
#
# Youngs Moduli (GPa) = 40.75638 59.43449 97.13905
#
# Poissons Ratio (x) = -0.12754 0.16750
# Poissons Ratio (y) = -0.08746 -0.15585
# Poissons Ratio (z) = 0.07028 -0.09535
#
# Static dielectric constant tensor:
#      x y z
#    x 1.949360 0.000000 -0.010640 
#    y 0.000000 1.930420 0.000000 
#    z -0.010640 0.000000 1.965630 
# 
# From -- ./inp_files/353445.got.cif
#   From: 2010.05.17/outbox.cif.g08.bks.cpg/sg12_177_cif.got.tgz:353445.got - 2010.06.03 13:09:07.
