data_PCOD9185653
_publ_section_title
;
Structure prediction by ZEFSAII (Michael W. Deem and Ramdas Pophale) SiO2 
 PCOD9185653
Probable space group: C 2/M
;
_chemical_formula_sum "Si O2"
_cell_formula_units_Z 64
_cell_length_a 20.700906
_cell_length_b 8.570295
_cell_length_c 16.791882
_cell_angle_alpha 90.000000
_cell_angle_beta 102.958091
_cell_angle_gamma 90.000000
_cell_volume 2903.231366
_symmetry_space_group_name_H-M "C 2/M"
_symmetry_group_IT_number 12
_symmetry_cell_setting 'monoclinic'
loop_
_space_group_symop_operation_xyz
x,y,z
-x,y,-z
-x,-y,-z
x,-y,z
1/2+x,1/2+y,z
1/2-x,1/2+y,-z
1/2-x,1/2-y,-z
1/2+x,1/2-y,z
loop_
_atom_site_type_symbol
_atom_site_label
_atom_site_fract_x
_atom_site_fract_y
_atom_site_fract_z
Si Si1 0.300517 0.320899 0.740467
Si Si2 0.499582 0.687542 0.806482
Si Si3 0.589998 0.184315 0.344766
Si Si4 0.149564 0.321004 0.685979
Si Si5 0.145372 0.814826 0.859223
Si Si6 0.579051 0.678257 0.515082
Si Si7 0.430560 0.313522 0.945970
Si Si8 0.709072 0.816854 0.088740
O O1 0.314304 0.500000 0.770649
O O2 0.352754 0.267378 0.690054
O O3 0.226914 0.318298 0.684144
O O4 0.297198 0.214048 0.817930
O O5 0.503040 0.500000 0.798086
O O6 0.478218 0.762176 0.717306
O O7 0.571103 0.740403 0.860138
O O8 0.442335 0.720272 0.855506
O O9 0.594695 0.236085 0.437024
O O10 0.595946 0.000000 0.339309
O O11 0.132290 0.500000 0.702288
O O12 0.144160 0.217085 0.763759
O O13 0.107724 0.261331 0.600611
O O14 0.216769 0.750003 0.909821
O O15 0.147638 0.000000 0.875685
O O16 0.500000 0.675346 0.500000
O O17 0.603626 0.500000 0.518739
O O18 0.430320 0.500000 0.957102
O O19 0.360514 0.254664 0.959796
O O20 0.500000 0.252707 0.000000
O O21 0.708938 0.000000 0.071447
#
# Coordination Sequence:
#
# PCOD9185653 Si02
#       8
#     8   8   8   8   8   8   8   8
#     4  10  20  36  57  81 110 146 185 226 279 340
#     4  10  20  37  59  82 113 150 191 233 278 341
#     4  12  24  36  56  84 112 143 186 238 286 329
#     4  10  21  36  56  82 111 144 186 237 285 329
#     4   9  19  35  57  83 112 152 192 230 282 342
#     4  11  24  40  56  75 106 150 191 229 283 344
#     4  10  21  37  59  85 114 152 193 232 279 338
#     4  10  19  34  57  85 115 146 187 234 282 333
#
# _framework density 22.044402999999999
#
# number of rings (size 3 to 8) (size 9 to 14) (size 15 to 20)
#    0.000    1.750    1.250    3.375    0.000    7.250 
#    0.000    0.625    0.000    0.000    0.000    0.000 
#    0.000    0.000    0.000    0.000    0.000    0.000 
#
# Total GULP energy -178773.394345 kJ/mol
# GULP energy per Si atom -5586.668573 kJ/mol
# Density = 2.199423 g / cm^3
# Si number density = 22.044403 Si / 1000 Ang^3
#
#
#
# Elastic Constant Matrix: (Units=GPa)
#
#
# Indices 1 2 3 4 5 6 
#
# 1 141.6399 11.9330 22.5040 0.0000 18.5381 0.0000
# 2 11.9330 36.5999 -3.4713 0.0000 4.0855 0.0000
# 3 22.5040 -3.4713 75.8786 0.0000 11.9390 0.0000
# 4 0.0000 0.0000 0.0000 11.4433 0.0000 -3.5485
# 5 18.5381 4.0855 11.9390 0.0000 32.6116 0.0000
# 6 0.0000 0.0000 0.0000 -3.5485 0.0000 15.3133
#
#
#
# Elastic Compliance Matrix: (Units=1/GPa)
#
#
# Indices 1 2 3 4 5 6 
#
# 1 0.008036 -0.002406 -0.001933 0.000000 -0.003559 0.000000
# 2 -0.002406 0.028698 0.002522 0.000000 -0.003151 0.000000
# 3 -0.001933 0.002522 0.014585 0.000000 -0.004556 0.000000
# 4 0.000000 0.000000 0.000000 0.094153 0.000000 0.021818
# 5 -0.003559 -0.003151 -0.004556 0.000000 0.034750 0.000000
# 6 0.000000 0.000000 0.000000 0.021818 0.000000 0.070358
#
#
# Mechanical properties :
#
#
# Convention : Reuss Voigt Hill
#
# Bulk Modulus (GPa) = 20.97145 35.11664 28.04405
# Shear Modulus (GPa) = 18.51108 26.75048 22.63078
#
# Velocity S-wave (km/s) = 2.90093 3.48729 3.20754
# Velocity P-wave (km/s) = 4.55571 5.67269 5.14460
#
# Compressibility (1/GPa) = 0.04768388
#
# Stress axis : x y z
#
# Youngs Moduli (GPa) = 124.44278 34.84571 68.56527
#
# Poissons Ratio (x) = 0.08384 0.13256
# Poissons Ratio (y) = 0.29943 -0.17294
# Poissons Ratio (z) = 0.24060 -0.08789
#
# Static dielectric constant tensor:
#      x y z
#    x 1.837430 0.000000 0.031010 
#    y 0.000000 1.768720 0.000000 
#    z 0.031010 0.000000 1.827930 
# 
# From -- ./inp_files/320169.got.cif
#   From: 2010.05.17/outbox.cif.g08.bks.cpg/sg12_161_cif.got.tgz:320169.got - 2010.06.03 13:09:07.
