data_PCOD9185761
_publ_section_title
;
Structure prediction by ZEFSAII (Michael W. Deem and Ramdas Pophale) SiO2 
 PCOD9185761
Probable space group: C 2/M
;
_chemical_formula_sum "Si O2"
_cell_formula_units_Z 32
_cell_length_a 10.968998
_cell_length_b 38.037775
_cell_length_c 5.078842
_cell_angle_alpha 90.000000
_cell_angle_beta 141.310012
_cell_angle_gamma 90.000000
_cell_volume 1324.648407
_symmetry_space_group_name_H-M "C 2/M"
_symmetry_group_IT_number 12
_symmetry_cell_setting 'monoclinic'
loop_
_space_group_symop_operation_xyz
x,y,z
-x,y,-z
-x,-y,-z
x,-y,z
1/2+x,1/2+y,z
1/2-x,1/2+y,-z
1/2-x,1/2-y,-z
1/2+x,1/2-y,z
loop_
_atom_site_type_symbol
_atom_site_label
_atom_site_fract_x
_atom_site_fract_y
_atom_site_fract_z
Si Si1 0.739098 0.347015 0.392295
Si Si2 0.140016 0.462324 0.987083
Si Si3 0.229300 0.885257 0.877988
Si Si4 0.868445 0.779311 0.036724
O O1 0.808944 0.357794 0.797677
O O2 0.500000 0.347258 0.000000
O O3 0.802903 0.376803 0.293630
O O4 0.774251 0.308734 0.328353
O O5 0.250216 0.500000 0.173063
O O6 0.000000 0.462047 0.500000
O O7 0.250030 0.425566 0.170258
O O8 0.000000 0.462189 0.000000
O O9 0.000000 0.878776 0.500000
O O10 0.000000 0.794801 0.500000
O O11 0.750000 0.750000 0.000000
O O12 0.000000 0.767926 0.000000
#
# Coordination Sequence:
#
# PCOD9185761 Si02
#       4
#     8   8   8   8
#     4   9  18  34  56  81 110 147 185 230 287 339
#     4  10  21  37  55  79 115 153 182 221 287 347
#     4  10  19  34  58  82 105 142 193 236 272 328
#     4  11  22  39  62  88 120 157 196 240 296 356
#
# _framework density 24.157354000000002
#
# number of rings (size 3 to 8) (size 9 to 14) (size 15 to 20)
#    0.000    2.000    0.000    6.000    0.000    0.500 
#    0.000    5.000    0.000    9.000    0.000    0.000 
#    0.000    0.000    0.000    0.000    0.000    0.000 
#
# Total GULP energy -89357.872850 kJ/mol
# GULP energy per Si atom -5584.867053 kJ/mol
# Density = 2.410237 g / cm^3
# Si number density = 24.157354 Si / 1000 Ang^3
#
#
#
# Elastic Constant Matrix: (Units=GPa)
#
#
# Indices 1 2 3 4 5 6 
#
# 1 145.9138 69.7356 30.4108 0.0000 -33.7679 0.0000
# 2 69.7356 192.0825 9.7742 0.0000 -19.1346 0.0000
# 3 30.4108 9.7742 73.9012 0.0000 -37.2949 0.0000
# 4 0.0000 0.0000 0.0000 27.4253 0.0000 -8.0110
# 5 -33.7679 -19.1346 -37.2949 0.0000 49.8169 0.0000
# 6 0.0000 0.0000 0.0000 -8.0110 0.0000 47.5685
#
#
#
# Elastic Compliance Matrix: (Units=1/GPa)
#
#
# Indices 1 2 3 4 5 6 
#
# 1 0.009555 -0.002970 -0.001360 0.000000 0.004318 0.000000
# 2 -0.002970 0.006349 0.000960 0.000000 0.001144 0.000000
# 3 -0.001360 0.000960 0.021995 0.000000 0.015913 0.000000
# 4 0.000000 0.000000 0.000000 0.038349 0.000000 0.006458
# 5 0.004318 0.001144 0.015913 0.000000 0.035353 0.000000
# 6 0.000000 0.000000 0.000000 0.006458 0.000000 0.022110
#
#
# Mechanical properties :
#
#
# Convention : Reuss Voigt Hill
#
# Bulk Modulus (GPa) = 32.09282 70.19321 51.14302
# Shear Modulus (GPa) = 33.14790 45.09391 39.12091
#
# Velocity S-wave (km/s) = 3.70829 4.32519 4.02857
# Velocity P-wave (km/s) = 5.62575 7.35274 6.54644
#
# Compressibility (1/GPa) = 0.03115962
#
# Stress axis : x y z
#
# Youngs Moduli (GPa) = 104.65208 157.49473 45.46486
#
# Poissons Ratio (x) = 0.46772 0.06184
# Poissons Ratio (y) = 0.31079 -0.04364
# Poissons Ratio (z) = 0.14235 -0.15116
#
# Static dielectric constant tensor:
#      x y z
#    x 1.963330 0.000000 0.056020 
#    y 0.000000 2.000780 0.000000 
#    z 0.056020 0.000000 1.935400 
# 
# From -- ./inp_files/8278.got.cif
#   From: 2010.05.17/outbox.cif.g08.bks.cpg/sg12_5_cif.got.tgz:8278.got - 2010.06.03 13:09:07.
