data_PCOD9185134
_publ_section_title
;
Structure prediction by ZEFSAII (Michael W. Deem and Ramdas Pophale) SiO2 
 PCOD9185134
Probable space group: C 2/M
;
_chemical_formula_sum "Si O2"
_cell_formula_units_Z 64
_cell_length_a 25.980027
_cell_length_b 7.607076
_cell_length_c 15.554356
_cell_angle_alpha 90.000000
_cell_angle_beta 71.917694
_cell_angle_gamma 90.000000
_cell_volume 2922.217321
_symmetry_space_group_name_H-M "C 2/M"
_symmetry_group_IT_number 12
_symmetry_cell_setting 'monoclinic'
loop_
_space_group_symop_operation_xyz
x,y,z
-x,y,-z
-x,-y,-z
x,-y,z
1/2+x,1/2+y,z
1/2-x,1/2+y,-z
1/2-x,1/2-y,-z
1/2+x,1/2-y,z
loop_
_atom_site_type_symbol
_atom_site_label
_atom_site_fract_x
_atom_site_fract_y
_atom_site_fract_z
Si Si1 0.148518 0.709901 0.369576
Si Si2 0.109324 0.789083 0.098733
Si Si3 0.313369 0.292489 0.460673
Si Si4 0.327480 0.715054 0.099173
Si Si5 0.625607 0.716083 0.741366
Si Si6 0.471656 0.786825 0.602926
Si Si7 0.707701 0.788801 0.176111
Si Si8 0.494808 0.705969 0.226135
O O1 0.146922 0.500000 0.360533
O O2 0.159107 0.742501 0.463725
O O3 0.090226 0.776409 0.369014
O O4 0.194193 0.774642 0.279863
O O5 0.156564 0.753720 0.143236
O O6 0.050690 0.718659 0.158310
O O7 0.104234 0.000000 0.096197
O O8 0.131483 0.724074 0.995786
O O9 0.317735 0.500000 0.451190
O O10 0.250000 0.250000 0.500000
O O11 0.342694 0.220679 0.360184
O O12 0.327978 0.500000 0.096393
O O13 0.345448 0.767168 0.185276
O O14 0.265950 0.775757 0.114024
O O15 0.625343 0.500000 0.739657
O O16 0.563284 0.777613 0.772179
O O17 0.500000 0.732594 0.500000
O O18 0.500540 0.721686 0.673427
O O19 0.472196 0.000000 0.605749
O O20 0.711936 0.000000 0.176331
O O21 0.493977 0.500000 0.203692
#
# Coordination Sequence:
#
# PCOD9185134 Si02
#       8
#     8   8   8   8   8   8   8   8
#     4  10  20  34  53  78 106 141 181 216 264 323
#     4  10  20  33  53  83 111 136 175 228 275 316
#     4  11  22  36  56  80 108 143 182 224 269 319
#     4   9  18  33  54  78 105 140 182 226 270 320
#     4   9  19  36  55  77 107 144 183 220 267 328
#     4  10  20  34  53  77 105 140 180 220 263 316
#     4  10  19  34  56  78 106 145 181 219 274 333
#     4  10  20  34  54  80 110 141 176 222 273 321
#
# _framework density 21.901178000000002
#
# number of rings (size 3 to 8) (size 9 to 14) (size 15 to 20)
#    0.000    2.125    1.250    2.250    0.000    3.750 
#    0.000    3.125    0.000    3.000    0.000    1.750 
#    0.000    0.000    0.000    0.000    0.000    0.000 
#
# Total GULP energy -178766.360370 kJ/mol
# GULP energy per Si atom -5586.448762 kJ/mol
# Density = 2.185133 g / cm^3
# Si number density = 21.901178 Si / 1000 Ang^3
#
#
#
# Elastic Constant Matrix: (Units=GPa)
#
#
# Indices 1 2 3 4 5 6 
#
# 1 118.8931 -3.8870 39.7894 0.0000 -16.6262 0.0000
# 2 -3.8870 39.7628 -2.3015 0.0000 -7.5450 0.0000
# 3 39.7894 -2.3015 135.4691 0.0000 -17.4597 0.0000
# 4 0.0000 0.0000 0.0000 0.8260 0.0000 3.1063
# 5 -16.6262 -7.5450 -17.4597 0.0000 39.1948 0.0000
# 6 0.0000 0.0000 0.0000 3.1063 0.0000 18.5870
#
#
#
# Elastic Compliance Matrix: (Units=1/GPa)
#
#
# Indices 1 2 3 4 5 6 
#
# 1 0.009729 0.001445 -0.002403 0.000000 0.003334 0.000000
# 2 0.001445 0.026489 0.000808 0.000000 0.006072 0.000000
# 3 -0.002403 0.000808 0.008477 0.000000 0.002912 0.000000
# 4 0.000000 0.000000 0.000000 3.258273 0.000000 -0.544521
# 5 0.003334 0.006072 0.002912 0.000000 0.029394 0.000000
# 6 0.000000 0.000000 0.000000 -0.544521 0.000000 0.144801
#
#
# Mechanical properties :
#
#
# Convention : Reuss Voigt Hill
#
# Bulk Modulus (GPa) = 22.52544 40.14743 31.33643
# Shear Modulus (GPa) = 1.43174 29.08984 15.26079
#
# Velocity S-wave (km/s) = 0.80941 3.64845 2.64256
# Velocity P-wave (km/s) = 3.34378 6.00992 4.86313
#
# Compressibility (1/GPa) = 0.04439425
#
# Stress axis : x y z
#
# Youngs Moduli (GPa) = 102.78865 37.75104 117.97083
#
# Poissons Ratio (x) = -0.05454 0.28350
# Poissons Ratio (y) = -0.14849 -0.09536
# Poissons Ratio (z) = 0.24702 -0.03051
#
# Static dielectric constant tensor:
#      x y z
#    x 1.776690 0.000000 -0.036910 
#    y 0.000000 1.877550 0.000000 
#    z -0.036910 0.000000 1.796920 
# 
# From -- ./inp_files/243828.got.cif
#   From: 2010.05.17/outbox.cif.g08.bks.cpg/sg12_122_cif.got.tgz:243828.got - 2010.06.03 13:09:07.
