data_PCOD9185482
_publ_section_title
;
Structure prediction by ZEFSAII (Michael W. Deem and Ramdas Pophale) SiO2 
 PCOD9185482
Probable space group: C 2/M
;
_chemical_formula_sum "Si O2"
_cell_formula_units_Z 56
_cell_length_a 22.365304
_cell_length_b 23.753040
_cell_length_c 18.211855
_cell_angle_alpha 90.000000
_cell_angle_beta 160.978069
_cell_angle_gamma 90.000000
_cell_volume 3153.352971
_symmetry_space_group_name_H-M "C 2/M"
_symmetry_group_IT_number 12
_symmetry_cell_setting 'monoclinic'
loop_
_space_group_symop_operation_xyz
x,y,z
-x,y,-z
-x,-y,-z
x,-y,z
1/2+x,1/2+y,z
1/2-x,1/2+y,-z
1/2-x,1/2-y,-z
1/2+x,1/2-y,z
loop_
_atom_site_type_symbol
_atom_site_label
_atom_site_fract_x
_atom_site_fract_y
_atom_site_fract_z
Si Si1 0.885596 0.604656 0.592139
Si Si2 0.611949 0.000000 0.515920
Si Si3 0.725579 0.816718 0.972758
Si Si4 0.509082 0.601987 0.807487
Si Si5 0.369333 0.640635 0.294046
Si Si6 0.291500 0.500000 0.880047
Si Si7 0.642714 0.435723 0.524188
Si Si8 0.969329 0.566484 0.081081
O O1 0.869632 0.555814 0.512594
O O2 0.680215 0.623419 0.375875
O O3 0.976220 0.576082 0.770009
O O4 0.023126 0.655272 0.729752
O O5 0.752328 0.000000 0.747430
O O6 0.406906 0.000000 0.311012
O O7 0.750000 0.750000 0.000000
O O8 0.854723 0.849244 0.063532
O O9 0.791441 0.830187 0.131778
O O10 0.447955 0.570204 0.661792
O O11 0.603206 0.555862 0.969539
O O12 0.500000 0.676099 0.500000
O O13 0.513458 0.596195 0.429215
O O14 0.200465 0.606564 0.132233
O O15 0.649908 0.500000 0.554051
O O16 0.851404 0.416250 0.756524
O O17 0.932673 0.500000 0.027597
#
# Coordination Sequence:
#
# PCOD9185482 Si02
#       8
#     8   4   8   8   8   4   8   8
#     4  10  19  34  57  81 111 147 184 227 278 339
#     4  11  21  33  55  90 125 154 182 230 302 361
#     4  10  22  40  59  77 103 144 197 240 277 327
#     4  10  19  34  57  81 111 147 184 227 278 339
#     4  10  21  34  50  73 101 134 169 215 269 310
#     4  11  21  33  55  90 125 154 182 230 302 361
#     4   9  17  29  49  76 105 139 170 199 245 314
#     4   9  17  29  49  76 105 139 170 199 245 314
#
# _framework density 17.758875
#
# number of rings (size 3 to 8) (size 9 to 14) (size 15 to 20)
#    0.000    2.143    2.857    0.857    0.000    3.429 
#    0.000    2.857    0.000    0.000    0.000    0.000 
#    0.000    0.000    0.000    0.000    0.000    0.000 
#
# Total GULP energy -156081.864604 kJ/mol
# GULP energy per Si atom -5574.352307 kJ/mol
# Density = 1.771845 g / cm^3
# Si number density = 17.758875 Si / 1000 Ang^3
#
#
#
# Elastic Constant Matrix: (Units=GPa)
#
#
# Indices 1 2 3 4 5 6 
#
# 1 69.0280 35.9116 40.0373 0.0001 0.8383 0.0000
# 2 35.9116 102.5705 54.6855 0.0000 16.0909 0.0000
# 3 40.0373 54.6855 111.5780 -0.0002 2.1365 0.0000
# 4 0.0001 0.0000 -0.0002 9.3989 0.0000 0.2153
# 5 0.8383 16.0909 2.1365 0.0000 35.5193 0.0000
# 6 0.0000 0.0000 0.0000 0.2153 0.0000 2.9029
#
#
#
# Elastic Compliance Matrix: (Units=1/GPa)
#
#
# Indices 1 2 3 4 5 6 
#
# 1 0.019665 -0.004608 -0.004835 0.000000 0.001914 0.000000
# 2 -0.004608 0.015491 -0.005813 0.000000 -0.006559 0.000000
# 3 -0.004835 -0.005813 0.013509 0.000000 0.001935 0.000000
# 4 0.000000 0.000000 0.000000 0.106576 0.000000 -0.007904
# 5 0.001914 -0.006559 0.001935 0.000000 0.030964 0.000000
# 6 0.000000 0.000000 0.000000 -0.007904 0.000000 0.345069
#
#
# Mechanical properties :
#
#
# Convention : Reuss Voigt Hill
#
# Bulk Modulus (GPa) = 55.08489 60.49394 57.78942
# Shear Modulus (GPa) = 8.80536 19.73370 14.26953
#
# Velocity S-wave (km/s) = 2.22914 3.33709 2.83771
# Velocity P-wave (km/s) = 6.14093 6.99901 6.58396
#
# Compressibility (1/GPa) = 0.01815380
#
# Stress axis : x y z
#
# Youngs Moduli (GPa) = 50.85187 64.55358 74.02310
#
# Poissons Ratio (x) = 0.29744 0.35788
# Poissons Ratio (y) = 0.23431 0.43032
# Poissons Ratio (z) = 0.24585 0.37527
#
# Static dielectric constant tensor:
#      x y z
#    x 1.657380 0.000000 -0.020060 
#    y 0.000000 1.559960 0.000000 
#    z -0.020060 0.000000 1.647850 
# 
# From -- ./inp_files/286383.got.cif
#   From: 2010.05.17/outbox.cif.g08.bks.cpg/sg12_144_cif.got.tgz:286383.got - 2010.06.03 13:09:07.
