data_PCOD9185812
_publ_section_title
;
Structure prediction by ZEFSAII (Michael W. Deem and Ramdas Pophale) SiO2 
 PCOD9185812
Probable space group: C 2/M
;
_chemical_formula_sum "Si O2"
_cell_formula_units_Z 64
_cell_length_a 27.071484
_cell_length_b 12.719688
_cell_length_c 14.949342
_cell_angle_alpha 90.000000
_cell_angle_beta 40.606806
_cell_angle_gamma 90.000000
_cell_volume 3350.434410
_symmetry_space_group_name_H-M "C 2/M"
_symmetry_group_IT_number 12
_symmetry_cell_setting 'monoclinic'
loop_
_space_group_symop_operation_xyz
x,y,z
-x,y,-z
-x,-y,-z
x,-y,z
1/2+x,1/2+y,z
1/2-x,1/2+y,-z
1/2-x,1/2-y,-z
1/2+x,1/2-y,z
loop_
_atom_site_type_symbol
_atom_site_label
_atom_site_fract_x
_atom_site_fract_y
_atom_site_fract_z
Si Si1 0.243151 0.381308 0.889003
Si Si2 0.862747 0.121304 0.562491
Si Si3 0.335346 0.277340 0.410252
Si Si4 0.502187 0.214448 0.593975
Si Si5 0.108126 0.766903 0.019991
Si Si6 0.030538 0.378410 0.742514
Si Si7 0.408684 0.377942 0.135113
Si Si8 0.118016 0.119159 0.180802
O O1 0.212238 0.500000 0.932502
O O2 0.298792 0.371566 0.726831
O O3 0.295469 0.368485 0.904852
O O4 0.175355 0.301426 0.969568
O O5 0.835011 0.156301 0.502529
O O6 0.929367 0.201786 0.494791
O O7 0.888934 0.000000 0.524060
O O8 0.250000 0.250000 0.500000
O O9 0.387378 0.173896 0.354049
O O10 0.377380 0.340439 0.273287
O O11 0.500000 0.163356 0.500000
O O12 0.511500 0.136004 0.663595
O O13 0.428942 0.288060 0.708530
O O14 0.100832 0.863389 0.099639
O O15 0.032501 0.695479 0.123703
O O16 0.125365 0.808098 0.897818
O O17 0.026963 0.500000 0.774090
O O18 0.389598 0.500000 0.148363
O O19 0.500000 0.367976 0.000000
O O20 0.095969 0.000000 0.237977
#
# Coordination Sequence:
#
# PCOD9185812 Si02
#       8
#     8   8   8   8   8   8   8   8
#     4  10  20  34  56  84 117 153 194 240 288 348
#     4  10  20  34  56  88 116 146 191 243 298 352
#     4  11  23  42  63  86 119 157 196 248 304 355
#     4  10  19  34  58  83 115 153 187 240 295 350
#     4  11  21  39  58  82 117 161 194 243 291 349
#     4  10  23  40  59  85 116 154 199 239 289 357
#     4  11  23  41  64  91 118 151 200 252 305 356
#     4  10  20  33  55  87 116 151 195 240 292 345
#
# _framework density 19.102001000000001
#
# number of rings (size 3 to 8) (size 9 to 14) (size 15 to 20)
#    0.000    1.625    2.500    2.625    0.000    1.750 
#    0.000    1.875    0.000    1.500    0.000    0.000 
#    0.000    0.000    0.000    0.000    0.000    0.000 
#
# Total GULP energy -178638.117257 kJ/mol
# GULP energy per Si atom -5582.441164 kJ/mol
# Density = 1.905852 g / cm^3
# Si number density = 19.102001 Si / 1000 Ang^3
#
#
#
# Elastic Constant Matrix: (Units=GPa)
#
#
# Indices 1 2 3 4 5 6 
#
# 1 70.2990 27.4436 8.8318 0.0000 -0.3901 0.0000
# 2 27.4436 85.5708 15.2856 0.0000 -6.1095 0.0000
# 3 8.8318 15.2856 34.4717 0.0000 -0.0713 0.0000
# 4 0.0000 0.0000 0.0000 14.3189 0.0000 -0.0720
# 5 -0.3901 -6.1095 -0.0713 0.0000 37.5802 0.0000
# 6 0.0000 0.0000 0.0000 -0.0720 0.0000 20.6677
#
#
#
# Elastic Compliance Matrix: (Units=1/GPa)
#
#
# Indices 1 2 3 4 5 6 
#
# 1 0.016406 -0.004948 -0.002010 0.000000 -0.000638 0.000000
# 2 -0.004948 0.014344 -0.005088 0.000000 0.002271 0.000000
# 3 -0.002010 -0.005088 0.031779 0.000000 -0.000788 0.000000
# 4 0.000000 0.000000 0.000000 0.069839 0.000000 0.000243
# 5 -0.000638 0.002271 -0.000788 0.000000 0.026971 0.000000
# 6 0.000000 0.000000 0.000000 0.000243 0.000000 0.048385
#
#
# Mechanical properties :
#
#
# Convention : Reuss Voigt Hill
#
# Bulk Modulus (GPa) = 26.01755 32.60706 29.31230
# Shear Modulus (GPa) = 20.43910 23.76538 22.10224
#
# Velocity S-wave (km/s) = 3.27463 3.53105 3.40525
# Velocity P-wave (km/s) = 5.28654 5.80788 5.55333
#
# Compressibility (1/GPa) = 0.03843560
#
# Stress axis : x y z
#
# Youngs Moduli (GPa) = 60.95489 69.71499 31.46733
#
# Poissons Ratio (x) = 0.34494 0.06326
# Poissons Ratio (y) = 0.30160 0.16011
# Poissons Ratio (z) = 0.12255 0.35472
#
# Static dielectric constant tensor:
#      x y z
#    x 1.669870 0.000000 0.010420 
#    y 0.000000 1.634500 0.000000 
#    z 0.010420 0.000000 1.668970 
# 
# From -- ./inp_files/245924.got.cif
#   From: 2010.05.17/outbox.cif.g08.bks.cpg/sg12_123_cif.got.tgz:245924.got - 2010.06.03 13:09:07.
