data_PCOD9185807
_publ_section_title
;
Structure prediction by ZEFSAII (Michael W. Deem and Ramdas Pophale) SiO2 
 PCOD9185807
Probable space group: C 2/M
;
_chemical_formula_sum "Si O2"
_cell_formula_units_Z 64
_cell_length_a 10.732761
_cell_length_b 19.887678
_cell_length_c 25.159723
_cell_angle_alpha 90.000000
_cell_angle_beta 140.916671
_cell_angle_gamma 90.000000
_cell_volume 3385.727713
_symmetry_space_group_name_H-M "C 2/M"
_symmetry_group_IT_number 12
_symmetry_cell_setting 'monoclinic'
loop_
_space_group_symop_operation_xyz
x,y,z
-x,y,-z
-x,-y,-z
x,-y,z
1/2+x,1/2+y,z
1/2-x,1/2+y,-z
1/2-x,1/2-y,-z
1/2+x,1/2-y,z
loop_
_atom_site_type_symbol
_atom_site_label
_atom_site_fract_x
_atom_site_fract_y
_atom_site_fract_z
Si Si1 0.585504 0.665181 0.818809
Si Si2 0.967874 0.689195 0.893950
Si Si3 0.213889 0.577281 0.697717
Si Si4 0.725440 0.922853 0.830070
Si Si5 0.588883 0.843070 0.472217
Si Si6 0.915223 0.309370 0.755969
Si Si7 0.498787 0.316493 0.561343
Si Si8 0.090406 0.164924 0.948414
O O1 0.805184 0.648963 0.872447
O O2 0.416848 0.612848 0.747101
O O3 0.520341 0.738748 0.775336
O O4 0.592651 0.667149 0.884991
O O5 0.875685 0.699709 0.805381
O O6 0.008430 0.761010 0.935887
O O7 0.184626 0.657626 0.958901
O O8 0.206082 0.500000 0.678305
O O9 0.210765 0.579348 0.760801
O O10 0.033516 0.618524 0.613436
O O11 0.562052 0.871388 0.796680
O O12 0.938774 0.892081 0.915444
O O13 0.701744 0.000000 0.839257
O O14 0.500000 0.864784 0.500000
O O15 0.544835 0.763507 0.453477
O O16 0.822595 0.850136 0.537371
O O17 0.714626 0.323192 0.658119
O O18 0.500000 0.339160 0.500000
#
# Coordination Sequence:
#
# PCOD9185807 Si02
#       8
#     8   8   8   8   8   8   8   8
#     4  10  19  34  58  83 113 149 184 237 283 335
#     4  10  20  32  57  85 113 142 189 240 284 324
#     4  10  21  38  59  82 112 153 191 226 283 351
#     4  10  21  39  59  81 115 155 193 226 279 352
#     4  10  21  35  57  86 113 149 190 241 292 342
#     4  11  21  34  58  85 112 148 190 238 285 332
#     4  10  21  35  56  86 119 147 190 242 290 342
#     4   9  19  35  53  85 113 146 188 232 279 341
#
# _framework density 18.902878000000001
#
# number of rings (size 3 to 8) (size 9 to 14) (size 15 to 20)
#    0.000    2.000    2.500    1.125    1.750    1.750 
#    0.000    3.125    0.000    5.250    0.000    0.000 
#    0.000    0.000    0.000    0.000    0.000    0.000 
#
# Total GULP energy -178570.501631 kJ/mol
# GULP energy per Si atom -5580.328176 kJ/mol
# Density = 1.885985 g / cm^3
# Si number density = 18.902878 Si / 1000 Ang^3
#
#
#
# Elastic Constant Matrix: (Units=GPa)
#
#
# Indices 1 2 3 4 5 6 
#
# 1 72.6198 27.1701 34.6011 0.0000 14.9239 0.0000
# 2 27.1701 43.1892 5.8424 0.0000 4.2113 0.0000
# 3 34.6011 5.8424 116.3142 0.0001 9.1563 0.0000
# 4 0.0000 0.0000 0.0001 17.7238 0.0000 3.8719
# 5 14.9239 4.2113 9.1563 0.0000 25.2722 0.0000
# 6 0.0000 0.0000 0.0000 3.8719 0.0000 17.2025
#
#
#
# Elastic Compliance Matrix: (Units=1/GPa)
#
#
# Indices 1 2 3 4 5 6 
#
# 1 0.023180 -0.012908 -0.005496 0.000000 -0.009546 0.000000
# 2 -0.012908 0.030816 0.002158 0.000000 0.001706 0.000000
# 3 -0.005496 0.002158 0.010187 0.000000 -0.000805 0.000000
# 4 0.000000 0.000000 0.000000 0.059339 0.000000 -0.013356
# 5 -0.009546 0.001706 -0.000805 0.000000 0.045214 0.000000
# 6 0.000000 0.000000 0.000000 -0.013356 0.000000 0.061137
#
#
# Mechanical properties :
#
#
# Convention : Reuss Voigt Hill
#
# Bulk Modulus (GPa) = 31.55445 40.81670 36.18558
# Shear Modulus (GPa) = 18.31968 23.00701 20.66335
#
# Velocity S-wave (km/s) = 3.11649 3.49250 3.30984
# Velocity P-wave (km/s) = 5.44786 6.15656 5.81302
#
# Compressibility (1/GPa) = 0.03169125
#
# Stress axis : x y z
#
# Youngs Moduli (GPa) = 43.14001 32.45041 98.16156
#
# Poissons Ratio (x) = 0.41888 0.53948
# Poissons Ratio (y) = 0.55686 -0.21181
# Poissons Ratio (z) = 0.23709 -0.07002
#
# Static dielectric constant tensor:
#      x y z
#    x 1.688620 0.000000 -0.009210 
#    y 0.000000 1.636540 0.000000 
#    z -0.009210 0.000000 1.649470 
# 
# From -- ./inp_files/374468.got.cif
#   From: 2010.05.17/outbox.cif.g08.bks.cpg/sg12_188_cif.got.tgz:374468.got - 2010.06.03 13:09:07.
