data_PCOD9185609
_publ_section_title
;
Structure prediction by ZEFSAII (Michael W. Deem and Ramdas Pophale) SiO2 
 PCOD9185609
Probable space group: C 2/M
;
_chemical_formula_sum "Si O2"
_cell_formula_units_Z 64
_cell_length_a 23.104309
_cell_length_b 11.632362
_cell_length_c 12.660605
_cell_angle_alpha 90.000000
_cell_angle_beta 103.399571
_cell_angle_gamma 90.000000
_cell_volume 3310.007061
_symmetry_space_group_name_H-M "C 2/M"
_symmetry_group_IT_number 12
_symmetry_cell_setting 'monoclinic'
loop_
_space_group_symop_operation_xyz
x,y,z
-x,y,-z
-x,-y,-z
x,-y,z
1/2+x,1/2+y,z
1/2-x,1/2+y,-z
1/2-x,1/2-y,-z
1/2+x,1/2-y,z
loop_
_atom_site_type_symbol
_atom_site_label
_atom_site_fract_x
_atom_site_fract_y
_atom_site_fract_z
Si Si1 0.684394 0.305217 0.353004
Si Si2 0.739434 0.370670 0.161090
Si Si3 0.531578 0.135179 0.624131
Si Si4 0.571293 0.870346 0.032068
Si Si5 0.287229 0.380524 0.412803
Si Si6 0.869723 0.134059 0.032307
Si Si7 0.644356 0.283162 0.744126
Si Si8 0.416531 0.872253 0.712962
O O1 0.694648 0.361228 0.243147
O O2 0.688833 0.381254 0.458548
O O3 0.740233 0.219914 0.383303
O O4 0.626067 0.228811 0.340710
O O5 0.763013 0.500000 0.167178
O O6 0.795916 0.288153 0.198888
O O7 0.697120 0.351303 0.042452
O O8 0.500000 0.171584 0.500000
O O9 0.590396 0.202674 0.683057
O O10 0.482585 0.146382 0.696128
O O11 0.546160 0.000000 0.618050
O O12 0.587665 0.871744 0.162485
O O13 0.588730 0.000000 0.995769
O O14 0.500000 0.865896 0.000000
O O15 0.596379 0.750823 0.993812
O O16 0.255795 0.500000 0.375057
O O17 0.337714 0.359238 0.348482
O O18 0.871937 0.144852 0.159343
O O19 0.887705 0.000000 0.010304
O O20 0.398596 0.000000 0.666642
#
# Coordination Sequence:
#
# PCOD9185609 Si02
#       8
#     8   8   8   8   8   8   8   8
#     4  10  19  35  58  83 113 148 190 242 304 354
#     4  10  21  37  59  88 121 159 204 253 304 364
#     4  10  21  37  60  89 119 155 200 255 308 359
#     4  10  21  38  61  88 118 156 202 250 298 354
#     4  10  21  35  55  82 113 150 192 238 293 359
#     4  11  23  40  60  88 128 165 205 252 304 367
#     4  11  22  38  59  84 121 163 202 248 301 368
#     4  10  19  34  57  84 114 144 188 243 296 351
#
# _framework density 19.335305999999999
#
# number of rings (size 3 to 8) (size 9 to 14) (size 15 to 20)
#    0.000    1.750    1.250    3.375    0.000    2.250 
#    0.000    4.375    0.000    9.000    0.000    0.000 
#    0.000    0.000    0.000    0.000    0.000    0.000 
#
# Total GULP energy -178269.797165 kJ/mol
# GULP energy per Si atom -5570.931161 kJ/mol
# Density = 1.929130 g / cm^3
# Si number density = 19.335306 Si / 1000 Ang^3
#
#
#
# Elastic Constant Matrix: (Units=GPa)
#
#
# Indices 1 2 3 4 5 6 
#
# 1 55.3531 40.9107 19.7339 0.0000 1.5290 0.0000
# 2 40.9107 125.3247 33.9742 0.0000 -2.7809 0.0000
# 3 19.7339 33.9742 86.2211 0.0000 -3.8408 0.0000
# 4 0.0000 0.0000 0.0000 27.5806 0.0000 15.2766
# 5 1.5290 -2.7809 -3.8408 0.0000 30.7670 0.0000
# 6 0.0000 0.0000 0.0000 15.2766 0.0000 45.5169
#
#
#
# Elastic Compliance Matrix: (Units=1/GPa)
#
#
# Indices 1 2 3 4 5 6 
#
# 1 0.024525 -0.007285 -0.002842 0.000000 -0.002232 0.000000
# 2 -0.007285 0.011102 -0.002661 0.000000 0.001033 0.000000
# 3 -0.002842 -0.002661 0.013367 0.000000 0.001569 0.000000
# 4 0.000000 0.000000 0.000000 0.044537 0.000000 -0.014948
# 5 -0.002232 0.001033 0.001569 0.000000 0.032903 0.000000
# 6 0.000000 0.000000 0.000000 -0.014948 0.000000 0.026987
#
#
# Mechanical properties :
#
#
# Convention : Reuss Voigt Hill
#
# Bulk Modulus (GPa) = 42.70318 50.68182 46.69250
# Shear Modulus (GPa) = 26.76642 32.25827 29.51234
#
# Velocity S-wave (km/s) = 3.72469 4.08899 3.91108
# Velocity P-wave (km/s) = 6.37427 6.96865 6.67808
#
# Compressibility (1/GPa) = 0.02341746
#
# Stress axis : x y z
#
# Youngs Moduli (GPa) = 40.77494 90.07665 74.81090
#
# Poissons Ratio (x) = 0.65620 0.21262
# Poissons Ratio (y) = 0.29704 0.19908
# Poissons Ratio (z) = 0.11589 0.23970
#
# Static dielectric constant tensor:
#      x y z
#    x 1.653680 0.000000 0.009210 
#    y 0.000000 1.679740 0.000000 
#    z 0.009210 0.000000 1.766320 
# 
# From -- ./inp_files/174732.got.cif
#   From: 2010.05.17/outbox.cif.g08.bks.cpg/sg12_88_cif.got.tgz:174732.got - 2010.06.03 13:09:07.
