data_PCOD9185780
_publ_section_title
;
Structure prediction by ZEFSAII (Michael W. Deem and Ramdas Pophale) SiO2 
 PCOD9185780
Probable space group: C 2/M
;
_chemical_formula_sum "Si O2"
_cell_formula_units_Z 48
_cell_length_a 25.694229
_cell_length_b 7.833121
_cell_length_c 24.910273
_cell_angle_alpha 90.000000
_cell_angle_beta 29.400376
_cell_angle_gamma 90.000000
_cell_volume 2461.219366
_symmetry_space_group_name_H-M "C 2/M"
_symmetry_group_IT_number 12
_symmetry_cell_setting 'monoclinic'
loop_
_space_group_symop_operation_xyz
x,y,z
-x,y,-z
-x,-y,-z
x,-y,z
1/2+x,1/2+y,z
1/2-x,1/2+y,-z
1/2-x,1/2-y,-z
1/2+x,1/2-y,z
loop_
_atom_site_type_symbol
_atom_site_label
_atom_site_fract_x
_atom_site_fract_y
_atom_site_fract_z
Si Si1 0.803521 0.201822 0.748507
Si Si2 0.930526 0.291008 0.010791
Si Si3 0.984522 0.293284 0.384217
Si Si4 0.578531 0.199979 0.784672
Si Si5 0.871738 0.706090 0.378043
Si Si6 0.198371 0.699248 0.370570
O O1 0.826260 0.282021 0.669980
O O2 0.899991 0.234377 0.701833
O O3 0.793345 0.000000 0.748342
O O4 0.690463 0.264237 0.872449
O O5 0.931746 0.500000 0.008452
O O6 0.988508 0.228119 0.904862
O O7 0.000000 0.239936 0.000000
O O8 0.985026 0.500000 0.384274
O O9 0.944986 0.234940 0.361397
O O10 0.897402 0.235480 0.506381
O O11 0.593886 0.273387 0.711255
O O12 0.690905 0.213017 0.714225
O O13 0.553758 0.000000 0.799988
O O14 0.877375 0.500000 0.371599
O O15 0.750000 0.750000 0.500000
O O16 0.212932 0.500000 0.370293
#
# Coordination Sequence:
#
# PCOD9185780 Si02
#       6
#     8   8   8   8   8   8
#     4  11  22  36  56  80 107 143 186 224 263 321
#     4   9  17  33  55  79 108 138 175 228 272 306
#     4  10  22  38  52  76 115 148 172 216 280 324
#     4  10  19  34  58  83 106 139 184 223 261 317
#     4  10  20  35  57  81 108 143 180 220 265 318
#     4  11  21  34  54  80 114 144 170 219 280 325
#
# _framework density 19.502528999999999
#
# number of rings (size 3 to 8) (size 9 to 14) (size 15 to 20)
#    0.000    1.833    3.333    1.500    0.000    4.000 
#    0.000    3.333    0.000    0.000    0.000    0.000 
#    0.000    0.000    0.000    0.000    0.000    0.000 
#
# Total GULP energy -134039.329407 kJ/mol
# GULP energy per Si atom -5584.972059 kJ/mol
# Density = 1.945814 g / cm^3
# Si number density = 19.502529 Si / 1000 Ang^3
#
#
#
# Elastic Constant Matrix: (Units=GPa)
#
#
# Indices 1 2 3 4 5 6 
#
# 1 150.0538 -5.1818 79.4400 -0.0199 10.5805 0.0177
# 2 -5.1818 24.9099 5.1356 -0.0409 5.6717 0.0370
# 3 79.4400 5.1356 121.2151 -0.0211 12.6044 0.0236
# 4 -0.0199 -0.0409 -0.0211 2.0209 0.0224 10.3731
# 5 10.5805 5.6717 12.6044 0.0224 35.6561 -0.0207
# 6 0.0177 0.0370 0.0236 10.3731 -0.0207 3.1075
#
#
#
# Elastic Compliance Matrix: (Units=1/GPa)
#
#
# Indices 1 2 3 4 5 6 
#
# 1 0.010579 0.003933 -0.006964 -0.000028 -0.001303 0.000030
# 2 0.003933 0.043261 -0.003710 -0.000235 -0.006737 0.000231
# 3 -0.006964 -0.003710 0.013179 -0.000010 -0.002002 0.000005
# 4 -0.000028 -0.000235 -0.000010 -0.030668 0.000128 0.102377
# 5 -0.001303 -0.006737 -0.002002 0.000128 0.030211 -0.000123
# 6 0.000030 0.000231 0.000005 0.102377 -0.000123 -0.019944
#
#
# Mechanical properties :
#
#
# Convention : Reuss Voigt Hill
#
# Bulk Modulus (GPa) = 18.67879 50.55184 34.61532
# Shear Modulus (GPa) = 64.14625 22.60922 43.37773
#
# Velocity S-wave (km/s) = 5.74131 3.40854 4.72127
# Velocity P-wave (km/s) = 7.31769 6.43955 6.89262
#
# Compressibility (1/GPa) = 0.05353664
#
# Stress axis : x y z
#
# Youngs Moduli (GPa) = 94.52822 23.11555 75.87697
#
# Poissons Ratio (x) = -0.09091 0.52842
# Poissons Ratio (y) = -0.37178 0.28150
# Poissons Ratio (z) = 0.65831 0.08576
#
# Static dielectric constant tensor:
#      x y z
#    x 1.656340 0.000000 0.027140 
#    y 0.000000 1.732940 0.000000 
#    z 0.027140 0.000000 1.673670 
# 
# From -- ./inp_files/172060.got.cif
#   From: 2010.05.17/outbox.cif.g08.bks.cpg/sg12_87_cif.got.tgz:172060.got - 2010.06.03 13:09:07.
