data_PCOD9185913
_publ_section_title
;
Structure prediction by ZEFSAII (Michael W. Deem and Ramdas Pophale) SiO2 
 PCOD9185913
Probable space group: C 2/M
;
_chemical_formula_sum "Si O2"
_cell_formula_units_Z 56
_cell_length_a 24.977068
_cell_length_b 8.879751
_cell_length_c 14.242583
_cell_angle_alpha 90.000000
_cell_angle_beta 97.084720
_cell_angle_gamma 90.000000
_cell_volume 3134.746186
_symmetry_space_group_name_H-M "C 2/M"
_symmetry_group_IT_number 12
_symmetry_cell_setting 'monoclinic'
loop_
_space_group_symop_operation_xyz
x,y,z
-x,y,-z
-x,-y,-z
x,-y,z
1/2+x,1/2+y,z
1/2-x,1/2+y,-z
1/2-x,1/2-y,-z
1/2+x,1/2-y,z
loop_
_atom_site_type_symbol
_atom_site_label
_atom_site_fract_x
_atom_site_fract_y
_atom_site_fract_z
Si Si1 0.315931 0.820008 0.255556
Si Si2 0.912980 0.820213 0.162761
Si Si3 0.295543 0.179260 0.802307
Si Si4 0.895722 0.321250 0.956222
Si Si5 0.963021 0.819932 0.804186
Si Si6 0.864925 0.820419 0.650633
Si Si7 0.194602 0.680020 0.527095
O O1 0.370062 0.758993 0.220534
O O2 0.263576 0.745979 0.196128
O O3 0.313243 0.781062 0.365542
O O4 0.312913 0.000000 0.245815
O O5 0.974973 0.781530 0.200207
O O6 0.906827 0.000000 0.167605
O O7 0.902597 0.765893 0.054421
O O8 0.337359 0.207564 0.896006
O O9 0.321765 0.257492 0.716578
O O10 0.292903 0.000000 0.786376
O O11 0.901262 0.500000 0.972471
O O12 0.939374 0.265377 0.889446
O O13 0.923156 0.787059 0.708742
O O14 0.959565 0.000000 0.821703
O O15 0.852552 0.743745 0.549169
O O16 0.858460 0.000000 0.641565
O O17 0.197436 0.500000 0.519551
O O18 0.250000 0.750000 0.500000
#
# Coordination Sequence:
#
# PCOD9185913 Si02
#       7
#     8   8   8   8   8   8   8
#     4  11  24  39  56  81 114 149 186 231 282 334
#     4  11  23  39  58  80 111 153 192 231 278 332
#     4  10  20  35  56  83 114 147 185 228 278 336
#     4  10  21  36  58  87 114 145 187 234 281 330
#     4   9  20  38  59  84 113 147 191 233 274 327
#     4  10  19  34  58  86 114 144 182 233 280 325
#     4  11  22  36  58  86 114 145 184 229 281 337
#
# _framework density 17.864286
#
# number of rings (size 3 to 8) (size 9 to 14) (size 15 to 20)
#    0.000    1.714    1.429    3.000    0.000    7.429 
#    0.000    0.714    0.000    4.286    0.000    0.000 
#    0.000    0.000    0.000    0.000    0.000    0.000 
#
# Total GULP energy -156442.086401 kJ/mol
# GULP energy per Si atom -5587.217371 kJ/mol
# Density = 1.782363 g / cm^3
# Si number density = 17.864286 Si / 1000 Ang^3
#
#
#
# Elastic Constant Matrix: (Units=GPa)
#
#
# Indices 1 2 3 4 5 6 
#
# 1 145.5513 54.2083 67.5420 0.0000 -4.4319 0.0000
# 2 54.2083 47.3000 20.0788 0.0000 4.3951 0.0000
# 3 67.5420 20.0788 -0.8064 0.0000 14.6031 0.0000
# 4 0.0000 0.0000 0.0000 32.7895 0.0000 -0.1524
# 5 -4.4319 4.3951 14.6031 0.0000 15.5414 0.0000
# 6 0.0000 0.0000 0.0000 -0.1524 0.0000 29.9170
#
#
#
# Elastic Compliance Matrix: (Units=1/GPa)
#
#
# Indices 1 2 3 4 5 6 
#
# 1 0.004652 -0.009820 0.012180 0.000000 -0.007341 0.000000
# 2 -0.009820 0.036460 -0.008441 0.000000 -0.005180 0.000000
# 3 0.012180 -0.008441 -0.017981 0.000000 0.022756 0.000000
# 4 0.000000 0.000000 0.000000 0.030498 0.000000 0.000155
# 5 -0.007341 -0.005180 0.022756 0.000000 0.042334 0.000000
# 6 0.000000 0.000000 0.000000 0.000155 0.000000 0.033427
#
#
# Mechanical properties :
#
#
# Convention : Reuss Voigt Hill
#
# Bulk Modulus (GPa) = 91.15264 52.85588 72.00426
# Shear Modulus (GPa) = 34.43343 18.99730 26.71536
#
# Velocity S-wave (km/s) = 4.39509 3.26455 3.87132
# Velocity P-wave (km/s) = 8.76879 6.62280 7.77023
#
# Compressibility (1/GPa) = 0.01097061
#
# Stress axis : x y z
#
# Youngs Moduli (GPa) = 214.96790 27.42730 -55.61580
#
# Poissons Ratio (x) = 0.26933 0.67742
# Poissons Ratio (y) = 2.11091 -0.46946
# Poissons Ratio (z) = -2.61839 0.23152
#
# Static dielectric constant tensor:
#      x y z
#    x 1.603740 0.000000 0.026530 
#    y 0.000000 1.595710 0.000000 
#    z 0.026530 0.000000 1.592230 
# 
# From -- ./inp_files/230870.got.cif
#   From: 2010.05.17/outbox.cif.g08.bks.cpg/sg12_116_cif.got.tgz:230870.got - 2010.06.03 13:09:07.
