data_PCOD9185274
_publ_section_title
;
Structure prediction by ZEFSAII (Michael W. Deem and Ramdas Pophale) SiO2 
 PCOD9185274
Probable space group: C 2/M
;
_chemical_formula_sum "Si O2"
_cell_formula_units_Z 48
_cell_length_a 8.696067
_cell_length_b 16.909723
_cell_length_c 18.840188
_cell_angle_alpha 90.000000
_cell_angle_beta 136.170442
_cell_angle_gamma 90.000000
_cell_volume 1918.554122
_symmetry_space_group_name_H-M "C 2/M"
_symmetry_group_IT_number 12
_symmetry_cell_setting 'monoclinic'
loop_
_space_group_symop_operation_xyz
x,y,z
-x,y,-z
-x,-y,-z
x,-y,z
1/2+x,1/2+y,z
1/2-x,1/2+y,-z
1/2-x,1/2-y,-z
1/2+x,1/2-y,z
loop_
_atom_site_type_symbol
_atom_site_label
_atom_site_fract_x
_atom_site_fract_y
_atom_site_fract_z
Si Si1 0.155737 0.408304 0.895842
Si Si2 0.150765 0.092313 0.776623
Si Si3 0.751416 0.175620 0.055089
Si Si4 0.628692 0.619783 0.615774
Si Si5 0.504517 0.790778 0.424979
Si Si6 0.884343 0.411346 0.262747
O O1 0.168535 0.500000 0.883383
O O2 0.904018 0.388976 0.835990
O O3 0.223096 0.369810 0.843186
O O4 0.292958 0.393291 0.012050
O O5 0.104864 0.152572 0.826679
O O6 0.026698 0.098823 0.659030
O O7 0.145806 0.000000 0.797833
O O8 0.500000 0.173767 0.000000
O O9 0.750000 0.250000 0.000000
O O10 0.500000 0.601307 0.500000
O O11 0.654153 0.714490 0.626407
O O12 0.864406 0.580435 0.682936
O O13 0.500000 0.830554 0.500000
O O14 0.750000 0.750000 0.500000
O O15 0.421335 0.851648 0.339228
O O16 0.803141 0.500000 0.255414
#
# Coordination Sequence:
#
# PCOD9185274 Si02
#       6
#     8   8   8   8   8   8
#     4   8  16  32  55  78 105 135 176 224 268 313
#     4   9  18  32  54  83 107 137 182 233 267 312
#     4  10  20  34  53  83 107 138 176 219 271 322
#     4  10  19  34  56  82 113 144 185 224 277 323
#     4  11  21  38  54  81 111 152 183 228 282 326
#     4  10  20  35  57  84 109 145 188 231 276 330
#
# _framework density 25.018840999999998
#
# number of rings (size 3 to 8) (size 9 to 14) (size 15 to 20)
#    0.000    2.333    3.333    2.000    2.333    3.667 
#    0.000    0.000    0.000    2.000    0.000    0.000 
#    0.000    0.000    0.000    0.000    0.000    0.000 
#
# Total GULP energy -133675.070264 kJ/mol
# GULP energy per Si atom -5569.794594 kJ/mol
# Density = 2.496190 g / cm^3
# Si number density = 25.018841 Si / 1000 Ang^3
#
#
#
# Elastic Constant Matrix: (Units=GPa)
#
#
# Indices 1 2 3 4 5 6 
#
# 1 77.2527 22.5951 73.2533 0.0000 -14.9542 -0.0001
# 2 22.5951 88.1271 51.3342 0.0000 -27.9916 0.0000
# 3 73.2533 51.3342 166.8645 0.0000 -69.7946 0.0000
# 4 0.0000 0.0000 0.0000 39.0875 0.0000 -16.2951
# 5 -14.9542 -27.9916 -69.7946 0.0000 56.0787 -0.0001
# 6 -0.0001 0.0000 0.0000 -16.2951 -0.0001 6.8022
#
#
#
# Elastic Compliance Matrix: (Units=1/GPa)
#
#
# Indices 1 2 3 4 5 6 
#
# 1 0.027986 -0.001528 -0.018800 0.000032 -0.016698 0.000076
# 2 -0.001528 0.014217 -0.001888 -0.000002 0.004339 -0.000005
# 3 -0.018800 -0.001888 0.025730 0.000045 0.026068 0.000107
# 4 0.000032 -0.000002 0.000045 19.313712 0.000111 46.266931
# 5 -0.016698 0.004339 0.026068 0.000111 0.047989 0.000266
# 6 0.000076 -0.000005 0.000107 46.266931 0.000266110.981680
#
#
# Mechanical properties :
#
#
# Convention : Reuss Voigt Hill
#
# Bulk Modulus (GPa) = 42.55098 69.62329 56.08713
# Shear Modulus (GPa) = 0.03832 32.73113 16.38473
#
# Velocity S-wave (km/s) = 0.12390 3.62091 2.56187
# Velocity P-wave (km/s) = 4.13098 6.73573 5.58726
#
# Compressibility (1/GPa) = 0.02350122
#
# Stress axis : x y z
#
# Youngs Moduli (GPa) = 35.73244 70.33825 38.86490
#
# Poissons Ratio (x) = 0.10749 0.73066
# Poissons Ratio (y) = 0.05460 0.07337
# Poissons Ratio (z) = 0.67177 0.13279
#
# Static dielectric constant tensor:
#      x y z
#    x 2.022020 0.000000 -0.025410 
#    y 0.000000 2.036790 0.000000 
#    z -0.025410 0.000000 2.254550 
# 
# From -- ./inp_files/263997.got.cif
#   From: 2010.05.17/outbox.cif.g08.bks.cpg/sg12_132_cif.got.tgz:263997.got - 2010.06.03 13:09:07.
