data_PCOD9185870
_publ_section_title
;
Structure prediction by ZEFSAII (Michael W. Deem and Ramdas Pophale) SiO2 
 PCOD9185870
Probable space group: C 2/M
;
_chemical_formula_sum "Si O2"
_cell_formula_units_Z 64
_cell_length_a 20.932232
_cell_length_b 7.701660
_cell_length_c 20.645085
_cell_angle_alpha 90.000000
_cell_angle_beta 111.044036
_cell_angle_gamma 90.000000
_cell_volume 3106.275839
_symmetry_space_group_name_H-M "C 2/M"
_symmetry_group_IT_number 12
_symmetry_cell_setting 'monoclinic'
loop_
_space_group_symop_operation_xyz
x,y,z
-x,y,-z
-x,-y,-z
x,-y,z
1/2+x,1/2+y,z
1/2-x,1/2+y,-z
1/2-x,1/2-y,-z
1/2+x,1/2-y,z
loop_
_atom_site_type_symbol
_atom_site_label
_atom_site_fract_x
_atom_site_fract_y
_atom_site_fract_z
Si Si1 0.436249 0.287915 0.157521
Si Si2 0.718401 0.707018 0.919393
Si Si3 0.960753 0.208251 0.549062
Si Si4 0.963211 0.212936 0.920042
Si Si5 0.188722 0.202799 0.167224
Si Si6 0.790726 0.709263 0.313162
Si Si7 0.695238 0.794409 0.535146
Si Si8 0.561396 0.709624 0.695113
O O1 0.437492 0.500000 0.157937
O O2 0.359924 0.233353 0.110661
O O3 0.491140 0.233042 0.124531
O O4 0.447884 0.227939 0.235055
O O5 0.718931 0.500000 0.910097
O O6 0.761627 0.785001 0.876446
O O7 0.750000 0.750000 0.000000
O O8 0.880727 0.243858 0.514946
O O9 0.000000 0.276306 0.500000
O O10 0.001207 0.274087 0.626401
O O11 0.968460 0.000000 0.552020
O O12 0.885412 0.274431 0.880267
O O13 0.961993 0.000000 0.922186
O O14 0.000000 0.269141 0.000000
O O15 0.230341 0.276805 0.244013
O O16 0.176739 0.000000 0.177805
O O17 0.784122 0.500000 0.312653
O O18 0.789898 0.776830 0.386896
O O19 0.864420 0.746511 0.307554
O O20 0.750000 0.750000 0.500000
O O21 0.695841 0.000000 0.542319
O O22 0.558450 0.500000 0.696164
#
# Coordination Sequence:
#
# PCOD9185870 Si02
#       8
#     8   8   8   8   8   8   8   8
#     4   9  18  32  53  81 106 140 187 232 273 325
#     4  11  21  34  55  82 112 144 185 232 279 336
#     4  10  20  35  59  87 114 150 194 240 292 348
#     4   9  17  31  52  77 107 141 180 226 272 326
#     4  10  20  35  57  83 109 144 186 231 287 342
#     4  10  21  36  56  83 115 149 185 235 295 347
#     4  11  24  40  59  85 119 158 198 244 294 350
#     4  10  19  34  58  85 112 145 189 241 286 337
#
# _framework density 20.603452000000001
#
# number of rings (size 3 to 8) (size 9 to 14) (size 15 to 20)
#    0.000    2.000    2.500    1.500    0.000    4.250 
#    0.000    3.750    0.000    4.875    0.000    0.000 
#    0.000    0.000    0.000    0.000    0.000    0.000 
#
# Total GULP energy -178701.736087 kJ/mol
# GULP energy per Si atom -5584.429253 kJ/mol
# Density = 2.055656 g / cm^3
# Si number density = 20.603452 Si / 1000 Ang^3
#
#
#
# Elastic Constant Matrix: (Units=GPa)
#
#
# Indices 1 2 3 4 5 6 
#
# 1 127.5546 -8.6772 65.6307 0.0000 13.8103 0.0000
# 2 -8.6772 31.6646 5.3934 0.0000 3.0165 0.0000
# 3 65.6307 5.3934 187.6106 0.0000 15.0350 0.0000
# 4 0.0000 0.0000 0.0000 0.8163 0.0000 0.3891
# 5 13.8103 3.0165 15.0350 0.0000 40.0204 0.0000
# 6 0.0000 0.0000 0.0000 0.3891 0.0000 24.0345
#
#
#
# Elastic Compliance Matrix: (Units=1/GPa)
#
#
# Indices 1 2 3 4 5 6 
#
# 1 0.010126 0.003597 -0.003448 0.000000 -0.002470 0.000000
# 2 0.003597 0.033189 -0.001972 0.000000 -0.003002 0.000000
# 3 -0.003448 -0.001972 0.006687 0.000000 -0.001174 0.000000
# 4 0.000000 0.000000 0.000000 1.234591 0.000000 -0.019988
# 5 -0.002470 -0.003002 -0.001174 0.000000 0.026507 0.000000
# 6 0.000000 0.000000 0.000000 -0.019988 0.000000 0.041930
#
#
# Mechanical properties :
#
#
# Convention : Reuss Voigt Hill
#
# Bulk Modulus (GPa) = 21.57168 52.39152 36.98160
# Shear Modulus (GPa) = 3.64398 31.93977 17.79188
#
# Velocity S-wave (km/s) = 1.33134 3.94155 2.94179
# Velocity P-wave (km/s) = 3.58552 6.79692 5.43388
#
# Compressibility (1/GPa) = 0.04635707
#
# Stress axis : x y z
#
# Youngs Moduli (GPa) = 98.75646 30.13073 149.54262
#
# Poissons Ratio (x) = -0.10839 0.51559
# Poissons Ratio (y) = -0.35527 0.29490
# Poissons Ratio (z) = 0.34049 0.05942
#
# Static dielectric constant tensor:
#      x y z
#    x 1.660040 0.000000 0.008310 
#    y 0.000000 1.771570 0.000000 
#    z 0.008310 0.000000 1.758970 
# 
# From -- ./inp_files/319992.got.cif
#   From: 2010.05.17/outbox.cif.g08.bks.cpg/sg12_160_cif.got.tgz:319992.got - 2010.06.03 13:09:07.
