data_PCOD9185182
_publ_section_title
;
Structure prediction by ZEFSAII (Michael W. Deem and Ramdas Pophale) SiO2 
 PCOD9185182
Probable space group: C 2/M
;
_chemical_formula_sum "Si O2"
_cell_formula_units_Z 56
_cell_length_a 19.765960
_cell_length_b 7.452768
_cell_length_c 25.745135
_cell_angle_alpha 90.000000
_cell_angle_beta 139.102709
_cell_angle_gamma 90.000000
_cell_volume 2482.998147
_symmetry_space_group_name_H-M "C 2/M"
_symmetry_group_IT_number 12
_symmetry_cell_setting 'monoclinic'
loop_
_space_group_symop_operation_xyz
x,y,z
-x,y,-z
-x,-y,-z
x,-y,z
1/2+x,1/2+y,z
1/2-x,1/2+y,-z
1/2-x,1/2-y,-z
1/2+x,1/2-y,z
loop_
_atom_site_type_symbol
_atom_site_label
_atom_site_fract_x
_atom_site_fract_y
_atom_site_fract_z
Si Si1 0.816169 0.719519 0.143152
Si Si2 0.920355 0.214617 0.998086
Si Si3 0.287946 0.781165 0.687121
Si Si4 0.311443 0.786406 0.587725
Si Si5 0.530006 0.215978 0.680906
Si Si6 0.569824 0.287947 0.587571
Si Si7 0.481513 0.785343 0.152216
O O1 0.814234 0.500000 0.140185
O O2 0.697881 0.782122 0.073335
O O3 0.871256 0.774977 0.228821
O O4 0.890311 0.778489 0.138240
O O5 0.915068 0.000000 0.987746
O O6 0.000000 0.282647 0.000000
O O7 0.958475 0.248920 0.078700
O O8 0.263151 0.726177 0.613507
O O9 0.187490 0.717980 0.659846
O O10 0.402828 0.717649 0.767865
O O11 0.292765 0.000000 0.693971
O O12 0.250000 0.750000 0.500000
O O13 0.427524 0.717129 0.650054
O O14 0.318496 0.000000 0.596471
O O15 0.522014 0.267453 0.616434
O O16 0.530082 0.000000 0.682666
O O17 0.500000 0.213771 0.500000
O O18 0.579565 0.500000 0.582378
O O19 0.484143 0.000000 0.161417
#
# Coordination Sequence:
#
# PCOD9185182 Si02
#       7
#     8   8   8   8   8   8   8
#     4   9  18  36  58  79 107 143 177 215 268 320
#     4  10  22  37  55  82 114 142 170 213 271 324
#     4   9  18  34  55  77 104 141 180 217 263 318
#     4  10  19  34  56  80 106 139 180 222 264 311
#     4  10  20  35  57  81 106 141 183 220 262 321
#     4  10  21  36  53  76 109 145 178 220 274 319
#     4  10  19  36  60  80 103 140 184 221 257 312
#
# _framework density 22.553380000000001
#
# number of rings (size 3 to 8) (size 9 to 14) (size 15 to 20)
#    0.000    2.286    1.429    1.286    2.000    2.286 
#    0.000    2.857    0.000    0.000    0.000    0.000 
#    0.000    0.000    0.000    0.000    0.000    0.000 
#
# Total GULP energy -156314.763288 kJ/mol
# GULP energy per Si atom -5582.670117 kJ/mol
# Density = 2.250205 g / cm^3
# Si number density = 22.553380 Si / 1000 Ang^3
#
#
#
# Elastic Constant Matrix: (Units=GPa)
#
#
# Indices 1 2 3 4 5 6 
#
# 1 86.0845 3.5548 13.9605 0.0000 1.7637 0.0000
# 2 3.5548 62.8296 3.5897 0.0001 12.4264 -0.0003
# 3 13.9605 3.5897 106.3482 0.0000 -3.8658 0.0000
# 4 0.0000 0.0001 0.0000 6.9132 0.0000 -4.7867
# 5 1.7637 12.4264 -3.8658 0.0000 36.7611 0.0000
# 6 0.0000 -0.0003 0.0000 -4.7867 0.0000 -1.7374
#
#
#
# Elastic Compliance Matrix: (Units=1/GPa)
#
#
# Indices 1 2 3 4 5 6 
#
# 1 0.011902 -0.000470 -0.001568 0.000000 -0.000577 0.000000
# 2 -0.000470 0.017141 -0.000730 -0.000001 -0.005848 -0.000001
# 3 -0.001568 -0.000730 0.009682 0.000000 0.001340 0.000000
# 4 0.000000 -0.000001 0.000000 0.049749 0.000000 -0.137064
# 5 -0.000577 -0.005848 0.001340 0.000000 0.029348 0.000000
# 6 0.000000 -0.000001 0.000000 -0.137064 0.000000 -0.197956
#
#
# Mechanical properties :
#
#
# Convention : Reuss Voigt Hill
#
# Bulk Modulus (GPa) = 30.12809 33.05251 31.59030
# Shear Modulus (GPa) = -78.69496 23.99787 -27.34855
#
# Velocity S-wave (km/s) = -5.91342 3.26551 -3.48604
# Velocity P-wave (km/s) = 5.76516 5.37635 1.47173
#
# Compressibility (1/GPa) = 0.03319162
#
# Stress axis : x y z
#
# Youngs Moduli (GPa) = 84.02005 58.33968 103.28257
#
# Poissons Ratio (x) = 0.02740 0.16190
# Poissons Ratio (y) = 0.03946 0.07535
# Poissons Ratio (z) = 0.13170 0.04256
#
# Static dielectric constant tensor:
#      x y z
#    x 1.874560 0.000000 -0.048980 
#    y 0.000000 1.858970 0.000000 
#    z -0.048980 0.000000 1.892040 
# 
# From -- ./inp_files/343115.got.cif
#   From: 2010.05.17/outbox.cif.g08.bks.cpg/sg12_172_cif.got.tgz:343115.got - 2010.06.03 13:09:07.
