data_PCOD9185460
_publ_section_title
;
Structure prediction by ZEFSAII (Michael W. Deem and Ramdas Pophale) SiO2 
 PCOD9185460
Probable space group: C 2/M
;
_chemical_formula_sum "Si O2"
_cell_formula_units_Z 48
_cell_length_a 20.330317
_cell_length_b 11.537293
_cell_length_c 26.313760
_cell_angle_alpha 90.000000
_cell_angle_beta 157.776614
_cell_angle_gamma 90.000000
_cell_volume 2334.392798
_symmetry_space_group_name_H-M "C 2/M"
_symmetry_group_IT_number 12
_symmetry_cell_setting 'monoclinic'
loop_
_space_group_symop_operation_xyz
x,y,z
-x,y,-z
-x,-y,-z
x,-y,z
1/2+x,1/2+y,z
1/2-x,1/2+y,-z
1/2-x,1/2-y,-z
1/2+x,1/2-y,z
loop_
_atom_site_type_symbol
_atom_site_label
_atom_site_fract_x
_atom_site_fract_y
_atom_site_fract_z
Si Si1 0.343318 0.626082 0.627798
Si Si2 0.650170 0.367688 0.644694
Si Si3 0.556946 0.707196 0.408566
Si Si4 0.355457 0.371356 0.078350
Si Si5 0.949480 0.806402 0.880404
Si Si6 0.247914 0.367899 0.835384
O O1 0.267082 0.500000 0.586243
O O2 0.373454 0.635368 0.589041
O O3 0.216667 0.731059 0.551153
O O4 0.525776 0.635346 0.786745
O O5 0.500000 0.318530 0.500000
O O6 0.681119 0.500000 0.651581
O O7 0.564266 0.360335 0.639123
O O8 0.831287 0.299814 0.777183
O O9 0.440168 0.811386 0.302083
O O10 0.266079 0.500000 0.014481
O O11 0.485685 0.370549 0.123306
O O12 0.250000 0.250000 0.000000
O O13 0.828279 0.868209 0.835935
O O14 0.126469 0.789470 0.039629
O O15 0.249038 0.500000 0.855378
#
# Coordination Sequence:
#
# PCOD9185460 Si02
#       6
#     8   8   8   8   8   8
#     4  10  21  36  55  80 112 147 185 231 278 330
#     4  10  21  37  57  80 108 142 182 229 278 329
#     4  10  20  36  56  80 108 142 184 224 276 333
#     4  11  23  39  58  83 116 151 189 232 279 333
#     4  10  20  35  55  81 108 140 180 225 274 325
#     4  10  19  34  57  81 107 139 177 223 273 327
#
# _framework density 20.562092
#
# number of rings (size 3 to 8) (size 9 to 14) (size 15 to 20)
#    0.000    1.833    0.000    5.000    0.000    0.667 
#    0.000   11.667    0.000   10.500    0.000    0.000 
#    0.000    0.000    0.000    0.000    0.000    0.000 
#
# Total GULP energy -133779.593101 kJ/mol
# GULP energy per Si atom -5574.149713 kJ/mol
# Density = 2.051529 g / cm^3
# Si number density = 20.562092 Si / 1000 Ang^3
#
#
#
# Elastic Constant Matrix: (Units=GPa)
#
#
# Indices 1 2 3 4 5 6 
#
# 1 46.4793 7.8492 -7.1099 -0.0008 -2.9141 -0.0003
# 2 7.8492 114.4075 55.2369 0.0008 -2.9317 0.0012
# 3 -7.1099 55.2369 78.5825 -0.0045 -9.6378 0.0038
# 4 -0.0008 0.0008 -0.0045 9.7308 0.0006 -4.0785
# 5 -2.9141 -2.9317 -9.6378 0.0006 26.8918 0.0003
# 6 -0.0003 0.0012 0.0038 -4.0785 0.0003 11.5039
#
#
#
# Elastic Compliance Matrix: (Units=1/GPa)
#
#
# Indices 1 2 3 4 5 6 
#
# 1 0.023321 -0.004170 0.005539 0.000005 0.004058 0.000001
# 2 -0.004170 0.014078 -0.010606 -0.000006 -0.002718 0.000000
# 3 0.005539 -0.010606 0.021562 0.000010 0.007171 -0.000003
# 4 0.000005 -0.000006 0.000010 0.120703 0.000000 0.042793
# 5 0.004058 -0.002718 0.007171 0.000000 0.039900 -0.000003
# 6 0.000001 0.000000 -0.000003 0.042793 -0.000003 0.102099
#
#
# Mechanical properties :
#
#
# Convention : Reuss Voigt Hill
#
# Bulk Modulus (GPa) = 24.70038 39.04684 31.87361
# Shear Modulus (GPa) = 14.13901 21.85818 17.99860
#
# Velocity S-wave (km/s) = 2.62511 3.26396 2.96181
# Velocity P-wave (km/s) = 4.60727 5.76502 5.21835
#
# Compressibility (1/GPa) = 0.04048521
#
# Stress axis : x y z
#
# Youngs Moduli (GPa) = 42.87997 71.03299 46.37885
#
# Poissons Ratio (x) = 0.29623 -0.25689
# Poissons Ratio (y) = 0.17882 0.49191
# Poissons Ratio (z) = -0.23751 0.75340
#
# Static dielectric constant tensor:
#      x y z
#    x 1.729460 0.000000 -0.021190 
#    y 0.000000 1.752930 0.000000 
#    z -0.021190 0.000000 1.738630 
# 
# From -- ./inp_files/366198.got.cif
#   From: 2010.05.17/outbox.cif.g08.bks.cpg/sg12_184_cif.got.tgz:366198.got - 2010.06.03 13:09:07.
