data_PCOD9185862
_publ_section_title
;
Structure prediction by ZEFSAII (Michael W. Deem and Ramdas Pophale) SiO2 
 PCOD9185862
Probable space group: C 2/M
;
_chemical_formula_sum "Si O2"
_cell_formula_units_Z 48
_cell_length_a 16.522025
_cell_length_b 17.108483
_cell_length_c 14.718981
_cell_angle_alpha 90.000000
_cell_angle_beta 39.265268
_cell_angle_gamma 90.000000
_cell_volume 2633.271395
_symmetry_space_group_name_H-M "C 2/M"
_symmetry_group_IT_number 12
_symmetry_cell_setting 'monoclinic'
loop_
_space_group_symop_operation_xyz
x,y,z
-x,y,-z
-x,-y,-z
x,-y,z
1/2+x,1/2+y,z
1/2-x,1/2+y,-z
1/2-x,1/2-y,-z
1/2+x,1/2-y,z
loop_
_atom_site_type_symbol
_atom_site_label
_atom_site_fract_x
_atom_site_fract_y
_atom_site_fract_z
Si Si1 0.347812 0.907728 0.126255
Si Si2 0.760602 0.688636 0.369834
Si Si3 0.910522 0.169259 0.308341
Si Si4 0.871452 0.691238 0.652382
Si Si5 0.319992 0.700176 0.861199
Si Si6 0.131119 0.908368 0.842534
O O1 0.296351 0.879011 0.268711
O O2 0.277454 0.855320 0.110372
O O3 0.325393 0.000000 0.130676
O O4 0.500000 0.893739 0.000000
O O5 0.879991 0.741868 0.300020
O O6 0.679502 0.659743 0.525893
O O7 0.676253 0.749432 0.384490
O O8 0.871359 0.112128 0.261445
O O9 0.058838 0.156379 0.201107
O O10 0.885463 0.742006 0.730725
O O11 0.757009 0.632104 0.771461
O O12 0.000000 0.654642 0.500000
O O13 0.250000 0.750000 0.000000
O O14 0.135257 0.000000 0.855178
O O15 0.000000 0.875767 0.000000
#
# Coordination Sequence:
#
# PCOD9185862 Si02
#       6
#     8   8   8   8   8   8
#     4  10  22  39  56  79 117 154 185 226 283 343
#     4   9  19  35  58  82 112 142 181 229 284 330
#     4  10  19  34  58  85 107 140 185 236 272 326
#     4  10  19  36  59  83 113 143 185 235 279 333
#     4  11  21  34  60  87 108 143 189 233 277 328
#     4  10  22  38  54  77 115 155 186 223 279 338
#
# _framework density 18.228276000000001
#
# number of rings (size 3 to 8) (size 9 to 14) (size 15 to 20)
#    0.000    2.000    1.667    2.000    0.000    6.333 
#    0.000    1.667    0.000    0.000    0.000    0.000 
#    0.000    0.000    0.000    0.000    0.000    0.000 
#
# Total GULP energy -133846.029127 kJ/mol
# GULP energy per Si atom -5576.917880 kJ/mol
# Density = 1.818679 g / cm^3
# Si number density = 18.228276 Si / 1000 Ang^3
#
#
#
# Elastic Constant Matrix: (Units=GPa)
#
#
# Indices 1 2 3 4 5 6 
#
# 1 49.5907 3.5489 0.9564 0.0000 0.0158 0.0000
# 2 3.5489 41.5444 22.0434 0.0000 -4.2248 0.0000
# 3 0.9564 22.0434 84.5967 0.0000 -0.2783 0.0000
# 4 0.0000 0.0000 0.0000 22.0160 0.0000 -0.4833
# 5 0.0158 -4.2248 -0.2783 0.0000 36.8641 0.0000
# 6 0.0000 0.0000 0.0000 -0.4833 0.0000 11.7359
#
#
#
# Elastic Compliance Matrix: (Units=1/GPa)
#
#
# Indices 1 2 3 4 5 6 
#
# 1 0.020296 -0.001897 0.000264 0.000000 -0.000224 0.000000
# 2 -0.001897 0.028480 -0.007389 0.000000 0.003209 0.000000
# 3 0.000264 -0.007389 0.013741 0.000000 -0.000743 0.000000
# 4 0.000000 0.000000 0.000000 0.045463 0.000000 0.001872
# 5 -0.000224 0.003209 -0.000743 0.000000 0.027489 0.000000
# 6 0.000000 0.000000 0.000000 0.001872 0.000000 0.085286
#
#
# Mechanical properties :
#
#
# Convention : Reuss Voigt Hill
#
# Bulk Modulus (GPa) = 22.48556 25.42545 23.95551
# Shear Modulus (GPa) = 19.71449 24.06874 21.89161
#
# Velocity S-wave (km/s) = 3.29224 3.63768 3.46926
# Velocity P-wave (km/s) = 5.17823 5.62337 5.40538
#
# Compressibility (1/GPa) = 0.04447298
#
# Stress axis : x y z
#
# Youngs Moduli (GPa) = 49.27133 35.11296 72.77652
#
# Poissons Ratio (x) = 0.06659 -0.01921
# Poissons Ratio (y) = 0.09345 0.53774
# Poissons Ratio (z) = -0.01301 0.25945
#
# Static dielectric constant tensor:
#      x y z
#    x 1.638460 0.000000 -0.023800 
#    y 0.000000 1.613860 0.000000 
#    z -0.023800 0.000000 1.633530 
# 
# From -- ./inp_files/75045.got.cif
#   From: 2010.05.17/outbox.cif.g08.bks.cpg/sg12_38_cif.got.tgz:75045.got - 2010.06.03 13:09:07.
