data_PCOD9185897
_publ_section_title
;
Structure prediction by ZEFSAII (Michael W. Deem and Ramdas Pophale) SiO2 
 PCOD9185897
Probable space group: C 2/M
;
_chemical_formula_sum "Si O2"
_cell_formula_units_Z 64
_cell_length_a 9.182320
_cell_length_b 15.142138
_cell_length_c 32.274480
_cell_angle_alpha 90.000000
_cell_angle_beta 134.840307
_cell_angle_gamma 90.000000
_cell_volume 3181.932510
_symmetry_space_group_name_H-M "C 2/M"
_symmetry_group_IT_number 12
_symmetry_cell_setting 'monoclinic'
loop_
_space_group_symop_operation_xyz
x,y,z
-x,y,-z
-x,-y,-z
x,-y,z
1/2+x,1/2+y,z
1/2-x,1/2+y,-z
1/2-x,1/2-y,-z
1/2+x,1/2-y,z
loop_
_atom_site_type_symbol
_atom_site_label
_atom_site_fract_x
_atom_site_fract_y
_atom_site_fract_z
Si Si1 0.393837 0.242271 0.672156
Si Si2 0.665947 0.896236 0.496001
Si Si3 0.513067 0.845083 0.871446
Si Si4 0.944017 0.248759 0.591271
Si Si5 0.736528 0.901339 0.758527
Si Si6 0.869304 0.151923 0.873878
Si Si7 0.176830 0.154510 0.001133
Si Si8 0.430842 0.400256 0.244174
O O1 0.326328 0.240593 0.610810
O O2 0.550906 0.165144 0.714222
O O3 0.504635 0.332182 0.707666
O O4 0.178433 0.235976 0.652328
O O5 0.500000 0.894898 0.500000
O O6 0.857836 0.836822 0.550114
O O7 0.580810 0.837872 0.440638
O O8 0.708452 0.000000 0.495208
O O9 0.676810 0.839868 0.866731
O O10 0.440320 0.748007 0.871580
O O11 0.633665 0.886150 0.935275
O O12 0.307336 0.892451 0.815559
O O13 0.805068 0.898606 0.819925
O O14 0.930051 0.878022 0.768151
O O15 0.671502 0.000000 0.734108
O O16 0.059251 0.112237 0.938558
O O17 0.250000 0.250000 0.000000
O O18 0.000000 0.167610 0.000000
O O19 0.477682 0.500000 0.266207
#
# Coordination Sequence:
#
# PCOD9185897 Si02
#       8
#     8   8   8   8   8   8   8   8
#     4  12  24  43  65  92 129 169 213 254 300 360
#     4  10  22  43  71 102 135 168 202 247 301 357
#     4  10  19  34  58  85 118 158 206 258 318 382
#     4  11  24  42  69 100 129 167 210 251 297 356
#     4  11  25  42  60  88 125 165 210 265 320 369
#     4  10  19  34  58  85 119 158 204 258 322 380
#     4   8  16  30  51  82 113 151 200 255 313 382
#     4  11  25  42  61  88 123 167 213 262 318 373
#
# _framework density 20.113562999999999
#
# number of rings (size 3 to 8) (size 9 to 14) (size 15 to 20)
#    0.000    1.625    3.750    0.750    1.750    3.500 
#    0.000    1.250    0.000    3.750    0.000    0.000 
#    0.000    0.000    0.000    0.000    0.000    0.000 
#
# Total GULP energy -178516.287562 kJ/mol
# GULP energy per Si atom -5578.633986 kJ/mol
# Density = 2.006778 g / cm^3
# Si number density = 20.113563 Si / 1000 Ang^3
#
#
#
# Elastic Constant Matrix: (Units=GPa)
#
#
# Indices 1 2 3 4 5 6 
#
# 1 38.2185 25.5746 24.5267 0.0000 -2.4097 0.0000
# 2 25.5746 118.8742 52.7592 0.0000 1.2657 0.0000
# 3 24.5267 52.7592 100.4279 0.0000 0.6426 0.0000
# 4 0.0000 0.0000 0.0000 -61.8085 0.0000 -7.7176
# 5 -2.4097 1.2657 0.6426 0.0000 40.4567 0.0000
# 6 0.0000 0.0000 0.0000 -7.7176 0.0000 21.4518
#
#
#
# Elastic Compliance Matrix: (Units=1/GPa)
#
#
# Indices 1 2 3 4 5 6 
#
# 1 0.033023 -0.004619 -0.005652 0.000000 0.002201 0.000000
# 2 -0.004619 0.011619 -0.004972 0.000000 -0.000560 0.000000
# 3 -0.005652 -0.004972 0.013952 0.000000 -0.000403 0.000000
# 4 0.000000 0.000000 0.000000 -0.015483 0.000000 -0.005570
# 5 0.002201 -0.000560 -0.000403 0.000000 0.024873 0.000000
# 6 0.000000 0.000000 0.000000 -0.005570 0.000000 0.044612
#
#
# Mechanical properties :
#
#
# Convention : Reuss Voigt Hill
#
# Bulk Modulus (GPa) = 35.57900 51.47130 43.52515
# Shear Modulus (GPa) = 32.79738 10.33068 21.56403
#
# Velocity S-wave (km/s) = 4.04246 2.26877 3.27787
# Velocity P-wave (km/s) = 6.28619 5.70167 6.00105
#
# Compressibility (1/GPa) = 0.02810647
#
# Stress axis : x y z
#
# Youngs Moduli (GPa) = 30.28233 86.06766 71.67211
#
# Poissons Ratio (x) = 0.39758 0.40510
# Poissons Ratio (y) = 0.13988 0.35636
# Poissons Ratio (z) = 0.17116 0.42794
#
# Static dielectric constant tensor:
#      x y z
#    x 1.684510 0.000000 -0.003720 
#    y 0.000000 1.486460 0.000000 
#    z -0.003720 0.000000 1.734970 
# 
# From -- ./inp_files/372591.got.cif
#   From: 2010.05.17/outbox.cif.g08.bks.cpg/sg12_187_cif.got.tgz:372591.got - 2010.06.03 13:09:07.
