data_PCOD9185474
_publ_section_title
;
Structure prediction by ZEFSAII (Michael W. Deem and Ramdas Pophale) SiO2 
 PCOD9185474
Probable space group: C 2/M
;
_chemical_formula_sum "Si O2"
_cell_formula_units_Z 56
_cell_length_a 16.344724
_cell_length_b 7.747030
_cell_length_c 23.572767
_cell_angle_alpha 90.000000
_cell_angle_beta 59.464858
_cell_angle_gamma 90.000000
_cell_volume 2570.909365
_symmetry_space_group_name_H-M "C 2/M"
_symmetry_group_IT_number 12
_symmetry_cell_setting 'monoclinic'
loop_
_space_group_symop_operation_xyz
x,y,z
-x,y,-z
-x,-y,-z
x,-y,z
1/2+x,1/2+y,z
1/2-x,1/2+y,-z
1/2-x,1/2-y,-z
1/2+x,1/2-y,z
loop_
_atom_site_type_symbol
_atom_site_label
_atom_site_fract_x
_atom_site_fract_y
_atom_site_fract_z
Si Si1 0.256498 0.793718 0.432269
Si Si2 0.448985 0.793191 0.843436
Si Si3 0.734053 0.199241 0.147196
Si Si4 0.426409 0.195839 0.570243
Si Si5 0.190882 0.202416 0.284935
Si Si6 0.122209 0.709527 0.709426
Si Si7 0.948708 0.791122 0.075741
O O1 0.250000 0.750000 0.500000
O O2 0.171166 0.700460 0.430310
O O3 0.351762 0.744153 0.364387
O O4 0.243629 0.000000 0.429353
O O5 0.343633 0.723165 0.868189
O O6 0.525693 0.724301 0.770854
O O7 0.492494 0.762864 0.889788
O O8 0.443242 0.000000 0.837303
O O9 0.686719 0.205694 0.226182
O O10 0.839856 0.274860 0.114976
O O11 0.748907 0.000000 0.125158
O O12 0.500000 0.280194 0.500000
O O13 0.397232 0.272472 0.641202
O O14 0.459462 0.000000 0.569252
O O15 0.287113 0.261298 0.283755
O O16 0.201212 0.000000 0.270066
O O17 0.119091 0.500000 0.712814
O O18 0.946863 0.000000 0.077556
O O19 0.000000 0.735657 0.000000
#
# Coordination Sequence:
#
# PCOD9185474 Si02
#       7
#     8   8   8   8   8   8   8
#     4  10  20  34  52  77 110 149 191 239 293 350
#     4  10  20  37  60  86 113 148 198 242 285 347
#     4  10  21  36  58  87 117 153 195 241 290 349
#     4  10  21  36  54  77 109 151 194 238 290 346
#     4  10  19  34  57  81 109 147 190 239 294 350
#     4   8  16  32  53  75 103 141 183 234 287 338
#     4  10  22  40  59  84 122 159 190 238 299 349
#
# _framework density 21.782174999999999
#
# number of rings (size 3 to 8) (size 9 to 14) (size 15 to 20)
#    0.000    2.286    1.429    2.143    0.000    3.714 
#    0.000    3.571    0.000    0.000    0.000    0.000 
#    0.000    0.000    0.000    0.000    0.000    0.000 
#
# Total GULP energy -156224.647130 kJ/mol
# GULP energy per Si atom -5579.451683 kJ/mol
# Density = 2.173260 g / cm^3
# Si number density = 21.782175 Si / 1000 Ang^3
#
#
#
# Elastic Constant Matrix: (Units=GPa)
#
#
# Indices 1 2 3 4 5 6 
#
# 1 125.7517 -0.4667 63.1377 0.0000 0.9916 0.0001
# 2 -0.4667 41.6033 -6.6804 -0.0001 -5.4671 0.0001
# 3 63.1377 -6.6804 123.8167 0.0001 4.4774 0.0000
# 4 0.0000 -0.0001 0.0001 -8.9443 0.0000 6.1189
# 5 0.9916 -5.4671 4.4774 0.0000 19.4777 0.0000
# 6 0.0001 0.0001 0.0000 6.1189 0.0000 15.6044
#
#
#
# Elastic Compliance Matrix: (Units=1/GPa)
#
#
# Indices 1 2 3 4 5 6 
#
# 1 0.010718 -0.000697 -0.005522 0.000000 0.000528 0.000000
# 2 -0.000697 0.025153 0.001468 0.000000 0.006758 0.000000
# 3 -0.005522 0.001468 0.011038 0.000000 -0.001844 0.000000
# 4 0.000000 0.000000 0.000000 -0.088155 0.000000 0.034568
# 5 0.000528 0.006758 -0.001844 0.000000 0.053635 0.000000
# 6 0.000000 0.000000 0.000000 0.034568 0.000000 0.050530
#
#
# Mechanical properties :
#
#
# Convention : Reuss Voigt Hill
#
# Bulk Modulus (GPa) = 26.73314 44.79474 35.76394
# Shear Modulus (GPa) = 58.90035 20.90629 39.90332
#
# Velocity S-wave (km/s) = 5.20570 3.10141 4.28474
# Velocity P-wave (km/s) = 6.95931 5.78226 6.39791
#
# Compressibility (1/GPa) = 0.03740675
#
# Stress axis : x y z
#
# Youngs Moduli (GPa) = 93.30111 39.75736 90.59415
#
# Poissons Ratio (x) = 0.02771 0.50027
# Poissons Ratio (y) = 0.06504 -0.13301
# Poissons Ratio (z) = 0.51522 -0.05837
#
# Static dielectric constant tensor:
#      x y z
#    x 1.798270 0.000000 -0.031060 
#    y 0.000000 1.822910 0.000000 
#    z -0.031060 0.000000 1.805080 
# 
# From -- ./inp_files/338576.got.cif
#   From: 2010.05.17/outbox.cif.g08.bks.cpg/sg12_170_cif.got.tgz:338576.got - 2010.06.03 13:09:07.
