data_PCOD9185067
_publ_section_title
;
Structure prediction by ZEFSAII (Michael W. Deem and Ramdas Pophale) SiO2 
 PCOD9185067
Probable space group: C 2/M
;
_chemical_formula_sum "Si O2"
_cell_formula_units_Z 52
_cell_length_a 26.730943
_cell_length_b 19.457288
_cell_length_c 5.325838
_cell_angle_alpha 90.000000
_cell_angle_beta 101.495880
_cell_angle_gamma 90.000000
_cell_volume 2714.460950
_symmetry_space_group_name_H-M "C 2/M"
_symmetry_group_IT_number 12
_symmetry_cell_setting 'monoclinic'
loop_
_space_group_symop_operation_xyz
x,y,z
-x,y,-z
-x,-y,-z
x,-y,z
1/2+x,1/2+y,z
1/2-x,1/2+y,-z
1/2-x,1/2-y,-z
1/2+x,1/2-y,z
loop_
_atom_site_type_symbol
_atom_site_label
_atom_site_fract_x
_atom_site_fract_y
_atom_site_fract_z
Si Si1 0.296318 0.416164 0.545191
Si Si2 0.883467 0.377592 0.133094
Si Si3 0.534402 0.000000 0.784410
Si Si4 0.648614 0.581598 0.899736
Si Si5 0.676678 0.083195 0.427108
Si Si6 0.970551 0.277530 0.220543
Si Si7 0.970727 0.888068 0.220720
O O1 0.299142 0.500000 0.547864
O O2 0.324968 0.390600 0.325114
O O3 0.236596 0.399182 0.486465
O O4 0.325249 0.390615 0.822123
O O5 0.928482 0.434318 0.178445
O O6 0.850185 0.389023 0.348959
O O7 0.913348 0.305806 0.163250
O O8 0.850333 0.389009 0.850320
O O9 0.500000 0.000000 0.500000
O O10 0.500000 0.000000 0.000000
O O11 0.658628 0.500000 0.909917
O O12 0.588095 0.590961 0.838256
O O13 0.671887 0.000000 0.422330
O O14 0.971377 0.195039 0.221380
O O15 0.000000 0.301621 0.500000
O O16 0.000000 0.301621 0.000000
O O17 0.000000 0.911756 0.500000
O O18 0.000000 0.911755 0.000000
#
# Coordination Sequence:
#
# PCOD9185067 Si02
#       7
#     8   8   4   8   8   8   8
#     4   9  19  33  54  77 108 141 169 212 257 321
#     4  12  21  34  53  74 104 137 179 225 261 312
#     4  12  22  32  46  72 104 132 164 218 276 302
#     4  10  19  34  55  84 109 136 169 207 266 308
#     4  11  20  35  52  78 105 135 180 220 268 308
#     4  10  21  38  54  73 101 143 183 208 254 317
#     4  10  21  36  57  80 107 140 174 210 249 313
#
# _framework density 19.156659000000001
#
# number of rings (size 3 to 8) (size 9 to 14) (size 15 to 20)
#    0.000    1.538    1.538    4.615    0.000    3.077 
#    0.000    0.000    0.000    5.538    0.000    0.000 
#    0.000    0.000    0.000    0.000    0.000    0.000 
#
# Total GULP energy -145276.288381 kJ/mol
# GULP energy per Si atom -5587.549553 kJ/mol
# Density = 1.911306 g / cm^3
# Si number density = 19.156659 Si / 1000 Ang^3
#
#
#
# Elastic Constant Matrix: (Units=GPa)
#
#
# Indices 1 2 3 4 5 6 
#
# 1 144.5316 0.3146 115.1866 0.0000 -7.9152 0.0000
# 2 0.3146 12.2855 15.3812 0.0000 -1.8847 0.0000
# 3 115.1866 15.3812 236.6538 0.0000 -5.9935 0.0000
# 4 0.0000 0.0000 0.0000 1.6889 0.0000 2.6327
# 5 -7.9152 -1.8847 -5.9935 0.0000 42.0399 0.0000
# 6 0.0000 0.0000 0.0000 2.6327 0.0000 22.4561
#
#
#
# Elastic Compliance Matrix: (Units=1/GPa)
#
#
# Indices 1 2 3 4 5 6 
#
# 1 0.012039 0.007878 -0.006328 0.000000 0.001718 0.000000
# 2 0.007878 0.094183 -0.009847 0.000000 0.004302 0.000000
# 3 -0.006328 -0.009847 0.007933 0.000000 -0.000502 0.000000
# 4 0.000000 0.000000 0.000000 0.724512 0.000000 -0.084940
# 5 0.001718 0.004302 -0.000502 0.000000 0.024232 0.000000
# 6 0.000000 0.000000 0.000000 -0.084940 0.000000 0.054489
#
#
# Mechanical properties :
#
#
# Convention : Reuss Voigt Hill
#
# Bulk Modulus (GPa) = 10.24997 72.80397 41.52697
# Shear Modulus (GPa) = 5.17329 30.74287 17.95808
#
# Velocity S-wave (km/s) = 1.64511 4.01036 3.06507
# Velocity P-wave (km/s) = 2.99512 7.71563 5.85242
#
# Compressibility (1/GPa) = 0.09756131
#
# Stress axis : x y z
#
# Youngs Moduli (GPa) = 83.06053 10.61761 126.05347
#
# Poissons Ratio (x) = -0.08365 0.79773
# Poissons Ratio (y) = -0.65438 1.24126
# Poissons Ratio (z) = 0.52565 0.10455
#
# Static dielectric constant tensor:
#      x y z
#    x 1.625080 0.000000 -0.004080 
#    y 0.000000 1.675580 0.000000 
#    z -0.004080 0.000000 1.659350 
# 
# From -- ./inp_files/21224.got.cif
#   From: 2010.05.17/outbox.cif.g08.bks.cpg/sg12_11_cif.got.tgz:21224.got - 2010.06.03 13:09:07.
