data_PCOD9185119
_publ_section_title
;
Structure prediction by ZEFSAII (Michael W. Deem and Ramdas Pophale) SiO2 
 PCOD9185119
Probable space group: C 2/M
;
_chemical_formula_sum "Si O2"
_cell_formula_units_Z 56
_cell_length_a 19.688051
_cell_length_b 7.521628
_cell_length_c 19.164903
_cell_angle_alpha 90.000000
_cell_angle_beta 125.521193
_cell_angle_gamma 90.000000
_cell_volume 2309.896956
_symmetry_space_group_name_H-M "C 2/M"
_symmetry_group_IT_number 12
_symmetry_cell_setting 'monoclinic'
loop_
_space_group_symop_operation_xyz
x,y,z
-x,y,-z
-x,-y,-z
x,-y,z
1/2+x,1/2+y,z
1/2-x,1/2+y,-z
1/2-x,1/2-y,-z
1/2+x,1/2-y,z
loop_
_atom_site_type_symbol
_atom_site_label
_atom_site_fract_x
_atom_site_fract_y
_atom_site_fract_z
Si Si1 0.709989 0.288703 0.051534
Si Si2 0.564768 0.297821 0.486342
Si Si3 0.122883 0.799659 0.781213
Si Si4 0.841094 0.213452 0.585696
Si Si5 0.363597 0.716361 0.758331
Si Si6 0.452153 0.281884 0.116223
Si Si7 0.817493 0.293992 0.327607
O O1 0.710281 0.500000 0.067040
O O2 0.778354 0.202635 0.141786
O O3 0.750000 0.250000 0.000000
O O4 0.614969 0.227952 0.982678
O O5 0.500000 0.207169 0.500000
O O6 0.534980 0.500000 0.455625
O O7 0.590550 0.216715 0.428317
O O8 0.646719 0.304185 0.583853
O O9 0.077524 0.723027 0.823261
O O10 0.122641 0.720175 0.703785
O O11 0.091481 0.000000 0.756168
O O12 0.750000 0.250000 0.500000
O O13 0.854518 0.274374 0.672366
O O14 0.850016 0.000000 0.592340
O O15 0.367403 0.500000 0.762420
O O16 0.453209 0.775171 0.840074
O O17 0.277232 0.767542 0.743466
O O18 0.447614 0.500000 0.115056
O O19 0.812219 0.500000 0.344763
#
# Coordination Sequence:
#
# PCOD9185119 Si02
#       7
#     8   8   8   8   8   8   8
#     4   9  16  30  53  81 110 139 176 220 267 315
#     4  10  22  37  56  80 105 139 180 220 260 312
#     4  10  20  34  56  80 107 142 178 219 265 317
#     4  10  19  34  56  77 103 138 177 217 258 310
#     4   9  18  33  53  77 104 136 177 218 260 311
#     4   8  16  31  55  81 102 133 177 220 256 306
#     4  11  22  36  54  77 108 141 172 219 273 317
#
# _framework density 24.243504999999999
#
# number of rings (size 3 to 8) (size 9 to 14) (size 15 to 20)
#    0.000    2.429    1.429    2.143    2.000    0.286 
#    0.000    0.714    0.000   16.286    0.000    0.000 
#    0.000    0.000    0.000    0.000    0.000    0.000 
#
# Total GULP energy -156269.494153 kJ/mol
# GULP energy per Si atom -5581.053363 kJ/mol
# Density = 2.418833 g / cm^3
# Si number density = 24.243505 Si / 1000 Ang^3
#
#
#
# Elastic Constant Matrix: (Units=GPa)
#
#
# Indices 1 2 3 4 5 6 
#
# 1 93.4116 -4.5293 -10.9784 0.0000 9.4006 0.0000
# 2 -4.5293 69.7525 -8.3469 0.0000 -0.8046 0.0000
# 3 -10.9784 -8.3469 40.9094 0.0000 14.2880 0.0000
# 4 0.0000 0.0000 0.0000 15.3382 0.0000 5.3498
# 5 9.4006 -0.8046 14.2880 0.0000 47.7123 0.0000
# 6 0.0000 0.0000 0.0000 5.3498 0.0000 3.8845
#
#
#
# Elastic Compliance Matrix: (Units=1/GPa)
#
#
# Indices 1 2 3 4 5 6 
#
# 1 0.011688 0.001277 0.004684 0.000000 -0.003684 0.000000
# 2 0.001277 0.014857 0.003769 0.000000 -0.001130 0.000000
# 3 0.004684 0.003769 0.029897 0.000000 -0.009812 0.000000
# 4 0.000000 0.000000 0.000000 0.125464 0.000000 -0.172790
# 5 -0.003684 -0.001130 -0.009812 0.000000 0.024604 0.000000
# 6 0.000000 0.000000 0.000000 -0.172790 0.000000 0.495402
#
#
# Mechanical properties :
#
#
# Convention : Reuss Voigt Hill
#
# Bulk Modulus (GPa) = 13.17490 17.37382 15.27436
# Shear Modulus (GPa) = 7.06459 28.58221 17.82340
#
# Velocity S-wave (km/s) = 1.70890 3.43733 2.71437
# Velocity P-wave (km/s) = 3.05614 4.78911 4.01719
#
# Compressibility (1/GPa) = 0.07590193
#
# Stress axis : x y z
#
# Youngs Moduli (GPa) = 85.55446 67.30715 33.44798
#
# Poissons Ratio (x) = -0.08595 -0.15667
# Poissons Ratio (y) = -0.10925 -0.12605
# Poissons Ratio (z) = -0.40073 -0.25365
#
# Static dielectric constant tensor:
#      x y z
#    x 1.943010 0.000000 0.053900 
#    y 0.000000 1.945850 0.000000 
#    z 0.053900 0.000000 1.939060 
# 
# From -- ./inp_files/320265.got.cif
#   From: 2010.05.17/outbox.cif.g08.bks.cpg/sg12_161_cif.got.tgz:320265.got - 2010.06.03 13:09:07.
