data_PCOD9185081
_publ_section_title
;
Structure prediction by ZEFSAII (Michael W. Deem and Ramdas Pophale) SiO2 
 PCOD9185081
Probable space group: C 2/M
;
_chemical_formula_sum "Si O2"
_cell_formula_units_Z 52
_cell_length_a 12.077163
_cell_length_b 23.944781
_cell_length_c 15.124311
_cell_angle_alpha 90.000000
_cell_angle_beta 139.631441
_cell_angle_gamma 90.000000
_cell_volume 2832.869536
_symmetry_space_group_name_H-M "C 2/M"
_symmetry_group_IT_number 12
_symmetry_cell_setting 'monoclinic'
loop_
_space_group_symop_operation_xyz
x,y,z
-x,y,-z
-x,-y,-z
x,-y,z
1/2+x,1/2+y,z
1/2-x,1/2+y,-z
1/2-x,1/2-y,-z
1/2+x,1/2-y,z
loop_
_atom_site_type_symbol
_atom_site_label
_atom_site_fract_x
_atom_site_fract_y
_atom_site_fract_z
Si Si1 0.377703 0.565716 0.622742
Si Si2 0.256350 0.065231 0.790281
Si Si3 0.284767 0.139481 0.145431
Si Si4 0.442635 0.350175 0.821235
Si Si5 0.402957 0.933722 0.686360
Si Si6 0.943201 0.730273 0.135740
Si Si7 0.500000 0.154368 0.000000
O O1 0.353224 0.500000 0.631537
O O2 0.552617 0.568460 0.672531
O O3 0.404810 0.604276 0.724081
O O4 0.221121 0.586360 0.467326
O O5 0.328413 0.080616 0.737539
O O6 0.302389 0.000000 0.838048
O O7 0.340756 0.111270 0.905747
O O8 0.198103 0.146473 0.187351
O O9 0.404040 0.085981 0.208259
O O10 0.416704 0.189356 0.201972
O O11 0.126914 0.138970 0.980215
O O12 0.450238 0.286823 0.789147
O O13 0.394736 0.000000 0.677326
O O14 0.003330 0.694200 0.087631
O O15 0.750000 0.750000 0.000000
#
# Coordination Sequence:
#
# PCOD9185081 Si02
#       7
#     8   8   8   8   8   8   4
#     4  10  22  39  59  82 115 156 194 233 285 345
#     4  10  20  34  57  89 120 148 187 241 289 335
#     4  10  20  38  58  84 118 148 188 240 289 330
#     4  10  22  38  59  86 116 150 192 238 285 339
#     4  10  21  38  59  84 117 155 190 233 288 340
#     4  10  19  34  55  85 113 150 185 232 286 337
#     4  12  19  32  60  90 113 144 190 234 286 340
#
# _framework density 18.355944999999998
#
# number of rings (size 3 to 8) (size 9 to 14) (size 15 to 20)
#    0.000    1.846    1.538    4.385    0.000    3.692 
#    0.000    3.846    0.000    0.000    0.000    0.000 
#    0.000    0.000    0.000    0.000    0.000    0.000 
#
# Total GULP energy -144986.000186 kJ/mol
# GULP energy per Si atom -5576.384623 kJ/mol
# Density = 1.831417 g / cm^3
# Si number density = 18.355945 Si / 1000 Ang^3
#
#
#
# Elastic Constant Matrix: (Units=GPa)
#
#
# Indices 1 2 3 4 5 6 
#
# 1 104.5172 30.9463 29.3203 0.0000 -4.2505 0.0000
# 2 30.9463 70.5919 28.2162 0.0000 -13.0529 0.0000
# 3 29.3203 28.2162 46.3827 0.0000 -0.5342 0.0000
# 4 0.0000 0.0000 0.0000 6.2068 0.0000 -6.4688
# 5 -4.2505 -13.0529 -0.5342 0.0000 14.4723 0.0000
# 6 0.0000 0.0000 0.0000 -6.4688 0.0000 24.7545
#
#
#
# Elastic Compliance Matrix: (Units=1/GPa)
#
#
# Indices 1 2 3 4 5 6 
#
# 1 0.012090 -0.002768 -0.005949 0.000000 0.000835 0.000000
# 2 -0.002768 0.024314 -0.012804 0.000000 0.020644 0.000000
# 3 -0.005949 -0.012804 0.032971 0.000000 -0.012078 0.000000
# 4 0.000000 0.000000 0.000000 0.221415 0.000000 0.057860
# 5 0.000835 0.020644 -0.012078 0.000000 0.087516 0.000000
# 6 0.000000 0.000000 0.000000 0.057860 0.000000 0.055517
#
#
# Mechanical properties :
#
#
# Convention : Reuss Voigt Hill
#
# Bulk Modulus (GPa) = 37.97503 44.27304 41.12404
# Shear Modulus (GPa) = 10.29564 17.95400 14.12482
#
# Velocity S-wave (km/s) = 2.37088 3.13086 2.77699
# Velocity P-wave (km/s) = 5.31298 6.10256 5.72141
#
# Compressibility (1/GPa) = 0.02633309
#
# Stress axis : x y z
#
# Youngs Moduli (GPa) = 82.71136 41.12807 30.33009
#
# Poissons Ratio (x) = 0.11383 0.18045
# Poissons Ratio (y) = 0.22892 0.38834
# Poissons Ratio (z) = 0.49208 0.52660
#
# Static dielectric constant tensor:
#      x y z
#    x 1.625570 0.000000 -0.010480 
#    y 0.000000 1.685660 0.000000 
#    z -0.010480 0.000000 1.632090 
# 
# From -- ./inp_files/208667.got.cif
#   From: 2010.05.17/outbox.cif.g08.bks.cpg/sg12_105_cif.got.tgz:208667.got - 2010.06.03 13:09:07.
