data_PCOD9185471
_publ_section_title
;
Structure prediction by ZEFSAII (Michael W. Deem and Ramdas Pophale) SiO2 
 PCOD9185471
Probable space group: C 2/M
;
_chemical_formula_sum "Si O2"
_cell_formula_units_Z 48
_cell_length_a 29.915705
_cell_length_b 7.331373
_cell_length_c 26.894010
_cell_angle_alpha 90.000000
_cell_angle_beta 160.063465
_cell_angle_gamma 90.000000
_cell_volume 2011.258214
_symmetry_space_group_name_H-M "C 2/M"
_symmetry_group_IT_number 12
_symmetry_cell_setting 'monoclinic'
loop_
_space_group_symop_operation_xyz
x,y,z
-x,y,-z
-x,-y,-z
x,-y,z
1/2+x,1/2+y,z
1/2-x,1/2+y,-z
1/2-x,1/2-y,-z
1/2+x,1/2-y,z
loop_
_atom_site_type_symbol
_atom_site_label
_atom_site_fract_x
_atom_site_fract_y
_atom_site_fract_z
Si Si1 0.692889 0.278601 0.728394
Si Si2 0.910869 0.723781 0.748002
Si Si3 0.389402 0.201927 0.121536
Si Si4 0.019164 0.278106 0.963487
Si Si5 0.377035 0.721114 0.560118
Si Si6 0.922660 0.221853 0.494820
O O1 0.690416 0.500000 0.725546
O O2 0.672808 0.221825 0.649949
O O3 0.567546 0.220824 0.628860
O O4 0.832668 0.224892 0.895294
O O5 0.910120 0.500000 0.746224
O O6 0.770013 0.779145 0.578975
O O7 0.034298 0.792613 0.844986
O O8 0.925120 0.778560 0.820503
O O9 0.502748 0.206990 0.281858
O O10 0.363982 0.000000 0.075942
O O11 0.250000 0.250000 0.000000
O O12 0.010327 0.500000 0.955829
O O13 0.000000 0.216067 0.000000
O O14 0.384476 0.500000 0.570407
O O15 0.393081 0.778314 0.519493
O O16 0.918993 0.000000 0.491388
#
# Coordination Sequence:
#
# PCOD9185471 Si02
#       6
#     8   8   8   8   8   8
#     4   8  13  21  35  63 104 142 173 206 255 314
#     4   9  19  33  51  78 112 145 177 219 273 325
#     4  11  24  40  57  79 108 142 184 229 272 320
#     4   9  15  23  40  67 106 144 170 206 265 327
#     4  10  19  34  57  81 109 142 177 221 274 328
#     4   8  14  23  40  69 104 139 171 210 260 314
#
# _framework density 23.865655
#
# number of rings (size 3 to 8) (size 9 to 14) (size 15 to 20)
#    0.000    2.833    0.000    3.000    2.333    4.000 
#    0.000    0.833    0.000    0.000    0.000    2.333 
#    0.000    4.667    0.000    0.000    0.000    0.000 
#
# Total GULP energy -133975.119353 kJ/mol
# GULP energy per Si atom -5582.296640 kJ/mol
# Density = 2.381134 g / cm^3
# Si number density = 23.865655 Si / 1000 Ang^3
#
#
#
# Elastic Constant Matrix: (Units=GPa)
#
#
# Indices 1 2 3 4 5 6 
#
# 1 135.5893 -3.1556 52.8447 -0.0001 4.2453 0.0000
# 2 -3.1556 85.8064 -8.7901 0.0000 6.4709 0.0000
# 3 52.8447 -8.7901 148.8503 -0.0002 8.3954 -0.0001
# 4 -0.0001 0.0000 -0.0002 4.9144 -0.0001 -3.7323
# 5 4.2453 6.4709 8.3954 -0.0001 32.0293 0.0000
# 6 0.0000 0.0000 -0.0001 -3.7323 0.0000 -4.1057
#
#
#
# Elastic Compliance Matrix: (Units=1/GPa)
#
#
# Indices 1 2 3 4 5 6 
#
# 1 0.008563 0.000032 -0.003019 0.000000 -0.000350 0.000000
# 2 0.000032 0.011941 0.000842 0.000000 -0.002637 0.000000
# 3 -0.003019 0.000842 0.007944 0.000000 -0.001852 0.000000
# 4 0.000000 0.000000 0.000000 0.120376 0.000000 -0.109429
# 5 -0.000350 -0.002637 -0.001852 0.000000 0.032286 0.000000
# 6 0.000000 0.000000 0.000000 -0.109429 0.000000 -0.144088
#
#
# Mechanical properties :
#
#
# Convention : Reuss Voigt Hill
#
# Bulk Modulus (GPa) = 41.39055 50.22712 45.80884
# Shear Modulus (GPa) = 101.29062 28.52408 64.90735
#
# Velocity S-wave (km/s) = 6.52182 3.46091 5.22073
# Velocity P-wave (km/s) = 8.60773 6.08785 7.45503
#
# Compressibility (1/GPa) = 0.02416010
#
# Stress axis : x y z
#
# Youngs Moduli (GPa) = 116.77655 83.74838 125.88098
#
# Poissons Ratio (x) = -0.00269 0.37997
# Poissons Ratio (y) = -0.00375 -0.10605
# Poissons Ratio (z) = 0.35249 -0.07056
#
# Static dielectric constant tensor:
#      x y z
#    x 1.906690 0.000000 0.024750 
#    y 0.000000 2.177910 0.000000 
#    z 0.024750 0.000000 1.866150 
# 
# From -- ./inp_files/370686.got.cif
#   From: 2010.05.17/outbox.cif.g08.bks.cpg/sg12_186_cif.got.tgz:370686.got - 2010.06.03 13:09:07.
