data_PCOD9185506
_publ_section_title
;
Structure prediction by ZEFSAII (Michael W. Deem and Ramdas Pophale) SiO2 
 PCOD9185506
Probable space group: C 2/M
;
_chemical_formula_sum "Si O2"
_cell_formula_units_Z 64
_cell_length_a 21.085018
_cell_length_b 8.634121
_cell_length_c 22.254604
_cell_angle_alpha 90.000000
_cell_angle_beta 61.707231
_cell_angle_gamma 90.000000
_cell_volume 3567.464625
_symmetry_space_group_name_H-M "C 2/M"
_symmetry_group_IT_number 12
_symmetry_cell_setting 'monoclinic'
loop_
_space_group_symop_operation_xyz
x,y,z
-x,y,-z
-x,-y,-z
x,-y,z
1/2+x,1/2+y,z
1/2-x,1/2+y,-z
1/2-x,1/2-y,-z
1/2+x,1/2-y,z
loop_
_atom_site_type_symbol
_atom_site_label
_atom_site_fract_x
_atom_site_fract_y
_atom_site_fract_z
Si Si1 0.419952 0.187424 0.555238
Si Si2 0.333655 0.187433 0.077200
Si Si3 0.672465 0.185686 0.159358
Si Si4 0.776320 0.686111 0.551490
Si Si5 0.919782 0.312943 0.159111
Si Si6 0.844147 0.815667 0.705276
Si Si7 0.414616 0.811290 0.919428
Si Si8 0.797705 0.814478 0.292381
O O1 0.500000 0.235226 0.500000
O O2 0.356563 0.235004 0.537147
O O3 0.397392 0.252641 0.630125
O O4 0.418197 0.000000 0.559339
O O5 0.254378 0.257311 0.116651
O O6 0.379851 0.230415 0.115081
O O7 0.327740 0.000000 0.079237
O O8 0.374269 0.237678 0.998296
O O9 0.640613 0.251573 0.235462
O O10 0.628231 0.237410 0.120673
O O11 0.671330 0.000000 0.162523
O O12 0.776833 0.500000 0.547794
O O13 0.750000 0.750000 0.500000
O O14 0.723108 0.730625 0.630210
O O15 0.918369 0.500000 0.164042
O O16 0.873812 0.244158 0.234321
O O17 0.002458 0.261425 0.120119
O O18 0.764785 0.756947 0.721391
O O19 0.844504 0.000000 0.705601
O O20 0.415000 0.000000 0.920258
O O21 0.793375 0.000000 0.289954
#
# Coordination Sequence:
#
# PCOD9185506 Si02
#       8
#     8   8   8   8   8   8   8   8
#     4   9  19  38  61  84 112 144 181 222 270 324
#     4  10  19  34  58  82 106 139 186 232 274 325
#     4  11  21  35  55  78 111 148 185 225 273 330
#     4   9  19  35  56  82 110 143 177 217 265 316
#     4  10  19  34  57  82 108 142 186 226 269 323
#     4  11  21  35  57  83 109 143 188 231 270 317
#     4   9  20  36  53  79 112 147 181 224 278 331
#     4  10  20  36  57  81 111 145 183 224 272 323
#
# _framework density 17.939912
#
# number of rings (size 3 to 8) (size 9 to 14) (size 15 to 20)
#    0.000    2.125    1.250    3.375    0.000    4.250 
#    2.250    2.500    0.000    1.500    0.000    0.000 
#    0.000    0.000    0.000    0.000    0.000    0.000 
#
# Total GULP energy -178633.886491 kJ/mol
# GULP energy per Si atom -5582.308953 kJ/mol
# Density = 1.789908 g / cm^3
# Si number density = 17.939912 Si / 1000 Ang^3
#
#
#
# Elastic Constant Matrix: (Units=GPa)
#
#
# Indices 1 2 3 4 5 6 
#
# 1 142.3810 33.8690 102.6795 -0.0001 0.8985 -0.0003
# 2 33.8690 26.8447 35.0838 -0.0003 0.5304 -0.0011
# 3 102.6795 35.0838 165.7047 0.0000 0.4348 0.0001
# 4 -0.0001 -0.0003 0.0000 30.6867 0.0001 -2.5130
# 5 0.8985 0.5304 0.4348 0.0001 32.9911 0.0000
# 6 -0.0003 -0.0011 0.0001 -2.5130 0.0000 21.4275
#
#
#
# Elastic Compliance Matrix: (Units=1/GPa)
#
#
# Indices 1 2 3 4 5 6 
#
# 1 0.014050 -0.008773 -0.006848 0.000000 -0.000151 0.000000
# 2 -0.008773 0.056996 -0.006630 0.000001 -0.000590 0.000003
# 3 -0.006848 -0.006630 0.011682 0.000000 0.000139 -0.000001
# 4 0.000000 0.000001 0.000000 0.032903 0.000000 0.003859
# 5 -0.000151 -0.000590 0.000139 0.000000 0.030323 0.000000
# 6 0.000000 0.000003 -0.000001 0.003859 0.000000 0.047121
#
#
# Mechanical properties :
#
#
# Convention : Reuss Voigt Hill
#
# Bulk Modulus (GPa) = 26.16039 75.35498 50.75768
# Shear Modulus (GPa) = 19.97446 27.90762 23.94104
#
# Velocity S-wave (km/s) = 3.34040 3.94841 3.65706
# Velocity P-wave (km/s) = 5.43061 7.92981 6.79608
#
# Compressibility (1/GPa) = 0.03822573
#
# Stress axis : x y z
#
# Youngs Moduli (GPa) = 71.17462 17.54500 85.60467
#
# Poissons Ratio (x) = 0.15393 0.58624
# Poissons Ratio (y) = 0.62444 0.56752
# Poissons Ratio (z) = 0.48742 0.11632
#
# Static dielectric constant tensor:
#      x y z
#    x 1.594880 0.000000 0.000280 
#    y 0.000000 1.611460 0.000000 
#    z 0.000280 0.000000 1.604510 
# 
# From -- ./inp_files/319764.got.cif
#   From: 2010.05.17/outbox.cif.g08.bks.cpg/sg12_160_cif.got.tgz:319764.got - 2010.06.03 13:09:07.
