data_PCOD9185069
_publ_section_title
;
Structure prediction by ZEFSAII (Michael W. Deem and Ramdas Pophale) SiO2 
 PCOD9185069
Probable space group: C 2/M
;
_chemical_formula_sum "Si O2"
_cell_formula_units_Z 40
_cell_length_a 14.197652
_cell_length_b 14.412794
_cell_length_c 17.660681
_cell_angle_alpha 90.000000
_cell_angle_beta 34.213212
_cell_angle_gamma 90.000000
_cell_volume 2031.983689
_symmetry_space_group_name_H-M "C 2/M"
_symmetry_group_IT_number 12
_symmetry_cell_setting 'monoclinic'
loop_
_space_group_symop_operation_xyz
x,y,z
-x,y,-z
-x,-y,-z
x,-y,z
1/2+x,1/2+y,z
1/2-x,1/2+y,-z
1/2-x,1/2-y,-z
1/2+x,1/2-y,z
loop_
_atom_site_type_symbol
_atom_site_label
_atom_site_fract_x
_atom_site_fract_y
_atom_site_fract_z
Si Si1 0.414291 0.109502 0.756277
Si Si2 0.150645 0.318616 0.737735
Si Si3 0.407650 0.742280 0.451257
Si Si4 0.702626 0.394904 0.216108
Si Si5 0.351464 0.739570 0.009958
O O1 0.534382 0.139041 0.748159
O O2 0.485939 0.165519 0.636463
O O3 0.416656 0.000000 0.746266
O O4 0.229987 0.150899 0.895835
O O5 0.318314 0.275841 0.590308
O O6 0.205195 0.392373 0.764211
O O7 0.042721 0.243100 0.856343
O O8 0.250000 0.750000 0.500000
O O9 0.525546 0.656837 0.347457
O O10 0.684831 0.500000 0.200795
O O11 0.806453 0.329828 0.089914
O O12 0.250000 0.750000 0.000000
#
# Coordination Sequence:
#
# PCOD9185069 Si02
#       5
#     8   8   8   8   8
#     4   9  18  35  57  79 108 149 188 218 258 317
#     4  10  19  34  55  84 116 138 169 228 287 320
#     4   9  20  36  52  76 113 149 179 214 265 327
#     4  11  22  35  57  87 112 135 172 226 284 329
#     4   9  20  36  52  76 113 149 179 214 265 327
#
# _framework density 19.685198
#
# number of rings (size 3 to 8) (size 9 to 14) (size 15 to 20)
#    0.000    2.400    0.000    3.000    0.000    9.600 
#    0.000    1.000    0.000   19.200    0.000    2.800 
#    0.000    0.000    0.000    0.000    0.000    0.000 
#
# Total GULP energy -111503.977061 kJ/mol
# GULP energy per Si atom -5575.198853 kJ/mol
# Density = 1.964039 g / cm^3
# Si number density = 19.685198 Si / 1000 Ang^3
#
#
#
# Elastic Constant Matrix: (Units=GPa)
#
#
# Indices 1 2 3 4 5 6 
#
# 1 50.8176 9.6770 0.3247 -0.0005 10.1054 0.0001
# 2 9.6770 139.1998 43.5290 -0.0012 17.6809 0.0004
# 3 0.3247 43.5290 129.8192 -0.0029 17.4322 0.0011
# 4 -0.0005 -0.0012 -0.0029 2.8116 0.0012 -0.4575
# 5 10.1054 17.6809 17.4322 0.0012 29.3057 -0.0003
# 6 0.0001 0.0004 0.0011 -0.4575 -0.0003 22.7405
#
#
#
# Elastic Compliance Matrix: (Units=1/GPa)
#
#
# Indices 1 2 3 4 5 6 
#
# 1 0.021349 -0.000921 0.001271 0.000008 -0.007562 0.000000
# 2 -0.000921 0.008414 -0.002369 0.000002 -0.003350 0.000000
# 3 0.001271 -0.002369 0.009087 0.000010 -0.004414 0.000000
# 4 0.000008 0.000002 0.000010 0.356835 -0.000025 0.007179
# 5 -0.007562 -0.003350 -0.004414 -0.000025 0.041377 0.000000
# 6 0.000000 0.000000 0.000000 0.007179 0.000000 0.044119
#
#
# Mechanical properties :
#
#
# Convention : Reuss Voigt Hill
#
# Bulk Modulus (GPa) = 28.72600 47.43311 38.07955
# Shear Modulus (GPa) = 10.06393 28.72530 19.39461
#
# Velocity S-wave (km/s) = 2.26352 3.82414 3.14226
# Velocity P-wave (km/s) = 4.63203 6.60657 5.70537
#
# Compressibility (1/GPa) = 0.03481167
#
# Stress axis : x y z
#
# Youngs Moduli (GPa) = 46.83998 118.84532 110.04738
#
# Poissons Ratio (x) = 0.10946 -0.13986
# Poissons Ratio (y) = 0.04314 0.26073
# Poissons Ratio (z) = -0.05953 0.28158
#
# Static dielectric constant tensor:
#      x y z
#    x 1.732440 0.000000 -0.001550 
#    y 0.000000 1.669520 0.000000 
#    z -0.001550 0.000000 1.736380 
# 
# From -- ./inp_files/59108.got.cif
#   From: 2010.05.17/outbox.cif.g08.bks.cpg/sg12_30_cif.got.tgz:59108.got - 2010.06.03 13:09:07.
