data_PCOD9185481
_publ_section_title
;
Structure prediction by ZEFSAII (Michael W. Deem and Ramdas Pophale) SiO2 
 PCOD9185481
Probable space group: C 2/M
;
_chemical_formula_sum "Si O2"
_cell_formula_units_Z 64
_cell_length_a 20.048861
_cell_length_b 13.167124
_cell_length_c 11.561516
_cell_angle_alpha 90.000000
_cell_angle_beta 75.670957
_cell_angle_gamma 90.000000
_cell_volume 2957.127633
_symmetry_space_group_name_H-M "C 2/M"
_symmetry_group_IT_number 12
_symmetry_cell_setting 'monoclinic'
loop_
_space_group_symop_operation_xyz
x,y,z
-x,y,-z
-x,-y,-z
x,-y,z
1/2+x,1/2+y,z
1/2-x,1/2+y,-z
1/2-x,1/2-y,-z
1/2+x,1/2-y,z
loop_
_atom_site_type_symbol
_atom_site_label
_atom_site_fract_x
_atom_site_fract_y
_atom_site_fract_z
Si Si1 0.707885 0.621922 0.047624
Si Si2 0.619100 0.303496 0.270120
Si Si3 0.979739 0.117159 0.261318
Si Si4 0.832091 0.617273 0.833542
Si Si5 0.724558 0.331041 0.678153
Si Si6 0.698574 0.884596 0.583091
Si Si7 0.603423 0.616405 0.900295
Si Si8 0.072886 0.275056 0.526593
O O1 0.706174 0.500000 0.044649
O O2 0.781700 0.647316 0.960765
O O3 0.646504 0.659930 0.988684
O O4 0.689585 0.658599 0.182905
O O5 0.560022 0.378793 0.256082
O O6 0.606117 0.194324 0.214306
O O7 0.614089 0.284367 0.407881
O O8 0.964341 0.153786 0.136952
O O9 0.945687 0.193838 0.366812
O O10 0.957328 0.000000 0.283193
O O11 0.850785 0.500000 0.834824
O O12 0.785403 0.635917 0.739257
O O13 0.712366 0.210598 0.662429
O O14 0.745255 0.374355 0.544210
O O15 0.658024 0.376242 0.770260
O O16 0.624081 0.859159 0.556315
O O17 0.699956 0.000000 0.628421
O O18 0.589430 0.500000 0.938451
O O19 0.000000 0.308984 0.500000
#
# Coordination Sequence:
#
# PCOD9185481 Si02
#       8
#     8   8   8   8   8   8   8   8
#     4   9  19  34  56  87 113 142 185 236 289 334
#     4  11  21  34  55  81 115 149 189 234 276 334
#     4  10  21  37  56  81 115 153 191 232 282 340
#     4  10  20  37  60  83 112 148 191 235 283 343
#     4  10  19  34  57  81 111 143 187 230 284 336
#     4  11  21  35  56  84 113 145 191 240 279 333
#     4   9  17  33  58  82 110 147 184 228 283 335
#     4  10  22  37  54  81 118 155 192 224 280 341
#
# _framework density 21.642624000000001
#
# number of rings (size 3 to 8) (size 9 to 14) (size 15 to 20)
#    0.000    2.000    2.500    2.625    0.000    3.500 
#    0.000    5.000    0.000    3.000    0.000    0.875 
#    0.000    0.000    0.000    0.000    0.000    0.000 
#
# Total GULP energy -178491.178699 kJ/mol
# GULP energy per Si atom -5577.849334 kJ/mol
# Density = 2.159336 g / cm^3
# Si number density = 21.642624 Si / 1000 Ang^3
#
#
#
# Elastic Constant Matrix: (Units=GPa)
#
#
# Indices 1 2 3 4 5 6 
#
# 1 40.3340 16.0577 3.9877 0.0000 13.3239 0.0000
# 2 16.0577 103.9782 16.8109 0.0000 4.1969 0.0000
# 3 3.9877 16.8109 87.0965 0.0000 -10.0156 0.0000
# 4 0.0000 0.0000 0.0000 22.2989 0.0000 2.3553
# 5 13.3239 4.1969 -10.0156 0.0000 18.8570 0.0000
# 6 0.0000 0.0000 0.0000 2.3553 0.0000 33.2455
#
#
#
# Elastic Compliance Matrix: (Units=1/GPa)
#
#
# Indices 1 2 3 4 5 6 
#
# 1 0.035334 -0.003768 -0.003903 0.000000 -0.026201 0.000000
# 2 -0.003768 0.010543 -0.001945 0.000000 -0.000717 0.000000
# 3 -0.003903 -0.001945 0.013209 0.000000 0.010207 0.000000
# 4 0.000000 0.000000 0.000000 0.045183 0.000000 -0.003201
# 5 -0.026201 -0.000717 0.010207 0.000000 0.077125 0.000000
# 6 0.000000 0.000000 0.000000 -0.003201 0.000000 0.030306
#
#
# Mechanical properties :
#
#
# Convention : Reuss Voigt Hill
#
# Bulk Modulus (GPa) = 25.09185 33.90236 29.49711
# Shear Modulus (GPa) = 20.47355 27.85042 24.16199
#
# Velocity S-wave (km/s) = 3.07902 3.59114 3.34489
# Velocity P-wave (km/s) = 4.92538 5.73530 5.34570
#
# Compressibility (1/GPa) = 0.03985357
#
# Stress axis : x y z
#
# Youngs Moduli (GPa) = 28.30115 94.85243 75.70399
#
# Poissons Ratio (x) = 0.35742 0.29550
# Poissons Ratio (y) = 0.10664 0.14723
# Poissons Ratio (z) = 0.11047 0.18447
#
# Static dielectric constant tensor:
#      x y z
#    x 1.881780 0.000000 0.002190 
#    y 0.000000 1.810370 0.000000 
#    z 0.002190 0.000000 1.795260 
# 
# From -- ./inp_files/175249.got.cif
#   From: 2010.05.17/outbox.cif.g08.bks.cpg/sg12_88_cif.got.tgz:175249.got - 2010.06.03 13:09:07.
