data_PCOD9185762
_publ_section_title
;
Structure prediction by ZEFSAII (Michael W. Deem and Ramdas Pophale) SiO2 
 PCOD9185762
Probable space group: C 2/M
;
_chemical_formula_sum "Si O2"
_cell_formula_units_Z 64
_cell_length_a 24.816783
_cell_length_b 9.056594
_cell_length_c 20.896821
_cell_angle_alpha 90.000000
_cell_angle_beta 52.464760
_cell_angle_gamma 90.000000
_cell_volume 3724.364383
_symmetry_space_group_name_H-M "C 2/M"
_symmetry_group_IT_number 12
_symmetry_cell_setting 'monoclinic'
loop_
_space_group_symop_operation_xyz
x,y,z
-x,y,-z
-x,-y,-z
x,-y,z
1/2+x,1/2+y,z
1/2-x,1/2+y,-z
1/2-x,1/2-y,-z
1/2+x,1/2-y,z
loop_
_atom_site_type_symbol
_atom_site_label
_atom_site_fract_x
_atom_site_fract_y
_atom_site_fract_z
Si Si1 0.317540 0.323818 0.623001
Si Si2 0.541732 0.323199 0.034952
Si Si3 0.036225 0.677047 0.288629
Si Si4 0.963115 0.323311 0.208389
Si Si5 0.325074 0.323839 0.268161
Si Si6 0.327009 0.675477 0.767513
Si Si7 0.049476 0.322981 0.523891
Si Si8 0.185784 0.175914 0.875455
O O1 0.312240 0.500000 0.620073
O O2 0.246032 0.247074 0.658908
O O3 0.332041 0.290230 0.687696
O O4 0.379714 0.259345 0.537742
O O5 0.537123 0.500000 0.049891
O O6 0.508592 0.237143 0.117318
O O7 0.500000 0.293890 0.000000
O O8 0.620105 0.284173 0.964637
O O9 0.045894 0.500000 0.284411
O O10 0.108871 0.753443 0.244034
O O11 0.999256 0.713708 0.249179
O O12 0.988865 0.718255 0.383160
O O13 0.956194 0.500000 0.209087
O O14 0.889518 0.248572 0.255391
O O15 0.324518 0.500000 0.277302
O O16 0.330858 0.294406 0.187382
O O17 0.327505 0.500000 0.774497
O O18 0.254951 0.740683 0.841913
O O19 0.060958 0.500000 0.515508
O O20 0.000000 0.288615 0.500000
O O21 0.196677 0.000000 0.873023
#
# Coordination Sequence:
#
# PCOD9185762 Si02
#       8
#     8   8   8   8   8   8   8   8
#     4  10  20  33  53  85 117 139 173 233 285 320
#     4  10  19  36  58  83 110 142 187 228 266 323
#     4  10  22  39  56  78 112 149 186 223 270 331
#     4  11  23  37  55  82 115 147 179 227 280 324
#     4  10  19  35  57  80 109 147 186 221 267 331
#     4  10  20  33  53  82 113 142 178 224 276 327
#     4  10  19  34  58  82 105 144 191 228 266 326
#     4   9  18  33  56  81 108 141 179 226 270 315
#
# _framework density 17.184139999999999
#
# number of rings (size 3 to 8) (size 9 to 14) (size 15 to 20)
#    0.000    2.000    2.500    1.500    0.000    4.000 
#    0.000    1.250    0.000    0.000    0.000    0.000 
#    0.000    0.000    0.000    0.000    0.000    0.000 
#
# Total GULP energy -178661.852709 kJ/mol
# GULP energy per Si atom -5583.182897 kJ/mol
# Density = 1.714503 g / cm^3
# Si number density = 17.184140 Si / 1000 Ang^3
#
#
#
# Elastic Constant Matrix: (Units=GPa)
#
#
# Indices 1 2 3 4 5 6 
#
# 1 158.8729 75.2145 86.7659 0.0000 -24.7819 0.0000
# 2 75.2145 50.2531 51.1126 -0.0002 -11.1684 0.0003
# 3 86.7659 51.1126 107.2202 -0.0001 -19.0220 0.0000
# 4 0.0000 -0.0002 -0.0001 26.0160 0.0000 -7.2133
# 5 -24.7819 -11.1684 -19.0220 0.0000 31.4582 0.0000
# 6 0.0000 0.0003 0.0000 -7.2133 0.0000 25.4366
#
#
#
# Elastic Compliance Matrix: (Units=1/GPa)
#
#
# Indices 1 2 3 4 5 6 
#
# 1 0.023359 -0.030095 -0.003570 0.000000 0.005558 0.000000
# 2 -0.030095 0.077639 -0.013412 0.000000 -0.004254 -0.000001
# 3 -0.003570 -0.013412 0.019340 0.000000 0.004121 0.000000
# 4 0.000000 0.000000 0.000000 0.041718 0.000000 0.011830
# 5 0.005558 -0.004254 0.004121 0.000000 0.037148 0.000000
# 6 0.000000 -0.000001 0.000000 0.011830 0.000000 0.042668
#
#
# Mechanical properties :
#
#
# Convention : Reuss Voigt Hill
#
# Bulk Modulus (GPa) = 38.19156 82.50357 60.34757
# Shear Modulus (GPa) = 14.50312 23.46573 18.98442
#
# Velocity S-wave (km/s) = 2.90829 3.69934 3.32741
# Velocity P-wave (km/s) = 5.79229 8.14632 7.06800
#
# Compressibility (1/GPa) = 0.02618379
#
# Stress axis : x y z
#
# Youngs Moduli (GPa) = 42.81030 12.88019 51.70595
#
# Poissons Ratio (x) = 0.38763 0.18460
# Poissons Ratio (y) = 1.28838 0.69347
# Poissons Ratio (z) = 0.15284 0.17275
#
# Static dielectric constant tensor:
#      x y z
#    x 1.560350 0.000000 0.000300 
#    y 0.000000 1.569500 0.000000 
#    z 0.000300 0.000000 1.566870 
# 
# From -- ./inp_files/295585.got.cif
#   From: 2010.05.17/outbox.cif.g08.bks.cpg/sg12_148_cif.got.tgz:295585.got - 2010.06.03 13:09:07.
