data_PCOD9185891
_publ_section_title
;
Structure prediction by ZEFSAII (Michael W. Deem and Ramdas Pophale) SiO2 
 PCOD9185891
Probable space group: C 2/M
;
_chemical_formula_sum "Si O2"
_cell_formula_units_Z 64
_cell_length_a 23.592680
_cell_length_b 17.294046
_cell_length_c 21.027133
_cell_angle_alpha 90.000000
_cell_angle_beta 23.602547
_cell_angle_gamma 90.000000
_cell_volume 3435.080499
_symmetry_space_group_name_H-M "C 2/M"
_symmetry_group_IT_number 12
_symmetry_cell_setting 'monoclinic'
loop_
_space_group_symop_operation_xyz
x,y,z
-x,y,-z
-x,-y,-z
x,-y,z
1/2+x,1/2+y,z
1/2-x,1/2+y,-z
1/2-x,1/2-y,-z
1/2+x,1/2-y,z
loop_
_atom_site_type_symbol
_atom_site_label
_atom_site_fract_x
_atom_site_fract_y
_atom_site_fract_z
Si Si1 0.333924 0.274237 0.227205
Si Si2 0.808370 0.144343 0.557512
Si Si3 0.159719 0.913071 0.339890
Si Si4 0.364376 0.409426 0.290562
Si Si5 0.104800 0.591864 0.653836
Si Si6 0.681938 0.179931 0.031428
Si Si7 0.546560 0.590875 0.224128
Si Si8 0.141034 0.710807 0.926726
O O1 0.215208 0.229277 0.389143
O O2 0.365867 0.354921 0.227857
O O3 0.306508 0.274461 0.179604
O O4 0.471773 0.219118 0.094929
O O5 0.805221 0.089282 0.621743
O O6 0.690535 0.118284 0.628337
O O7 0.954791 0.136891 0.369853
O O8 0.279847 0.865030 0.180828
O O9 0.000000 0.879401 0.500000
O O10 0.153722 0.000000 0.320726
O O11 0.379354 0.500000 0.259723
O O12 0.217047 0.399232 0.480792
O O13 0.487959 0.387730 0.214177
O O14 0.069255 0.500000 0.694607
O O15 0.969081 0.647397 0.790096
O O16 0.750000 0.250000 0.000000
O O17 0.792138 0.109995 0.928099
O O18 0.673030 0.210108 0.968198
O O19 0.514603 0.500000 0.264504
#
# Coordination Sequence:
#
# PCOD9185891 Si02
#       8
#     8   8   8   8   8   8   8   8
#     4  10  20  38  59  81 122 144 193 250 282 344
#     4  10  19  34  58  85 116 156 193 229 285 345
#     4  10  20  35  55  81 120 162 196 230 281 350
#     4   9  20  39  65  89 111 150 199 249 306 351
#     4  10  21  37  59  89 119 151 198 246 292 353
#     4  12  24  37  57  84 119 155 196 239 307 357
#     4  10  21  35  56  87 120 150 192 242 295 359
#     4  10  22  38  52  86 113 154 194 239 287 348
#
# _framework density 18.631295999999999
#
# number of rings (size 3 to 8) (size 9 to 14) (size 15 to 20)
#    0.000    1.875    1.250    3.750    1.750    3.000 
#    0.000    3.125    0.000    1.500    0.000    1.750 
#    0.000    0.000    0.000    0.000    0.000    0.000 
#
# Total GULP energy -178402.098341 kJ/mol
# GULP energy per Si atom -5575.065573 kJ/mol
# Density = 1.858889 g / cm^3
# Si number density = 18.631296 Si / 1000 Ang^3
#
#
#
# Elastic Constant Matrix: (Units=GPa)
#
#
# Indices 1 2 3 4 5 6 
#
# 1 75.7781 23.9237 18.0417 -0.0021 2.6359 0.0028
# 2 23.9237 40.4021 17.0360 -0.0014 4.0485 0.0023
# 3 18.0417 17.0360 62.9989 -0.0005 -17.1052 0.0015
# 4 -0.0021 -0.0014 -0.0005 16.3310 -0.0010 -6.9015
# 5 2.6359 4.0485 -17.1052 -0.0010 25.8216 0.0005
# 6 0.0028 0.0023 0.0015 -6.9015 0.0005 10.9060
#
#
#
# Elastic Compliance Matrix: (Units=1/GPa)
#
#
# Indices 1 2 3 4 5 6 
#
# 1 0.016658 -0.008245 -0.003233 0.000001 -0.002549 -0.000002
# 2 -0.008245 0.035096 -0.010236 -0.000001 -0.011442 -0.000004
# 3 -0.003233 -0.010236 0.024499 0.000000 0.018164 -0.000001
# 4 0.000001 -0.000001 0.000000 0.083587 0.000002 0.052896
# 5 -0.002549 -0.011442 0.018164 0.000002 0.052814 0.000000
# 6 -0.000002 -0.000004 -0.000001 0.052896 0.000000 0.125167
#
#
# Mechanical properties :
#
#
# Convention : Reuss Voigt Hill
#
# Bulk Modulus (GPa) = 30.46487 33.02020 31.74253
# Shear Modulus (GPa) = 12.74892 18.62357 15.68624
#
# Velocity S-wave (km/s) = 2.61870 3.16505 2.90475
# Velocity P-wave (km/s) = 5.05276 5.57837 5.32206
#
# Compressibility (1/GPa) = 0.03282469
#
# Stress axis : x y z
#
# Youngs Moduli (GPa) = 60.03164 28.49336 40.81808
#
# Poissons Ratio (x) = 0.23493 0.13197
# Poissons Ratio (y) = 0.49496 0.41781
# Poissons Ratio (z) = 0.19409 0.29165
#
# Static dielectric constant tensor:
#      x y z
#    x 1.655670 0.000000 -0.003780 
#    y 0.000000 1.670410 0.000000 
#    z -0.003780 0.000000 1.667470 
# 
# From -- ./inp_files/326082.got.cif
#   From: 2010.05.17/outbox.cif.g08.bks.cpg/sg12_164_cif.got.tgz:326082.got - 2010.06.03 13:09:07.
