data_PCOD9185151
_publ_section_title
;
Structure prediction by ZEFSAII (Michael W. Deem and Ramdas Pophale) SiO2 
 PCOD9185151
Probable space group: C 2/M
;
_chemical_formula_sum "Si O2"
_cell_formula_units_Z 64
_cell_length_a 15.545142
_cell_length_b 7.406641
_cell_length_c 24.113726
_cell_angle_alpha 90.000000
_cell_angle_beta 74.363294
_cell_angle_gamma 90.000000
_cell_volume 2673.635058
_symmetry_space_group_name_H-M "C 2/M"
_symmetry_group_IT_number 12
_symmetry_cell_setting 'monoclinic'
loop_
_space_group_symop_operation_xyz
x,y,z
-x,y,-z
-x,-y,-z
x,-y,z
1/2+x,1/2+y,z
1/2-x,1/2+y,-z
1/2-x,1/2-y,-z
1/2+x,1/2-y,z
loop_
_atom_site_type_symbol
_atom_site_label
_atom_site_fract_x
_atom_site_fract_y
_atom_site_fract_z
Si Si1 0.985005 0.205639 0.738085
Si Si2 0.070409 0.778447 0.372018
Si Si3 0.796640 0.282584 0.819036
Si Si4 0.387634 0.278357 0.189308
Si Si5 0.989854 0.796669 0.062995
Si Si6 0.815406 0.713140 0.938215
Si Si7 0.725992 0.281650 0.419617
Si Si8 0.107875 0.790435 0.543281
O O1 0.959274 0.286418 0.683293
O O2 0.892088 0.204740 0.787388
O O3 0.058241 0.286578 0.766594
O O4 0.014126 0.000000 0.721759
O O5 0.168399 0.724427 0.376323
O O6 0.990478 0.719550 0.426893
O O7 0.071106 0.000000 0.371288
O O8 0.803831 0.500000 0.814385
O O9 0.715692 0.226288 0.793875
O O10 0.774467 0.234346 0.886322
O O11 0.393782 0.500000 0.187713
O O12 0.432062 0.217804 0.123374
O O13 0.089889 0.804837 0.068858
O O14 0.953071 0.000000 0.059529
O O15 0.000000 0.711518 0.000000
O O16 0.833455 0.500000 0.932995
O O17 0.750000 0.750000 0.000000
O O18 0.729406 0.500000 0.419716
O O19 0.826862 0.221037 0.414443
O O20 0.665700 0.215313 0.482339
O O21 0.094924 0.000000 0.531618
#
# Coordination Sequence:
#
# PCOD9185151 Si02
#       8
#     8   8   8   8   8   8   8   8
#     4  10  20  36  56  77 102 137 182 225 260 312
#     4   9  18  32  52  76 103 139 181 219 262 316
#     4  10  21  38  57  78 106 140 175 216 267 318
#     4   9  18  34  55  75 100 136 173 209 260 317
#     4  10  19  34  56  79 106 138 173 213 264 323
#     4  11  22  35  54  80 111 140 174 218 266 322
#     4   9  17  31  51  76 108 141 174 218 269 313
#     4   9  17  31  52  77 105 140 180 218 259 315
#
# _framework density 23.937446999999999
#
# number of rings (size 3 to 8) (size 9 to 14) (size 15 to 20)
#    0.000    2.375    1.250    1.500    0.000    5.250 
#    0.000    4.375    0.000    3.000    0.000    0.000 
#    0.000    0.000    0.000    0.000    0.000    0.000 
#
# Total GULP energy -178748.125651 kJ/mol
# GULP energy per Si atom -5585.878927 kJ/mol
# Density = 2.388296 g / cm^3
# Si number density = 23.937447 Si / 1000 Ang^3
#
#
#
# Elastic Constant Matrix: (Units=GPa)
#
#
# Indices 1 2 3 4 5 6 
#
# 1 125.8134 -4.5475 -2.5287 0.0001 30.5086 -0.0001
# 2 -4.5475 80.3561 -1.8314 0.0001 5.1446 -0.0001
# 3 -2.5287 -1.8314 35.3681 0.0001 28.2774 0.0000
# 4 0.0001 0.0001 0.0001 35.8066 0.0001 -8.5879
# 5 30.5086 5.1446 28.2774 0.0001 39.0957 0.0000
# 6 -0.0001 -0.0001 0.0000 -8.5879 0.0000 13.2292
#
#
#
# Elastic Compliance Matrix: (Units=1/GPa)
#
#
# Indices 1 2 3 4 5 6 
#
# 1 0.017420 0.003977 0.030206 0.000000 -0.035965 0.000000
# 2 0.003977 0.013792 0.011692 0.000000 -0.013375 0.000000
# 3 0.030206 0.011692 0.121206 0.000000 -0.112777 0.000000
# 4 0.000000 0.000000 0.000000 0.033078 0.000000 0.021473
# 5 -0.035965 -0.013375 -0.112777 0.000000 0.136974 0.000000
# 6 0.000000 0.000000 0.000000 0.021473 0.000000 0.089530
#
#
# Mechanical properties :
#
#
# Convention : Reuss Voigt Hill
#
# Bulk Modulus (GPa) = 4.09553 24.85805 14.47679
# Shear Modulus (GPa) = 12.44898 34.32265 23.38581
#
# Velocity S-wave (km/s) = 2.28296 3.79073 3.12902
# Velocity P-wave (km/s) = 2.94345 5.43752 4.37210
#
# Compressibility (1/GPa) = 0.24416850
#
# Stress axis : x y z
#
# Youngs Moduli (GPa) = 57.40432 72.50339 8.25043
#
# Poissons Ratio (x) = -0.28834 -0.24921
# Poissons Ratio (y) = -0.22829 -0.09647
# Poissons Ratio (z) = -1.73395 -0.84772
#
# Static dielectric constant tensor:
#      x y z
#    x 1.877180 0.000000 0.041430 
#    y 0.000000 1.898770 0.000000 
#    z 0.041430 0.000000 1.906360 
# 
# From -- ./inp_files/359710.got.cif
#   From: 2010.05.17/outbox.cif.g08.bks.cpg/sg12_180_cif.got.tgz:359710.got - 2010.06.03 13:09:07.
