data_PCOD9185687
_publ_section_title
;
Structure prediction by ZEFSAII (Michael W. Deem and Ramdas Pophale) SiO2 
 PCOD9185687
Probable space group: C 2/M
;
_chemical_formula_sum "Si O2"
_cell_formula_units_Z 64
_cell_length_a 14.725001
_cell_length_b 9.191230
_cell_length_c 23.150535
_cell_angle_alpha 90.000000
_cell_angle_beta 84.496768
_cell_angle_gamma 90.000000
_cell_volume 3118.771931
_symmetry_space_group_name_H-M "C 2/M"
_symmetry_group_IT_number 12
_symmetry_cell_setting 'monoclinic'
loop_
_space_group_symop_operation_xyz
x,y,z
-x,y,-z
-x,-y,-z
x,-y,z
1/2+x,1/2+y,z
1/2-x,1/2+y,-z
1/2-x,1/2-y,-z
1/2+x,1/2-y,z
loop_
_atom_site_type_symbol
_atom_site_label
_atom_site_fract_x
_atom_site_fract_y
_atom_site_fract_z
Si Si1 0.433519 0.671345 0.954061
Si Si2 0.596018 0.329812 0.860374
Si Si3 0.777801 0.326806 0.904084
Si Si4 0.432949 0.832289 0.252322
Si Si5 0.794730 0.675030 0.441902
Si Si6 0.549056 0.674159 0.630645
Si Si7 0.152686 0.332397 0.226662
Si Si8 0.336318 0.672767 0.657441
O O1 0.418419 0.500000 0.966290
O O2 0.495778 0.687224 0.892955
O O3 0.337992 0.747293 0.947905
O O4 0.500000 0.729345 0.000000
O O5 0.608088 0.500000 0.844342
O O6 0.670255 0.297184 0.905537
O O7 0.609361 0.233030 0.803171
O O8 0.791168 0.500000 0.909494
O O9 0.813951 0.282120 0.838012
O O10 0.416594 0.735165 0.309684
O O11 0.542563 0.827866 0.235542
O O12 0.406012 0.000000 0.264117
O O13 0.799677 0.500000 0.447773
O O14 0.750000 0.750000 0.500000
O O15 0.892707 0.744545 0.421514
O O16 0.730713 0.709800 0.390591
O O17 0.559954 0.500000 0.626487
O O18 0.441190 0.709863 0.634779
O O19 0.181358 0.500000 0.230729
O O20 0.186902 0.245971 0.280218
O O21 0.333329 0.500000 0.666036
#
# Coordination Sequence:
#
# PCOD9185687 Si02
#       8
#     8   8   8   8   8   8   8   8
#     4  10  22  40  59  81 114 155 197 242 290 345
#     4  10  21  36  56  83 115 151 191 237 290 347
#     4  10  21  37  56  84 114 148 191 238 289 345
#     4  10  19  34  57  86 118 149 187 236 286 345
#     4  11  24  42  61  87 119 156 200 244 288 345
#     4  10  21  39  61  86 116 154 193 237 290 343
#     4   9  18  33  55  83 116 146 183 234 289 344
#     4   9  21  39  59  84 116 153 194 235 286 345
#
# _framework density 20.520897999999999
#
# number of rings (size 3 to 8) (size 9 to 14) (size 15 to 20)
#    0.000    2.125    1.250    1.125    1.750    4.250 
#    0.000    2.500    0.000    0.000    0.000    0.000 
#    0.000    0.000    0.000    0.000    0.000    0.000 
#
# Total GULP energy -178797.684307 kJ/mol
# GULP energy per Si atom -5587.427635 kJ/mol
# Density = 2.047419 g / cm^3
# Si number density = 20.520898 Si / 1000 Ang^3
#
#
#
# Elastic Constant Matrix: (Units=GPa)
#
#
# Indices 1 2 3 4 5 6 
#
# 1 79.4783 28.1878 13.5120 0.0000 6.9384 0.0000
# 2 28.1878 44.6726 20.1319 0.0000 4.5324 0.0000
# 3 13.5120 20.1319 50.3167 0.0000 3.8165 0.0000
# 4 0.0000 0.0000 0.0000 32.1759 0.0000 8.0675
# 5 6.9384 4.5324 3.8165 0.0000 31.4391 0.0000
# 6 0.0000 0.0000 0.0000 8.0675 0.0000 23.5253
#
#
#
# Elastic Compliance Matrix: (Units=1/GPa)
#
#
# Indices 1 2 3 4 5 6 
#
# 1 0.016354 -0.009999 -0.000229 0.000000 -0.002140 0.000000
# 2 -0.009999 0.033641 -0.010672 0.000000 -0.001348 0.000000
# 3 -0.000229 -0.010672 0.024309 0.000000 -0.001362 0.000000
# 4 0.000000 0.000000 0.000000 0.034003 0.000000 -0.011660
# 5 -0.002140 -0.001348 -0.001362 0.000000 0.032639 0.000000
# 6 0.000000 0.000000 0.000000 -0.011660 0.000000 0.046506
#
#
# Mechanical properties :
#
#
# Convention : Reuss Voigt Hill
#
# Bulk Modulus (GPa) = 30.76615 33.12568 31.94592
# Shear Modulus (GPa) = 20.82584 24.93714 22.88149
#
# Velocity S-wave (km/s) = 3.18914 3.48976 3.34283
# Velocity P-wave (km/s) = 5.34659 5.69345 5.52274
#
# Compressibility (1/GPa) = 0.03250325
#
# Stress axis : x y z
#
# Youngs Moduli (GPa) = 61.14717 29.72600 41.13712
#
# Poissons Ratio (x) = 0.29723 0.00941
# Poissons Ratio (y) = 0.61141 0.43903
# Poissons Ratio (z) = 0.01399 0.31725
#
# Static dielectric constant tensor:
#      x y z
#    x 1.766230 0.000000 -0.014580 
#    y 0.000000 1.689220 0.000000 
#    z -0.014580 0.000000 1.721960 
# 
# From -- ./inp_files/338806.got.cif
#   From: 2010.05.17/outbox.cif.g08.bks.cpg/sg12_170_cif.got.tgz:338806.got - 2010.06.03 13:09:07.
