data_PCOD9185145
_publ_section_title
;
Structure prediction by ZEFSAII (Michael W. Deem and Ramdas Pophale) SiO2 
 PCOD9185145
Probable space group: C 2/M
;
_chemical_formula_sum "Si O2"
_cell_formula_units_Z 48
_cell_length_a 19.806037
_cell_length_b 7.394017
_cell_length_c 15.009101
_cell_angle_alpha 90.000000
_cell_angle_beta 110.518441
_cell_angle_gamma 90.000000
_cell_volume 2058.581423
_symmetry_space_group_name_H-M "C 2/M"
_symmetry_group_IT_number 12
_symmetry_cell_setting 'monoclinic'
loop_
_space_group_symop_operation_xyz
x,y,z
-x,y,-z
-x,-y,-z
x,-y,z
1/2+x,1/2+y,z
1/2-x,1/2+y,-z
1/2-x,1/2-y,-z
1/2+x,1/2-y,z
loop_
_atom_site_type_symbol
_atom_site_label
_atom_site_fract_x
_atom_site_fract_y
_atom_site_fract_z
Si Si1 0.730435 0.784151 0.093878
Si Si2 0.739994 0.285123 0.599138
Si Si3 0.511207 0.791427 0.407199
Si Si4 0.571603 0.779125 0.083484
Si Si5 0.104008 0.720924 0.291840
Si Si6 0.645478 0.280631 0.710969
O O1 0.649613 0.718842 0.081311
O O2 0.795299 0.720279 0.188902
O O3 0.728131 0.000000 0.106655
O O4 0.750000 0.750000 0.000000
O O5 0.737302 0.500000 0.607454
O O6 0.750000 0.250000 0.500000
O O7 0.813511 0.221527 0.678468
O O8 0.673200 0.218290 0.625934
O O9 0.500000 0.708925 0.500000
O O10 0.570446 0.711409 0.368418
O O11 0.435919 0.785730 0.318969
O O12 0.532296 0.000000 0.431722
O O13 0.564945 0.725897 0.183671
O O14 0.572614 0.000000 0.080154
O O15 0.500000 0.718316 0.000000
O O16 0.102785 0.500000 0.294804
O O17 0.642074 0.500000 0.712624
#
# Coordination Sequence:
#
# PCOD9185145 Si02
#       6
#     8   8   8   8   8   8
#     4  10  21  37  57  83 111 141 181 227 275 327
#     4  10  19  34  56  79 105 139 178 222 269 318
#     4  10  21  35  54  83 112 140 182 232 271 308
#     4   9  17  31  54  81 103 133 180 223 262 317
#     4   9  17  32  52  75 106 138 174 222 266 308
#     4  10  21  37  55  78 113 149 179 217 273 338
#
# _framework density 23.317028000000001
#
# number of rings (size 3 to 8) (size 9 to 14) (size 15 to 20)
#    0.000    2.333    1.667    1.000    2.333    3.000 
#    0.000    0.833    0.000    1.500    0.000    0.000 
#    0.000    0.000    0.000    0.000    0.000    0.000 
#
# Total GULP energy -134046.679349 kJ/mol
# GULP energy per Si atom -5585.278306 kJ/mol
# Density = 2.326396 g / cm^3
# Si number density = 23.317028 Si / 1000 Ang^3
#
#
#
# Elastic Constant Matrix: (Units=GPa)
#
#
# Indices 1 2 3 4 5 6 
#
# 1 79.9786 -2.4523 -1.2649 0.0000 -8.7262 0.0000
# 2 -2.4523 81.1758 -4.9989 0.0000 -0.2294 0.0000
# 3 -1.2649 -4.9989 91.9719 0.0000 -0.9957 0.0000
# 4 0.0000 0.0000 0.0000 14.3895 0.0000 0.5292
# 5 -8.7262 -0.2294 -0.9957 0.0000 45.0594 0.0000
# 6 0.0000 0.0000 0.0000 0.5292 0.0000 10.3091
#
#
#
# Elastic Compliance Matrix: (Units=1/GPa)
#
#
# Indices 1 2 3 4 5 6 
#
# 1 0.012790 0.000407 0.000225 0.000000 0.002484 0.000000
# 2 0.000407 0.012374 0.000680 0.000000 0.000157 0.000000
# 3 0.000225 0.000680 0.010916 0.000000 0.000288 0.000000
# 4 0.000000 0.000000 0.000000 0.069626 0.000000 -0.003574
# 5 0.002484 0.000157 0.000288 0.000000 0.022681 0.000000
# 6 0.000000 0.000000 0.000000 -0.003574 0.000000 0.097185
#
#
# Mechanical properties :
#
#
# Convention : Reuss Voigt Hill
#
# Bulk Modulus (GPa) = 25.83706 26.18823 26.01265
# Shear Modulus (GPa) = 21.19991 31.40776 26.30384
#
# Velocity S-wave (km/s) = 3.01857 3.67412 3.36236
# Velocity P-wave (km/s) = 4.82222 5.40875 5.12389
#
# Compressibility (1/GPa) = 0.03870409
#
# Stress axis : x y z
#
# Youngs Moduli (GPa) = 78.18350 80.81754 91.60820
#
# Poissons Ratio (x) = -0.03291 -0.02061
# Poissons Ratio (y) = -0.03184 -0.06228
# Poissons Ratio (z) = -0.01759 -0.05494
#
# Static dielectric constant tensor:
#      x y z
#    x 1.570150 0.000000 0.176060 
#    y 0.000000 1.889630 0.000000 
#    z 0.176060 0.000000 1.772850 
# 
# From -- ./inp_files/154301.got.cif
#   From: 2010.05.17/outbox.cif.g08.bks.cpg/sg12_78_cif.got.tgz:154301.got - 2010.06.03 13:09:07.
