data_PCOD9185674
_publ_section_title
;
Structure prediction by ZEFSAII (Michael W. Deem and Ramdas Pophale) SiO2 
 PCOD9185674
Probable space group: C 2/M
;
_chemical_formula_sum "Si O2"
_cell_formula_units_Z 56
_cell_length_a 15.035113
_cell_length_b 17.936778
_cell_length_c 12.508517
_cell_angle_alpha 90.000000
_cell_angle_beta 65.611578
_cell_angle_gamma 90.000000
_cell_volume 3072.304777
_symmetry_space_group_name_H-M "C 2/M"
_symmetry_group_IT_number 12
_symmetry_cell_setting 'monoclinic'
loop_
_space_group_symop_operation_xyz
x,y,z
-x,y,-z
-x,-y,-z
x,-y,z
1/2+x,1/2+y,z
1/2-x,1/2+y,-z
1/2-x,1/2-y,-z
1/2+x,1/2-y,z
loop_
_atom_site_type_symbol
_atom_site_label
_atom_site_fract_x
_atom_site_fract_y
_atom_site_fract_z
Si Si1 0.251175 0.214940 0.736931
Si Si2 0.479593 0.586216 0.384357
Si Si3 0.152933 0.734335 0.983364
Si Si4 0.609137 0.082888 0.899538
Si Si5 0.949917 0.234964 0.755463
Si Si6 0.638041 0.165974 0.664216
Si Si7 0.754847 0.086291 0.423179
O O1 0.165199 0.219658 0.868260
O O2 0.353892 0.234885 0.741607
O O3 0.221838 0.277723 0.665040
O O4 0.252680 0.136362 0.678265
O O5 0.500000 0.599660 0.500000
O O6 0.508864 0.500000 0.346697
O O7 0.532720 0.649724 0.288483
O O8 0.364277 0.592756 0.416914
O O9 0.156053 0.648247 0.946387
O O10 0.250000 0.750000 0.000000
O O11 0.067462 0.753901 0.108360
O O12 0.611265 0.112232 0.776959
O O13 0.652771 0.000000 0.884910
O O14 0.500000 0.079138 0.000000
O O15 0.044798 0.283885 0.680065
O O16 0.679505 0.118931 0.546355
O O17 0.735594 0.000000 0.411425
#
# Coordination Sequence:
#
# PCOD9185674 Si02
#       7
#     8   8   8   8   8   8   8
#     4  10  22  38  60  86 118 154 199 239 295 349
#     4  10  22  39  61  88 118 152 195 252 300 342
#     4   9  20  39  57  86 115 154 197 244 287 354
#     4  10  19  34  57  86 114 148 194 246 292 338
#     4  11  21  37  62  87 117 152 202 239 291 359
#     4  11  21  36  60  86 116 156 199 238 298 348
#     4  11  23  40  56  86 124 155 194 243 295 351
#
# _framework density 18.227359
#
# number of rings (size 3 to 8) (size 9 to 14) (size 15 to 20)
#    0.000    1.714    2.857    1.714    2.000    0.000 
#    0.000   13.571    0.000    1.714    0.000    0.000 
#    0.000    0.000    0.000    0.000    0.000    0.000 
#
# Total GULP energy -156229.474157 kJ/mol
# GULP energy per Si atom -5579.624077 kJ/mol
# Density = 1.818587 g / cm^3
# Si number density = 18.227359 Si / 1000 Ang^3
#
#
#
# Elastic Constant Matrix: (Units=GPa)
#
#
# Indices 1 2 3 4 5 6 
#
# 1 76.5488 50.7269 29.4254 0.0000 -1.8077 0.0000
# 2 50.7269 169.5656 95.9545 0.0000 10.1024 0.0000
# 3 29.4254 95.9545 89.8763 0.0000 5.6782 0.0000
# 4 0.0000 0.0000 0.0000 10.2332 0.0000 -1.8501
# 5 -1.8077 10.1024 5.6782 0.0000 12.6841 0.0000
# 6 0.0000 0.0000 0.0000 -1.8501 0.0000 27.3110
#
#
#
# Elastic Compliance Matrix: (Units=1/GPa)
#
#
# Indices 1 2 3 4 5 6 
#
# 1 0.016827 -0.005246 -0.000333 0.000000 0.006726 0.000000
# 2 -0.005246 0.016834 -0.015807 0.000000 -0.007079 0.000000
# 3 -0.000333 -0.015807 0.028115 0.000000 -0.000043 0.000000
# 4 0.000000 0.000000 0.000000 0.098933 0.000000 0.006702
# 5 0.006726 -0.007079 -0.000043 0.000000 0.085455 0.000000
# 6 0.000000 0.000000 0.000000 0.006702 0.000000 0.037069
#
#
# Mechanical properties :
#
#
# Convention : Reuss Voigt Hill
#
# Bulk Modulus (GPa) = 52.62596 76.46716 64.54656
# Shear Modulus (GPa) = 15.04485 20.70458 17.87472
#
# Velocity S-wave (km/s) = 2.87609 3.37398 3.13494
# Velocity P-wave (km/s) = 6.32170 7.56447 6.97084
#
# Compressibility (1/GPa) = 0.01900203
#
# Stress axis : x y z
#
# Youngs Moduli (GPa) = 59.42863 59.40451 35.56866
#
# Poissons Ratio (x) = 0.31164 0.01185
# Poissons Ratio (y) = 0.31177 0.56225
# Poissons Ratio (z) = 0.01980 0.93903
#
# Static dielectric constant tensor:
#      x y z
#    x 1.617460 0.000000 -0.008100 
#    y 0.000000 1.626160 0.000000 
#    z -0.008100 0.000000 1.656250 
# 
# From -- ./inp_files/145505.got.cif
#   From: 2010.05.17/outbox.cif.g08.bks.cpg/sg12_73_cif.got.tgz:145505.got - 2010.06.03 13:09:07.
