data_PCOD9185142
_publ_section_title
;
Structure prediction by ZEFSAII (Michael W. Deem and Ramdas Pophale) SiO2 
 PCOD9185142
Probable space group: C 2/M
;
_chemical_formula_sum "Si O2"
_cell_formula_units_Z 48
_cell_length_a 15.556090
_cell_length_b 16.036322
_cell_length_c 12.990389
_cell_angle_alpha 90.000000
_cell_angle_beta 42.116299
_cell_angle_gamma 90.000000
_cell_volume 2173.278136
_symmetry_space_group_name_H-M "C 2/M"
_symmetry_group_IT_number 12
_symmetry_cell_setting 'monoclinic'
loop_
_space_group_symop_operation_xyz
x,y,z
-x,y,-z
-x,-y,-z
x,-y,z
1/2+x,1/2+y,z
1/2-x,1/2+y,-z
1/2-x,1/2-y,-z
1/2+x,1/2-y,z
loop_
_atom_site_type_symbol
_atom_site_label
_atom_site_fract_x
_atom_site_fract_y
_atom_site_fract_z
Si Si1 0.468733 0.784342 0.686122
Si Si2 0.665654 0.091087 0.409009
Si Si3 0.649466 0.298005 0.660580
Si Si4 0.316304 0.759896 0.140546
Si Si5 0.629119 0.905115 0.054851
Si Si6 0.325886 0.589276 0.057697
O O1 0.568967 0.834172 0.523996
O O2 0.527242 0.705990 0.695808
O O3 0.453911 0.852401 0.790520
O O4 0.334154 0.754013 0.756997
O O5 0.793711 0.112188 0.359792
O O6 0.715376 0.087729 0.246485
O O7 0.611367 0.000000 0.482318
O O8 0.750000 0.250000 0.500000
O O9 0.654706 0.249440 0.765070
O O10 0.385825 0.679554 0.025337
O O11 0.357248 0.847356 0.056682
O O12 0.761036 0.908843 0.003739
O O13 0.587175 0.000000 0.073718
O O14 0.395073 0.500000 0.006914
#
# Coordination Sequence:
#
# PCOD9185142 Si02
#       6
#     8   8   8   8   8   8
#     4  10  19  34  56  79 104 143 179 216 267 317
#     4   9  17  31  52  82 110 133 169 224 273 316
#     4   9  20  35  52  78 106 135 174 218 265 319
#     4  10  20  35  52  75 110 142 172 219 268 311
#     4  10  20  34  52  78 107 142 184 222 258 310
#     4   8  15  28  50  77 104 131 166 211 264 313
#
# _framework density 22.086449999999999
#
# number of rings (size 3 to 8) (size 9 to 14) (size 15 to 20)
#    0.000    2.667    0.000    2.500    0.000   12.000 
#    0.000   17.500    0.000    1.000    0.000   30.333 
#    0.000    0.000    0.000    0.000    0.000    0.000 
#
# Total GULP energy -133651.412469 kJ/mol
# GULP energy per Si atom -5568.808853 kJ/mol
# Density = 2.203618 g / cm^3
# Si number density = 22.086450 Si / 1000 Ang^3
#
#
#
# Elastic Constant Matrix: (Units=GPa)
#
#
# Indices 1 2 3 4 5 6 
#
# 1 129.5591 22.9977 15.0409 0.0000 9.2522 0.0000
# 2 22.9977 82.1692 18.5766 0.0000 2.5457 0.0000
# 3 15.0409 18.5766 75.9141 0.0000 12.9802 0.0000
# 4 0.0000 0.0000 0.0000 22.4423 0.0000 -5.2009
# 5 9.2522 2.5457 12.9802 0.0000 26.0628 0.0000
# 6 0.0000 0.0000 0.0000 -5.2009 0.0000 3.5792
#
#
#
# Elastic Compliance Matrix: (Units=1/GPa)
#
#
# Indices 1 2 3 4 5 6 
#
# 1 0.008346 -0.002097 -0.000731 0.000000 -0.002394 0.000000
# 2 -0.002097 0.013412 -0.003028 0.000000 0.000942 0.000000
# 3 -0.000731 -0.003028 0.015263 0.000000 -0.007046 0.000000
# 4 0.000000 0.000000 0.000000 0.067182 0.000000 0.097621
# 5 -0.002394 0.000942 -0.007046 0.000000 0.042636 0.000000
# 6 0.000000 0.000000 0.000000 0.097621 0.000000 0.421246
#
#
# Mechanical properties :
#
#
# Convention : Reuss Voigt Hill
#
# Bulk Modulus (GPa) = 39.50878 44.54143 42.02511
# Shear Modulus (GPa) = 8.50002 25.81867 17.15935
#
# Velocity S-wave (km/s) = 1.96389 3.42275 2.79035
# Velocity P-wave (km/s) = 4.80308 5.98589 5.42681
#
# Compressibility (1/GPa) = 0.02531083
#
# Stress axis : x y z
#
# Youngs Moduli (GPa) = 119.81074 74.55948 65.51614
#
# Poissons Ratio (x) = 0.15632 0.04791
# Poissons Ratio (y) = 0.25119 0.19837
# Poissons Ratio (z) = 0.08762 0.22575
#
# Static dielectric constant tensor:
#      x y z
#    x 1.945160 0.000000 -0.066290 
#    y 0.000000 1.853170 0.000000 
#    z -0.066290 0.000000 1.875360 
# 
# From -- ./inp_files/167977.got.cif
#   From: 2010.05.17/outbox.cif.g08.bks.cpg/sg12_84_cif.got.tgz:167977.got - 2010.06.03 13:09:07.
