data_PCOD9185273
_publ_section_title
;
Structure prediction by ZEFSAII (Michael W. Deem and Ramdas Pophale) SiO2 
 PCOD9185273
Probable space group: C 2/M
;
_chemical_formula_sum "Si O2"
_cell_formula_units_Z 64
_cell_length_a 24.077315
_cell_length_b 7.445543
_cell_length_c 15.703228
_cell_angle_alpha 90.000000
_cell_angle_beta 92.862213
_cell_angle_gamma 90.000000
_cell_volume 2811.585205
_symmetry_space_group_name_H-M "C 2/M"
_symmetry_group_IT_number 12
_symmetry_cell_setting 'monoclinic'
loop_
_space_group_symop_operation_xyz
x,y,z
-x,y,-z
-x,-y,-z
x,-y,z
1/2+x,1/2+y,z
1/2-x,1/2+y,-z
1/2-x,1/2-y,-z
1/2+x,1/2-y,z
loop_
_atom_site_type_symbol
_atom_site_label
_atom_site_fract_x
_atom_site_fract_y
_atom_site_fract_z
Si Si1 0.460367 0.720294 0.418941
Si Si2 0.715376 0.789083 0.389240
Si Si3 0.508239 0.718669 0.768018
Si Si4 0.088222 0.219471 0.115525
Si Si5 0.206241 0.286651 0.921191
Si Si6 0.296559 0.284018 0.804642
Si Si7 0.663804 0.295085 0.556960
Si Si8 0.579558 0.704607 0.930006
O O1 0.500000 0.776593 0.500000
O O2 0.460076 0.500000 0.420645
O O3 0.481833 0.778893 0.327623
O O4 0.396532 0.781883 0.427017
O O5 0.695778 0.765163 0.292231
O O6 0.675215 0.705306 0.456551
O O7 0.778579 0.715199 0.402281
O O8 0.717777 0.000000 0.410309
O O9 0.509922 0.500000 0.763553
O O10 0.450447 0.770080 0.808431
O O11 0.553980 0.780221 0.841173
O O12 0.151041 0.280344 0.136693
O O13 0.088780 0.000000 0.112156
O O14 0.066787 0.284011 0.022077
O O15 0.197162 0.500000 0.915647
O O16 0.238344 0.221425 0.839299
O O17 0.146258 0.202411 0.929488
O O18 0.250000 0.250000 0.000000
O O19 0.296076 0.500000 0.810858
O O20 0.662117 0.500000 0.588820
O O21 0.558086 0.500000 0.931430
#
# Coordination Sequence:
#
# PCOD9185273 Si02
#       8
#     8   8   8   8   8   8   8   8
#     4   9  18  31  50  81 111 137 177 229 278 320
#     4  10  21  35  55  82 109 140 180 219 268 330
#     4   9  18  30  53  83 109 142 185 231 276 321
#     4   9  17  32  52  80 111 142 183 230 275 318
#     4  11  22  37  55  80 112 148 186 222 272 329
#     4  10  21  35  54  80 110 142 181 224 274 324
#     4   9  19  36  56  79 109 140 175 222 274 324
#     4  10  19  34  56  82 113 144 182 232 277 324
#
# _framework density 22.76296
#
# number of rings (size 3 to 8) (size 9 to 14) (size 15 to 20)
#    0.000    2.375    1.250    1.125    3.500    3.000 
#    0.000    0.000    0.000    2.625    0.000    0.000 
#    0.000    0.000    0.000    0.000    0.000    0.000 
#
# Total GULP energy -178703.400958 kJ/mol
# GULP energy per Si atom -5584.481280 kJ/mol
# Density = 2.271115 g / cm^3
# Si number density = 22.762960 Si / 1000 Ang^3
#
#
#
# Elastic Constant Matrix: (Units=GPa)
#
#
# Indices 1 2 3 4 5 6 
#
# 1 108.3234 2.2241 51.6855 0.0000 -24.8926 0.0000
# 2 2.2241 74.7024 -2.6484 0.0000 0.4783 0.0000
# 3 51.6855 -2.6484 166.2326 0.0000 -9.4383 0.0000
# 4 0.0000 0.0000 0.0000 5.7561 0.0000 -3.4090
# 5 -24.8926 0.4783 -9.4383 0.0000 29.6297 0.0000
# 6 0.0000 0.0000 0.0000 -3.4090 0.0000 5.3435
#
#
#
# Elastic Compliance Matrix: (Units=1/GPa)
#
#
# Indices 1 2 3 4 5 6 
#
# 1 0.013239 -0.000584 -0.003558 0.000000 0.009998 0.000000
# 2 -0.000584 0.013420 0.000362 0.000000 -0.000592 0.000000
# 3 -0.003558 0.000362 0.007086 0.000000 -0.000738 0.000000
# 4 0.000000 0.000000 0.000000 0.279230 0.000000 0.178141
# 5 0.009998 -0.000592 -0.000738 0.000000 0.041924 0.000000
# 6 0.000000 0.000000 0.000000 0.178141 0.000000 0.300792
#
#
# Mechanical properties :
#
#
# Convention : Reuss Voigt Hill
#
# Bulk Modulus (GPa) = 38.19066 50.19786 44.19426
# Shear Modulus (GPa) = 7.44070 28.01236 17.72653
#
# Velocity S-wave (km/s) = 1.80994 3.51181 2.79363
# Velocity P-wave (km/s) = 4.60237 6.20839 5.46470
#
# Compressibility (1/GPa) = 0.02618441
#
# Stress axis : x y z
#
# Youngs Moduli (GPa) = 75.53536 74.51304 141.12798
#
# Poissons Ratio (x) = 0.04354 0.50212
# Poissons Ratio (y) = 0.04414 -0.05107
# Poissons Ratio (z) = 0.26875 -0.02696
#
# Static dielectric constant tensor:
#      x y z
#    x 1.834720 0.000000 0.000110 
#    y 0.000000 1.903520 0.000000 
#    z 0.000110 0.000000 1.821750 
# 
# From -- ./inp_files/238592.got.cif
#   From: 2010.05.17/outbox.cif.g08.bks.cpg/sg12_120_cif.got.tgz:238592.got - 2010.06.03 13:09:07.
