data_PCOD9185822
_publ_section_title
;
Structure prediction by ZEFSAII (Michael W. Deem and Ramdas Pophale) SiO2 
 PCOD9185822
Probable space group: C 2/M
;
_chemical_formula_sum "Si O2"
_cell_formula_units_Z 60
_cell_length_a 14.268012
_cell_length_b 25.912042
_cell_length_c 11.724956
_cell_angle_alpha 90.000000
_cell_angle_beta 130.608692
_cell_angle_gamma 90.000000
_cell_volume 3290.916298
_symmetry_space_group_name_H-M "C 2/M"
_symmetry_group_IT_number 12
_symmetry_cell_setting 'monoclinic'
loop_
_space_group_symop_operation_xyz
x,y,z
-x,y,-z
-x,-y,-z
x,-y,z
1/2+x,1/2+y,z
1/2-x,1/2+y,-z
1/2-x,1/2-y,-z
1/2+x,1/2-y,z
loop_
_atom_site_type_symbol
_atom_site_label
_atom_site_fract_x
_atom_site_fract_y
_atom_site_fract_z
Si Si1 0.386075 0.363525 0.165166
Si Si2 0.167043 0.439437 0.928821
Si Si3 0.882041 0.185924 0.696583
Si Si4 0.000000 0.399219 0.000000
Si Si5 0.215238 0.683247 0.198832
Si Si6 0.812975 0.794596 0.891522
Si Si7 0.069017 0.640758 0.676506
Si Si8 0.636298 0.202795 0.380637
O O1 0.534463 0.361879 0.278217
O O2 0.338971 0.340435 0.246782
O O3 0.296818 0.412327 0.070164
O O4 0.353066 0.323187 0.037812
O O5 0.183573 0.500000 0.925231
O O6 0.126138 0.410179 0.780253
O O7 0.061122 0.430385 0.942617
O O8 0.889754 0.191066 0.838957
O O9 0.737436 0.185383 0.552393
O O10 0.920502 0.239574 0.664273
O O11 0.111744 0.360663 0.118107
O O12 0.180609 0.732756 0.094558
O O13 0.214916 0.702824 0.326804
O O14 0.675810 0.815972 0.756326
O O15 0.000000 0.634082 0.500000
O O16 0.972656 0.662680 0.692693
#
# Coordination Sequence:
#
# PCOD9185822 Si02
#       8
#     8   8   8   4   8   8   8   8
#     4  10  21  34  52  79 107 146 185 224 272 320
#     4  10  22  39  59  80 102 138 190 245 287 316
#     4  10  20  33  51  78 114 155 180 208 257 330
#     4  10  19  34  58  84 110 138 175 232 288 328
#     4  10  20  31  50  82 113 145 175 213 265 336
#     4  10  20  31  52  79 115 150 177 212 261 328
#     4  11  20  36  55  80 111 145 184 229 277 326
#     4  10  20  33  51  80 115 148 179 213 263 328
#
# _framework density 18.232004
#
# number of rings (size 3 to 8) (size 9 to 14) (size 15 to 20)
#    0.000    1.867    2.667    1.800    3.733    0.800 
#    0.000    0.000    0.000    7.200    0.000    1.867 
#    0.000    0.000    0.000    0.000    0.000    0.000 
#
# Total GULP energy -167037.115830 kJ/mol
# GULP energy per Si atom -5567.903861 kJ/mol
# Density = 1.819051 g / cm^3
# Si number density = 18.232004 Si / 1000 Ang^3
#
#
#
# Elastic Constant Matrix: (Units=GPa)
#
#
# Indices 1 2 3 4 5 6 
#
# 1 90.2871 31.2860 17.0358 0.0000 5.3243 0.0000
# 2 31.2860 90.0377 8.2498 0.0000 12.4474 0.0000
# 3 17.0358 8.2498 48.5546 0.0000 6.2137 0.0000
# 4 0.0000 0.0000 0.0000 11.7910 0.0000 -0.5823
# 5 5.3243 12.4474 6.2137 0.0000 19.3945 0.0000
# 6 0.0000 0.0000 0.0000 -0.5823 0.0000 20.8168
#
#
#
# Elastic Compliance Matrix: (Units=1/GPa)
#
#
# Indices 1 2 3 4 5 6 
#
# 1 0.013298 -0.004310 -0.003983 0.000000 0.000392 0.000000
# 2 -0.004310 0.013643 0.000170 0.000000 -0.007627 0.000000
# 3 -0.003983 0.000170 0.022772 0.000000 -0.006311 0.000000
# 4 0.000000 0.000000 0.000000 0.084927 0.000000 0.002376
# 5 0.000392 -0.007627 -0.006311 0.000000 0.058371 0.000000
# 6 0.000000 0.000000 0.000000 0.002376 0.000000 0.048105
#
#
# Mechanical properties :
#
#
# Convention : Reuss Voigt Hill
#
# Bulk Modulus (GPa) = 29.88088 38.00252 33.94170
# Shear Modulus (GPa) = 18.62080 21.88765 20.25423
#
# Velocity S-wave (km/s) = 3.19928 3.46859 3.33666
# Velocity P-wave (km/s) = 5.48380 6.07706 5.78803
#
# Compressibility (1/GPa) = 0.03346622
#
# Stress axis : x y z
#
# Youngs Moduli (GPa) = 75.20086 73.29829 43.91403
#
# Poissons Ratio (x) = 0.31590 0.17493
# Poissons Ratio (y) = 0.32410 -0.00747
# Poissons Ratio (z) = 0.29956 -0.01248
#
# Static dielectric constant tensor:
#      x y z
#    x 1.671280 0.000000 0.012520 
#    y 0.000000 1.616110 0.000000 
#    z 0.012520 0.000000 1.697280 
# 
# From -- ./inp_files/136987.got.cif
#   From: 2010.05.17/outbox.cif.g08.bks.cpg/sg12_69_cif.got.tgz:136987.got - 2010.06.03 13:09:07.
