data_PCOD9185292
_publ_section_title
;
Structure prediction by ZEFSAII (Michael W. Deem and Ramdas Pophale) SiO2 
 PCOD9185292
Probable space group: C 2/M
;
_chemical_formula_sum "Si O2"
_cell_formula_units_Z 48
_cell_length_a 14.512646
_cell_length_b 23.551194
_cell_length_c 14.675417
_cell_angle_alpha 90.000000
_cell_angle_beta 147.951305
_cell_angle_gamma 90.000000
_cell_volume 2661.643086
_symmetry_space_group_name_H-M "C 2/M"
_symmetry_group_IT_number 12
_symmetry_cell_setting 'monoclinic'
loop_
_space_group_symop_operation_xyz
x,y,z
-x,y,-z
-x,-y,-z
x,-y,z
1/2+x,1/2+y,z
1/2-x,1/2+y,-z
1/2-x,1/2-y,-z
1/2+x,1/2-y,z
loop_
_atom_site_type_symbol
_atom_site_label
_atom_site_fract_x
_atom_site_fract_y
_atom_site_fract_z
Si Si1 0.848977 0.115009 0.628194
Si Si2 0.461685 0.880899 0.364484
Si Si3 0.478419 0.500000 0.823585
Si Si4 0.074113 0.194986 0.460148
Si Si5 0.761430 0.726660 0.150738
Si Si6 0.728233 0.000000 0.789274
Si Si7 0.103418 0.230160 0.222277
O O1 0.641768 0.110985 0.463492
O O2 0.937845 0.056933 0.733712
O O3 0.903978 0.136618 0.575163
O O4 0.892073 0.167276 0.732076
O O5 0.500000 0.857883 0.500000
O O6 0.335093 0.837369 0.206279
O O7 0.378490 0.942311 0.306022
O O8 0.352009 0.500000 0.805242
O O9 0.666208 0.500000 0.027752
O O10 0.259055 0.228023 0.613914
O O11 0.000000 0.188154 0.500000
O O12 0.929135 0.233225 0.288488
O O13 0.679598 0.728618 0.183833
O O14 0.600322 0.745604 0.953141
#
# Coordination Sequence:
#
# PCOD9185292 Si02
#       7
#     8   8   4   8   8   4   8
#     4  12  22  36  58  83 112 149 195 228 276 342
#     4  12  19  33  55  85 118 154 181 223 279 340
#     4  11  23  38  56  85 114 150 191 225 278 352
#     4  10  22  41  56  79 114 151 190 242 278 318
#     4  10  19  34  56  82 119 151 180 225 284 334
#     4  11  22  37  56  84 122 150 177 226 290 341
#     4  10  19  34  57  86 112 148 187 225 282 345
#
# _framework density 18.033973
#
# number of rings (size 3 to 8) (size 9 to 14) (size 15 to 20)
#    0.000    1.167    5.000    2.750    0.000    3.333 
#    3.000    0.417    0.000    0.000    0.000    1.167 
#    0.000    0.000    0.000    0.000    0.000    0.000 
#
# Total GULP energy -134017.812835 kJ/mol
# GULP energy per Si atom -5584.075535 kJ/mol
# Density = 1.799293 g / cm^3
# Si number density = 18.033973 Si / 1000 Ang^3
#
#
#
# Elastic Constant Matrix: (Units=GPa)
#
#
# Indices 1 2 3 4 5 6 
#
# 1 58.1070 29.9268 35.3128 -0.0001 -3.8124 0.0000
# 2 29.9268 97.3021 49.3785 0.0000 -5.1625 0.0000
# 3 35.3128 49.3785 134.4675 0.0000 13.9046 0.0001
# 4 -0.0001 0.0000 0.0000 87.8290 -0.0001 -23.8390
# 5 -3.8124 -5.1625 13.9046 -0.0001 21.5464 0.0001
# 6 0.0000 0.0000 0.0001 -23.8390 0.0001 40.0662
#
#
#
# Elastic Compliance Matrix: (Units=1/GPa)
#
#
# Indices 1 2 3 4 5 6 
#
# 1 0.022870 -0.004068 -0.005175 0.000000 0.006412 0.000000
# 2 -0.004068 0.014250 -0.004761 0.000000 0.005767 0.000000
# 3 -0.005175 -0.004761 0.011526 0.000000 -0.009495 0.000000
# 4 0.000000 0.000000 0.000000 0.013579 0.000000 0.008079
# 5 0.006412 0.005767 -0.009495 0.000000 0.055055 0.000000
# 6 0.000000 0.000000 0.000000 0.008079 0.000000 0.029766
#
#
# Mechanical properties :
#
#
# Convention : Reuss Voigt Hill
#
# Bulk Modulus (GPa) = 48.45274 57.67921 53.06598
# Shear Modulus (GPa) = 27.48246 41.57220 34.52733
#
# Velocity S-wave (km/s) = 3.90799 4.80648 4.38033
# Velocity P-wave (km/s) = 6.87670 7.92818 7.42108
#
# Compressibility (1/GPa) = 0.02063867
#
# Stress axis : x y z
#
# Youngs Moduli (GPa) = 43.72450 70.17305 86.76022
#
# Poissons Ratio (x) = 0.28544 0.44902
# Poissons Ratio (y) = 0.17785 0.41308
# Poissons Ratio (z) = 0.22629 0.33410
#
# Static dielectric constant tensor:
#      x y z
#    x 1.627940 0.000000 -0.009520 
#    y 0.000000 1.575490 0.000000 
#    z -0.009520 0.000000 1.673780 
# 
# From -- ./inp_files/218455.got.cif
#   From: 2010.05.17/outbox.cif.g08.bks.cpg/sg12_110_cif.got.tgz:218455.got - 2010.06.03 13:09:07.
