data_PCOD9185926
_publ_section_title
;
Structure prediction by ZEFSAII (Michael W. Deem and Ramdas Pophale) SiO2 
 PCOD9185926
Probable space group: C 2/M
;
_chemical_formula_sum "Si O2"
_cell_formula_units_Z 56
_cell_length_a 19.544494
_cell_length_b 7.757966
_cell_length_c 19.142439
_cell_angle_alpha 90.000000
_cell_angle_beta 120.529568
_cell_angle_gamma 90.000000
_cell_volume 2500.102808
_symmetry_space_group_name_H-M "C 2/M"
_symmetry_group_IT_number 12
_symmetry_cell_setting 'monoclinic'
loop_
_space_group_symop_operation_xyz
x,y,z
-x,y,-z
-x,-y,-z
x,-y,z
1/2+x,1/2+y,z
1/2-x,1/2+y,-z
1/2-x,1/2-y,-z
1/2+x,1/2-y,z
loop_
_atom_site_type_symbol
_atom_site_label
_atom_site_fract_x
_atom_site_fract_y
_atom_site_fract_z
Si Si1 0.229350 0.708107 0.409730
Si Si2 0.186498 0.210229 0.683229
Si Si3 0.930373 0.199358 0.015269
Si Si4 0.400054 0.800185 0.156366
Si Si5 0.056909 0.699071 0.310471
Si Si6 0.765958 0.297535 0.863964
Si Si7 0.008940 0.208418 0.585042
O O1 0.226536 0.500000 0.405125
O O2 0.250000 0.750000 0.500000
O O3 0.290924 0.766700 0.382750
O O4 0.143097 0.775625 0.340594
O O5 0.244013 0.266792 0.774978
O O6 0.097059 0.260889 0.653743
O O7 0.187241 0.000000 0.683963
O O8 0.843896 0.209313 0.934756
O O9 0.950474 0.000000 0.040107
O O10 0.920190 0.288431 0.084945
O O11 0.000000 0.267676 0.000000
O O12 0.476850 0.722582 0.236319
O O13 0.314779 0.720357 0.132115
O O14 0.392327 0.000000 0.172944
O O15 0.057993 0.500000 0.287412
O O16 0.049934 0.708874 0.390548
O O17 0.784861 0.500000 0.869877
O O18 0.000000 0.256762 0.500000
O O19 0.000048 0.000000 0.584572
#
# Coordination Sequence:
#
# PCOD9185926 Si02
#       7
#     8   8   8   8   8   8   8
#     4  10  21  39  58  83 118 158 203 249 301 356
#     4   9  19  35  58  86 117 154 198 246 292 348
#     4  11  26  45  65  93 127 158 195 249 303 361
#     4  11  23  41  65  93 125 162 203 249 302 363
#     4  10  22  37  58  87 121 156 195 248 300 353
#     4  11  22  40  67  93 122 163 205 249 301 362
#     4  10  19  34  58  86 116 154 200 245 290 346
#
# _framework density 22.399077999999999
#
# number of rings (size 3 to 8) (size 9 to 14) (size 15 to 20)
#    0.000    1.714    1.429    2.571    2.000    3.714 
#    0.000    2.143    0.000    0.000    0.000    0.000 
#    0.000    0.000    0.000    0.000    0.000    0.000 
#
# Total GULP energy -156410.994895 kJ/mol
# GULP energy per Si atom -5586.106961 kJ/mol
# Density = 2.234810 g / cm^3
# Si number density = 22.399078 Si / 1000 Ang^3
#
#
#
# Elastic Constant Matrix: (Units=GPa)
#
#
# Indices 1 2 3 4 5 6 
#
# 1 102.8189 -5.2187 19.0697 0.0000 -2.1732 0.0000
# 2 -5.2187 37.7499 -6.3906 0.0000 2.2320 0.0000
# 3 19.0697 -6.3906 95.1250 0.0000 -2.3610 0.0000
# 4 0.0000 0.0000 0.0000 18.1634 0.0000 -2.7545
# 5 -2.1732 2.2320 -2.3610 0.0000 39.4299 0.0000
# 6 0.0000 0.0000 0.0000 -2.7545 0.0000 14.6422
#
#
#
# Elastic Compliance Matrix: (Units=1/GPa)
#
#
# Indices 1 2 3 4 5 6 
#
# 1 0.010150 0.001050 -0.001955 0.000000 0.000383 0.000000
# 2 0.001050 0.026982 0.001568 0.000000 -0.001376 0.000000
# 3 -0.001955 0.001568 0.011021 0.000000 0.000463 0.000000
# 4 0.000000 0.000000 0.000000 0.056673 0.000000 0.010662
# 5 0.000383 -0.001376 0.000463 0.000000 0.025488 0.000000
# 6 0.000000 0.000000 0.000000 0.010662 0.000000 0.070302
#
#
# Mechanical properties :
#
#
# Convention : Reuss Voigt Hill
#
# Bulk Modulus (GPa) = 20.21059 27.84606 24.02833
# Shear Modulus (GPa) = 23.17148 29.66264 26.41706
#
# Velocity S-wave (km/s) = 3.21983 3.64301 3.43794
# Velocity P-wave (km/s) = 4.78180 5.49128 5.14878
#
# Compressibility (1/GPa) = 0.04947901
#
# Stress axis : x y z
#
# Youngs Moduli (GPa) = 98.52465 37.06170 90.73425
#
# Poissons Ratio (x) = -0.03890 0.17736
# Poissons Ratio (y) = -0.10341 -0.14228
# Poissons Ratio (z) = 0.19259 -0.05812
#
# Static dielectric constant tensor:
#      x y z
#    x 1.803570 0.000000 0.019210 
#    y 0.000000 1.856290 0.000000 
#    z 0.019210 0.000000 1.822750 
# 
# From -- ./inp_files/275654.got.cif
#   From: 2010.05.17/outbox.cif.g08.bks.cpg/sg12_138_cif.got.tgz:275654.got - 2010.06.03 13:09:07.
