data_PCOD9185977
_publ_section_title
;
Structure prediction by ZEFSAII (Michael W. Deem and Ramdas Pophale) SiO2 
 PCOD9185977
Probable space group: C 2/M
;
_chemical_formula_sum "Si O2"
_cell_formula_units_Z 34
_cell_length_a 19.449597
_cell_length_b 9.346863
_cell_length_c 16.664437
_cell_angle_alpha 90.000000
_cell_angle_beta 150.233759
_cell_angle_gamma 90.000000
_cell_volume 1504.020141
_symmetry_space_group_name_H-M "C 2/M"
_symmetry_group_IT_number 12
_symmetry_cell_setting 'monoclinic'
loop_
_space_group_symop_operation_xyz
x,y,z
-x,y,-z
-x,-y,-z
x,-y,z
1/2+x,1/2+y,z
1/2-x,1/2+y,-z
1/2-x,1/2-y,-z
1/2+x,1/2-y,z
loop_
_atom_site_type_symbol
_atom_site_label
_atom_site_fract_x
_atom_site_fract_y
_atom_site_fract_z
Si Si1 0.768590 0.834375 0.601607
Si Si2 0.000000 0.500000 0.000000
Si Si3 0.559602 0.340355 0.841423
Si Si4 0.209950 0.157415 0.694832
Si Si5 0.863179 0.335484 0.227130
O O1 0.750000 0.750000 0.500000
O O2 0.701066 0.757572 0.608421
O O3 0.935688 0.827452 0.778600
O O4 0.728188 0.000000 0.553423
O O5 0.126379 0.621904 0.123442
O O6 0.549944 0.500000 0.795059
O O7 0.551667 0.225565 0.762130
O O8 0.705635 0.330340 0.033641
O O9 0.139315 0.233904 0.698571
O O10 0.150371 0.000000 0.617336
O O11 0.897588 0.500000 0.280622
#
# Coordination Sequence:
#
# PCOD9185977 Si02
#       5
#     8   2   8   8   8
#     4  11  23  40  59  83 117 159 202 240 284 346
#     4   8  20  32  58  88 110 152 188 240 292 342
#     4   9  20  36  55  83 118 152 190 237 296 352
#     4  10  20  35  56  85 115 150 191 239 290 345
#     4  10  19  34  58  88 117 149 186 244 302 348
#
# _framework density 22.606081
#
# number of rings (size 3 to 8) (size 9 to 14) (size 15 to 20)
#    0.706    1.412    0.000    3.529    0.000    2.824 
#    0.000    5.882    0.000    7.059    0.000    0.000 
#    0.000    0.000    0.000    0.000    0.000    0.000 
#
# Total GULP energy -94721.143299 kJ/mol
# GULP energy per Si atom -5571.831959 kJ/mol
# Density = 2.255463 g / cm^3
# Si number density = 22.606081 Si / 1000 Ang^3
#
#
#
# Elastic Constant Matrix: (Units=GPa)
#
#
# Indices 1 2 3 4 5 6 
#
# 1 122.7384 85.8743 8.3553 0.0000 -12.5789 0.0000
# 2 85.8743 196.2806 5.6493 0.0000 -26.8962 0.0000
# 3 8.3553 5.6493 44.8342 0.0000 14.0188 0.0000
# 4 0.0000 0.0000 0.0000 21.8820 0.0000 -5.3527
# 5 -12.5789 -26.8962 14.0188 0.0000 31.6464 0.0000
# 6 0.0000 0.0000 0.0000 -5.3527 0.0000 40.4156
#
#
#
# Elastic Compliance Matrix: (Units=1/GPa)
#
#
# Indices 1 2 3 4 5 6 
#
# 1 0.011896 -0.004951 -0.002038 0.000000 0.001424 0.000000
# 2 -0.004951 0.008105 -0.001900 0.000000 0.005763 0.000000
# 3 -0.002038 -0.001900 0.027490 0.000000 -0.014603 0.000000
# 4 0.000000 0.000000 0.000000 0.047230 0.000000 0.006255
# 5 0.001424 0.005763 -0.014603 0.000000 0.043532 0.000000
# 6 0.000000 0.000000 0.000000 0.006255 0.000000 0.025571
#
#
# Mechanical properties :
#
#
# Convention : Reuss Voigt Hill
#
# Bulk Modulus (GPa) = 33.65681 62.62347 48.14014
# Shear Modulus (GPa) = 26.10880 36.38709 31.24795
#
# Velocity S-wave (km/s) = 3.40214 4.01635 3.72194
# Velocity P-wave (km/s) = 5.50939 7.01928 6.30966
#
# Compressibility (1/GPa) = 0.02971167
#
# Stress axis : x y z
#
# Youngs Moduli (GPa) = 84.06254 123.37919 36.37721
#
# Poissons Ratio (x) = 0.61083 0.07415
# Poissons Ratio (y) = 0.41618 0.06913
# Poissons Ratio (z) = 0.17134 0.23448
#
# Static dielectric constant tensor:
#      x y z
#    x 1.771070 0.000000 0.049770 
#    y 0.000000 1.807600 0.000000 
#    z 0.049770 0.000000 1.909280 
# 
# From -- ./inp_files/221299.got.cif
#   From: 2010.05.17/outbox.cif.g08.bks.cpg/sg12_111_cif.got.tgz:221299.got - 2010.06.03 13:09:07.
