data_PCOD9185129
_publ_section_title
;
Structure prediction by ZEFSAII (Michael W. Deem and Ramdas Pophale) SiO2 
 PCOD9185129
Probable space group: C 2/M
;
_chemical_formula_sum "Si O2"
_cell_formula_units_Z 56
_cell_length_a 14.906097
_cell_length_b 7.669758
_cell_length_c 29.825976
_cell_angle_alpha 90.000000
_cell_angle_beta 125.485428
_cell_angle_gamma 90.000000
_cell_volume 2776.547235
_symmetry_space_group_name_H-M "C 2/M"
_symmetry_group_IT_number 12
_symmetry_cell_setting 'monoclinic'
loop_
_space_group_symop_operation_xyz
x,y,z
-x,y,-z
-x,-y,-z
x,-y,z
1/2+x,1/2+y,z
1/2-x,1/2+y,-z
1/2-x,1/2-y,-z
1/2+x,1/2-y,z
loop_
_atom_site_type_symbol
_atom_site_label
_atom_site_fract_x
_atom_site_fract_y
_atom_site_fract_z
Si Si1 0.329861 0.792441 0.564019
Si Si2 0.453670 0.286651 0.938249
Si Si3 0.778386 0.286291 0.649327
Si Si4 0.925285 0.796339 0.348913
Si Si5 0.210785 0.299258 0.854033
Si Si6 0.155158 0.792287 0.936676
Si Si7 0.522518 0.797109 0.736546
O O1 0.250000 0.750000 0.500000
O O2 0.279949 0.732039 0.597435
O O3 0.453553 0.720676 0.594072
O O4 0.341866 0.000000 0.570703
O O5 0.448766 0.500000 0.939351
O O6 0.332835 0.220366 0.890866
O O7 0.541085 0.238964 0.926075
O O8 0.500000 0.228590 0.000000
O O9 0.777024 0.500000 0.649094
O O10 0.673604 0.228706 0.648267
O O11 0.897720 0.226257 0.702523
O O12 0.937755 0.712080 0.303479
O O13 0.903387 0.000000 0.334604
O O14 0.224155 0.500000 0.842459
O O15 0.174267 0.296762 0.894960
O O16 0.116052 0.218144 0.795603
O O17 0.154725 0.000000 0.929355
O O18 0.250000 0.750000 0.000000
O O19 0.511668 0.000000 0.746305
#
# Coordination Sequence:
#
# PCOD9185129 Si02
#       7
#     8   8   8   8   8   8   8
#     4  10  20  36  55  80 114 147 182 219 261 310
#     4   9  17  32  52  72 100 135 166 202 261 322
#     4   8  17  34  54  75 105 144 176 213 267 316
#     4  10  19  34  56  78 104 141 180 218 264 310
#     4  10  20  36  56  76 102 138 174 212 263 321
#     4  11  21  34  53  75 101 132 169 210 258 315
#     4   9  19  36  55  76 104 138 176 217 265 318
#
# _framework density 20.168935000000001
#
# number of rings (size 3 to 8) (size 9 to 14) (size 15 to 20)
#    0.000    2.429    1.429    2.143    0.000    2.286 
#    0.000   12.143    0.000    0.000    0.000    0.000 
#    0.000    0.000    0.000    0.000    0.000    0.000 
#
# Total GULP energy -156203.649708 kJ/mol
# GULP energy per Si atom -5578.701775 kJ/mol
# Density = 2.012303 g / cm^3
# Si number density = 20.168935 Si / 1000 Ang^3
#
#
#
# Elastic Constant Matrix: (Units=GPa)
#
#
# Indices 1 2 3 4 5 6 
#
# 1 179.4339 -8.2972 72.5738 0.0000 17.7584 0.0000
# 2 -8.2972 38.2563 -14.2171 0.0000 0.9944 0.0000
# 3 72.5738 -14.2171 148.7701 0.0000 29.8504 0.0000
# 4 0.0000 0.0000 0.0000 11.2115 0.0000 -7.8277
# 5 17.7584 0.9944 29.8504 0.0000 18.6060 0.0000
# 6 0.0000 0.0000 0.0000 -7.8277 0.0000 16.6558
#
#
#
# Elastic Compliance Matrix: (Units=1/GPa)
#
#
# Indices 1 2 3 4 5 6 
#
# 1 0.006990 0.000457 -0.002983 0.000000 -0.001910 0.000000
# 2 0.000457 0.028022 0.004193 0.000000 -0.008660 0.000000
# 3 -0.002983 0.004193 0.011873 0.000000 -0.016426 0.000000
# 4 0.000000 0.000000 0.000000 0.132754 0.000000 0.062390
# 5 -0.001910 -0.008660 -0.016426 0.000000 0.082385 0.000000
# 6 0.000000 0.000000 0.000000 0.062390 0.000000 0.089360
#
#
# Mechanical properties :
#
#
# Convention : Reuss Voigt Hill
#
# Bulk Modulus (GPa) = 19.91289 51.84215 35.87752
# Shear Modulus (GPa) = 13.70650 30.38804 22.04727
#
# Velocity S-wave (km/s) = 2.60971 3.88580 3.30984
# Velocity P-wave (km/s) = 4.35606 6.77439 5.69507
#
# Compressibility (1/GPa) = 0.05021872
#
# Stress axis : x y z
#
# Youngs Moduli (GPa) = 143.06781 35.68649 84.22213
#
# Poissons Ratio (x) = -0.01631 0.25121
# Poissons Ratio (y) = -0.06540 -0.35311
# Poissons Ratio (z) = 0.42674 -0.14962
#
# Static dielectric constant tensor:
#      x y z
#    x 1.700560 0.000000 0.024740 
#    y 0.000000 1.774920 0.000000 
#    z 0.024740 0.000000 1.700910 
# 
# From -- ./inp_files/360024.got.cif
#   From: 2010.05.17/outbox.cif.g08.bks.cpg/sg12_181_cif.got.tgz:360024.got - 2010.06.03 13:09:07.
