data_PCOD9185693
_publ_section_title
;
Structure prediction by ZEFSAII (Michael W. Deem and Ramdas Pophale) SiO2 
 PCOD9185693
Probable space group: C 2/M
;
_chemical_formula_sum "Si O2"
_cell_formula_units_Z 48
_cell_length_a 26.228270
_cell_length_b 15.062196
_cell_length_c 10.479940
_cell_angle_alpha 90.000000
_cell_angle_beta 149.477406
_cell_angle_gamma 90.000000
_cell_volume 2102.694705
_symmetry_space_group_name_H-M "C 2/M"
_symmetry_group_IT_number 12
_symmetry_cell_setting 'monoclinic'
loop_
_space_group_symop_operation_xyz
x,y,z
-x,y,-z
-x,-y,-z
x,-y,z
1/2+x,1/2+y,z
1/2-x,1/2+y,-z
1/2-x,1/2-y,-z
1/2+x,1/2-y,z
loop_
_atom_site_type_symbol
_atom_site_label
_atom_site_fract_x
_atom_site_fract_y
_atom_site_fract_z
Si Si1 0.531222 0.399233 0.898856
Si Si2 0.604380 0.627326 0.790549
Si Si3 0.859867 0.319987 0.042843
Si Si4 0.393622 0.229269 0.825441
Si Si5 0.855339 0.244519 0.472825
Si Si6 0.162657 0.596599 0.756413
O O1 0.500341 0.500000 0.866912
O O2 0.600476 0.407938 0.925143
O O3 0.441348 0.330638 0.668041
O O4 0.594551 0.336619 0.130797
O O5 0.500000 0.598231 0.500000
O O6 0.597179 0.732547 0.796462
O O7 0.714428 0.605048 0.974055
O O8 0.882713 0.316448 0.940273
O O9 0.741016 0.304271 0.787628
O O10 0.878743 0.394867 0.188329
O O11 0.326580 0.219782 0.553682
O O12 0.500000 0.196693 0.000000
O O13 0.876544 0.325683 0.422367
O O14 0.138021 0.500000 0.650532
#
# Coordination Sequence:
#
# PCOD9185693 Si02
#       6
#     8   8   8   8   8   8
#     4  10  20  34  59  95 125 149 184 235 297 359
#     4  10  19  34  57  86 122 153 185 237 299 354
#     4  10  20  36  57  84 117 155 196 238 288 347
#     4   9  20  37  60  83 115 155 191 235 292 350
#     4  10  20  37  59  85 122 162 190 231 291 355
#     4  11  23  38  58  86 118 156 202 246 288 340
#
# _framework density 22.827849000000001
#
# number of rings (size 3 to 8) (size 9 to 14) (size 15 to 20)
#    0.000    2.000    0.000    5.000    0.000    6.333 
#    0.000    0.833    0.000   33.500    0.000    0.000 
#    0.000    0.000    0.000    0.000    0.000    0.000 
#
# Total GULP energy -133663.240209 kJ/mol
# GULP energy per Si atom -5569.301675 kJ/mol
# Density = 2.277589 g / cm^3
# Si number density = 22.827849 Si / 1000 Ang^3
#
#
#
# Elastic Constant Matrix: (Units=GPa)
#
#
# Indices 1 2 3 4 5 6 
#
# 1 152.0763 71.0047 13.1623 0.0000 -33.6779 0.0000
# 2 71.0047 114.5973 30.3101 0.0000 -8.6607 0.0000
# 3 13.1623 30.3101 76.4353 0.0000 -16.4207 0.0000
# 4 0.0000 0.0000 0.0000 -7.5680 0.0000 18.4294
# 5 -33.6779 -8.6607 -16.4207 0.0000 35.4689 0.0000
# 6 0.0000 0.0000 0.0000 18.4294 0.0000 -16.8994
#
#
#
# Elastic Compliance Matrix: (Units=1/GPa)
#
#
# Indices 1 2 3 4 5 6 
#
# 1 0.012440 -0.007737 0.003395 0.000000 0.011494 0.000000
# 2 -0.007737 0.014574 -0.005842 0.000000 -0.006492 0.000000
# 3 0.003395 -0.005842 0.016880 0.000000 0.009612 0.000000
# 4 0.000000 0.000000 0.000000 0.079809 0.000000 0.087035
# 5 0.011494 -0.006492 0.009612 0.000000 0.041972 0.000000
# 6 0.000000 0.000000 0.000000 0.087035 0.000000 0.035741
#
#
# Mechanical properties :
#
#
# Convention : Reuss Voigt Hill
#
# Bulk Modulus (GPa) = 42.50469 63.56257 53.03363
# Shear Modulus (GPa) = 21.77465 17.44242 19.60854
#
# Velocity S-wave (km/s) = 3.09182 2.76721 2.93401
# Velocity P-wave (km/s) = 5.60409 6.17371 5.89578
#
# Compressibility (1/GPa) = 0.02352681
#
# Stress axis : x y z
#
# Youngs Moduli (GPa) = 80.38861 68.61299 59.24237
#
# Poissons Ratio (x) = 0.53085 -0.20114
# Poissons Ratio (y) = 0.62196 0.34608
# Poissons Ratio (z) = -0.27294 0.40083
#
# Static dielectric constant tensor:
#      x y z
#    x 1.943190 0.000000 0.011690 
#    y 0.000000 1.861640 0.000000 
#    z 0.011690 0.000000 1.984380 
# 
# From -- ./inp_files/189518.got.cif
#   From: 2010.05.17/outbox.cif.g08.bks.cpg/sg12_95_cif.got.tgz:189518.got - 2010.06.03 13:09:07.
