data_PCOD9185359
_publ_section_title
;
Structure prediction by ZEFSAII (Michael W. Deem and Ramdas Pophale) SiO2 
 PCOD9185359
Probable space group: C 2/M
;
_chemical_formula_sum "Si O2"
_cell_formula_units_Z 64
_cell_length_a 23.772697
_cell_length_b 11.682108
_cell_length_c 11.506960
_cell_angle_alpha 90.000000
_cell_angle_beta 96.675647
_cell_angle_gamma 90.000000
_cell_volume 3173.991774
_symmetry_space_group_name_H-M "C 2/M"
_symmetry_group_IT_number 12
_symmetry_cell_setting 'monoclinic'
loop_
_space_group_symop_operation_xyz
x,y,z
-x,y,-z
-x,-y,-z
x,-y,z
1/2+x,1/2+y,z
1/2-x,1/2+y,-z
1/2-x,1/2-y,-z
1/2+x,1/2-y,z
loop_
_atom_site_type_symbol
_atom_site_label
_atom_site_fract_x
_atom_site_fract_y
_atom_site_fract_z
Si Si1 0.934824 0.129854 0.770746
Si Si2 0.769188 0.876580 0.862833
Si Si3 0.058476 0.628925 0.085632
Si Si4 0.144763 0.137780 0.758803
Si Si5 0.747861 0.374539 0.628157
Si Si6 0.315819 0.663304 0.625612
Si Si7 0.161491 0.295674 0.968421
Si Si8 0.465360 0.632536 0.387351
O O1 0.934558 0.249716 0.842426
O O2 0.880339 0.135053 0.671350
O O3 0.992884 0.131235 0.712168
O O4 0.931416 0.000000 0.825878
O O5 0.778504 0.877552 0.726827
O O6 0.706518 0.863038 0.899880
O O7 0.791461 0.000000 0.911428
O O8 0.804463 0.770833 0.922576
O O9 0.058268 0.500000 0.142797
O O10 0.111767 0.631883 0.011509
O O11 0.000000 0.637468 0.000000
O O12 0.205653 0.167153 0.719022
O O13 0.136899 0.196942 0.879672
O O14 0.095199 0.180812 0.661946
O O15 0.141444 0.000000 0.766105
O O16 0.766425 0.500000 0.665704
O O17 0.709287 0.378201 0.502517
O O18 0.802042 0.297536 0.620032
O O19 0.500000 0.688805 0.500000
O O20 0.453859 0.500000 0.419264
#
# Coordination Sequence:
#
# PCOD9185359 Si02
#       8
#     8   8   8   8   8   8   8   8
#     4  11  22  38  62  91 118 153 199 248 296 348
#     4  11  22  37  57  83 116 150 191 246 295 344
#     4  11  25  43  61  84 119 160 200 243 296 354
#     4  10  19  34  56  85 117 148 189 244 295 346
#     4  10  21  36  57  85 121 157 193 238 296 357
#     4  11  21  37  57  85 119 154 195 238 293 350
#     4  11  22  38  57  85 111 155 197 238 289 356
#     4   9  18  33  57  88 118 149 189 242 301 350
#
# _framework density 20.163882000000001
#
# number of rings (size 3 to 8) (size 9 to 14) (size 15 to 20)
#    0.000    1.500    2.500    3.375    0.000    3.250 
#    0.000    0.000    0.000    0.375    0.000    0.000 
#    0.000    0.000    0.000    0.000    0.000    0.000 
#
# Total GULP energy -178351.426246 kJ/mol
# GULP energy per Si atom -5573.482070 kJ/mol
# Density = 2.011799 g / cm^3
# Si number density = 20.163882 Si / 1000 Ang^3
#
#
#
# Elastic Constant Matrix: (Units=GPa)
#
#
# Indices 1 2 3 4 5 6 
#
# 1 59.2120 18.9908 -16.4266 0.0000 6.6010 0.0000
# 2 18.9908 102.7709 15.1788 0.0000 2.4685 0.0000
# 3 -16.4266 15.1788 48.6595 0.0000 2.5435 0.0000
# 4 0.0000 0.0000 0.0000 6.0000 0.0000 -15.0871
# 5 6.6010 2.4685 2.5435 0.0000 25.1323 0.0000
# 6 0.0000 0.0000 0.0000 -15.0871 0.0000 -6.3336
#
#
#
# Elastic Compliance Matrix: (Units=1/GPa)
#
#
# Indices 1 2 3 4 5 6 
#
# 1 0.021860 -0.005272 0.009346 0.000000 -0.006170 0.000000
# 2 -0.005272 0.011483 -0.005404 0.000000 0.000804 0.000000
# 3 0.009346 -0.005404 0.025628 0.000000 -0.004518 0.000000
# 4 0.000000 0.000000 0.000000 0.023844 0.000000 -0.056799
# 5 -0.006170 0.000804 -0.004518 0.000000 0.041788 0.000000
# 6 0.000000 0.000000 0.000000 -0.056799 0.000000 -0.022589
#
#
# Mechanical properties :
#
#
# Convention : Reuss Voigt Hill
#
# Bulk Modulus (GPa) = 17.75778 27.34758 22.55268
# Shear Modulus (GPa) = 40.50417 17.81971 29.16194
#
# Velocity S-wave (km/s) = 4.48677 2.97601 3.80708
# Velocity P-wave (km/s) = 5.97221 5.03993 5.52577
#
# Compressibility (1/GPa) = 0.05631333
#
# Stress axis : x y z
#
# Youngs Moduli (GPa) = 45.74578 87.08277 39.01992
#
# Poissons Ratio (x) = 0.45907 -0.36470
# Poissons Ratio (y) = 0.24116 0.21085
# Poissons Ratio (z) = -0.42756 0.47057
#
# Static dielectric constant tensor:
#      x y z
#    x 1.700670 0.000000 0.015890 
#    y 0.000000 1.765340 0.000000 
#    z 0.015890 0.000000 1.742130 
# 
# From -- ./inp_files/174686.got.cif
#   From: 2010.05.17/outbox.cif.g08.bks.cpg/sg12_88_cif.got.tgz:174686.got - 2010.06.03 13:09:07.
