data_PCOD9185733
_publ_section_title
;
Structure prediction by ZEFSAII (Michael W. Deem and Ramdas Pophale) SiO2 
 PCOD9185733
Probable space group: C 2/M
;
_chemical_formula_sum "Si O2"
_cell_formula_units_Z 40
_cell_length_a 16.765949
_cell_length_b 20.043598
_cell_length_c 10.897146
_cell_angle_alpha 90.000000
_cell_angle_beta 32.787592
_cell_angle_gamma 90.000000
_cell_volume 1983.060841
_symmetry_space_group_name_H-M "C 2/M"
_symmetry_group_IT_number 12
_symmetry_cell_setting 'monoclinic'
loop_
_space_group_symop_operation_xyz
x,y,z
-x,y,-z
-x,-y,-z
x,-y,z
1/2+x,1/2+y,z
1/2-x,1/2+y,-z
1/2-x,1/2-y,-z
1/2+x,1/2-y,z
loop_
_atom_site_type_symbol
_atom_site_label
_atom_site_fract_x
_atom_site_fract_y
_atom_site_fract_z
Si Si1 0.043013 0.422938 0.084795
Si Si2 0.141030 0.324726 0.507273
Si Si3 0.334121 0.637104 0.660866
Si Si4 0.418586 0.321965 0.302312
Si Si5 0.236014 0.776657 0.878253
O O1 0.000190 0.500000 0.153326
O O2 0.961836 0.378220 0.292008
O O3 0.220573 0.415375 0.863585
O O4 0.000000 0.401677 0.000000
O O5 0.310805 0.333184 0.329174
O O6 0.099015 0.253356 0.621464
O O7 0.144802 0.317712 0.355403
O O8 0.500000 0.642979 0.500000
O O9 0.362144 0.628699 0.480853
O O10 0.243042 0.706099 0.797515
O O11 0.591492 0.321878 0.058936
O O12 0.250000 0.750000 0.000000
#
# Coordination Sequence:
#
# PCOD9185733 Si02
#       5
#     8   8   8   8   8
#     4  11  23  41  63  85 120 168 219 262 300 364
#     4  10  21  34  60  88 123 156 206 254 305 376
#     4  11  21  35  58  89 125 157 203 255 313 375
#     4  10  19  34  57  90 122 153 193 253 322 374
#     4  11  21  34  57  92 127 157 186 250 328 378
#
# _framework density 20.170839000000001
#
# number of rings (size 3 to 8) (size 9 to 14) (size 15 to 20)
#    0.000    1.400    6.000    0.600    0.000    0.400 
#    0.000    0.000    0.000    6.000    0.000    0.000 
#    0.000    0.000    0.000    0.000    0.000    0.000 
#
# Total GULP energy -111358.012930 kJ/mol
# GULP energy per Si atom -5567.900646 kJ/mol
# Density = 2.012493 g / cm^3
# Si number density = 20.170839 Si / 1000 Ang^3
#
#
#
# Elastic Constant Matrix: (Units=GPa)
#
#
# Indices 1 2 3 4 5 6 
#
# 1 61.8983 7.6928 75.3249 0.0001 10.3849 -0.0001
# 2 7.6928 53.4638 43.6489 0.0002 14.2514 -0.0001
# 3 75.3249 43.6489 158.6007 0.0010 13.6578 -0.0006
# 4 0.0001 0.0002 0.0010 21.3099 -0.0004 3.7398
# 5 10.3849 14.2514 13.6578 -0.0004 46.9683 0.0003
# 6 -0.0001 -0.0001 -0.0006 3.7398 0.0003 10.7592
#
#
#
# Elastic Compliance Matrix: (Units=1/GPa)
#
#
# Indices 1 2 3 4 5 6 
#
# 1 0.048026 0.017134 -0.026835 0.000001 -0.008015 -0.000001
# 2 0.017134 0.031723 -0.016117 0.000000 -0.008728 0.000000
# 3 -0.026835 -0.016117 0.023133 -0.000001 0.004097 0.000001
# 4 0.000001 0.000000 -0.000001 0.049975 0.000001 -0.017371
# 5 -0.008015 -0.008728 0.004097 0.000001 0.024520 -0.000001
# 6 -0.000001 0.000000 0.000001 -0.017371 -0.000001 0.098982
#
#
# Mechanical properties :
#
#
# Convention : Reuss Voigt Hill
#
# Bulk Modulus (GPa) = 19.51300 58.58844 39.05072
# Shear Modulus (GPa) = 14.48958 25.62722 20.05840
#
# Velocity S-wave (km/s) = 2.68310 3.56829 3.15687
# Velocity P-wave (km/s) = 4.39244 6.78867 5.71750
#
# Compressibility (1/GPa) = 0.05124788
#
# Stress axis : x y z
#
# Youngs Moduli (GPa) = 20.82200 31.52254 43.22908
#
# Poissons Ratio (x) = -0.54012 1.16004
# Poissons Ratio (y) = -0.35677 0.69671
# Poissons Ratio (z) = 0.55875 0.50804
#
# Static dielectric constant tensor:
#      x y z
#    x 1.874510 0.000000 -0.061200 
#    y 0.000000 1.700760 0.000000 
#    z -0.061200 0.000000 1.828190 
# 
# From -- ./inp_files/50944.got.cif
#   From: 2010.05.17/outbox.cif.g08.bks.cpg/sg12_26_cif.got.tgz:50944.got - 2010.06.03 13:09:07.
