data_PCOD9185921
_publ_section_title
;
Structure prediction by ZEFSAII (Michael W. Deem and Ramdas Pophale) SiO2 
 PCOD9185921
Probable space group: C 2/M
;
_chemical_formula_sum "Si O2"
_cell_formula_units_Z 64
_cell_length_a 33.168047
_cell_length_b 8.806687
_cell_length_c 20.565866
_cell_angle_alpha 90.000000
_cell_angle_beta 142.690722
_cell_angle_gamma 90.000000
_cell_volume 3641.129077
_symmetry_space_group_name_H-M "C 2/M"
_symmetry_group_IT_number 12
_symmetry_cell_setting 'monoclinic'
loop_
_space_group_symop_operation_xyz
x,y,z
-x,y,-z
-x,-y,-z
x,-y,z
1/2+x,1/2+y,z
1/2-x,1/2+y,-z
1/2-x,1/2-y,-z
1/2+x,1/2-y,z
loop_
_atom_site_type_symbol
_atom_site_label
_atom_site_fract_x
_atom_site_fract_y
_atom_site_fract_z
Si Si1 0.822884 0.817530 0.859732
Si Si2 0.075002 0.681655 0.619978
Si Si3 0.407144 0.318194 0.583202
Si Si4 0.572787 0.317224 0.118596
Si Si5 0.821942 0.817382 0.350781
Si Si6 0.091546 0.317809 0.916288
Si Si7 0.439872 0.180860 0.759113
Si Si8 0.558804 0.318117 0.738877
O O1 0.871935 0.774064 0.863283
O O2 0.749948 0.753474 0.753179
O O3 0.821586 0.000000 0.862465
O O4 0.854344 0.749481 0.965594
O O5 0.083168 0.500000 0.629444
O O6 0.127077 0.758254 0.638250
O O7 0.082559 0.744603 0.702452
O O8 0.000000 0.717488 0.500000
O O9 0.404954 0.500000 0.588701
O O10 0.352394 0.273222 0.460063
O O11 0.402398 0.241434 0.647294
O O12 0.480314 0.280740 0.648213
O O13 0.571697 0.500000 0.121884
O O14 0.584702 0.250073 0.204990
O O15 0.500000 0.267043 0.000000
O O16 0.818719 0.000000 0.344057
O O17 0.095903 0.500000 0.919074
O O18 0.095077 0.248316 0.848774
O O19 0.017872 0.276398 0.849117
O O20 0.435898 0.000000 0.756298
O O21 0.565267 0.500000 0.744853
#
# Coordination Sequence:
#
# PCOD9185921 Si02
#       8
#     8   8   8   8   8   8   8   8
#     4  11  23  39  59  84 115 154 193 234 286 345
#     4  11  22  36  58  88 119 150 190 239 283 332
#     4   9  19  35  56  81 113 151 189 229 281 340
#     4  10  20  36  58  83 113 149 192 236 283 340
#     4  11  23  40  60  84 116 155 193 234 285 342
#     4  10  20  35  55  84 118 151 187 233 288 341
#     4  10  20  32  55  87 116 144 185 240 287 330
#     4  10  19  34  58  86 115 148 190 238 283 334
#
# _framework density 17.576965999999999
#
# number of rings (size 3 to 8) (size 9 to 14) (size 15 to 20)
#    0.000    1.750    2.500    2.250    0.000    4.250 
#    0.000    1.250    0.000    0.000    0.000    0.000 
#    0.000    0.000    0.000    0.000    0.000    0.000 
#
# Total GULP energy -178744.036827 kJ/mol
# GULP energy per Si atom -5585.751151 kJ/mol
# Density = 1.753696 g / cm^3
# Si number density = 17.576966 Si / 1000 Ang^3
#
#
#
# Elastic Constant Matrix: (Units=GPa)
#
#
# Indices 1 2 3 4 5 6 
#
# 1 105.0094 39.9801 82.4648 0.0000 -15.2574 0.0000
# 2 39.9801 43.2976 52.4020 0.0000 -3.4527 0.0000
# 3 82.4648 52.4020 165.3632 0.0000 -18.1417 0.0000
# 4 0.0000 0.0000 0.0000 24.6242 0.0000 -1.6577
# 5 -15.2574 -3.4527 -18.1417 0.0000 33.3681 0.0000
# 6 0.0000 0.0000 0.0000 -1.6577 0.0000 23.1712
#
#
#
# Elastic Compliance Matrix: (Units=1/GPa)
#
#
# Indices 1 2 3 4 5 6 
#
# 1 0.018200 -0.009814 -0.005492 0.000000 0.004320 0.000000
# 2 -0.009814 0.042994 -0.009288 0.000000 -0.005089 0.000000
# 3 -0.005492 -0.009288 0.012069 0.000000 0.003089 0.000000
# 4 0.000000 0.000000 0.000000 0.040807 0.000000 0.002919
# 5 0.004320 -0.005089 0.003089 0.000000 0.033097 0.000000
# 6 0.000000 0.000000 0.000000 0.002919 0.000000 0.043366
#
#
# Mechanical properties :
#
#
# Convention : Reuss Voigt Hill
#
# Bulk Modulus (GPa) = 41.54017 73.70711 57.62364
# Shear Modulus (GPa) = 20.18188 25.48758 22.83473
#
# Velocity S-wave (km/s) = 3.39219 3.81209 3.60825
# Velocity P-wave (km/s) = 6.24717 7.83588 7.08619
#
# Compressibility (1/GPa) = 0.02407308
#
# Stress axis : x y z
#
# Youngs Moduli (GPa) = 54.94382 23.25913 82.85961
#
# Poissons Ratio (x) = 0.22827 0.45510
# Poissons Ratio (y) = 0.53922 0.76964
# Poissons Ratio (z) = 0.30177 0.21604
#
# Static dielectric constant tensor:
#      x y z
#    x 1.575760 0.000000 0.000220 
#    y 0.000000 1.580030 0.000000 
#    z 0.000220 0.000000 1.583070 
# 
# From -- ./inp_files/295610.got.cif
#   From: 2010.05.17/outbox.cif.g08.bks.cpg/sg12_148_cif.got.tgz:295610.got - 2010.06.03 13:09:07.
