data_PCOD9185524
_publ_section_title
;
Structure prediction by ZEFSAII (Michael W. Deem and Ramdas Pophale) SiO2 
 PCOD9185524
Probable space group: C 2/M
;
_chemical_formula_sum "Si O2"
_cell_formula_units_Z 56
_cell_length_a 19.583433
_cell_length_b 8.751588
_cell_length_c 27.869844
_cell_angle_alpha 90.000000
_cell_angle_beta 139.794573
_cell_angle_gamma 90.000000
_cell_volume 3083.377361
_symmetry_space_group_name_H-M "C 2/M"
_symmetry_group_IT_number 12
_symmetry_cell_setting 'monoclinic'
loop_
_space_group_symop_operation_xyz
x,y,z
-x,y,-z
-x,-y,-z
x,-y,z
1/2+x,1/2+y,z
1/2-x,1/2+y,-z
1/2-x,1/2-y,-z
1/2+x,1/2-y,z
loop_
_atom_site_type_symbol
_atom_site_label
_atom_site_fract_x
_atom_site_fract_y
_atom_site_fract_z
Si Si1 0.481362 0.682506 0.735960
Si Si2 0.558142 0.820302 0.181476
Si Si3 0.217585 0.325550 0.705745
Si Si4 0.215407 0.680034 0.430460
Si Si5 0.570353 0.186014 0.082274
Si Si6 0.874797 0.171682 0.430099
Si Si7 0.683036 0.683623 0.781907
O O1 0.468705 0.500000 0.729107
O O2 0.477442 0.740100 0.788729
O O3 0.386732 0.749873 0.652033
O O4 0.595774 0.720743 0.774784
O O5 0.682916 0.786931 0.245158
O O6 0.524424 0.766162 0.109823
O O7 0.536480 0.000000 0.174039
O O8 0.252426 0.500000 0.730468
O O9 0.156350 0.300596 0.624066
O O10 0.152498 0.268958 0.716556
O O11 0.195432 0.500000 0.426134
O O12 0.250000 0.750000 0.500000
O O13 0.314190 0.698149 0.447143
O O14 0.694335 0.228850 0.142643
O O15 0.568754 0.000000 0.081855
O O16 0.500000 0.239124 0.000000
O O17 0.000000 0.169777 0.500000
O O18 0.841499 0.000000 0.395568
O O19 0.681491 0.500000 0.774083
#
# Coordination Sequence:
#
# PCOD9185524 Si02
#       7
#     8   8   8   8   8   8   8
#     4  11  22  37  57  81 113 151 190 232 278 334
#     4  10  19  34  57  82 110 146 184 226 276 329
#     4  11  21  34  55  81 107 139 183 232 274 325
#     4  11  24  40  58  80 111 149 187 235 287 335
#     4   8  15  32  59  86 110 143 188 229 268 327
#     4  10  22  39  57  76 104 143 184 227 279 333
#     4   9  20  36  56  81 112 148 185 225 276 330
#
# _framework density 18.161902000000001
#
# number of rings (size 3 to 8) (size 9 to 14) (size 15 to 20)
#    0.000    2.000    1.429    3.429    2.000    2.000 
#    0.000    0.714    0.000   10.714    0.000    0.000 
#    0.000    0.000    0.000    0.000    0.000    0.000 
#
# Total GULP energy -156037.232000 kJ/mol
# GULP energy per Si atom -5572.758286 kJ/mol
# Density = 1.812056 g / cm^3
# Si number density = 18.161902 Si / 1000 Ang^3
#
#
#
# Elastic Constant Matrix: (Units=GPa)
#
#
# Indices 1 2 3 4 5 6 
#
# 1 141.8341 45.0267 65.5557 0.0000 -24.2536 0.0000
# 2 45.0267 42.1014 40.2931 0.0000 -13.8045 0.0000
# 3 65.5557 40.2931 110.7665 0.0000 -27.9851 0.0000
# 4 0.0000 0.0000 0.0000 13.0479 0.0000 -9.6204
# 5 -24.2536 -13.8045 -27.9851 0.0000 26.7029 0.0000
# 6 0.0000 0.0000 0.0000 -9.6204 0.0000 15.1104
#
#
#
# Elastic Compliance Matrix: (Units=1/GPa)
#
#
# Indices 1 2 3 4 5 6 
#
# 1 0.011704 -0.008638 -0.003029 0.000000 0.002990 0.000000
# 2 -0.008638 0.043723 -0.009608 0.000000 0.004688 0.000000
# 3 -0.003029 -0.009608 0.016819 0.000000 0.009908 0.000000
# 4 0.000000 0.000000 0.000000 0.144450 0.000000 0.091968
# 5 0.002990 0.004688 0.009908 0.000000 0.052973 0.000000
# 6 0.000000 0.000000 0.000000 0.091968 0.000000 0.124733
#
#
# Mechanical properties :
#
#
# Convention : Reuss Voigt Hill
#
# Bulk Modulus (GPa) = 33.67479 66.27254 49.97366
# Shear Modulus (GPa) = 11.18939 20.56067 15.87503
#
# Velocity S-wave (km/s) = 2.48481 3.36829 2.95970
# Velocity P-wave (km/s) = 5.17823 7.19001 6.26539
#
# Compressibility (1/GPa) = 0.02969580
#
# Stress axis : x y z
#
# Youngs Moduli (GPa) = 85.44022 22.87134 59.45512
#
# Poissons Ratio (x) = 0.19755 0.18011
# Poissons Ratio (y) = 0.73800 0.57127
# Poissons Ratio (z) = 0.25883 0.21976
#
# Static dielectric constant tensor:
#      x y z
#    x 1.629650 0.000000 -0.023760 
#    y 0.000000 1.625440 0.000000 
#    z -0.023760 0.000000 1.647820 
# 
# From -- ./inp_files/342487.got.cif
#   From: 2010.05.17/outbox.cif.g08.bks.cpg/sg12_172_cif.got.tgz:342487.got - 2010.06.03 13:09:07.
