data_PCOD9185884
_publ_section_title
;
Structure prediction by ZEFSAII (Michael W. Deem and Ramdas Pophale) SiO2 
 PCOD9185884
Probable space group: C 2/M
;
_chemical_formula_sum "Si O2"
_cell_formula_units_Z 56
_cell_length_a 9.521673
_cell_length_b 25.316122
_cell_length_c 11.170996
_cell_angle_alpha 90.000000
_cell_angle_beta 76.396266
_cell_angle_gamma 90.000000
_cell_volume 2617.244706
_symmetry_space_group_name_H-M "C 2/M"
_symmetry_group_IT_number 12
_symmetry_cell_setting 'monoclinic'
loop_
_space_group_symop_operation_xyz
x,y,z
-x,y,-z
-x,-y,-z
x,-y,z
1/2+x,1/2+y,z
1/2-x,1/2+y,-z
1/2-x,1/2-y,-z
1/2+x,1/2-y,z
loop_
_atom_site_type_symbol
_atom_site_label
_atom_site_fract_x
_atom_site_fract_y
_atom_site_fract_z
Si Si1 0.029097 0.596220 0.364701
Si Si2 0.282423 0.400556 0.616382
Si Si3 0.342547 0.666640 0.975750
Si Si4 0.166337 0.059275 0.647289
Si Si5 0.598063 0.800902 0.210413
Si Si6 0.763082 0.289518 0.256735
Si Si7 0.090131 0.061803 0.157899
O O1 0.165455 0.559448 0.354804
O O2 0.071113 0.640933 0.264806
O O3 0.000000 0.622107 0.500000
O O4 0.875989 0.572734 0.360049
O O5 0.351864 0.408175 0.471633
O O6 0.262428 0.338193 0.647777
O O7 0.351323 0.426949 0.719414
O O8 0.311493 0.691646 0.852136
O O9 0.341461 0.603440 0.947727
O O10 0.500000 0.678975 0.000000
O O11 0.214765 0.690132 0.082424
O O12 0.077302 0.076865 0.782021
O O13 0.117260 0.000000 0.630282
O O14 0.676178 0.764513 0.294635
O O15 0.436069 0.781174 0.209856
O O16 0.104887 0.000000 0.122031
#
# Coordination Sequence:
#
# PCOD9185884 Si02
#       7
#     8   8   8   8   8   8   8
#     4   9  20  37  56  82 113 144 184 228 271 328
#     4   9  19  35  56  84 114 146 182 226 273 330
#     4  11  22  37  58  81 108 146 188 231 276 330
#     4  10  19  34  58  85 114 150 188 225 271 325
#     4  11  21  39  59  80 111 146 184 230 283 330
#     4  10  22  38  59  84 109 142 186 231 278 335
#     4  10  21  36  55  83 115 147 186 230 275 324
#
# _framework density 21.396547999999999
#
# number of rings (size 3 to 8) (size 9 to 14) (size 15 to 20)
#    0.000    2.000    0.000    3.429    0.000    5.714 
#    0.000   10.000    0.000   12.000    0.000    0.000 
#    0.000    0.000    0.000    0.000    0.000    0.000 
#
# Total GULP energy -156105.718657 kJ/mol
# GULP energy per Si atom -5575.204238 kJ/mol
# Density = 2.134785 g / cm^3
# Si number density = 21.396548 Si / 1000 Ang^3
#
#
#
# Elastic Constant Matrix: (Units=GPa)
#
#
# Indices 1 2 3 4 5 6 
#
# 1 117.1496 21.9823 7.8171 0.0000 2.0813 0.0000
# 2 21.9823 69.8446 12.4405 0.0000 -11.4248 0.0000
# 3 7.8171 12.4405 30.7270 0.0000 2.6983 0.0000
# 4 0.0000 0.0000 0.0000 18.0511 0.0000 0.0238
# 5 2.0813 -11.4248 2.6983 0.0000 19.8415 0.0000
# 6 0.0000 0.0000 0.0000 0.0238 0.0000 23.8834
#
#
#
# Elastic Compliance Matrix: (Units=1/GPa)
#
#
# Indices 1 2 3 4 5 6 
#
# 1 0.009240 -0.003205 -0.000816 0.000000 -0.002704 0.000000
# 2 -0.003205 0.018713 -0.007830 0.000000 0.012176 0.000000
# 3 -0.000816 -0.007830 0.036750 0.000000 -0.009421 0.000000
# 4 0.000000 0.000000 0.000000 0.055398 0.000000 -0.000055
# 5 -0.002704 0.012176 -0.009421 0.000000 0.058975 0.000000
# 6 0.000000 0.000000 0.000000 -0.000055 0.000000 0.041870
#
#
# Mechanical properties :
#
#
# Convention : Reuss Voigt Hill
#
# Bulk Modulus (GPa) = 24.38984 33.57789 28.98386
# Shear Modulus (GPa) = 19.35628 24.05396 21.70512
#
# Velocity S-wave (km/s) = 3.01099 3.35654 3.18845
# Velocity P-wave (km/s) = 4.84890 5.54518 5.20869
#
# Compressibility (1/GPa) = 0.04100069
#
# Stress axis : x y z
#
# Youngs Moduli (GPa) = 108.22541 53.43995 27.21112
#
# Poissons Ratio (x) = 0.17128 0.02219
# Poissons Ratio (y) = 0.34688 0.21306
# Poissons Ratio (z) = 0.08827 0.41844
#
# Static dielectric constant tensor:
#      x y z
#    x 1.835270 0.000000 -0.006050 
#    y 0.000000 1.797310 0.000000 
#    z -0.006050 0.000000 1.763930 
# 
# From -- ./inp_files/124228.got.cif
#   From: 2010.05.17/outbox.cif.g08.bks.cpg/sg12_63_cif.got.tgz:124228.got - 2010.06.03 13:09:07.
