data_PCOD9185201
_publ_section_title
;
Structure prediction by ZEFSAII (Michael W. Deem and Ramdas Pophale) SiO2 
 PCOD9185201
Probable space group: C 2/M
;
_chemical_formula_sum "Si O2"
_cell_formula_units_Z 48
_cell_length_a 24.238990
_cell_length_b 11.056442
_cell_length_c 13.839840
_cell_angle_alpha 90.000000
_cell_angle_beta 138.521286
_cell_angle_gamma 90.000000
_cell_volume 2456.649039
_symmetry_space_group_name_H-M "C 2/M"
_symmetry_group_IT_number 12
_symmetry_cell_setting 'monoclinic'
loop_
_space_group_symop_operation_xyz
x,y,z
-x,y,-z
-x,-y,-z
x,-y,z
1/2+x,1/2+y,z
1/2-x,1/2+y,-z
1/2-x,1/2-y,-z
1/2+x,1/2-y,z
loop_
_atom_site_type_symbol
_atom_site_label
_atom_site_fract_x
_atom_site_fract_y
_atom_site_fract_z
Si Si1 0.593038 0.861466 0.668005
Si Si2 0.222449 0.241828 0.316337
Si Si3 0.854755 0.629660 0.609505
Si Si4 0.367791 0.635874 0.410632
Si Si5 0.991489 0.756223 0.272053
Si Si6 0.431028 0.643717 0.990138
O O1 0.500000 0.867930 0.500000
O O2 0.636451 0.751784 0.666542
O O3 0.578361 0.810156 0.756310
O O4 0.626608 0.000000 0.708127
O O5 0.169075 0.273622 0.341236
O O6 0.286279 0.139019 0.435322
O O7 0.285431 0.348442 0.368327
O O8 0.156825 0.205128 0.149947
O O9 0.853111 0.500000 0.654836
O O10 0.943034 0.656315 0.678660
O O11 0.371032 0.500000 0.373168
O O12 0.451033 0.658081 0.584237
O O13 0.959340 0.823096 0.134966
O O14 0.421733 0.500000 0.968642
O O15 0.500000 0.681564 0.000000
#
# Coordination Sequence:
#
# PCOD9185201 Si02
#       6
#     8   8   8   8   8   8
#     4   9  19  36  60  88 118 151 196 246 293 346
#     4  10  21  36  54  82 114 151 195 234 290 344
#     4  10  19  34  56  80 110 150 194 239 288 341
#     4  10  21  37  61  89 118 152 197 246 292 344
#     4  10  20  36  59  87 117 150 195 238 297 340
#     4  11  22  37  56  83 121 157 193 235 290 352
#
# _framework density 19.538810000000002
#
# number of rings (size 3 to 8) (size 9 to 14) (size 15 to 20)
#    0.000    2.000    1.667    2.000    0.000    8.333 
#    0.000    5.000    0.000    0.000    0.000    0.000 
#    0.000    0.000    0.000    0.000    0.000    0.000 
#
# Total GULP energy -133752.338465 kJ/mol
# GULP energy per Si atom -5573.014103 kJ/mol
# Density = 1.949434 g / cm^3
# Si number density = 19.538810 Si / 1000 Ang^3
#
#
#
# Elastic Constant Matrix: (Units=GPa)
#
#
# Indices 1 2 3 4 5 6 
#
# 1 64.5686 24.9670 18.1887 0.0000 -18.1808 0.0000
# 2 24.9670 102.6674 18.5053 0.0000 -3.1774 0.0000
# 3 18.1887 18.5053 67.8583 0.0000 1.1684 0.0000
# 4 0.0000 0.0000 0.0000 -1.9891 0.0000 -12.7672
# 5 -18.1808 -3.1774 1.1684 0.0000 22.5522 0.0000
# 6 0.0000 0.0000 0.0000 -12.7672 0.0000 14.0109
#
#
#
# Elastic Compliance Matrix: (Units=1/GPa)
#
#
# Indices 1 2 3 4 5 6 
#
# 1 0.024103 -0.004255 -0.005629 0.000000 0.019123 0.000000
# 2 -0.004255 0.011052 -0.001843 0.000000 -0.001778 0.000000
# 3 -0.005629 -0.001843 0.016846 0.000000 -0.005671 0.000000
# 4 0.000000 0.000000 0.000000 -0.073406 0.000000 -0.066889
# 5 0.019123 -0.001778 -0.005671 0.000000 0.059802 0.000000
# 6 0.000000 0.000000 0.000000 -0.066889 0.000000 0.010421
#
#
# Mechanical properties :
#
#
# Convention : Reuss Voigt Hill
#
# Bulk Modulus (GPa) = 35.03082 39.82402 37.42742
# Shear Modulus (GPa) = 61.13374 18.47703 39.80538
#
# Velocity S-wave (km/s) = 5.59967 3.07849 4.51848
# Velocity P-wave (km/s) = 7.73150 5.74999 6.81317
#
# Compressibility (1/GPa) = 0.02854629
#
# Stress axis : x y z
#
# Youngs Moduli (GPa) = 41.48846 90.48081 59.36233
#
# Poissons Ratio (x) = 0.38499 0.33418
# Poissons Ratio (y) = 0.17653 0.10940
# Poissons Ratio (z) = 0.23356 0.16674
#
# Static dielectric constant tensor:
#      x y z
#    x 1.710310 0.000000 -0.019790 
#    y 0.000000 1.703920 0.000000 
#    z -0.019790 0.000000 1.675670 
# 
# From -- ./inp_files/165835.got.cif
#   From: 2010.05.17/outbox.cif.g08.bks.cpg/sg12_83_cif.got.tgz:165835.got - 2010.06.03 13:09:07.
