data_PCOD9185005
_publ_section_title
;
Structure prediction by ZEFSAII (Michael W. Deem and Ramdas Pophale) SiO2 
 PCOD9185005
Probable space group: C 2/M
;
_chemical_formula_sum "Si O2"
_cell_formula_units_Z 64
_cell_length_a 16.565472
_cell_length_b 14.561977
_cell_length_c 27.328603
_cell_angle_alpha 90.000000
_cell_angle_beta 32.778198
_cell_angle_gamma 90.000000
_cell_volume 3569.032235
_symmetry_space_group_name_H-M "C 2/M"
_symmetry_group_IT_number 12
_symmetry_cell_setting 'monoclinic'
loop_
_space_group_symop_operation_xyz
x,y,z
-x,y,-z
-x,-y,-z
x,-y,z
1/2+x,1/2+y,z
1/2-x,1/2+y,-z
1/2-x,1/2-y,-z
1/2+x,1/2-y,z
loop_
_atom_site_type_symbol
_atom_site_label
_atom_site_fract_x
_atom_site_fract_y
_atom_site_fract_z
Si Si1 0.821547 0.279799 0.813694
Si Si2 0.705377 0.793476 0.970828
Si Si3 0.872010 0.110628 0.460032
Si Si4 0.497130 0.396383 0.820038
Si Si5 0.870579 0.610061 0.341034
Si Si6 0.702040 0.609916 0.324462
Si Si7 0.489526 0.606799 0.296719
Si Si8 0.612280 0.754266 0.837591
O O1 0.746106 0.273434 0.905157
O O2 0.706311 0.302012 0.829793
O O3 0.970439 0.340178 0.740972
O O4 0.874711 0.177200 0.771931
O O5 0.818359 0.878741 0.906406
O O6 0.750000 0.750000 0.000000
O O7 0.528256 0.803454 0.064577
O O8 0.728516 0.144003 0.562651
O O9 0.884690 0.131891 0.395906
O O10 0.028034 0.136409 0.406726
O O11 0.864772 0.000000 0.467305
O O12 0.524651 0.500000 0.822665
O O13 0.567914 0.384644 0.729731
O O14 0.556499 0.319157 0.825956
O O15 0.893426 0.500000 0.332680
O O16 0.773429 0.626673 0.341488
O O17 0.712483 0.500000 0.309945
O O18 0.794217 0.669406 0.238905
O O19 0.532765 0.500000 0.281292
#
# Coordination Sequence:
#
# PCOD9185005 Si02
#       8
#     8   8   8   8   8   8   8   8
#     4  11  21  35  54  80 109 142 178 218 269 323
#     4   9  19  36  55  75 102 134 178 222 264 308
#     4   9  17  32  55  81 107 137 179 228 275 316
#     4   9  19  35  56  78 106 144 180 218 266 319
#     4  10  21  35  54  79 109 145 180 221 268 321
#     4  10  19  34  55  81 111 141 178 224 274 318
#     4   9  17  33  54  76 102 135 177 222 267 311
#     4  11  21  35  55  80 110 144 175 221 269 323
#
# _framework density 17.932030999999998
#
# number of rings (size 3 to 8) (size 9 to 14) (size 15 to 20)
#    0.000    2.250    1.250    3.000    0.000    3.000 
#    0.000    3.750    0.000    7.500    0.000    3.500 
#    0.000    0.000    0.000    0.000    0.000    0.000 
#
# Total GULP energy -178212.706715 kJ/mol
# GULP energy per Si atom -5569.147085 kJ/mol
# Density = 1.789122 g / cm^3
# Si number density = 17.932031 Si / 1000 Ang^3
#
#
#
# Elastic Constant Matrix: (Units=GPa)
#
#
# Indices 1 2 3 4 5 6 
#
# 1 82.4492 25.0262 34.1794 0.0000 15.4529 0.0001
# 2 25.0262 44.4368 13.0799 -0.0002 4.8656 0.0002
# 3 34.1794 13.0799 92.8121 -0.0009 19.4055 0.0004
# 4 0.0000 -0.0002 -0.0009 15.5444 0.0001 6.0488
# 5 15.4529 4.8656 19.4055 0.0001 28.1337 0.0000
# 6 0.0001 0.0002 0.0004 6.0488 0.0000 16.6690
#
#
#
# Elastic Compliance Matrix: (Units=1/GPa)
#
#
# Indices 1 2 3 4 5 6 
#
# 1 0.017226 -0.007911 -0.004133 0.000000 -0.005243 0.000000
# 2 -0.007911 0.027215 -0.000989 0.000000 0.000321 0.000000
# 3 -0.004133 -0.000989 0.013935 0.000001 -0.007171 -0.000001
# 4 0.000000 0.000000 0.000001 0.074909 -0.000001 -0.027183
# 5 -0.005243 0.000321 -0.007171 -0.000001 0.043315 0.000001
# 6 0.000000 0.000000 -0.000001 -0.027183 0.000001 0.069856
#
#
# Mechanical properties :
#
#
# Convention : Reuss Voigt Hill
#
# Bulk Modulus (GPa) = 30.94934 40.47435 35.71185
# Shear Modulus (GPa) = 17.64967 21.89691 19.77329
#
# Velocity S-wave (km/s) = 3.14069 3.49822 3.32427
# Velocity P-wave (km/s) = 5.51802 6.23993 5.89005
#
# Compressibility (1/GPa) = 0.03231086
#
# Stress axis : x y z
#
# Youngs Moduli (GPa) = 58.05284 36.74424 71.76147
#
# Poissons Ratio (x) = 0.29068 0.29656
# Poissons Ratio (y) = 0.45924 0.07098
# Poissons Ratio (z) = 0.23991 0.03635
#
# Static dielectric constant tensor:
#      x y z
#    x 1.648390 0.000000 0.006600 
#    y 0.000000 1.604910 0.000000 
#    z 0.006600 0.000000 1.626740 
# 
# From -- ./inp_files/379333.got.cif
#   From: 2010.05.17/outbox.cif.g08.bks.cpg/sg12_190_cif.got.tgz:379333.got - 2010.06.03 13:09:07.
