data_PCOD9185515
_publ_section_title
;
Structure prediction by ZEFSAII (Michael W. Deem and Ramdas Pophale) SiO2 
 PCOD9185515
Probable space group: C 2/M
;
_chemical_formula_sum "Si O2"
_cell_formula_units_Z 56
_cell_length_a 18.186040
_cell_length_b 13.349632
_cell_length_c 9.465361
_cell_angle_alpha 90.000000
_cell_angle_beta 92.057864
_cell_angle_gamma 90.000000
_cell_volume 2296.489367
_symmetry_space_group_name_H-M "C 2/M"
_symmetry_group_IT_number 12
_symmetry_cell_setting 'monoclinic'
loop_
_space_group_symop_operation_xyz
x,y,z
-x,y,-z
-x,-y,-z
x,-y,z
1/2+x,1/2+y,z
1/2-x,1/2+y,-z
1/2-x,1/2-y,-z
1/2+x,1/2-y,z
loop_
_atom_site_type_symbol
_atom_site_label
_atom_site_fract_x
_atom_site_fract_y
_atom_site_fract_z
Si Si1 0.187762 0.610607 0.026293
Si Si2 0.476067 0.118527 0.341377
Si Si3 0.758889 0.327041 0.664955
Si Si4 0.473229 0.277731 0.834599
Si Si5 0.400377 0.609296 0.283922
Si Si6 0.152946 0.161294 0.026470
Si Si7 0.195311 0.616886 0.632587
O O1 0.155058 0.500000 0.997844
O O2 0.210222 0.623443 0.191691
O O3 0.265690 0.619390 0.951170
O O4 0.151787 0.718384 0.991007
O O5 0.500000 0.152484 0.500000
O O6 0.527704 0.165614 0.223358
O O7 0.387596 0.134946 0.314700
O O8 0.486024 0.000000 0.338319
O O9 0.673241 0.358310 0.641177
O O10 0.805618 0.364515 0.536583
O O11 0.750605 0.206957 0.679513
O O12 0.528670 0.322128 0.722258
O O13 0.500000 0.279862 0.000000
O O14 0.399834 0.342940 0.842801
O O15 0.421533 0.500000 0.333650
O O16 0.377026 0.608814 0.116170
O O17 0.214253 0.500000 0.659684
#
# Coordination Sequence:
#
# PCOD9185515 Si02
#       7
#     8   8   8   8   8   8   8
#     4  10  20  36  56  81 114 148 190 240 294 349
#     4  10  22  39  59  87 120 155 194 235 292 354
#     4  10  19  34  57  82 109 148 196 239 285 346
#     4  10  21  37  59  88 117 151 195 241 292 343
#     4  10  19  36  59  83 112 149 195 241 289 347
#     4   9  20  34  53  83 113 143 188 236 287 343
#     4  10  20  35  56  83 113 149 193 242 290 340
#
# _framework density 24.385045999999999
#
# number of rings (size 3 to 8) (size 9 to 14) (size 15 to 20)
#    0.000    2.143    1.429    2.571    2.000    4.000 
#    0.000    9.286    0.000    0.429    0.000    0.000 
#    0.000    0.000    0.000    0.000    0.000    0.000 
#
# Total GULP energy -156284.704505 kJ/mol
# GULP energy per Si atom -5581.596589 kJ/mol
# Density = 2.432954 g / cm^3
# Si number density = 24.385046 Si / 1000 Ang^3
#
#
#
# Elastic Constant Matrix: (Units=GPa)
#
#
# Indices 1 2 3 4 5 6 
#
# 1 40.1809 -5.1290 -12.7753 0.0000 -18.5179 0.0000
# 2 -5.1290 129.3757 3.2266 0.0000 4.6690 0.0000
# 3 -12.7753 3.2266 78.2797 0.0000 -15.4139 0.0000
# 4 0.0000 0.0000 0.0000 -8.1885 0.0000 3.8575
# 5 -18.5179 4.6690 -15.4139 0.0000 29.0608 0.0000
# 6 0.0000 0.0000 0.0000 3.8575 0.0000 -0.3918
#
#
#
# Elastic Compliance Matrix: (Units=1/GPa)
#
#
# Indices 1 2 3 4 5 6 
#
# 1 0.047401 0.000117 0.015270 0.000000 0.038285 0.000000
# 2 0.000117 0.007803 -0.000597 0.000000 -0.001496 0.000000
# 3 0.015270 -0.000597 0.019235 0.000000 0.020028 0.000000
# 4 0.000000 0.000000 0.000000 0.033565 0.000000 0.330489
# 5 0.038285 -0.001496 0.020028 0.000000 0.069670 0.000000
# 6 0.000000 0.000000 0.000000 0.330489 0.000000 0.701552
#
#
# Mechanical properties :
#
#
# Convention : Reuss Voigt Hill
#
# Bulk Modulus (GPa) = 9.61371 24.27565 16.94468
# Shear Modulus (GPa) = 5.65406 21.59704 13.62555
#
# Velocity S-wave (km/s) = 1.52437 2.97925 2.36639
# Velocity P-wave (km/s) = 2.65505 4.67026 3.79872
#
# Compressibility (1/GPa) = 0.10401816
#
# Stress axis : x y z
#
# Youngs Moduli (GPa) = 21.09639 128.15691 51.98829
#
# Poissons Ratio (x) = -0.01496 -0.79385
# Poissons Ratio (y) = -0.00246 0.03105
# Poissons Ratio (z) = -0.32214 0.07653
#
# Static dielectric constant tensor:
#      x y z
#    x 2.026690 0.000000 0.029190 
#    y 0.000000 1.976450 0.000000 
#    z 0.029190 0.000000 1.928640 
# 
# From -- ./inp_files/164831.got.cif
#   From: 2010.05.17/outbox.cif.g08.bks.cpg/sg12_83_cif.got.tgz:164831.got - 2010.06.03 13:09:07.
