data_PCOD9185867
_publ_section_title
;
Structure prediction by ZEFSAII (Michael W. Deem and Ramdas Pophale) SiO2 
 PCOD9185867
Probable space group: C 2/M
;
_chemical_formula_sum "Si O2"
_cell_formula_units_Z 64
_cell_length_a 9.489375
_cell_length_b 29.586148
_cell_length_c 19.025178
_cell_angle_alpha 90.000000
_cell_angle_beta 140.376358
_cell_angle_gamma 90.000000
_cell_volume 3406.431784
_symmetry_space_group_name_H-M "C 2/M"
_symmetry_group_IT_number 12
_symmetry_cell_setting 'monoclinic'
loop_
_space_group_symop_operation_xyz
x,y,z
-x,y,-z
-x,-y,-z
x,-y,z
1/2+x,1/2+y,z
1/2-x,1/2+y,-z
1/2-x,1/2-y,-z
1/2+x,1/2-y,z
loop_
_atom_site_type_symbol
_atom_site_label
_atom_site_fract_x
_atom_site_fract_y
_atom_site_fract_z
Si Si1 0.633886 0.770267 0.616683
Si Si2 0.922762 0.339509 0.623424
Si Si3 0.885743 0.948750 0.715186
Si Si4 0.096272 0.452095 0.114995
Si Si5 0.190142 0.376231 0.927120
Si Si6 0.153815 0.143363 0.382490
Si Si7 0.303604 0.821402 0.731336
Si Si8 0.353855 0.608013 0.835932
O O1 0.500000 0.749083 0.500000
O O2 0.469380 0.789030 0.613272
O O3 0.750924 0.814194 0.626242
O O4 0.775656 0.731855 0.707868
O O5 0.784284 0.360296 0.506381
O O6 0.803842 0.342082 0.652551
O O7 0.164905 0.360877 0.729040
O O8 0.806348 0.904203 0.642125
O O9 0.869063 0.935383 0.791205
O O10 0.142335 0.949861 0.792031
O O11 0.796495 0.000000 0.668514
O O12 0.035171 0.500000 0.125768
O O13 0.986514 0.411139 0.111655
O O14 0.000000 0.451874 0.000000
O O15 0.274542 0.396624 0.885636
O O16 0.043944 0.332131 0.855829
O O17 0.398937 0.371671 0.059503
O O18 0.900164 0.156976 0.303464
#
# Coordination Sequence:
#
# PCOD9185867 Si02
#       8
#     8   8   8   8   8   8   8   8
#     4  10  20  35  59  87 116 148 194 241 284 341
#     4  10  21  37  58  81 117 153 189 236 286 340
#     4  11  22  37  60  87 115 151 195 241 289 343
#     4  10  19  34  58  85 111 145 193 244 285 333
#     4  10  21  36  57  84 116 153 187 238 290 340
#     4  11  21  37  61  87 116 150 193 241 291 337
#     4  11  21  35  57  89 115 149 191 240 291 342
#     4  10  21  38  56  79 117 155 190 233 284 345
#
# _framework density 18.787987000000001
#
# number of rings (size 3 to 8) (size 9 to 14) (size 15 to 20)
#    0.000    1.625    3.750    1.875    0.000    2.500 
#    0.000    3.125    0.000    3.750    0.000    0.000 
#    0.000    0.000    0.000    0.000    0.000    0.000 
#
# Total GULP energy -178238.209944 kJ/mol
# GULP energy per Si atom -5569.944061 kJ/mol
# Density = 1.874522 g / cm^3
# Si number density = 18.787987 Si / 1000 Ang^3
#
#
#
# Elastic Constant Matrix: (Units=GPa)
#
#
# Indices 1 2 3 4 5 6 
#
# 1 66.5414 14.5468 8.3047 -0.0001 6.2816 0.0000
# 2 14.5468 98.1471 30.3733 0.0001 1.3194 0.0000
# 3 8.3047 30.3733 58.8485 -0.0004 4.0462 -0.0001
# 4 -0.0001 0.0001 -0.0004 18.4743 -0.0001 -0.2633
# 5 6.2816 1.3194 4.0462 -0.0001 19.5835 0.0000
# 6 0.0000 0.0000 -0.0001 -0.2633 0.0000 18.0198
#
#
#
# Elastic Compliance Matrix: (Units=1/GPa)
#
#
# Indices 1 2 3 4 5 6 
#
# 1 0.016040 -0.002041 -0.000879 0.000000 -0.004826 0.000000
# 2 -0.002041 0.012390 -0.006182 0.000000 0.001097 0.000000
# 3 -0.000879 -0.006182 0.020551 0.000000 -0.003548 0.000000
# 4 0.000000 0.000000 0.000000 0.054141 0.000000 0.000791
# 5 -0.004826 0.001097 -0.003548 0.000000 0.053271 0.000000
# 6 0.000000 0.000000 0.000000 0.000791 0.000000 0.055506
#
#
# Mechanical properties :
#
#
# Convention : Reuss Voigt Hill
#
# Bulk Modulus (GPa) = 32.49039 36.66516 34.57777
# Shear Modulus (GPa) = 20.80217 22.56965 21.68591
#
# Velocity S-wave (km/s) = 3.33108 3.46971 3.40110
# Velocity P-wave (km/s) = 5.66794 5.96736 5.81958
#
# Compressibility (1/GPa) = 0.03077833
#
# Stress axis : x y z
#
# Youngs Moduli (GPa) = 62.34590 80.71263 48.65835
#
# Poissons Ratio (x) = 0.16470 0.04275
# Poissons Ratio (y) = 0.12722 0.30081
# Poissons Ratio (z) = 0.05477 0.49897
#
# Static dielectric constant tensor:
#      x y z
#    x 1.683070 0.000000 0.015470 
#    y 0.000000 1.689670 0.000000 
#    z 0.015470 0.000000 1.664240 
# 
# From -- ./inp_files/260403.got.cif
#   From: 2010.05.17/outbox.cif.g08.bks.cpg/sg12_131_cif.got.tgz:260403.got - 2010.06.03 13:09:07.
