data_PCOD9185685
_publ_section_title
;
Structure prediction by ZEFSAII (Michael W. Deem and Ramdas Pophale) SiO2 
 PCOD9185685
Probable space group: C 2/M
;
_chemical_formula_sum "Si O2"
_cell_formula_units_Z 50
_cell_length_a 14.961144
_cell_length_b 7.569585
_cell_length_c 23.869659
_cell_angle_alpha 90.000000
_cell_angle_beta 46.364382
_cell_angle_gamma 90.000000
_cell_volume 1956.444243
_symmetry_space_group_name_H-M "C 2/M"
_symmetry_group_IT_number 12
_symmetry_cell_setting 'monoclinic'
loop_
_space_group_symop_operation_xyz
x,y,z
-x,y,-z
-x,-y,-z
x,-y,z
1/2+x,1/2+y,z
1/2-x,1/2+y,-z
1/2-x,1/2-y,-z
1/2+x,1/2-y,z
loop_
_atom_site_type_symbol
_atom_site_label
_atom_site_fract_x
_atom_site_fract_y
_atom_site_fract_z
Si Si1 0.438268 0.283476 0.436664
Si Si2 0.895145 0.202369 0.109480
Si Si3 0.674180 0.697059 0.279694
Si Si4 0.500000 0.000000 0.000000
Si Si5 0.377842 0.290914 0.915344
Si Si6 0.011113 0.293567 0.249161
Si Si7 0.272198 0.795030 0.398305
O O1 0.439002 0.500000 0.435724
O O2 0.581299 0.229348 0.367140
O O3 0.358339 0.221503 0.417184
O O4 0.359154 0.221227 0.524412
O O5 0.788639 0.206137 0.202334
O O6 0.014414 0.274450 0.090736
O O7 0.905168 0.000000 0.085810
O O8 0.894146 0.343783 0.060369
O O9 0.715181 0.500000 0.277770
O O10 0.581798 0.689015 0.266440
O O11 0.392527 0.500000 0.904778
O O12 0.409321 0.216558 0.841135
O O13 0.250000 0.250000 0.000000
O O14 0.007609 0.500000 0.267251
O O15 0.867718 0.230149 0.309232
O O16 0.247494 0.000000 0.396719
#
# Coordination Sequence:
#
# PCOD9185685 Si02
#       7
#     8   8   8   2   8   8   8
#     4   8  14  25  46  75 111 146 188 234 280 337
#     4  11  26  44  63  91 119 151 193 242 294 347
#     4  10  19  34  57  86 117 157 197 240 292 344
#     4  12  26  44  72  86 116 154 192 244 290 358
#     4  11  26  43  61  82 112 148 189 239 291 348
#     4  10  20  33  56  84 117 154 194 242 291 347
#     4   8  14  26  44  75 111 147 186 233 285 333
#
# _framework density 25.556567999999999
#
# number of rings (size 3 to 8) (size 9 to 14) (size 15 to 20)
#    0.000    2.240    0.800    1.680    4.480    1.280 
#    0.000    0.000    0.000    0.960    0.000    6.720 
#    0.000    0.000    0.000    0.000    0.000    0.000 
#
# Total GULP energy -139362.201160 kJ/mol
# GULP energy per Si atom -5574.488046 kJ/mol
# Density = 2.549840 g / cm^3
# Si number density = 25.556568 Si / 1000 Ang^3
#
#
#
# Elastic Constant Matrix: (Units=GPa)
#
#
# Indices 1 2 3 4 5 6 
#
# 1 29.2103 3.6760 41.9283 0.0000 -4.8591 0.0004
# 2 3.6760 80.4755 18.8210 0.0000 7.7106 0.0008
# 3 41.9283 18.8210 267.2964 0.0000 -33.0029 0.0000
# 4 0.0000 0.0000 0.0000 6.1847 0.0000 -5.6487
# 5 -4.8591 7.7106 -33.0029 0.0000 45.4904 0.0000
# 6 0.0004 0.0008 0.0000 -5.6487 0.0000 -19.9398
#
#
#
# Elastic Compliance Matrix: (Units=1/GPa)
#
#
# Indices 1 2 3 4 5 6 
#
# 1 0.044198 -0.000373 -0.006937 0.000001 -0.000249 0.000001
# 2 -0.000373 0.013038 -0.001249 0.000000 -0.003156 0.000000
# 3 -0.006937 -0.001249 0.005329 0.000000 0.003337 0.000000
# 4 0.000001 0.000000 0.000000 0.128453 0.000000 -0.036389
# 5 -0.000249 -0.003156 0.003337 0.000000 0.024912 0.000000
# 6 0.000001 0.000000 0.000000 -0.036389 0.000000 -0.039842
#
#
# Mechanical properties :
#
#
# Convention : Reuss Voigt Hill
#
# Bulk Modulus (GPa) = 22.00389 56.20362 39.10376
# Shear Modulus (GPa) = 23.99751 27.18419 25.59085
#
# Velocity S-wave (km/s) = 3.06763 3.26496 3.16783
# Velocity P-wave (km/s) = 4.60171 6.02104 5.35857
#
# Compressibility (1/GPa) = 0.04544651
#
# Stress axis : x y z
#
# Youngs Moduli (GPa) = 22.62554 76.70057 187.63970
#
# Poissons Ratio (x) = 0.02858 1.30173
# Poissons Ratio (y) = 0.00843 0.23441
# Poissons Ratio (z) = 0.15696 0.09582
#
# Static dielectric constant tensor:
#      x y z
#    x 2.079810 0.000000 0.075180 
#    y 0.000000 2.187010 0.000000 
#    z 0.075180 0.000000 2.180280 
# 
# From -- ./inp_files/362671.got.cif
#   From: 2010.05.17/outbox.cif.g08.bks.cpg/sg12_182_cif.got.tgz:362671.got - 2010.06.03 13:09:07.
