data_PCOD9185277
_publ_section_title
;
Structure prediction by ZEFSAII (Michael W. Deem and Ramdas Pophale) SiO2 
 PCOD9185277
Probable space group: C 2/M
;
_chemical_formula_sum "Si O2"
_cell_formula_units_Z 58
_cell_length_a 12.325040
_cell_length_b 11.554091
_cell_length_c 19.923677
_cell_angle_alpha 90.000000
_cell_angle_beta 84.619383
_cell_angle_gamma 90.000000
_cell_volume 2824.722392
_symmetry_space_group_name_H-M "C 2/M"
_symmetry_group_IT_number 12
_symmetry_cell_setting 'monoclinic'
loop_
_space_group_symop_operation_xyz
x,y,z
-x,y,-z
-x,-y,-z
x,-y,z
1/2+x,1/2+y,z
1/2-x,1/2+y,-z
1/2-x,1/2-y,-z
1/2+x,1/2-y,z
loop_
_atom_site_type_symbol
_atom_site_label
_atom_site_fract_x
_atom_site_fract_y
_atom_site_fract_z
Si Si1 0.593059 0.869628 0.438272
Si Si2 0.753947 0.867705 0.174516
Si Si3 0.937669 0.373637 0.318718
Si Si4 0.000000 0.500000 0.000000
Si Si5 0.092651 0.800718 0.253028
Si Si6 0.692813 0.367972 0.385885
Si Si7 0.852651 0.694615 0.958324
Si Si8 0.497292 0.370692 0.123253
O O1 0.500000 0.858823 0.500000
O O2 0.527338 0.875914 0.372405
O O3 0.660405 0.748336 0.429815
O O4 0.645375 0.000000 0.444603
O O5 0.692143 0.786157 0.230552
O O6 0.684574 0.862288 0.110086
O O7 0.875736 0.829510 0.148631
O O8 0.758850 0.000000 0.199248
O O9 0.936614 0.500000 0.284822
O O10 0.819518 0.355976 0.357944
O O11 0.982433 0.273466 0.269488
O O12 0.093622 0.599943 0.998434
O O13 0.123523 0.863056 0.320470
O O14 0.068671 0.872288 0.187608
O O15 0.678837 0.500000 0.415455
O O16 0.940285 0.789992 0.931553
O O17 0.750000 0.750000 0.000000
O O18 0.485809 0.500000 0.097250
#
# Coordination Sequence:
#
# PCOD9185277 Si02
#       8
#     8   8   8   2   8   8   8   8
#     4   9  19  36  55  77 109 150 196 240 287 348
#     4  10  20  37  57  83 114 145 188 236 283 344
#     4   9  18  33  53  79 113 152 189 233 290 344
#     4  12  24  44  66  90 120 152 208 246 290 378
#     4  10  19  34  56  82 113 150 190 229 286 353
#     4  10  20  34  54  81 115 147 189 239 290 348
#     4  11  24  41  63  88 117 155 195 245 299 354
#     4  10  22  38  59  85 118 151 186 237 298 354
#
# _framework density 20.532992
#
# number of rings (size 3 to 8) (size 9 to 14) (size 15 to 20)
#    0.000    2.069    0.690    2.483    0.966    1.379 
#    0.000    5.172    7.586    0.000    0.000    0.000 
#    0.000    0.000    0.000    0.000    0.000    0.000 
#
# Total GULP energy -161457.858573 kJ/mol
# GULP energy per Si atom -5567.512365 kJ/mol
# Density = 2.048626 g / cm^3
# Si number density = 20.532992 Si / 1000 Ang^3
#
#
#
# Elastic Constant Matrix: (Units=GPa)
#
#
# Indices 1 2 3 4 5 6 
#
# 1 73.4637 44.1499 -1.9652 0.0000 -25.9965 0.0000
# 2 44.1499 155.4136 43.1591 0.0000 -36.7697 0.0000
# 3 -1.9652 43.1591 38.0479 0.0000 -14.8720 0.0000
# 4 0.0000 0.0000 0.0000 -335.6280 0.0000 -69.4126
# 5 -25.9965 -36.7697 -14.8720 0.0000 28.1560 0.0000
# 6 0.0000 0.0000 0.0000 -69.4126 0.0000 -3.8548
#
#
#
# Elastic Compliance Matrix: (Units=1/GPa)
#
#
# Indices 1 2 3 4 5 6 
#
# 1 0.028110 -0.007141 0.020228 0.000000 0.027313 0.000000
# 2 -0.007141 0.013084 -0.013999 0.000000 0.003099 0.000000
# 3 0.020228 -0.013999 0.054643 0.000000 0.029257 0.000000
# 4 0.000000 0.000000 0.000000 0.001094 0.000000 -0.019695
# 5 0.027313 0.003099 0.029257 0.000000 0.080236 0.000000
# 6 0.000000 0.000000 0.000000 -0.019695 0.000000 0.095232
#
#
# Mechanical properties :
#
#
# Convention : Reuss Voigt Hill
#
# Bulk Modulus (GPa) = 10.63680 48.62362 29.63021
# Shear Modulus (GPa) = 16.36346 -50.15993 -16.89824
#
# Velocity S-wave (km/s) = 2.82607 -4.94793 -2.87187
# Velocity P-wave (km/s) = 3.98001 2.98505 1.86145
#
# Compressibility (1/GPa) = 0.09401322
#
# Stress axis : x y z
#
# Youngs Moduli (GPa) = 35.57460 76.43036 18.30064
#
# Poissons Ratio (x) = 0.54578 -0.37019
# Poissons Ratio (y) = 0.25403 0.25619
# Poissons Ratio (z) = -0.71960 1.06994
#
# Static dielectric constant tensor:
#      x y z
#    x 1.694620 0.000000 0.021920 
#    y 0.000000 1.749190 0.000000 
#    z 0.021920 0.000000 1.726800 
# 
# From -- ./inp_files/335146.got.cif
#   From: 2010.05.17/outbox.cif.g08.bks.cpg/sg12_168_cif.got.tgz:335146.got - 2010.06.03 13:09:07.
