data_PCOD9185880
_publ_section_title
;
Structure prediction by ZEFSAII (Michael W. Deem and Ramdas Pophale) SiO2 
 PCOD9185880
Probable space group: C 2/M
;
_chemical_formula_sum "Si O2"
_cell_formula_units_Z 56
_cell_length_a 17.897276
_cell_length_b 14.970310
_cell_length_c 18.742833
_cell_angle_alpha 90.000000
_cell_angle_beta 27.873053
_cell_angle_gamma 90.000000
_cell_volume 2347.727529
_symmetry_space_group_name_H-M "C 2/M"
_symmetry_group_IT_number 12
_symmetry_cell_setting 'monoclinic'
loop_
_space_group_symop_operation_xyz
x,y,z
-x,y,-z
-x,-y,-z
x,-y,z
1/2+x,1/2+y,z
1/2-x,1/2+y,-z
1/2-x,1/2-y,-z
1/2+x,1/2-y,z
loop_
_atom_site_type_symbol
_atom_site_label
_atom_site_fract_x
_atom_site_fract_y
_atom_site_fract_z
Si Si1 0.774027 0.760101 0.268399
Si Si2 0.077763 0.604955 0.775534
Si Si3 0.915842 0.400782 0.660625
Si Si4 0.791887 0.104645 0.363593
Si Si5 0.688505 0.811763 0.913395
Si Si6 0.288634 0.144666 0.918062
Si Si7 0.956877 0.899351 0.748164
O O1 0.783465 0.673938 0.314407
O O2 0.637133 0.822254 0.347560
O O3 0.861368 0.835669 0.241316
O O4 0.845201 0.725880 0.134958
O O5 0.121239 0.500000 0.730153
O O6 0.968281 0.637847 0.800704
O O7 0.941655 0.616745 0.951926
O O8 0.893043 0.500000 0.648080
O O9 0.812998 0.399151 0.819922
O O10 0.101303 0.387596 0.524553
O O11 0.876263 0.137443 0.364460
O O12 0.831143 0.000000 0.322079
O O13 0.713095 0.738969 0.955956
O O14 0.867173 0.850928 0.760658
O O15 0.165938 0.103863 0.079746
O O16 0.982283 0.000000 0.704813
#
# Coordination Sequence:
#
# PCOD9185880 Si02
#       7
#     8   8   8   8   8   8   8
#     4  11  22  35  54  84 117 156 200 240 283 347
#     4  11  22  37  59  86 123 166 203 243 294 355
#     4  10  21  39  63  89 118 154 196 246 308 369
#     4  10  21  39  63  89 118 154 196 246 308 369
#     4  10  20  34  55  84 119 154 192 242 295 351
#     4  10  19  36  61  89 118 149 194 251 303 352
#     4  10  19  34  58  85 114 148 192 246 296 348
#
# _framework density 23.852853
#
# number of rings (size 3 to 8) (size 9 to 14) (size 15 to 20)
#    0.000    1.714    0.000    7.286    0.000    4.000 
#    0.000    7.857    0.000   10.286    0.000    0.000 
#    0.000    0.000    0.000    0.000    0.000    0.000 
#
# Total GULP energy -155881.540820 kJ/mol
# GULP energy per Si atom -5567.197886 kJ/mol
# Density = 2.379856 g / cm^3
# Si number density = 23.852853 Si / 1000 Ang^3
#
#
#
# Elastic Constant Matrix: (Units=GPa)
#
#
# Indices 1 2 3 4 5 6 
#
# 1 57.0164 46.7134 25.1347 0.0049 -19.0745 -0.0010
# 2 46.7134 122.3037 25.1924 0.0069 -20.3711 -0.0018
# 3 25.1347 25.1924 32.4822 0.0168 -22.8353 -0.0036
# 4 0.0049 0.0069 0.0168 52.8468 -0.0023 -18.7619
# 5 -19.0745 -20.3711 -22.8353 -0.0023 41.6669 0.0004
# 6 -0.0010 -0.0018 -0.0036 -18.7619 0.0004 22.7524
#
#
#
# Elastic Compliance Matrix: (Units=1/GPa)
#
#
# Indices 1 2 3 4 5 6 
#
# 1 0.032962 -0.008707 -0.018118 0.000004 0.000903 0.000002
# 2 -0.008707 0.012057 -0.002069 0.000000 0.000775 0.000000
# 3 -0.018118 -0.002069 0.064856 -0.000020 0.026238 -0.000008
# 4 0.000004 0.000000 -0.000020 0.026755 -0.000008 0.022063
# 5 0.000903 0.000775 0.026238 -0.000008 0.039172 -0.000003
# 6 0.000002 0.000000 -0.000008 0.022063 -0.000003 0.062145
#
#
# Mechanical properties :
#
#
# Convention : Reuss Voigt Hill
#
# Bulk Modulus (GPa) = 19.19856 45.09815 32.14835
# Shear Modulus (GPa) = 15.96947 31.10399 23.53673
#
# Velocity S-wave (km/s) = 2.59028 3.61500 3.14466
# Velocity P-wave (km/s) = 4.12459 6.03094 5.16645
#
# Compressibility (1/GPa) = 0.05208725
#
# Stress axis : x y z
#
# Youngs Moduli (GPa) = 30.33824 82.93734 15.41878
#
# Poissons Ratio (x) = 0.72216 0.27935
# Poissons Ratio (y) = 0.26416 0.03190
# Poissons Ratio (z) = 0.54966 0.17158
#
# Static dielectric constant tensor:
#      x y z
#    x 1.996790 0.000000 -0.033750 
#    y 0.000000 1.951260 0.000000 
#    z -0.033750 0.000000 1.965420 
# 
# From -- ./inp_files/316724.got.cif
#   From: 2010.05.17/outbox.cif.g08.bks.cpg/sg12_159_cif.got.tgz:316724.got - 2010.06.03 13:09:07.
