data_PCOD9185729
_publ_section_title
;
Structure prediction by ZEFSAII (Michael W. Deem and Ramdas Pophale) SiO2 
 PCOD9185729
Probable space group: C 2/M
;
_chemical_formula_sum "Si O2"
_cell_formula_units_Z 64
_cell_length_a 23.874523
_cell_length_b 25.538320
_cell_length_c 5.184102
_cell_angle_alpha 90.000000
_cell_angle_beta 100.577780
_cell_angle_gamma 90.000000
_cell_volume 3107.112696
_symmetry_space_group_name_H-M "C 2/M"
_symmetry_group_IT_number 12
_symmetry_cell_setting 'monoclinic'
loop_
_space_group_symop_operation_xyz
x,y,z
-x,y,-z
-x,-y,-z
x,-y,z
1/2+x,1/2+y,z
1/2-x,1/2+y,-z
1/2-x,1/2-y,-z
1/2+x,1/2-y,z
loop_
_atom_site_type_symbol
_atom_site_label
_atom_site_fract_x
_atom_site_fract_y
_atom_site_fract_z
Si Si1 0.432116 0.356636 0.470784
Si Si2 0.662218 0.198182 0.923800
Si Si3 0.731268 0.364976 0.987816
Si Si4 0.656618 0.440263 0.571169
Si Si5 0.626901 0.687482 0.087686
Si Si6 0.359636 0.863570 0.617335
Si Si7 0.038047 0.558962 0.278338
Si Si8 0.229812 0.441465 0.615962
O O1 0.500000 0.358040 0.500000
O O2 0.403977 0.412793 0.526300
O O3 0.407679 0.317528 0.673514
O O4 0.409308 0.339859 0.169936
O O5 0.650853 0.178770 0.621119
O O6 0.728257 0.183760 0.048266
O O7 0.643979 0.256389 0.983543
O O8 0.628536 0.163119 0.100637
O O9 0.689406 0.396478 0.766847
O O10 0.687825 0.341881 0.166016
O O11 0.773482 0.410485 0.120979
O O12 0.651228 0.500000 0.672471
O O13 0.702739 0.445525 0.381898
O O14 0.411484 0.902004 0.609682
O O15 0.304267 0.901208 0.591164
O O16 0.059593 0.500000 0.236636
O O17 0.000000 0.556155 0.500000
O O18 0.000000 0.575431 0.000000
O O19 0.206542 0.500000 0.592226
#
# Coordination Sequence:
#
# PCOD9185729 Si02
#       8
#     8   8   8   8   8   8   8   8
#     4  11  24  44  66  90 123 166 215 264 308 368
#     4  11  23  38  61  91 123 157 203 249 311 370
#     4  10  20  37  59  91 126 163 195 253 302 381
#     4  10  20  37  61  93 129 164 201 248 312 377
#     4  11  23  42  65  88 119 160 209 258 312 361
#     4  11  22  39  58  91 126 157 201 252 304 371
#     4  10  21  39  61  84 115 160 206 247 298 359
#     4  10  19  34  57  89 127 163 196 243 309 374
#
# _framework density 20.597901
#
# number of rings (size 3 to 8) (size 9 to 14) (size 15 to 20)
#    0.000    1.500    2.500    3.000    0.000    0.250 
#    0.000   11.250    0.000    2.250    0.000    0.000 
#    0.000    0.000    0.000    0.000    0.000    0.000 
#
# Total GULP energy -178154.459309 kJ/mol
# GULP energy per Si atom -5567.326853 kJ/mol
# Density = 2.055102 g / cm^3
# Si number density = 20.597901 Si / 1000 Ang^3
#
#
#
# Elastic Constant Matrix: (Units=GPa)
#
#
# Indices 1 2 3 4 5 6 
#
# 1 93.4114 38.3721 7.7772 0.0000 -2.1019 0.0000
# 2 38.3721 83.4064 -0.1722 0.0000 9.1164 0.0000
# 3 7.7772 -0.1722 65.1795 0.0000 -9.9637 0.0000
# 4 0.0000 0.0000 0.0000 9.2204 0.0000 -2.9660
# 5 -2.1019 9.1164 -9.9637 0.0000 28.2599 0.0000
# 6 0.0000 0.0000 0.0000 -2.9660 0.0000 24.3968
#
#
#
# Elastic Compliance Matrix: (Units=1/GPa)
#
#
# Indices 1 2 3 4 5 6 
#
# 1 0.013550 -0.006530 -0.001224 0.000000 0.002683 0.000000
# 2 -0.006530 0.015597 -0.000024 0.000000 -0.005526 0.000000
# 3 -0.001224 -0.000024 0.016357 0.000000 0.005684 0.000000
# 4 0.000000 0.000000 0.000000 0.112869 0.000000 0.013722
# 5 0.002683 -0.005526 0.005684 0.000000 0.039372 0.000000
# 6 0.000000 0.000000 0.000000 0.013722 0.000000 0.042657
#
#
# Mechanical properties :
#
#
# Convention : Reuss Voigt Hill
#
# Bulk Modulus (GPa) = 33.39048 37.10571 35.24809
# Shear Modulus (GPa) = 18.80114 25.44342 22.12228
#
# Velocity S-wave (km/s) = 3.02449 3.51842 3.28076
# Velocity P-wave (km/s) = 5.33315 5.87870 5.61256
#
# Compressibility (1/GPa) = 0.02994866
#
# Stress axis : x y z
#
# Youngs Moduli (GPa) = 73.80167 64.11326 61.13555
#
# Poissons Ratio (x) = 0.41863 0.07482
# Poissons Ratio (y) = 0.48189 0.00149
# Poissons Ratio (z) = 0.09033 0.00157
#
# Static dielectric constant tensor:
#      x y z
#    x 1.744680 0.000000 -0.012880 
#    y 0.000000 1.805110 0.000000 
#    z -0.012880 0.000000 1.777640 
# 
# From -- ./inp_files/26213.got.cif
#   From: 2010.05.17/outbox.cif.g08.bks.cpg/sg12_14_cif.got.tgz:26213.got - 2010.06.03 13:09:07.
