data_PCOD9185099
_publ_section_title
;
Structure prediction by ZEFSAII (Michael W. Deem and Ramdas Pophale) SiO2 
 PCOD9185099
Probable space group: C 2/M
;
_chemical_formula_sum "Si O2"
_cell_formula_units_Z 44
_cell_length_a 11.567816
_cell_length_b 19.784142
_cell_length_c 9.680271
_cell_angle_alpha 90.000000
_cell_angle_beta 57.862116
_cell_angle_gamma 90.000000
_cell_volume 1875.952180
_symmetry_space_group_name_H-M "C 2/M"
_symmetry_group_IT_number 12
_symmetry_cell_setting 'monoclinic'
loop_
_space_group_symop_operation_xyz
x,y,z
-x,y,-z
-x,-y,-z
x,-y,z
1/2+x,1/2+y,z
1/2-x,1/2+y,-z
1/2-x,1/2-y,-z
1/2+x,1/2-y,z
loop_
_atom_site_type_symbol
_atom_site_label
_atom_site_fract_x
_atom_site_fract_y
_atom_site_fract_z
Si Si1 0.859559 0.000000 0.712616
Si Si2 0.926150 0.365273 0.753257
Si Si3 0.789490 0.636304 0.578447
Si Si4 0.228959 0.500000 0.079082
Si Si5 0.342595 0.346628 0.606223
Si Si6 0.860404 0.277911 0.042019
Si Si7 0.125414 0.000000 0.746182
O O1 0.846827 0.928857 0.636911
O O2 0.995355 0.000000 0.725266
O O3 0.748150 0.000000 0.903726
O O4 0.827721 0.330236 0.700282
O O5 0.854990 0.435389 0.825833
O O6 0.069043 0.376822 0.589332
O O7 0.937906 0.330542 0.892091
O O8 0.703690 0.673527 0.518048
O O9 0.709003 0.567287 0.656047
O O10 0.363497 0.500000 0.091589
O O11 0.500000 0.324356 0.500000
O O12 0.236143 0.313799 0.782118
O O13 0.750000 0.250000 0.000000
O O14 0.000000 0.236264 0.000000
#
# Coordination Sequence:
#
# PCOD9185099 Si02
#       7
#     4   8   8   4   8   8   4
#     4  12  21  35  63 101 149 184 221 269 352 423
#     4  10  21  42  68  98 135 179 225 282 348 413
#     4  10  20  37  66  96 138 177 224 274 339 413
#     4  10  20  34  61 102 137 182 225 277 339 426
#     4  12  24  43  69 107 143 183 226 285 349 421
#     4  12  28  53  74 100 136 181 242 299 353 413
#     4  10  19  34  55  98 152 185 216 266 344 420
#
# _framework density 23.454754000000001
#
# number of rings (size 3 to 8) (size 9 to 14) (size 15 to 20)
#    0.000    1.091    5.455    1.636    0.000    3.636 
#    3.273    3.636    0.000    0.000    0.000    0.000 
#    0.000    0.000    0.000    0.000    0.000    0.000 
#
# Total GULP energy -122591.536586 kJ/mol
# GULP energy per Si atom -5572.342572 kJ/mol
# Density = 2.340137 g / cm^3
# Si number density = 23.454754 Si / 1000 Ang^3
#
#
#
# Elastic Constant Matrix: (Units=GPa)
#
#
# Indices 1 2 3 4 5 6 
#
# 1 116.3937 -9.4550 -5.6006 0.0000 -9.5767 0.0000
# 2 -9.4550 41.6654 -14.2383 0.0000 -5.4642 0.0000
# 3 -5.6006 -14.2383 81.4448 0.0000 9.3328 0.0000
# 4 0.0000 0.0000 0.0000 20.2454 0.0000 8.3077
# 5 -9.5767 -5.4642 9.3328 0.0000 42.5150 0.0000
# 6 0.0000 0.0000 0.0000 8.3077 0.0000 22.1613
#
#
#
# Elastic Compliance Matrix: (Units=1/GPa)
#
#
# Indices 1 2 3 4 5 6 
#
# 1 0.009024 0.002617 0.000827 0.000000 0.002187 0.000000
# 2 0.002617 0.026518 0.004470 0.000000 0.003017 0.000000
# 3 0.000827 0.004470 0.013366 0.000000 -0.002173 0.000000
# 4 0.000000 0.000000 0.000000 0.058374 0.000000 -0.021883
# 5 0.002187 0.003017 -0.002173 0.000000 0.024879 0.000000
# 6 0.000000 0.000000 0.000000 -0.021883 0.000000 0.053327
#
#
# Mechanical properties :
#
#
# Convention : Reuss Voigt Hill
#
# Bulk Modulus (GPa) = 15.44693 20.10178 17.77436
# Shear Modulus (GPa) = 26.14577 34.90421 30.52499
#
# Velocity S-wave (km/s) = 3.34238 3.86184 3.61146
# Velocity P-wave (km/s) = 4.63632 5.33612 4.99848
#
# Compressibility (1/GPa) = 0.06473778
#
# Stress axis : x y z
#
# Youngs Moduli (GPa) = 110.81623 37.71032 74.81863
#
# Poissons Ratio (x) = -0.09870 -0.06191
# Poissons Ratio (y) = -0.29005 -0.33446
# Poissons Ratio (z) = -0.09170 -0.16857
#
# Static dielectric constant tensor:
#      x y z
#    x 0.925560 0.000000 0.496550 
#    y 0.000000 1.816110 0.000000 
#    z 0.496550 0.000000 1.719130 
# 
# From -- ./inp_files/51231.got.cif
#   From: 2010.05.17/outbox.cif.g08.bks.cpg/sg12_26_cif.got.tgz:51231.got - 2010.06.03 13:09:07.
