data_PCOD9185370
_publ_section_title
;
Structure prediction by ZEFSAII (Michael W. Deem and Ramdas Pophale) SiO2 
 PCOD9185370
Probable space group: C 2/M
;
_chemical_formula_sum "Si O2"
_cell_formula_units_Z 48
_cell_length_a 18.566198
_cell_length_b 13.681674
_cell_length_c 34.749729
_cell_angle_alpha 90.000000
_cell_angle_beta 163.851843
_cell_angle_gamma 90.000000
_cell_volume 2454.986564
_symmetry_space_group_name_H-M "C 2/M"
_symmetry_group_IT_number 12
_symmetry_cell_setting 'monoclinic'
loop_
_space_group_symop_operation_xyz
x,y,z
-x,y,-z
-x,-y,-z
x,-y,z
1/2+x,1/2+y,z
1/2-x,1/2+y,-z
1/2-x,1/2-y,-z
1/2+x,1/2-y,z
loop_
_atom_site_type_symbol
_atom_site_label
_atom_site_fract_x
_atom_site_fract_y
_atom_site_fract_z
Si Si1 0.714336 0.763849 0.865062
Si Si2 0.771927 0.688689 0.357361
Si Si3 0.029945 0.383393 0.331250
Si Si4 0.628297 0.387123 0.626232
Si Si5 0.693353 0.382780 0.231940
Si Si6 0.186359 0.384572 0.929724
O O1 0.510816 0.677820 0.769613
O O2 0.591627 0.827549 0.767444
O O3 0.735251 0.827122 0.915110
O O4 0.000000 0.731807 0.000000
O O5 0.776933 0.655159 0.316149
O O6 0.000000 0.645797 0.500000
O O7 0.814424 0.806160 0.376352
O O8 0.989355 0.500000 0.305220
O O9 0.881075 0.351940 0.293509
O O10 0.339938 0.368078 0.493637
O O11 0.635073 0.500000 0.616010
O O12 0.881314 0.375106 0.783512
O O13 0.702745 0.500000 0.238340
O O14 0.398971 0.353858 0.070044
O O15 0.230462 0.500000 0.944857
#
# Coordination Sequence:
#
# PCOD9185370 Si02
#       6
#     8   8   8   8   8   8
#     4  11  20  33  54  85 115 143 180 226 282 343
#     4  11  23  39  56  81 112 154 191 226 278 329
#     4  10  19  34  56  86 116 146 180 227 279 332
#     4   9  19  34  55  84 116 145 176 218 279 347
#     4  10  22  39  58  81 111 148 193 235 272 320
#     4   9  18  32  53  82 114 146 178 221 278 336
#
# _framework density 19.552042
#
# number of rings (size 3 to 8) (size 9 to 14) (size 15 to 20)
#    0.000    2.000    3.333    0.500    0.000    5.333 
#    0.000    0.000    0.000    0.500    0.000    0.000 
#    0.000    0.000    0.000    0.000    0.000    0.000 
#
# Total GULP energy -133826.658296 kJ/mol
# GULP energy per Si atom -5576.110762 kJ/mol
# Density = 1.950754 g / cm^3
# Si number density = 19.552042 Si / 1000 Ang^3
#
#
#
# Elastic Constant Matrix: (Units=GPa)
#
#
# Indices 1 2 3 4 5 6 
#
# 1 109.9590 10.0696 66.6790 0.0029 -16.6021 0.0104
# 2 10.0696 13.1951 11.0224 -0.0153 0.1209 0.0046
# 3 66.6790 11.0224 143.9741 -0.0315 -3.9167 0.0086
# 4 0.0029 -0.0153 -0.0315 7.4792 0.0625 5.6519
# 5 -16.6021 0.1209 -3.9167 0.0625 38.5520 -0.0117
# 6 0.0104 0.0046 0.0086 5.6519 -0.0117 12.0049
#
#
#
# Elastic Compliance Matrix: (Units=1/GPa)
#
#
# Indices 1 2 3 4 5 6 
#
# 1 0.014033 -0.005827 -0.005904 -0.000136 0.005462 0.000064
# 2 -0.005827 0.083414 -0.003773 0.000316 -0.003155 -0.000176
# 3 -0.005904 -0.003773 0.009928 0.000079 -0.001522 -0.000039
# 4 -0.000136 0.000316 0.000079 0.207548 -0.000418 -0.097713
# 5 0.005462 -0.003155 -0.001522 -0.000418 0.028147 0.000222
# 6 0.000064 -0.000176 -0.000039 -0.097713 0.000222 0.129302
#
#
# Mechanical properties :
#
#
# Convention : Reuss Voigt Hill
#
# Bulk Modulus (GPa) = 13.09497 49.18555 31.14026
# Shear Modulus (GPa) = 9.45473 23.56438 16.50956
#
# Velocity S-wave (km/s) = 2.20140 3.47538 2.90899
# Velocity P-wave (km/s) = 3.62955 6.42769 5.21962
#
# Compressibility (1/GPa) = 0.07636518
#
# Stress axis : x y z
#
# Youngs Moduli (GPa) = 71.26038 11.98846 100.72814
#
# Poissons Ratio (x) = 0.06986 0.59475
# Poissons Ratio (y) = 0.41524 0.38005
# Poissons Ratio (z) = 0.42076 0.04523
#
# Static dielectric constant tensor:
#      x y z
#    x 1.658220 0.000000 0.018080 
#    y 0.000000 1.701280 -0.000010 
#    z 0.018080 -0.000010 1.764780 
# 
# From -- ./inp_files/376657.got.cif
#   From: 2010.05.17/outbox.cif.g08.bks.cpg/sg12_189_cif.got.tgz:376657.got - 2010.06.03 13:09:07.
