data_PCOD9185248
_publ_section_title
;
Structure prediction by ZEFSAII (Michael W. Deem and Ramdas Pophale) SiO2 
 PCOD9185248
Probable space group: C 2/M
;
_chemical_formula_sum "Si O2"
_cell_formula_units_Z 64
_cell_length_a 20.858672
_cell_length_b 8.041579
_cell_length_c 21.462665
_cell_angle_alpha 90.000000
_cell_angle_beta 49.285853
_cell_angle_gamma 90.000000
_cell_volume 2728.761278
_symmetry_space_group_name_H-M "C 2/M"
_symmetry_group_IT_number 12
_symmetry_cell_setting 'monoclinic'
loop_
_space_group_symop_operation_xyz
x,y,z
-x,y,-z
-x,-y,-z
x,-y,z
1/2+x,1/2+y,z
1/2-x,1/2+y,-z
1/2-x,1/2-y,-z
1/2+x,1/2-y,z
loop_
_atom_site_type_symbol
_atom_site_label
_atom_site_fract_x
_atom_site_fract_y
_atom_site_fract_z
Si Si1 0.243592 0.695373 0.836505
Si Si2 0.078101 0.695638 0.632545
Si Si3 0.249376 0.807413 0.422520
Si Si4 0.409117 0.198939 0.682830
Si Si5 0.825579 0.187967 0.249628
Si Si6 0.668842 0.300999 0.012273
Si Si7 0.594092 0.301267 0.449629
Si Si8 0.503878 0.695116 0.187634
O O1 0.245879 0.500000 0.825229
O O2 0.341410 0.755003 0.778938
O O3 0.205643 0.780111 0.799510
O O4 0.186947 0.735703 0.931866
O O5 0.088002 0.500000 0.613514
O O6 0.174100 0.765520 0.582866
O O7 0.004220 0.767141 0.634605
O O8 0.030334 0.714355 0.729340
O O9 0.289952 0.802597 0.327177
O O10 0.156693 0.732758 0.463664
O O11 0.239103 0.000000 0.446223
O O12 0.372276 0.269443 0.641549
O O13 0.413814 0.000000 0.675765
O O14 0.926468 0.201126 0.188482
O O15 0.801769 0.000000 0.284133
O O16 0.661468 0.500000 0.013581
O O17 0.750000 0.250000 0.000000
O O18 0.586794 0.238288 0.101353
O O19 0.500000 0.228573 0.500000
O O20 0.588596 0.500000 0.462942
O O21 0.516789 0.500000 0.196845
#
# Coordination Sequence:
#
# PCOD9185248 Si02
#       8
#     8   8   8   8   8   8   8   8
#     4  12  24  37  55  80 110 146 187 232 282 337
#     4   9  19  34  56  83 111 147 189 234 278 326
#     4   9  17  34  57  81 112 149 187 224 272 332
#     4  11  22  37  58  85 114 145 188 239 284 332
#     4  10  19  34  56  82 108 140 183 231 281 330
#     4  11  23  39  55  76 108 147 188 234 286 336
#     4  10  21  37  59  86 116 150 186 227 278 337
#     4   9  20  36  55  79 110 145 184 232 283 332
#
# _framework density 23.453866000000001
#
# number of rings (size 3 to 8) (size 9 to 14) (size 15 to 20)
#    0.000    1.875    1.250    3.000    0.000    5.250 
#    0.000    3.125    0.000    0.000    0.000    0.000 
#    0.000    0.000    0.000    0.000    0.000    0.000 
#
# Total GULP energy -178780.535715 kJ/mol
# GULP energy per Si atom -5586.891741 kJ/mol
# Density = 2.340048 g / cm^3
# Si number density = 23.453866 Si / 1000 Ang^3
#
#
#
# Elastic Constant Matrix: (Units=GPa)
#
#
# Indices 1 2 3 4 5 6 
#
# 1 162.3792 7.7987 29.3918 0.0003 -10.2577 0.0000
# 2 7.7987 55.6053 24.4064 0.0008 -12.4898 -0.0004
# 3 29.3918 24.4064 75.0021 0.0002 -17.1334 -0.0001
# 4 0.0003 0.0008 0.0002 37.2253 -0.0002 5.2336
# 5 -10.2577 -12.4898 -17.1334 -0.0002 36.1351 0.0002
# 6 0.0000 -0.0004 -0.0001 5.2336 0.0002 23.3676
#
#
#
# Elastic Compliance Matrix: (Units=1/GPa)
#
#
# Indices 1 2 3 4 5 6 
#
# 1 0.006652 0.000364 -0.002540 0.000000 0.000810 0.000000
# 2 0.000364 0.021675 -0.006124 -0.000001 0.004691 0.000000
# 3 -0.002540 -0.006124 0.017577 0.000000 0.005496 0.000000
# 4 0.000000 -0.000001 0.000000 0.027737 0.000000 -0.006212
# 5 0.000810 0.004691 0.005496 0.000000 0.032131 0.000000
# 6 0.000000 0.000000 0.000000 -0.006212 0.000000 0.044186
#
#
# Mechanical properties :
#
#
# Convention : Reuss Voigt Hill
#
# Bulk Modulus (GPa) = 34.12680 46.24228 40.18454
# Shear Modulus (GPa) = 28.35671 34.77158 31.56414
#
# Velocity S-wave (km/s) = 3.48090 3.85457 3.67249
# Velocity P-wave (km/s) = 5.54416 6.29042 5.92904
#
# Compressibility (1/GPa) = 0.02930249
#
# Stress axis : x y z
#
# Youngs Moduli (GPa) = 150.33330 46.13703 56.89332
#
# Poissons Ratio (x) = -0.01679 0.14452
# Poissons Ratio (y) = -0.05470 0.34842
# Poissons Ratio (z) = 0.38188 0.28254
#
# Static dielectric constant tensor:
#      x y z
#    x 1.934790 0.000000 -0.026230 
#    y 0.000000 1.844710 0.000000 
#    z -0.026230 0.000000 1.965530 
# 
# From -- ./inp_files/346045.got.cif
#   From: 2010.05.17/outbox.cif.g08.bks.cpg/sg12_174_cif.got.tgz:346045.got - 2010.06.03 13:09:07.
