data_PCOD9185188
_publ_section_title
;
Structure prediction by ZEFSAII (Michael W. Deem and Ramdas Pophale) SiO2 
 PCOD9185188
Probable space group: C 2/M
;
_chemical_formula_sum "Si O2"
_cell_formula_units_Z 56
_cell_length_a 14.976031
_cell_length_b 8.484453
_cell_length_c 24.587370
_cell_angle_alpha 90.000000
_cell_angle_beta 98.393402
_cell_angle_gamma 90.000000
_cell_volume 3090.693230
_symmetry_space_group_name_H-M "C 2/M"
_symmetry_group_IT_number 12
_symmetry_cell_setting 'monoclinic'
loop_
_space_group_symop_operation_xyz
x,y,z
-x,y,-z
-x,-y,-z
x,-y,z
1/2+x,1/2+y,z
1/2-x,1/2+y,-z
1/2-x,1/2-y,-z
1/2+x,1/2-y,z
loop_
_atom_site_type_symbol
_atom_site_label
_atom_site_fract_x
_atom_site_fract_y
_atom_site_fract_z
Si Si1 0.680386 0.188918 0.648117
Si Si2 0.942006 0.811917 0.267147
Si Si3 0.984250 0.190626 0.436944
Si Si4 0.462939 0.689685 0.936863
Si Si5 0.090589 0.312723 0.855594
Si Si6 0.886350 0.191704 0.648672
Si Si7 0.740196 0.310551 0.060403
O O1 0.635855 0.241106 0.701225
O O2 0.609902 0.250518 0.596674
O O3 0.783589 0.246298 0.648696
O O4 0.681504 0.000000 0.646202
O O5 0.040136 0.760057 0.299152
O O6 0.928843 0.764937 0.203832
O O7 0.938226 0.000000 0.272758
O O8 0.065904 0.239339 0.403850
O O9 0.000000 0.243766 0.500000
O O10 0.981832 0.000000 0.436130
O O11 0.473842 0.500000 0.932203
O O12 0.514920 0.773828 0.893288
O O13 0.358070 0.730541 0.926618
O O14 0.500000 0.732680 0.000000
O O15 0.097565 0.500000 0.848070
O O16 0.182209 0.252881 0.892418
O O17 0.883062 0.000000 0.648839
O O18 0.746429 0.500000 0.058423
O O19 0.750000 0.250000 0.000000
#
# Coordination Sequence:
#
# PCOD9185188 Si02
#       7
#     8   8   8   8   8   8   8
#     4  10  19  34  56  80 108 140 180 230 276 314
#     4  10  21  39  58  76 104 142 182 220 267 329
#     4   9  18  34  54  79 114 153 189 220 260 321
#     4  10  20  36  57  78 103 139 178 210 255 324
#     4  11  23  37  55  82 111 137 172 223 275 317
#     4   8  17  34  55  77 105 144 181 221 273 318
#     4  10  21  36  55  78 106 138 172 213 263 318
#
# _framework density 18.118914
#
# number of rings (size 3 to 8) (size 9 to 14) (size 15 to 20)
#    0.000    2.286    1.429    2.143    0.000    3.429 
#    0.000   12.857    0.000    0.000    0.000    0.000 
#    0.000    0.000    0.000    0.000    0.000    0.000 
#
# Total GULP energy -156210.777974 kJ/mol
# GULP energy per Si atom -5578.956356 kJ/mol
# Density = 1.807767 g / cm^3
# Si number density = 18.118914 Si / 1000 Ang^3
#
#
#
# Elastic Constant Matrix: (Units=GPa)
#
#
# Indices 1 2 3 4 5 6 
#
# 1 166.5636 21.1333 81.0002 0.0000 10.3869 0.0000
# 2 21.1333 15.0016 15.6310 0.0000 0.3902 0.0000
# 3 81.0002 15.6310 154.9816 0.0000 -1.1614 0.0000
# 4 0.0000 0.0000 0.0000 28.7712 0.0000 -2.1009
# 5 10.3869 0.3902 -1.1614 0.0000 13.8426 0.0000
# 6 0.0000 0.0000 0.0000 -2.1009 0.0000 24.4670
#
#
#
# Elastic Compliance Matrix: (Units=1/GPa)
#
#
# Indices 1 2 3 4 5 6 
#
# 1 0.009641 -0.009033 -0.004183 0.000000 -0.007331 0.000000
# 2 -0.009033 0.083053 -0.003625 0.000000 0.004132 0.000000
# 3 -0.004183 -0.003625 0.009034 0.000000 0.003999 0.000000
# 4 0.000000 0.000000 0.000000 0.034976 0.000000 0.003003
# 5 -0.007331 0.004132 0.003999 0.000000 0.077960 0.000000
# 6 0.000000 0.000000 0.000000 0.003003 0.000000 0.041129
#
#
# Mechanical properties :
#
#
# Convention : Reuss Voigt Hill
#
# Bulk Modulus (GPa) = 14.69549 63.56400 39.12974
# Shear Modulus (GPa) = 16.01757 28.00164 22.00961
#
# Velocity S-wave (km/s) = 2.97648 3.93547 3.48908
# Velocity P-wave (km/s) = 4.46551 7.47049 6.15423
#
# Compressibility (1/GPa) = 0.06804808
#
# Stress axis : x y z
#
# Youngs Moduli (GPa) = 103.72424 12.04046 110.69310
#
# Poissons Ratio (x) = 0.10876 0.46300
# Poissons Ratio (y) = 0.93691 0.40123
# Poissons Ratio (z) = 0.43385 0.04364
#
# Static dielectric constant tensor:
#      x y z
#    x 1.616420 0.000000 0.018460 
#    y 0.000000 1.629880 0.000000 
#    z 0.018460 0.000000 1.601730 
# 
# From -- ./inp_files/338158.got.cif
#   From: 2010.05.17/outbox.cif.g08.bks.cpg/sg12_170_cif.got.tgz:338158.got - 2010.06.03 13:09:07.
