data_PCOD9185988
_publ_section_title
;
Structure prediction by ZEFSAII (Michael W. Deem and Ramdas Pophale) SiO2 
 PCOD9185988
Probable space group: C 2/M
;
_chemical_formula_sum "Si O2"
_cell_formula_units_Z 48
_cell_length_a 28.736980
_cell_length_b 8.721159
_cell_length_c 17.711249
_cell_angle_alpha 90.000000
_cell_angle_beta 35.656874
_cell_angle_gamma 90.000000
_cell_volume 2587.502483
_symmetry_space_group_name_H-M "C 2/M"
_symmetry_group_IT_number 12
_symmetry_cell_setting 'monoclinic'
loop_
_space_group_symop_operation_xyz
x,y,z
-x,y,-z
-x,-y,-z
x,-y,z
1/2+x,1/2+y,z
1/2-x,1/2+y,-z
1/2-x,1/2-y,-z
1/2+x,1/2-y,z
loop_
_atom_site_type_symbol
_atom_site_label
_atom_site_fract_x
_atom_site_fract_y
_atom_site_fract_z
Si Si1 0.619899 0.816362 0.857998
Si Si2 0.529582 0.182303 0.227477
Si Si3 0.277199 0.683340 0.740630
Si Si4 0.961013 0.184071 0.470865
Si Si5 0.524047 0.683151 0.852264
Si Si6 0.706209 0.682377 0.984885
O O1 0.708813 0.781736 0.769427
O O2 0.595763 0.744895 0.809697
O O3 0.609641 0.000000 0.868952
O O4 0.556073 0.748635 0.001877
O O5 0.502044 0.233406 0.346592
O O6 0.475100 0.256021 0.233946
O O7 0.618522 0.244876 0.096225
O O8 0.528950 0.000000 0.221094
O O9 0.273385 0.500000 0.760934
O O10 0.366794 0.718799 0.597187
O O11 0.254713 0.770849 0.846519
O O12 0.000000 0.226030 0.500000
O O13 0.971088 0.000000 0.448475
O O14 0.521535 0.500000 0.857305
O O15 0.699584 0.500000 0.999639
O O16 0.750000 0.750000 0.000000
#
# Coordination Sequence:
#
# PCOD9185988 Si02
#       6
#     8   8   8   8   8   8
#     4  10  19  34  58  88 123 158 195 244 303 364
#     4  12  24  40  61  88 121 158 203 250 301 357
#     4  10  21  38  61  89 122 158 198 245 302 363
#     4  10  22  41  63  87 120 162 202 244 300 363
#     4  11  21  35  58  88 120 156 200 248 302 360
#     4  12  24  38  60  88 120 154 198 251 300 355
#
# _framework density 18.550706000000002
#
# number of rings (size 3 to 8) (size 9 to 14) (size 15 to 20)
#    0.000    1.167    1.667    7.000    0.000    3.000 
#    0.000    0.833    0.000    0.000    0.000    0.000 
#    0.000    0.000    0.000    0.000    0.000    0.000 
#
# Total GULP energy -134205.492920 kJ/mol
# GULP energy per Si atom -5591.895538 kJ/mol
# Density = 1.850848 g / cm^3
# Si number density = 18.550706 Si / 1000 Ang^3
#
#
#
# Elastic Constant Matrix: (Units=GPa)
#
#
# Indices 1 2 3 4 5 6 
#
# 1 92.8611 24.4775 -13.0775 0.0057 6.9902 -0.0046
# 2 24.4775 91.8816 12.3860 0.0003 6.4348 -0.0001
# 3 -13.0775 12.3860 18.6823 0.0037 5.2724 -0.0029
# 4 0.0057 0.0003 0.0037 24.0500 0.0007 11.8654
# 5 6.9902 6.4348 5.2724 0.0007 32.8250 -0.0003
# 6 -0.0046 -0.0001 -0.0029 11.8654 -0.0003 25.3769
#
#
#
# Elastic Compliance Matrix: (Units=1/GPa)
#
#
# Indices 1 2 3 4 5 6 
#
# 1 0.014776 -0.005696 0.015390 -0.000010 -0.004502 0.000009
# 2 -0.005696 0.014187 -0.013565 0.000006 0.000611 -0.000005
# 3 0.015390 -0.013565 0.076956 -0.000027 -0.012979 0.000024
# 4 -0.000010 0.000006 -0.000027 0.054048 0.000004 -0.025271
# 5 -0.004502 0.000611 -0.012979 0.000004 0.033388 -0.000004
# 6 0.000009 -0.000005 0.000024 -0.025271 -0.000004 0.051222
#
#
# Mechanical properties :
#
#
# Convention : Reuss Voigt Hill
#
# Bulk Modulus (GPa) = 10.18559 27.88854 19.03706
# Shear Modulus (GPa) = 17.54112 28.42632 22.98372
#
# Velocity S-wave (km/s) = 3.07836 3.91878 3.52372
# Velocity P-wave (km/s) = 4.25883 5.96172 5.18072
#
# Compressibility (1/GPa) = 0.09817794
#
# Stress axis : x y z
#
# Youngs Moduli (GPa) = 67.67529 70.48807 12.99446
#
# Poissons Ratio (x) = 0.40149 -0.19999
# Poissons Ratio (y) = 0.38547 0.17627
# Poissons Ratio (z) = -1.04154 0.95617
#
# Static dielectric constant tensor:
#      x y z
#    x 1.647500 0.000000 -0.007810 
#    y 0.000000 1.621470 0.000000 
#    z -0.007810 0.000000 1.604320 
# 
# From -- ./inp_files/244858.got.cif
#   From: 2010.05.17/outbox.cif.g08.bks.cpg/sg12_123_cif.got.tgz:244858.got - 2010.06.03 13:09:07.
