data_PCOD9185084
_publ_section_title
;
Structure prediction by ZEFSAII (Michael W. Deem and Ramdas Pophale) SiO2 
 PCOD9185084
Probable space group: C 2/M
;
_chemical_formula_sum "Si O2"
_cell_formula_units_Z 44
_cell_length_a 11.632496
_cell_length_b 18.611627
_cell_length_c 11.122038
_cell_angle_alpha 90.000000
_cell_angle_beta 77.120064
_cell_angle_gamma 90.000000
_cell_volume 2347.332768
_symmetry_space_group_name_H-M "C 2/M"
_symmetry_group_IT_number 12
_symmetry_cell_setting 'monoclinic'
loop_
_space_group_symop_operation_xyz
x,y,z
-x,y,-z
-x,-y,-z
x,-y,z
1/2+x,1/2+y,z
1/2-x,1/2+y,-z
1/2-x,1/2-y,-z
1/2+x,1/2-y,z
loop_
_atom_site_type_symbol
_atom_site_label
_atom_site_fract_x
_atom_site_fract_y
_atom_site_fract_z
Si Si1 0.604621 0.782473 0.112729
Si Si2 0.500000 0.849532 0.500000
Si Si3 0.276246 0.866028 0.692927
Si Si4 0.764484 0.651184 0.123488
Si Si5 0.124512 0.000000 0.813523
Si Si6 0.870075 0.271444 0.312218
Si Si7 0.651133 0.500000 0.095933
O O1 0.671490 0.829192 0.199035
O O2 0.668068 0.705481 0.090420
O O3 0.476880 0.762109 0.192866
O O4 0.625121 0.828825 0.987924
O O5 0.391958 0.889647 0.590898
O O6 0.432434 0.802027 0.415869
O O7 0.202381 0.801311 0.648726
O O8 0.188955 0.930305 0.744550
O O9 0.787712 0.673320 0.256484
O O10 0.720359 0.570753 0.121104
O O11 0.983868 0.000000 0.825986
O O12 0.144354 0.000000 0.952583
#
# Coordination Sequence:
#
# PCOD9185084 Si02
#       7
#     8   4   8   8   4   8   4
#     4   9  18  33  55  84 115 149 185 229 284 340
#     4  10  22  39  62  81 108 152 202 240 278 323
#     4  10  20  37  58  85 115 150 191 233 279 337
#     4  10  19  34  55  85 118 148 186 232 282 341
#     4  11  22  37  58  85 120 152 177 228 292 349
#     4  10  20  36  60  84 112 148 194 240 279 325
#     4  11  22  36  57  87 121 150 182 224 290 359
#
# _framework density 18.744679000000001
#
# number of rings (size 3 to 8) (size 9 to 14) (size 15 to 20)
#    0.000    2.000    1.818    2.182    0.000    0.364 
#    0.000    6.364    0.000    1.636    0.000    0.000 
#    0.000    0.000    0.000    0.000    0.000    0.000 
#
# Total GULP energy -122605.393433 kJ/mol
# GULP energy per Si atom -5572.972429 kJ/mol
# Density = 1.870202 g / cm^3
# Si number density = 18.744679 Si / 1000 Ang^3
#
#
#
# Elastic Constant Matrix: (Units=GPa)
#
#
# Indices 1 2 3 4 5 6 
#
# 1 87.2361 49.6169 34.5917 0.0000 -16.6808 0.0000
# 2 49.6169 124.7498 31.9828 0.0000 -13.3353 0.0000
# 3 34.5917 31.9828 74.9400 0.0000 -14.7497 0.0000
# 4 0.0000 0.0000 0.0000 14.2971 0.0000 -7.8631
# 5 -16.6808 -13.3353 -14.7497 0.0000 45.0642 0.0000
# 6 0.0000 0.0000 0.0000 -7.8631 0.0000 3.2150
#
#
#
# Elastic Compliance Matrix: (Units=1/GPa)
#
#
# Indices 1 2 3 4 5 6 
#
# 1 0.016970 -0.005126 -0.005032 0.000000 0.003118 0.000000
# 2 -0.005126 0.010646 -0.002063 0.000000 0.000577 0.000000
# 3 -0.005032 -0.002063 0.017166 0.000000 0.003145 0.000000
# 4 0.000000 0.000000 0.000000 -0.202678 0.000000 -0.495697
# 5 0.003118 0.000577 0.003145 0.000000 0.024545 0.000000
# 6 0.000000 0.000000 0.000000 -0.495697 0.000000 -0.901307
#
#
# Mechanical properties :
#
#
# Convention : Reuss Voigt Hill
#
# Bulk Modulus (GPa) = 49.16653 57.70098 53.43376
# Shear Modulus (GPa) = -4.98289 23.89756 9.45734
#
# Velocity S-wave (km/s) = -1.63220 3.57445 2.24862
# Velocity P-wave (km/s) = 4.76807 6.91990 5.94220
#
# Compressibility (1/GPa) = 0.02033904
#
# Stress axis : x y z
#
# Youngs Moduli (GPa) = 58.92675 93.93506 58.25321
#
# Poissons Ratio (x) = 0.48153 0.29312
# Poissons Ratio (y) = 0.30207 0.12020
# Poissons Ratio (z) = 0.29651 0.19383
#
# Static dielectric constant tensor:
#      x y z
#    x 1.694820 0.000000 -0.015090 
#    y 0.000000 1.606690 0.000000 
#    z -0.015090 0.000000 1.693250 
# 
# From -- ./inp_files/130998.got.cif
#   From: 2010.05.17/outbox.cif.g08.bks.cpg/sg12_66_cif.got.tgz:130998.got - 2010.06.03 13:09:07.
