data_PCOD9185123
_publ_section_title
;
Structure prediction by ZEFSAII (Michael W. Deem and Ramdas Pophale) SiO2 
 PCOD9185123
Probable space group: C 2/M
;
_chemical_formula_sum "Si O2"
_cell_formula_units_Z 40
_cell_length_a 23.692138
_cell_length_b 8.417560
_cell_length_c 11.668329
_cell_angle_alpha 90.000000
_cell_angle_beta 107.568409
_cell_angle_gamma 90.000000
_cell_volume 2218.476380
_symmetry_space_group_name_H-M "C 2/M"
_symmetry_group_IT_number 12
_symmetry_cell_setting 'monoclinic'
loop_
_space_group_symop_operation_xyz
x,y,z
-x,y,-z
-x,-y,-z
x,-y,z
1/2+x,1/2+y,z
1/2-x,1/2+y,-z
1/2-x,1/2-y,-z
1/2+x,1/2-y,z
loop_
_atom_site_type_symbol
_atom_site_label
_atom_site_fract_x
_atom_site_fract_y
_atom_site_fract_z
Si Si1 0.422692 0.686831 0.046692
Si Si2 0.547017 0.811297 0.183057
Si Si3 0.778022 0.308227 0.343497
Si Si4 0.192949 0.691244 0.895524
Si Si5 0.160633 0.308183 0.386367
O O1 0.419603 0.500000 0.020728
O O2 0.483821 0.726053 0.149551
O O3 0.366014 0.741423 0.082801
O O4 0.427399 0.777399 0.928268
O O5 0.596430 0.755745 0.303555
O O6 0.537742 0.000000 0.190081
O O7 0.776831 0.500000 0.343724
O O8 0.799845 0.256867 0.232311
O O9 0.819705 0.255140 0.474615
O O10 0.712198 0.248859 0.332495
O O11 0.190856 0.500000 0.897403
O O12 0.250000 0.750000 0.000000
O O13 0.160530 0.500000 0.384980
#
# Coordination Sequence:
#
# PCOD9185123 Si02
#       5
#     8   8   8   8   8
#     4  11  22  35  52  76 106 136 171 211 253 304
#     4  10  19  34  56  78 102 133 171 213 256 302
#     4   9  19  34  52  76 104 134 168 207 252 302
#     4  11  22  36  54  76 105 137 170 209 255 304
#     4   9  18  33  54  78 102 131 168 209 253 301
#
# _framework density 18.030391999999999
#
# number of rings (size 3 to 8) (size 9 to 14) (size 15 to 20)
#    0.000    2.000    0.000    5.400    0.000    6.400 
#    0.000    1.000    0.000    6.000    0.000    0.000 
#    0.000    0.000    0.000    0.000    0.000    0.000 
#
# Total GULP energy -111667.637717 kJ/mol
# GULP energy per Si atom -5583.381886 kJ/mol
# Density = 1.798935 g / cm^3
# Si number density = 18.030392 Si / 1000 Ang^3
#
#
#
# Elastic Constant Matrix: (Units=GPa)
#
#
# Indices 1 2 3 4 5 6 
#
# 1 130.5159 0.6112 65.8294 0.0000 2.8343 0.0000
# 2 0.6112 19.0657 -1.2770 0.0000 -0.6937 0.0000
# 3 65.8294 -1.2770 70.4270 0.0000 7.1507 0.0000
# 4 0.0000 0.0000 0.0000 16.5913 0.0000 1.6159
# 5 2.8343 -0.6937 7.1507 0.0000 31.6538 0.0000
# 6 0.0000 0.0000 0.0000 1.6159 0.0000 32.4579
#
#
#
# Elastic Compliance Matrix: (Units=1/GPa)
#
#
# Indices 1 2 3 4 5 6 
#
# 1 0.014631 -0.001333 -0.013883 0.000000 0.001797 0.000000
# 2 -0.001333 0.052664 0.002121 0.000000 0.000794 0.000000
# 3 -0.013883 0.002121 0.027719 0.000000 -0.004972 0.000000
# 4 0.000000 0.000000 0.000000 0.060566 0.000000 -0.003015
# 5 0.001797 0.000794 -0.004972 0.000000 0.032572 0.000000
# 6 0.000000 0.000000 0.000000 -0.003015 0.000000 0.030959
#
#
# Mechanical properties :
#
#
# Convention : Reuss Voigt Hill
#
# Bulk Modulus (GPa) = 14.53005 38.92619 26.72812
# Shear Modulus (GPa) = 18.63982 26.46362 22.55172
#
# Velocity S-wave (km/s) = 3.21876 3.83524 3.54045
# Velocity P-wave (km/s) = 4.67868 6.42248 5.61864
#
# Compressibility (1/GPa) = 0.06882290
#
# Stress axis : x y z
#
# Youngs Moduli (GPa) = 68.34677 18.98834 36.07659
#
# Poissons Ratio (x) = 0.02532 0.50084
# Poissons Ratio (y) = 0.09114 -0.07651
# Poissons Ratio (z) = 0.94884 -0.04027
#
# Static dielectric constant tensor:
#      x y z
#    x 1.585370 0.000000 0.018590 
#    y 0.000000 1.616310 0.000000 
#    z 0.018590 0.000000 1.629640 
# 
# From -- ./inp_files/162525.got.cif
#   From: 2010.05.17/outbox.cif.g08.bks.cpg/sg12_82_cif.got.tgz:162525.got - 2010.06.03 13:09:07.
