data_PCOD9185308
_publ_section_title
;
Structure prediction by ZEFSAII (Michael W. Deem and Ramdas Pophale) SiO2 
 PCOD9185308
Probable space group: C 2/M
;
_chemical_formula_sum "Si O2"
_cell_formula_units_Z 64
_cell_length_a 15.136470
_cell_length_b 8.665032
_cell_length_c 34.915915
_cell_angle_alpha 90.000000
_cell_angle_beta 49.518939
_cell_angle_gamma 90.000000
_cell_volume 3483.263147
_symmetry_space_group_name_H-M "C 2/M"
_symmetry_group_IT_number 12
_symmetry_cell_setting 'monoclinic'
loop_
_space_group_symop_operation_xyz
x,y,z
-x,y,-z
-x,-y,-z
x,-y,z
1/2+x,1/2+y,z
1/2-x,1/2+y,-z
1/2-x,1/2-y,-z
1/2+x,1/2-y,z
loop_
_atom_site_type_symbol
_atom_site_label
_atom_site_fract_x
_atom_site_fract_y
_atom_site_fract_z
Si Si1 0.988499 0.183510 0.675883
Si Si2 0.754416 0.316378 0.391527
Si Si3 0.414950 0.686692 0.058482
Si Si4 0.441765 0.185911 0.135235
Si Si5 0.851883 0.312947 0.865228
Si Si6 0.815764 0.314496 0.787967
Si Si7 0.155715 0.684776 0.497108
Si Si8 0.570928 0.184451 0.389863
O O1 0.118330 0.245376 0.644135
O O2 0.903003 0.255967 0.731209
O O3 0.953887 0.237514 0.643353
O O4 0.985640 0.000000 0.679618
O O5 0.760971 0.500000 0.389972
O O6 0.683361 0.260169 0.448762
O O7 0.687901 0.251980 0.373801
O O8 0.415679 0.500000 0.062256
O O9 0.455969 0.756566 0.087431
O O10 0.281075 0.732845 0.087234
O O11 0.500000 0.729667 0.000000
O O12 0.545390 0.239012 0.134922
O O13 0.313695 0.248188 0.182257
O O14 0.439839 0.000000 0.136333
O O15 0.855450 0.500000 0.865416
O O16 0.861527 0.267831 0.817625
O O17 0.808543 0.500000 0.789551
O O18 0.166222 0.500000 0.490485
O O19 0.250000 0.750000 0.500000
O O20 0.031372 0.719350 0.550841
O O21 0.575092 0.000000 0.384335
#
# Coordination Sequence:
#
# PCOD9185308 Si02
#       8
#     8   8   8   8   8   8   8   8
#     4  12  25  42  63  88 119 152 193 244 298 354
#     4  12  25  41  62  89 121 157 195 238 291 351
#     4   9  18  34  54  79 115 157 196 233 282 343
#     4  10  19  34  56  83 113 146 192 241 289 340
#     4   8  17  34  56  80 110 150 189 232 284 340
#     4  10  21  40  61  81 111 149 190 235 290 350
#     4  11  22  38  63  89 119 155 196 240 289 349
#     4  11  24  42  63  89 119 154 196 241 292 352
#
# _framework density 18.373576
#
# number of rings (size 3 to 8) (size 9 to 14) (size 15 to 20)
#    0.000    1.625    1.250    4.875    0.000    4.750 
#    0.000   10.000    0.000    0.000    0.000    0.000 
#    0.000    0.000    0.000    0.000    0.000    0.000 
#
# Total GULP energy -178716.013106 kJ/mol
# GULP energy per Si atom -5584.875410 kJ/mol
# Density = 1.833176 g / cm^3
# Si number density = 18.373576 Si / 1000 Ang^3
#
#
#
# Elastic Constant Matrix: (Units=GPa)
#
#
# Indices 1 2 3 4 5 6 
#
# 1 199.2417 46.9046 83.2581 0.0003 5.9996 0.0003
# 2 46.9046 65.7811 51.2780 0.0006 -1.2912 0.0005
# 3 83.2581 51.2780 149.6224 0.0002 0.7157 0.0001
# 4 0.0003 0.0006 0.0002 24.0570 0.0000 8.7211
# 5 5.9996 -1.2912 0.7157 0.0000 23.9581 0.0001
# 6 0.0003 0.0005 0.0001 8.7211 0.0001 24.4709
#
#
#
# Elastic Compliance Matrix: (Units=1/GPa)
#
#
# Indices 1 2 3 4 5 6 
#
# 1 0.006930 -0.002698 -0.002923 0.000000 -0.001793 0.000000
# 2 -0.002698 0.021837 -0.005992 0.000000 0.002031 0.000000
# 3 -0.002923 -0.005992 0.010363 0.000000 0.000099 0.000000
# 4 0.000000 0.000000 0.000000 0.047735 0.000000 -0.017012
# 5 -0.001793 0.002031 0.000099 0.000000 0.042295 0.000000
# 6 0.000000 0.000000 0.000000 -0.017012 0.000000 0.046928
#
#
# Mechanical properties :
#
#
# Convention : Reuss Voigt Hill
#
# Bulk Modulus (GPa) = 62.87963 86.39183 74.63573
# Shear Modulus (GPa) = 24.43625 30.04418 27.24022
#
# Velocity S-wave (km/s) = 3.65083 4.04813 3.85460
# Velocity P-wave (km/s) = 7.21585 8.30491 7.77946
#
# Compressibility (1/GPa) = 0.01590340
#
# Stress axis : x y z
#
# Youngs Moduli (GPa) = 144.31053 45.79478 96.49676
#
# Poissons Ratio (x) = 0.12355 0.28204
# Poissons Ratio (y) = 0.38933 0.57823
# Poissons Ratio (z) = 0.42179 0.27441
#
# Static dielectric constant tensor:
#      x y z
#    x 1.615270 0.000000 -0.002210 
#    y 0.000000 1.614710 0.000000 
#    z -0.002210 0.000000 1.617840 
# 
# From -- ./inp_files/375490.got.cif
#   From: 2010.05.17/outbox.cif.g08.bks.cpg/sg12_188_cif.got.tgz:375490.got - 2010.06.03 13:09:07.
