data_PCOD9185057
_publ_section_title
;
Structure prediction by ZEFSAII (Michael W. Deem and Ramdas Pophale) SiO2 
 PCOD9185057
Probable space group: C 2/M
;
_chemical_formula_sum "Si O2"
_cell_formula_units_Z 56
_cell_length_a 20.702276
_cell_length_b 7.757696
_cell_length_c 16.770799
_cell_angle_alpha 90.000000
_cell_angle_beta 91.545870
_cell_angle_gamma 90.000000
_cell_volume 2692.442975
_symmetry_space_group_name_H-M "C 2/M"
_symmetry_group_IT_number 12
_symmetry_cell_setting 'monoclinic'
loop_
_space_group_symop_operation_xyz
x,y,z
-x,y,-z
-x,-y,-z
x,-y,z
1/2+x,1/2+y,z
1/2-x,1/2+y,-z
1/2-x,1/2-y,-z
1/2+x,1/2-y,z
loop_
_atom_site_type_symbol
_atom_site_label
_atom_site_fract_x
_atom_site_fract_y
_atom_site_fract_z
Si Si1 0.174999 0.792324 0.982427
Si Si2 0.697666 0.793820 0.431518
Si Si3 0.870362 0.210756 0.850577
Si Si4 0.748411 0.701671 0.260045
Si Si5 0.552474 0.204971 0.439427
Si Si6 0.623302 0.701576 0.812084
Si Si7 0.487578 0.709531 0.741344
O O1 0.148251 0.724547 0.897338
O O2 0.171365 0.000000 0.979914
O O3 0.250000 0.750000 0.000000
O O4 0.134248 0.733481 0.057978
O O5 0.750000 0.750000 0.500000
O O6 0.721208 0.723629 0.347505
O O7 0.625732 0.726878 0.449414
O O8 0.693969 0.000000 0.423746
O O9 0.805547 0.269492 0.803017
O O10 0.932199 0.265246 0.801661
O O11 0.870166 0.000000 0.849539
O O12 0.757062 0.500000 0.243845
O O13 0.817488 0.785394 0.247206
O O14 0.500000 0.276786 0.500000
O O15 0.529340 0.231697 0.348169
O O16 0.556633 0.000000 0.454671
O O17 0.609958 0.500000 0.826267
O O18 0.557278 0.773391 0.773578
O O19 0.487430 0.500000 0.739351
#
# Coordination Sequence:
#
# PCOD9185057 Si02
#       7
#     8   8   8   8   8   8   8
#     4  10  19  34  55  83 116 151 193 241 290 339
#     4  11  24  41  62  90 121 151 192 239 288 343
#     4   9  18  34  58  83 110 151 195 233 282 342
#     4  11  21  37  61  85 115 155 198 239 285 343
#     4  10  23  42  61  84 115 151 189 232 286 344
#     4  10  22  36  56  88 120 151 193 245 292 339
#     4  10  21  39  59  84 116 151 193 236 288 350
#
# _framework density 20.798954999999999
#
# number of rings (size 3 to 8) (size 9 to 14) (size 15 to 20)
#    0.000    1.857    2.857    0.857    2.000    2.000 
#    0.000    3.571    0.000    0.000    0.000    3.000 
#    0.000    0.000    0.000    0.000    0.000    0.000 
#
# Total GULP energy -156413.216965 kJ/mol
# GULP energy per Si atom -5586.186320 kJ/mol
# Density = 2.075162 g / cm^3
# Si number density = 20.798955 Si / 1000 Ang^3
#
#
#
# Elastic Constant Matrix: (Units=GPa)
#
#
# Indices 1 2 3 4 5 6 
#
# 1 185.9308 -5.9223 82.5235 0.0000 -1.4249 0.0000
# 2 -5.9223 24.8650 -8.8413 0.0000 2.8958 0.0000
# 3 82.5235 -8.8413 127.6591 0.0000 -14.0230 0.0000
# 4 0.0000 0.0000 0.0000 14.5361 0.0000 4.4170
# 5 -1.4249 2.8958 -14.0230 0.0000 40.7094 0.0000
# 6 0.0000 0.0000 0.0000 4.4170 0.0000 14.0304
#
#
#
# Elastic Compliance Matrix: (Units=1/GPa)
#
#
# Indices 1 2 3 4 5 6 
#
# 1 0.007629 0.000184 -0.005083 0.000000 -0.001497 0.000000
# 2 0.000184 0.041398 0.002521 0.000000 -0.002070 0.000000
# 3 -0.005083 0.002521 0.011697 0.000000 0.003672 0.000000
# 4 0.000000 0.000000 0.000000 0.076071 0.000000 -0.023948
# 5 -0.001497 -0.002070 0.003672 0.000000 0.025924 0.000000
# 6 0.000000 0.000000 0.000000 -0.023948 0.000000 0.078813
#
#
# Mechanical properties :
#
#
# Convention : Reuss Voigt Hill
#
# Bulk Modulus (GPa) = 17.86751 52.66386 35.26568
# Shear Modulus (GPa) = 18.87179 31.90153 25.38666
#
# Velocity S-wave (km/s) = 3.01548 3.92063 3.49746
# Velocity P-wave (km/s) = 4.55339 6.77278 5.77079
#
# Compressibility (1/GPa) = 0.05596750
#
# Stress axis : x y z
#
# Youngs Moduli (GPa) = 131.08038 24.15556 85.48934
#
# Poissons Ratio (x) = -0.00444 0.43457
# Poissons Ratio (y) = -0.02410 -0.21551
# Poissons Ratio (z) = 0.66632 -0.06089
#
# Static dielectric constant tensor:
#      x y z
#    x 1.730320 0.000000 -0.003080 
#    y 0.000000 1.771020 0.000000 
#    z -0.003080 0.000000 1.715190 
# 
# From -- ./inp_files/230858.got.cif
#   From: 2010.05.17/outbox.cif.g08.bks.cpg/sg12_116_cif.got.tgz:230858.got - 2010.06.03 13:09:07.
