data_PCOD9185183
_publ_section_title
;
Structure prediction by ZEFSAII (Michael W. Deem and Ramdas Pophale) SiO2 
 PCOD9185183
Probable space group: C 2/M
;
_chemical_formula_sum "Si O2"
_cell_formula_units_Z 56
_cell_length_a 19.812686
_cell_length_b 7.450546
_cell_length_c 25.930437
_cell_angle_alpha 90.000000
_cell_angle_beta 139.488294
_cell_angle_gamma 90.000000
_cell_volume 2486.506375
_symmetry_space_group_name_H-M "C 2/M"
_symmetry_group_IT_number 12
_symmetry_cell_setting 'monoclinic'
loop_
_space_group_symop_operation_xyz
x,y,z
-x,y,-z
-x,-y,-z
x,-y,z
1/2+x,1/2+y,z
1/2-x,1/2+y,-z
1/2-x,1/2-y,-z
1/2+x,1/2-y,z
loop_
_atom_site_type_symbol
_atom_site_label
_atom_site_fract_x
_atom_site_fract_y
_atom_site_fract_z
Si Si1 0.896670 0.712315 0.412013
Si Si2 0.138407 0.286267 0.411949
Si Si3 0.828737 0.716225 0.682113
Si Si4 0.025361 0.282653 0.857456
Si Si5 0.418740 0.781435 0.313014
Si Si6 0.177245 0.719810 0.852035
Si Si7 0.914584 0.790429 0.990779
O O1 0.916419 0.500000 0.417356
O O2 0.790898 0.733427 0.381758
O O3 0.872640 0.782015 0.340397
O O4 0.000000 0.785907 0.500000
O O5 0.127817 0.500000 0.402907
O O6 0.250000 0.250000 0.500000
O O7 0.131976 0.216959 0.350223
O O8 0.039298 0.225039 0.386050
O O9 0.832643 0.500000 0.684316
O O10 0.910704 0.776836 0.772588
O O11 0.027650 0.500000 0.859120
O O12 0.109593 0.224550 0.862829
O O13 0.048357 0.222306 0.928656
O O14 0.372432 0.722929 0.231426
O O15 0.410693 0.000000 0.306751
O O16 0.175473 0.500000 0.852316
O O17 0.296794 0.782261 0.921753
O O18 0.903451 0.000000 0.970140
O O19 0.000000 0.715151 0.000000
#
# Coordination Sequence:
#
# PCOD9185183 Si02
#       7
#     8   8   8   8   8   8   8
#     4  10  21  35  54  82 111 144 186 228 271 320
#     4  10  19  34  56  80 106 139 182 225 266 315
#     4  10  21  36  55  80 109 145 184 222 270 327
#     4  10  20  37  59  80 107 146 186 219 266 329
#     4   9  17  32  55  77 104 144 184 218 261 322
#     4   9  17  34  57  79 106 144 183 218 265 326
#     4  10  22  36  56  87 114 138 176 224 273 323
#
# _framework density 22.521560000000001
#
# number of rings (size 3 to 8) (size 9 to 14) (size 15 to 20)
#    0.000    2.286    1.429    1.286    2.000    2.857 
#    0.000    0.714    0.000    1.714    0.000    0.000 
#    0.000    0.000    0.000    0.000    0.000    0.000 
#
# Total GULP energy -156307.440786 kJ/mol
# GULP energy per Si atom -5582.408600 kJ/mol
# Density = 2.247030 g / cm^3
# Si number density = 22.521560 Si / 1000 Ang^3
#
#
#
# Elastic Constant Matrix: (Units=GPa)
#
#
# Indices 1 2 3 4 5 6 
#
# 1 89.7053 4.9114 13.7031 0.0000 2.9833 0.0000
# 2 4.9114 57.1172 0.9161 0.0000 -3.7243 0.0000
# 3 13.7031 0.9161 108.2869 0.0000 9.9530 0.0000
# 4 0.0000 0.0000 0.0000 11.8712 0.0000 -4.3134
# 5 2.9833 -3.7243 9.9530 0.0000 35.2370 0.0000
# 6 0.0000 0.0000 0.0000 -4.3134 0.0000 -6.1702
#
#
#
# Elastic Compliance Matrix: (Units=1/GPa)
#
#
# Indices 1 2 3 4 5 6 
#
# 1 0.011436 -0.001006 -0.001376 0.000000 -0.000686 0.000000
# 2 -0.001006 0.017729 -0.000208 0.000000 0.002018 0.000000
# 3 -0.001376 -0.000208 0.009652 0.000000 -0.002632 0.000000
# 4 0.000000 0.000000 0.000000 0.067175 0.000000 -0.046960
# 5 -0.000686 0.002018 -0.002632 0.000000 0.029394 0.000000
# 6 0.000000 0.000000 0.000000 -0.046960 0.000000 -0.129241
#
#
# Mechanical properties :
#
#
# Convention : Reuss Voigt Hill
#
# Bulk Modulus (GPa) = 29.72832 32.68563 31.20698
# Shear Modulus (GPa) = 221.85834 23.89286 122.87560
#
# Velocity S-wave (km/s) = 9.93595 3.26066 7.39443
# Velocity P-wave (km/s) = 12.03576 5.35915 9.31611
#
# Compressibility (1/GPa) = 0.03363796
#
# Stress axis : x y z
#
# Youngs Moduli (GPa) = 87.44599 56.40391 103.60046
#
# Poissons Ratio (x) = 0.05674 0.14251
# Poissons Ratio (y) = 0.08797 0.02156
# Poissons Ratio (z) = 0.12029 0.01174
#
# Static dielectric constant tensor:
#      x y z
#    x 1.519950 0.000000 -0.343030 
#    y 0.000000 1.874870 0.000000 
#    z -0.343030 0.000000 1.383150 
# 
# From -- ./inp_files/343015.got.cif
#   From: 2010.05.17/outbox.cif.g08.bks.cpg/sg12_172_cif.got.tgz:343015.got - 2010.06.03 13:09:07.
