data_PCOD9185329
_publ_section_title
;
Structure prediction by ZEFSAII (Michael W. Deem and Ramdas Pophale) SiO2 
 PCOD9185329
Probable space group: C 2/M
;
_chemical_formula_sum "Si O2"
_cell_formula_units_Z 64
_cell_length_a 20.818614
_cell_length_b 8.360016
_cell_length_c 21.693429
_cell_angle_alpha 90.000000
_cell_angle_beta 49.296447
_cell_angle_gamma 90.000000
_cell_volume 2862.266890
_symmetry_space_group_name_H-M "C 2/M"
_symmetry_group_IT_number 12
_symmetry_cell_setting 'monoclinic'
loop_
_space_group_symop_operation_xyz
x,y,z
-x,y,-z
-x,-y,-z
x,-y,z
1/2+x,1/2+y,z
1/2-x,1/2+y,-z
1/2-x,1/2-y,-z
1/2+x,1/2-y,z
loop_
_atom_site_type_symbol
_atom_site_label
_atom_site_fract_x
_atom_site_fract_y
_atom_site_fract_z
Si Si1 0.237913 0.688879 0.842607
Si Si2 0.076526 0.689113 0.637955
Si Si3 0.251213 0.814538 0.416311
Si Si4 0.404211 0.192919 0.692040
Si Si5 0.825017 0.181876 0.246732
Si Si6 0.669634 0.308025 0.012340
Si Si7 0.595906 0.191514 0.445552
Si Si8 0.503830 0.686058 0.187662
O O1 0.233664 0.500000 0.838534
O O2 0.337397 0.738378 0.782632
O O3 0.202444 0.772344 0.803876
O O4 0.184403 0.742759 0.934787
O O5 0.087284 0.500000 0.619436
O O6 0.172813 0.756221 0.587671
O O7 0.001525 0.748859 0.639821
O O8 0.029061 0.715712 0.733179
O O9 0.291049 0.793031 0.322812
O O10 0.157822 0.743996 0.461835
O O11 0.242060 0.000000 0.437077
O O12 0.371154 0.232203 0.643919
O O13 0.404989 0.000000 0.696785
O O14 0.926127 0.185552 0.188717
O O15 0.796329 0.000000 0.279787
O O16 0.666387 0.500000 0.011765
O O17 0.750000 0.250000 0.000000
O O18 0.586563 0.253121 0.101238
O O19 0.500000 0.253820 0.500000
O O20 0.590615 0.000000 0.453888
O O21 0.516797 0.500000 0.199448
#
# Coordination Sequence:
#
# PCOD9185329 Si02
#       8
#     8   8   8   8   8   8   8   8
#     4  12  24  36  54  82 112 144 186 235 283 333
#     4   9  19  34  56  83 111 147 187 230 280 333
#     4  10  19  34  56  84 115 145 182 228 280 335
#     4  10  20  37  59  82 111 148 190 233 279 335
#     4  10  19  35  57  80 106 142 184 228 278 332
#     4  11  23  39  55  76 108 147 188 234 287 338
#     4  10  21  37  59  85 113 149 191 231 276 335
#     4   9  20  36  55  78 107 143 186 232 278 331
#
# _framework density 22.359898999999999
#
# number of rings (size 3 to 8) (size 9 to 14) (size 15 to 20)
#    0.000    1.875    1.250    3.000    0.000    5.250 
#    0.000    3.125    0.000    0.000    0.000    0.000 
#    0.000    0.000    0.000    0.000    0.000    0.000 
#
# Total GULP energy -178711.357251 kJ/mol
# GULP energy per Si atom -5584.729914 kJ/mol
# Density = 2.230901 g / cm^3
# Si number density = 22.359899 Si / 1000 Ang^3
#
#
#
# Elastic Constant Matrix: (Units=GPa)
#
#
# Indices 1 2 3 4 5 6 
#
# 1 155.9692 9.1797 27.8212 0.0001 -10.3328 -0.0001
# 2 9.1797 36.0042 5.2258 0.0003 -5.8368 -0.0005
# 3 27.8212 5.2258 80.7083 0.0001 -19.3517 -0.0001
# 4 0.0001 0.0003 0.0001 22.9899 -0.0001 -0.2594
# 5 -10.3328 -5.8368 -19.3517 -0.0001 42.4398 0.0001
# 6 -0.0001 -0.0005 -0.0001 -0.2594 0.0001 26.6056
#
#
#
# Elastic Compliance Matrix: (Units=1/GPa)
#
#
# Indices 1 2 3 4 5 6 
#
# 1 0.006913 -0.001365 -0.002174 0.000000 0.000504 0.000000
# 2 -0.001365 0.028752 -0.000587 0.000000 0.003354 0.000001
# 3 -0.002174 -0.000587 0.014631 0.000000 0.006062 0.000000
# 4 0.000000 0.000000 0.000000 0.043502 0.000000 0.000424
# 5 0.000504 0.003354 0.006062 0.000000 0.026911 0.000000
# 6 0.000000 0.000001 0.000000 0.000424 0.000000 0.037590
#
#
# Mechanical properties :
#
#
# Convention : Reuss Voigt Hill
#
# Bulk Modulus (GPa) = 23.78457 39.68167 31.73312
# Shear Modulus (GPa) = 27.69088 33.77074 30.73081
#
# Velocity S-wave (km/s) = 3.52293 3.89051 3.71127
# Velocity P-wave (km/s) = 5.21616 6.16171 5.70855
#
# Compressibility (1/GPa) = 0.04204406
#
# Stress axis : x y z
#
# Youngs Moduli (GPa) = 144.65455 34.78071 68.34808
#
# Poissons Ratio (x) = 0.04749 0.14857
# Poissons Ratio (y) = 0.19750 0.04010
# Poissons Ratio (z) = 0.31444 0.02041
#
# Static dielectric constant tensor:
#      x y z
#    x 1.861750 0.000000 -0.032370 
#    y 0.000000 1.785580 0.000000 
#    z -0.032370 0.000000 1.862020 
# 
# From -- ./inp_files/346044.got.cif
#   From: 2010.05.17/outbox.cif.g08.bks.cpg/sg12_174_cif.got.tgz:346044.got - 2010.06.03 13:09:07.
