data_PCOD9185379
_publ_section_title
;
Structure prediction by ZEFSAII (Michael W. Deem and Ramdas Pophale) SiO2 
 PCOD9185379
Probable space group: C 2/M
;
_chemical_formula_sum "Si O2"
_cell_formula_units_Z 56
_cell_length_a 23.903056
_cell_length_b 11.743480
_cell_length_c 9.140983
_cell_angle_alpha 90.000000
_cell_angle_beta 86.128847
_cell_angle_gamma 90.000000
_cell_volume 2560.065769
_symmetry_space_group_name_H-M "C 2/M"
_symmetry_group_IT_number 12
_symmetry_cell_setting 'monoclinic'
loop_
_space_group_symop_operation_xyz
x,y,z
-x,y,-z
-x,-y,-z
x,-y,z
1/2+x,1/2+y,z
1/2-x,1/2+y,-z
1/2-x,1/2-y,-z
1/2+x,1/2-y,z
loop_
_atom_site_type_symbol
_atom_site_label
_atom_site_fract_x
_atom_site_fract_y
_atom_site_fract_z
Si Si1 0.776503 0.208511 0.205822
Si Si2 0.875404 0.866589 0.389872
Si Si3 0.173612 0.869468 0.294981
Si Si4 0.008135 0.227333 0.672406
Si Si5 0.561741 0.128868 0.114183
Si Si6 0.182888 0.620232 0.031589
Si Si7 0.427303 0.374774 0.907252
O O1 0.817567 0.153196 0.314289
O O2 0.728526 0.292730 0.275231
O O3 0.739099 0.124356 0.115741
O O4 0.813417 0.281013 0.086459
O O5 0.863943 0.834071 0.560221
O O6 0.926216 0.793811 0.316435
O O7 0.890653 0.000000 0.381822
O O8 0.133805 0.869625 0.158911
O O9 0.190801 0.000000 0.317007
O O10 0.980804 0.341358 0.747611
O O11 0.972135 0.132134 0.766043
O O12 0.000000 0.221686 0.500000
O O13 0.627796 0.127211 0.142380
O O14 0.560525 0.249658 0.022398
O O15 0.551907 0.000000 0.058911
O O16 0.179415 0.500000 0.951773
O O17 0.431946 0.500000 0.980306
#
# Coordination Sequence:
#
# PCOD9185379 Si02
#       7
#     8   8   8   8   8   8   8
#     4  11  21  37  57  84 113 150 196 241 289 343
#     4  11  22  35  56  87 122 151 187 240 298 350
#     4  10  19  34  56  86 120 153 189 234 289 353
#     4  10  19  34  58  85 117 154 189 235 289 353
#     4   9  19  36  56  82 112 149 196 242 290 341
#     4  10  21  39  61  80 109 153 198 243 293 346
#     4   9  17  31  56  85 111 148 193 230 277 339
#
# _framework density 21.874438000000001
#
# number of rings (size 3 to 8) (size 9 to 14) (size 15 to 20)
#    0.857    1.143    2.857    1.714    0.000    0.857 
#    0.000    2.857    0.000    3.429    0.000    0.000 
#    0.000    0.000    0.000    0.000    0.000    0.000 
#
# Total GULP energy -155921.395948 kJ/mol
# GULP energy per Si atom -5568.621284 kJ/mol
# Density = 2.182465 g / cm^3
# Si number density = 21.874438 Si / 1000 Ang^3
#
#
#
# Elastic Constant Matrix: (Units=GPa)
#
#
# Indices 1 2 3 4 5 6 
#
# 1 121.3323 15.5475 24.7503 0.0000 -16.5820 0.0000
# 2 15.5475 144.5704 19.8823 0.0000 -16.3799 0.0000
# 3 24.7503 19.8823 51.6907 0.0000 -12.5706 0.0000
# 4 0.0000 0.0000 0.0000 26.9980 0.0000 -20.2640
# 5 -16.5820 -16.3799 -12.5706 0.0000 36.7662 0.0000
# 6 0.0000 0.0000 0.0000 -20.2640 0.0000 18.8971
#
#
#
# Elastic Compliance Matrix: (Units=1/GPa)
#
#
# Indices 1 2 3 4 5 6 
#
# 1 0.009423 -0.000171 -0.003742 0.000000 0.002894 0.000000
# 2 -0.000171 0.007524 -0.002199 0.000000 0.002523 0.000000
# 3 -0.003742 -0.002199 0.023269 0.000000 0.005289 0.000000
# 4 0.000000 0.000000 0.000000 0.189819 0.000000 0.203550
# 5 0.002894 0.002523 0.005289 0.000000 0.031437 0.000000
# 6 0.000000 0.000000 0.000000 0.203550 0.000000 0.271192
#
#
# Mechanical properties :
#
#
# Convention : Reuss Voigt Hill
#
# Bulk Modulus (GPa) = 35.72352 48.66149 42.19250
# Shear Modulus (GPa) = 9.02174 33.69314 21.35744
#
# Velocity S-wave (km/s) = 2.03305 3.92892 3.12807
# Velocity P-wave (km/s) = 4.67736 6.54798 5.69006
#
# Compressibility (1/GPa) = 0.02799277
#
# Stress axis : x y z
#
# Youngs Moduli (GPa) = 106.12777 132.91434 42.97486
#
# Poissons Ratio (x) = 0.02270 0.16082
# Poissons Ratio (y) = 0.01812 0.09448
# Poissons Ratio (z) = 0.39715 0.29221
#
# Static dielectric constant tensor:
#      x y z
#    x 1.800810 0.000000 -0.004560 
#    y 0.000000 1.845410 0.000000 
#    z -0.004560 0.000000 1.789910 
# 
# From -- ./inp_files/173940.got.cif
#   From: 2010.05.17/outbox.cif.g08.bks.cpg/sg12_87_cif.got.tgz:173940.got - 2010.06.03 13:09:07.
