data_PCOD9185120
_publ_section_title
;
Structure prediction by ZEFSAII (Michael W. Deem and Ramdas Pophale) SiO2 
 PCOD9185120
Probable space group: C 2/M
;
_chemical_formula_sum "Si O2"
_cell_formula_units_Z 56
_cell_length_a 16.414676
_cell_length_b 9.571297
_cell_length_c 20.883208
_cell_angle_alpha 90.000000
_cell_angle_beta 130.860477
_cell_angle_gamma 90.000000
_cell_volume 2481.402727
_symmetry_space_group_name_H-M "C 2/M"
_symmetry_group_IT_number 12
_symmetry_cell_setting 'monoclinic'
loop_
_space_group_symop_operation_xyz
x,y,z
-x,y,-z
-x,-y,-z
x,-y,z
1/2+x,1/2+y,z
1/2-x,1/2+y,-z
1/2-x,1/2-y,-z
1/2+x,1/2-y,z
loop_
_atom_site_type_symbol
_atom_site_label
_atom_site_fract_x
_atom_site_fract_y
_atom_site_fract_z
Si Si1 0.152495 0.831164 0.094181
Si Si2 0.234395 0.155081 0.656179
Si Si3 0.403407 0.344260 0.690654
Si Si4 0.595740 0.161772 0.810113
Si Si5 0.375189 0.647989 0.539120
Si Si6 0.452710 0.848005 0.403751
Si Si7 0.516537 0.831385 0.916098
O O1 0.281063 0.818594 0.148865
O O2 0.096665 0.748070 0.124944
O O3 0.129743 0.000000 0.085100
O O4 0.096732 0.751851 0.005376
O O5 0.341914 0.242289 0.705975
O O6 0.191788 0.145202 0.560300
O O7 0.144129 0.240199 0.646949
O O8 0.251266 0.000000 0.689371
O O9 0.414522 0.500000 0.722037
O O10 0.518938 0.275738 0.737735
O O11 0.331202 0.355935 0.588415
O O12 0.569060 0.181000 0.872218
O O13 0.565167 0.000000 0.779640
O O14 0.440543 0.500000 0.568515
O O15 0.444540 0.786527 0.577573
O O16 0.500000 0.855336 0.500000
O O17 0.417236 0.000000 0.364651
O O18 0.507814 0.000000 0.924321
#
# Coordination Sequence:
#
# PCOD9185120 Si02
#       7
#     8   8   8   8   8   8   8
#     4  10  20  37  63  93 122 154 196 240 285 340
#     4  10  19  34  56  77 105 142 183 234 290 344
#     4  11  23  37  54  79 110 145 190 234 283 344
#     4  10  23  41  58  83 122 163 198 236 291 351
#     4   9  19  35  54  78 105 140 185 235 289 343
#     4   9  17  30  51  78 103 130 173 228 281 335
#     4  10  20  37  63  93 122 154 195 238 286 343
#
# _framework density 22.567881
#
# number of rings (size 3 to 8) (size 9 to 14) (size 15 to 20)
#    0.000    2.143    0.000    3.857    0.000    5.714 
#    2.571    0.000    0.000    0.000    0.000    0.000 
#    0.000    0.000    0.000    0.000    0.000    0.000 
#
# Total GULP energy -156032.884851 kJ/mol
# GULP energy per Si atom -5572.603030 kJ/mol
# Density = 2.251652 g / cm^3
# Si number density = 22.567881 Si / 1000 Ang^3
#
#
#
# Elastic Constant Matrix: (Units=GPa)
#
#
# Indices 1 2 3 4 5 6 
#
# 1 85.4713 47.8607 31.5081 0.0000 6.3483 0.0000
# 2 47.8607 182.6708 22.0809 0.0000 18.1993 0.0000
# 3 31.5081 22.0809 47.0520 0.0000 -5.2552 0.0000
# 4 0.0000 0.0000 0.0000 14.3250 0.0000 22.9604
# 5 6.3483 18.1993 -5.2552 0.0000 45.9092 0.0000
# 6 0.0000 0.0000 0.0000 22.9604 0.0000 1.7122
#
#
#
# Elastic Compliance Matrix: (Units=1/GPa)
#
#
# Indices 1 2 3 4 5 6 
#
# 1 0.017479 -0.003066 -0.010535 0.000000 -0.002407 0.000000
# 2 -0.003066 0.006677 -0.001346 0.000000 -0.002377 0.000000
# 3 -0.010535 -0.001346 0.029539 0.000000 0.005371 0.000000
# 4 0.000000 0.000000 0.000000 -0.003406 0.000000 0.045678
# 5 -0.002407 -0.002377 0.005371 0.000000 0.023672 0.000000
# 6 0.000000 0.000000 0.000000 0.045678 0.000000 -0.028499
#
#
# Mechanical properties :
#
#
# Convention : Reuss Voigt Hill
#
# Bulk Modulus (GPa) = 42.01327 57.56594 49.78961
# Shear Modulus (GPa) = 60.03118 26.63889 43.33504
#
# Velocity S-wave (km/s) = 5.16314 3.43941 4.38677
# Velocity P-wave (km/s) = 7.36212 6.42931 6.91147
#
# Compressibility (1/GPa) = 0.02380200
#
# Stress axis : x y z
#
# Youngs Moduli (GPa) = 57.21086 149.76312 33.85350
#
# Poissons Ratio (x) = 0.45923 0.35664
# Poissons Ratio (y) = 0.17543 0.04555
# Poissons Ratio (z) = 0.60270 0.20153
#
# Static dielectric constant tensor:
#      x y z
#    x 1.852270 0.000000 -0.032480 
#    y 0.000000 1.837330 0.000000 
#    z -0.032480 0.000000 1.913250 
# 
# From -- ./inp_files/363139.got.cif
#   From: 2010.05.17/outbox.cif.g08.bks.cpg/sg12_182_cif.got.tgz:363139.got - 2010.06.03 13:09:07.
