data_PCOD9185896
_publ_section_title
;
Structure prediction by ZEFSAII (Michael W. Deem and Ramdas Pophale) SiO2 
 PCOD9185896
Probable space group: C 2/M
;
_chemical_formula_sum "Si O2"
_cell_formula_units_Z 56
_cell_length_a 18.514379
_cell_length_b 8.871204
_cell_length_c 23.833459
_cell_angle_alpha 90.000000
_cell_angle_beta 42.142498
_cell_angle_gamma 90.000000
_cell_volume 2626.553699
_symmetry_space_group_name_H-M "C 2/M"
_symmetry_group_IT_number 12
_symmetry_cell_setting 'monoclinic'
loop_
_space_group_symop_operation_xyz
x,y,z
-x,y,-z
-x,-y,-z
x,-y,z
1/2+x,1/2+y,z
1/2-x,1/2+y,-z
1/2-x,1/2-y,-z
1/2+x,1/2-y,z
loop_
_atom_site_type_symbol
_atom_site_label
_atom_site_fract_x
_atom_site_fract_y
_atom_site_fract_z
Si Si1 0.603484 0.500000 0.375924
Si Si2 0.635927 0.500000 0.491517
Si Si3 0.018207 0.671951 0.145340
Si Si4 0.743771 0.323444 0.585343
Si Si5 0.705945 0.167478 0.196577
Si Si6 0.993120 0.177041 0.728102
Si Si7 0.096045 0.182423 0.987084
Si Si8 0.772752 0.755186 0.275059
O O1 0.609967 0.500000 0.440148
O O2 0.486181 0.500000 0.415342
O O3 0.675576 0.642058 0.320879
O O4 0.694586 0.664895 0.467922
O O5 0.054380 0.500000 0.126684
O O6 0.033144 0.751720 0.196206
O O7 0.889025 0.678408 0.210675
O O8 0.073016 0.755856 0.061927
O O9 0.773177 0.500000 0.550498
O O10 0.618729 0.296640 0.641814
O O11 0.746204 0.326410 0.652484
O O12 0.593298 0.252274 0.263385
O O13 0.791588 0.237557 0.104068
O O14 0.766871 0.154018 0.220903
O O15 0.679902 0.000000 0.191588
O O16 0.978808 0.000000 0.740536
O O17 0.098152 0.000000 0.987038
O O18 0.000000 0.227523 0.000000
#
# Coordination Sequence:
#
# PCOD9185896 Si02
#       8
#     4   4   8   8   8   8   8   8
#     4   9  18  34  54  93 120 150 181 236 302 341
#     4   9  18  34  62  88 124 154 186 237 299 353
#     4  11  21  36  59  83 110 152 197 242 287 348
#     4   9  19  36  60  89 116 155 197 239 292 356
#     4  11  23  37  57  84 114 153 194 241 294 349
#     4  10  23  38  58  84 112 151 197 244 291 341
#     4  10  21  37  55  79 115 153 191 241 297 344
#     4  10  19  34  58  85 118 148 190 244 288 346
#
# _framework density 21.320715
#
# number of rings (size 3 to 8) (size 9 to 14) (size 15 to 20)
#    0.000    2.000    2.143    1.286    5.000    2.571 
#    0.000    6.429    0.000    0.857    0.000    0.000 
#    0.000    0.000    0.000    0.000    0.000    0.000 
#
# Total GULP energy -156075.649998 kJ/mol
# GULP energy per Si atom -5574.130357 kJ/mol
# Density = 2.127219 g / cm^3
# Si number density = 21.320715 Si / 1000 Ang^3
#
#
#
# Elastic Constant Matrix: (Units=GPa)
#
#
# Indices 1 2 3 4 5 6 
#
# 1 95.5364 23.8879 20.5087 0.0000 -6.4037 0.0000
# 2 23.8879 97.3921 34.6784 0.0000 -14.1892 0.0000
# 3 20.5087 34.6784 66.0937 0.0000 -6.4403 0.0000
# 4 0.0000 0.0000 0.0000 26.7137 0.0000 -7.5039
# 5 -6.4037 -14.1892 -6.4403 0.0000 37.3571 0.0000
# 6 0.0000 0.0000 0.0000 -7.5039 0.0000 19.2589
#
#
#
# Elastic Compliance Matrix: (Units=1/GPa)
#
#
# Indices 1 2 3 4 5 6 
#
# 1 0.011520 -0.001793 -0.002551 0.000000 0.000854 0.000000
# 2 -0.001793 0.013434 -0.006128 0.000000 0.003739 0.000000
# 3 -0.002551 -0.006128 0.019190 0.000000 0.000543 0.000000
# 4 0.000000 0.000000 0.000000 0.042034 0.000000 0.016378
# 5 0.000854 0.003739 0.000543 0.000000 0.028429 0.000000
# 6 0.000000 0.000000 0.000000 0.016378 0.000000 0.058305
#
#
# Mechanical properties :
#
#
# Convention : Reuss Voigt Hill
#
# Bulk Modulus (GPa) = 43.10203 46.35246 44.72725
# Shear Modulus (GPa) = 24.80273 28.66241 26.73257
#
# Velocity S-wave (km/s) = 3.41444 3.67051 3.54479
# Velocity P-wave (km/s) = 5.98368 6.30486 6.14637
#
# Compressibility (1/GPa) = 0.02320077
#
# Stress axis : x y z
#
# Youngs Moduli (GPa) = 86.80288 74.43630 52.11096
#
# Poissons Ratio (x) = 0.13346 0.13292
# Poissons Ratio (y) = 0.15564 0.31934
# Poissons Ratio (z) = 0.22141 0.45615
#
# Static dielectric constant tensor:
#      x y z
#    x 1.762840 0.000000 0.029430 
#    y 0.000000 1.779470 0.000000 
#    z 0.029430 0.000000 1.827760 
# 
# From -- ./inp_files/363065.got.cif
#   From: 2010.05.17/outbox.cif.g08.bks.cpg/sg12_182_cif.got.tgz:363065.got - 2010.06.03 13:09:07.
