data_PCOD9185047
_publ_section_title
;
Structure prediction by ZEFSAII (Michael W. Deem and Ramdas Pophale) SiO2 
 PCOD9185047
Probable space group: C 2/M
;
_chemical_formula_sum "Si O2"
_cell_formula_units_Z 64
_cell_length_a 29.889754
_cell_length_b 7.986219
_cell_length_c 22.940523
_cell_angle_alpha 90.000000
_cell_angle_beta 31.161691
_cell_angle_gamma 90.000000
_cell_volume 2833.605867
_symmetry_space_group_name_H-M "C 2/M"
_symmetry_group_IT_number 12
_symmetry_cell_setting 'monoclinic'
loop_
_space_group_symop_operation_xyz
x,y,z
-x,y,-z
-x,-y,-z
x,-y,z
1/2+x,1/2+y,z
1/2-x,1/2+y,-z
1/2-x,1/2-y,-z
1/2+x,1/2-y,z
loop_
_atom_site_type_symbol
_atom_site_label
_atom_site_fract_x
_atom_site_fract_y
_atom_site_fract_z
Si Si1 0.760782 0.302181 0.669018
Si Si2 0.875234 0.697316 0.091843
Si Si3 0.019956 0.700089 0.847539
Si Si4 0.606947 0.297661 0.114754
Si Si5 0.435898 0.698401 0.706935
Si Si6 0.746096 0.201363 0.132756
Si Si7 0.432990 0.194358 0.528739
Si Si8 0.792672 0.304269 0.392319
O O1 0.773734 0.500000 0.649805
O O2 0.668341 0.269915 0.801905
O O3 0.837992 0.233332 0.623806
O O4 0.765288 0.227579 0.599719
O O5 0.885572 0.500000 0.090180
O O6 0.804092 0.729248 0.120544
O O7 0.964586 0.765574 0.964636
O O8 0.027696 0.500000 0.848703
O O9 0.113847 0.773317 0.728190
O O10 0.960984 0.728953 0.856381
O O11 0.602085 0.500000 0.118964
O O12 0.586091 0.242353 0.203239
O O13 0.701366 0.251909 0.984637
O O14 0.454125 0.500000 0.687790
O O15 0.350359 0.731274 0.763954
O O16 0.516007 0.792899 0.588956
O O17 0.743306 0.000000 0.141475
O O18 0.500000 0.273522 0.500000
O O19 0.420881 0.000000 0.560284
O O20 0.807243 0.500000 0.382358
O O21 0.750000 0.250000 0.500000
#
# Coordination Sequence:
#
# PCOD9185047 Si02
#       8
#     8   8   8   8   8   8   8   8
#     4  11  24  42  65  95 127 164 210 256 314 380
#     4  10  20  38  64  92 122 157 201 256 311 366
#     4   9  21  40  63  90 121 160 204 251 309 371
#     4   9  20  35  54  84 119 155 199 251 305 366
#     4  11  22  34  53  83 116 153 202 256 308 364
#     4  10  19  34  55  82 120 163 201 244 304 368
#     4  10  23  42  61  83 116 159 205 252 306 369
#     4  11  25  45  67  93 127 167 211 260 313 370
#
# _framework density 22.586061999999998
#
# number of rings (size 3 to 8) (size 9 to 14) (size 15 to 20)
#    0.000    1.875    0.000    3.000    1.750    5.750 
#    0.000    2.500    0.000    0.000    0.000    0.000 
#    0.000    0.000    0.000    0.000    0.000    0.000 
#
# Total GULP energy -178840.351192 kJ/mol
# GULP energy per Si atom -5588.760975 kJ/mol
# Density = 2.253465 g / cm^3
# Si number density = 22.586062 Si / 1000 Ang^3
#
#
#
# Elastic Constant Matrix: (Units=GPa)
#
#
# Indices 1 2 3 4 5 6 
#
# 1 74.2985 -10.1907 55.7625 -0.0008 7.7679 0.0019
# 2 -10.1907 10.8855 8.1850 -0.0033 -1.0955 0.0082
# 3 55.7625 8.1850 150.7420 -0.0094 6.1360 0.0036
# 4 -0.0008 -0.0033 -0.0094 27.4950 0.0023 6.0559
# 5 7.7679 -1.0955 6.1360 0.0023 38.7371 0.0002
# 6 0.0019 0.0082 0.0036 6.0559 0.0002 22.6359
#
#
#
# Elastic Compliance Matrix: (Units=1/GPa)
#
#
# Indices 1 2 3 4 5 6 
#
# 1 0.027337 0.034248 -0.011865 0.000004 -0.002634 -0.000014
# 2 0.034248 0.139172 -0.020237 0.000023 0.000274 -0.000056
# 3 -0.011865 -0.020237 0.012126 0.000000 -0.000114 0.000006
# 4 0.000004 0.000023 0.000000 0.038648 -0.000002 -0.010340
# 5 -0.002634 0.000274 -0.000114 -0.000002 0.026369 0.000001
# 6 -0.000014 -0.000056 0.000006 -0.010340 0.000001 0.046944
#
#
# Mechanical properties :
#
#
# Convention : Reuss Voigt Hill
#
# Bulk Modulus (GPa) = 5.46664 38.15996 21.81330
# Shear Modulus (GPa) = 14.39767 29.91821 22.15794
#
# Velocity S-wave (km/s) = 2.52753 3.64350 3.13556
# Velocity P-wave (km/s) = 3.30810 5.88491 4.77366
#
# Compressibility (1/GPa) = 0.18292767
#
# Stress axis : x y z
#
# Youngs Moduli (GPa) = 36.58062 7.18537 82.46480
#
# Poissons Ratio (x) = -0.24609 0.97843
# Poissons Ratio (y) = -1.25283 1.66885
# Poissons Ratio (z) = 0.43402 0.14541
#
# Static dielectric constant tensor:
#      x y z
#    x 1.847730 0.000000 -0.006600 
#    y 0.000000 1.806380 0.000010 
#    z -0.006600 0.000010 1.868780 
# 
# From -- ./inp_files/353400.got.cif
#   From: 2010.05.17/outbox.cif.g08.bks.cpg/sg12_177_cif.got.tgz:353400.got - 2010.06.03 13:09:07.
