data_PCOD9185315
_publ_section_title
;
Structure prediction by ZEFSAII (Michael W. Deem and Ramdas Pophale) SiO2 
 PCOD9185315
Probable space group: C 2/M
;
_chemical_formula_sum "Si O2"
_cell_formula_units_Z 64
_cell_length_a 25.024576
_cell_length_b 8.717389
_cell_length_c 30.258856
_cell_angle_alpha 90.000000
_cell_angle_beta 33.381817
_cell_angle_gamma 90.000000
_cell_volume 3631.940230
_symmetry_space_group_name_H-M "C 2/M"
_symmetry_group_IT_number 12
_symmetry_cell_setting 'monoclinic'
loop_
_space_group_symop_operation_xyz
x,y,z
-x,y,-z
-x,-y,-z
x,-y,z
1/2+x,1/2+y,z
1/2-x,1/2+y,-z
1/2-x,1/2-y,-z
1/2+x,1/2-y,z
loop_
_atom_site_type_symbol
_atom_site_label
_atom_site_fract_x
_atom_site_fract_y
_atom_site_fract_z
Si Si1 0.939981 0.816018 0.767377
Si Si2 0.970275 0.316284 0.970166
Si Si3 0.693297 0.184103 0.266617
Si Si4 0.631773 0.315564 0.793149
Si Si5 0.894366 0.315753 0.286283
Si Si6 0.240204 0.815847 0.878240
Si Si7 0.277580 0.314655 0.528829
Si Si8 0.495641 0.684056 0.376629
O O1 0.832027 0.746851 0.841980
O O2 0.985481 0.773695 0.687891
O O3 0.009448 0.749949 0.756946
O O4 0.935898 0.000000 0.772806
O O5 0.973443 0.500000 0.963659
O O6 0.046028 0.240995 0.884367
O O7 0.861708 0.255625 0.037326
O O8 0.000000 0.275855 0.000000
O O9 0.766603 0.233894 0.254318
O O10 0.738745 0.229079 0.187565
O O11 0.584737 0.248779 0.342777
O O12 0.688226 0.000000 0.270533
O O13 0.630441 0.500000 0.792070
O O14 0.618574 0.246743 0.753910
O O15 0.899010 0.500000 0.282596
O O16 0.802547 0.268166 0.380034
O O17 0.236241 0.000000 0.883380
O O18 0.277315 0.500000 0.526349
O O19 0.250000 0.250000 0.500000
O O20 0.387524 0.265466 0.464218
O O21 0.500185 0.500000 0.376176
#
# Coordination Sequence:
#
# PCOD9185315 Si02
#       8
#     8   8   8   8   8   8   8   8
#     4  10  19  34  56  83 115 149 188 232 282 338
#     4  11  22  36  58  88 117 146 188 235 281 333
#     4   9  19  34  54  81 111 146 187 229 278 331
#     4  11  23  40  59  81 114 154 192 232 282 338
#     4  11  23  38  57  83 116 153 191 233 285 342
#     4  10  19  34  57  85 116 147 186 234 281 331
#     4  10  20  35  56  84 114 146 189 236 282 333
#     4   9  18  32  54  83 112 143 184 232 281 330
#
# _framework density 17.621435000000002
#
# number of rings (size 3 to 8) (size 9 to 14) (size 15 to 20)
#    0.000    1.875    2.500    1.875    0.000    3.500 
#    0.000    1.250    0.000    3.750    0.000    0.000 
#    0.000    0.000    0.000    0.000    0.000    0.000 
#
# Total GULP energy -178675.467333 kJ/mol
# GULP energy per Si atom -5583.608354 kJ/mol
# Density = 1.758133 g / cm^3
# Si number density = 17.621435 Si / 1000 Ang^3
#
#
#
# Elastic Constant Matrix: (Units=GPa)
#
#
# Indices 1 2 3 4 5 6 
#
# 1 159.1387 41.3324 83.5169 -0.0008 -21.3805 -0.0012
# 2 41.3324 35.1442 30.1502 -0.0019 -2.8712 -0.0040
# 3 83.5169 30.1502 112.2230 -0.0019 -20.2120 -0.0011
# 4 -0.0008 -0.0019 -0.0019 25.9997 0.0000 -5.0283
# 5 -21.3805 -2.8712 -20.2120 0.0000 35.3260 0.0000
# 6 -0.0012 -0.0040 -0.0011 -5.0283 0.0000 29.0147
#
#
#
# Elastic Compliance Matrix: (Units=1/GPa)
#
#
# Indices 1 2 3 4 5 6 
#
# 1 0.012242 -0.008853 -0.006163 -0.000001 0.003164 -0.000001
# 2 -0.008853 0.043663 -0.006097 0.000004 -0.005297 0.000006
# 3 -0.006163 -0.006097 0.016025 0.000000 0.004944 0.000000
# 4 -0.000001 0.000004 0.000000 0.039796 0.000000 0.006897
# 5 0.003164 -0.005297 0.004944 0.000000 0.032621 0.000000
# 6 -0.000001 0.000006 0.000000 0.006897 0.000000 0.035661
#
#
# Mechanical properties :
#
#
# Convention : Reuss Voigt Hill
#
# Bulk Modulus (GPa) = 33.66190 68.50055 51.08122
# Shear Modulus (GPa) = 21.53931 28.16850 24.85391
#
# Velocity S-wave (km/s) = 3.49998 4.00251 3.75965
# Velocity P-wave (km/s) = 5.95630 7.76646 6.92082
#
# Compressibility (1/GPa) = 0.02970718
#
# Stress axis : x y z
#
# Youngs Moduli (GPa) = 81.68392 22.90268 62.40105
#
# Poissons Ratio (x) = 0.20275 0.38455
# Poissons Ratio (y) = 0.72311 0.38043
# Poissons Ratio (z) = 0.50338 0.13963
#
# Static dielectric constant tensor:
#      x y z
#    x 1.580530 0.000000 -0.011520 
#    y 0.000000 1.590440 0.000000 
#    z -0.011520 0.000000 1.590220 
# 
# From -- ./inp_files/382373.got.cif
#   From: 2010.05.17/outbox.cif.g08.bks.cpg/sg12_192_cif.got.tgz:382373.got - 2010.06.03 13:09:07.
