data_PCOD9185628
_publ_section_title
;
Structure prediction by ZEFSAII (Michael W. Deem and Ramdas Pophale) SiO2 
 PCOD9185628
Probable space group: C 2/M
;
_chemical_formula_sum "Si O2"
_cell_formula_units_Z 64
_cell_length_a 26.839093
_cell_length_b 12.612171
_cell_length_c 15.495951
_cell_angle_alpha 90.000000
_cell_angle_beta 41.002593
_cell_angle_gamma 90.000000
_cell_volume 3441.449855
_symmetry_space_group_name_H-M "C 2/M"
_symmetry_group_IT_number 12
_symmetry_cell_setting 'monoclinic'
loop_
_space_group_symop_operation_xyz
x,y,z
-x,y,-z
-x,-y,-z
x,-y,z
1/2+x,1/2+y,z
1/2-x,1/2+y,-z
1/2-x,1/2-y,-z
1/2+x,1/2-y,z
loop_
_atom_site_type_symbol
_atom_site_label
_atom_site_fract_x
_atom_site_fract_y
_atom_site_fract_z
Si Si1 0.320164 0.123324 0.812124
Si Si2 0.056813 0.624225 0.624259
Si Si3 0.117220 0.378565 0.085099
Si Si4 0.837720 0.773169 0.406867
Si Si5 0.189500 0.785028 0.863660
Si Si6 0.083364 0.123945 0.861608
Si Si7 0.579125 0.724492 0.429943
Si Si8 0.202405 0.882186 0.368798
O O1 0.325392 0.135346 0.908618
O O2 0.243814 0.153854 0.860356
O O3 0.381993 0.203609 0.693539
O O4 0.339026 0.000000 0.769772
O O5 0.071858 0.500000 0.588152
O O6 0.116399 0.672608 0.614915
O O7 0.066929 0.694898 0.525749
O O8 0.969680 0.633870 0.769694
O O9 0.125931 0.500000 0.043037
O O10 0.137274 0.294022 0.986742
O O11 0.750000 0.750000 0.500000
O O12 0.882205 0.815712 0.265604
O O13 0.832300 0.857569 0.492070
O O14 0.140040 0.860146 0.867877
O O15 0.239913 0.710663 0.734504
O O16 0.077133 0.000000 0.847891
O O17 0.000000 0.162407 0.000000
O O18 0.500000 0.682318 0.500000
O O19 0.635012 0.633104 0.388278
O O20 0.235213 0.000000 0.322792
#
# Coordination Sequence:
#
# PCOD9185628 Si02
#       8
#     8   8   8   8   8   8   8   8
#     4  10  20  33  55  85 113 148 189 235 288 343
#     4  10  21  35  57  88 117 149 190 238 291 346
#     4  10  20  35  56  82 116 153 186 228 289 353
#     4  11  22  42  60  88 115 155 196 246 300 349
#     4  11  21  38  57  83 115 151 195 241 291 345
#     4  11  24  42  64  87 117 156 200 250 299 353
#     4  10  19  34  57  84 117 150 188 235 287 342
#     4  10  22  38  58  83 115 151 192 240 293 349
#
# _framework density 18.596813000000001
#
# number of rings (size 3 to 8) (size 9 to 14) (size 15 to 20)
#    0.000    1.625    2.500    2.625    0.000    1.750 
#    0.000    0.000    0.000    4.125    0.000    0.000 
#    0.000    0.000    0.000    0.000    0.000    0.000 
#
# Total GULP energy -178578.865573 kJ/mol
# GULP energy per Si atom -5580.589549 kJ/mol
# Density = 1.855449 g / cm^3
# Si number density = 18.596813 Si / 1000 Ang^3
#
#
#
# Elastic Constant Matrix: (Units=GPa)
#
#
# Indices 1 2 3 4 5 6 
#
# 1 73.4628 4.2095 6.9028 0.0000 -10.7993 0.0000
# 2 4.2095 37.8249 7.5641 0.0000 3.8914 0.0000
# 3 6.9028 7.5641 61.2528 0.0000 3.2516 0.0000
# 4 0.0000 0.0000 0.0000 14.8241 0.0000 -1.4602
# 5 -10.7993 3.8914 3.2516 0.0000 30.5643 0.0000
# 6 0.0000 0.0000 0.0000 -1.4602 0.0000 21.8072
#
#
#
# Elastic Compliance Matrix: (Units=1/GPa)
#
#
# Indices 1 2 3 4 5 6 
#
# 1 0.014707 -0.001870 -0.001725 0.000000 0.005618 0.000000
# 2 -0.001870 0.027642 -0.002998 0.000000 -0.003861 0.000000
# 3 -0.001725 -0.002998 0.016998 0.000000 -0.002036 0.000000
# 4 0.000000 0.000000 0.000000 0.067906 0.000000 0.004547
# 5 0.005618 -0.003861 -0.002036 0.000000 0.035411 0.000000
# 6 0.000000 0.000000 0.000000 0.004547 0.000000 0.046161
#
#
# Mechanical properties :
#
#
# Convention : Reuss Voigt Hill
#
# Bulk Modulus (GPa) = 21.66220 23.32147 22.49183
# Shear Modulus (GPa) = 21.06161 23.69672 22.37916
#
# Velocity S-wave (km/s) = 3.36897 3.57352 3.47275
# Velocity P-wave (km/s) = 5.17754 5.44008 5.31043
#
# Compressibility (1/GPa) = 0.04616337
#
# Stress axis : x y z
#
# Youngs Moduli (GPa) = 67.99287 36.17627 58.82887
#
# Poissons Ratio (x) = 0.06764 0.10147
# Poissons Ratio (y) = 0.12714 0.17636
# Poissons Ratio (z) = 0.11727 0.10845
#
# Static dielectric constant tensor:
#      x y z
#    x 1.650060 0.000000 -0.004020 
#    y 0.000000 1.612720 0.000000 
#    z -0.004020 0.000000 1.638880 
# 
# From -- ./inp_files/245918.got.cif
#   From: 2010.05.17/outbox.cif.g08.bks.cpg/sg12_123_cif.got.tgz:245918.got - 2010.06.03 13:09:07.
