data_PCOD9185828
_publ_section_title
;
Structure prediction by ZEFSAII (Michael W. Deem and Ramdas Pophale) SiO2 
 PCOD9185828
Probable space group: C 2/M
;
_chemical_formula_sum "Si O2"
_cell_formula_units_Z 56
_cell_length_a 9.598630
_cell_length_b 21.600769
_cell_length_c 13.951204
_cell_angle_alpha 90.000000
_cell_angle_beta 72.103320
_cell_angle_gamma 90.000000
_cell_volume 2752.644710
_symmetry_space_group_name_H-M "C 2/M"
_symmetry_group_IT_number 12
_symmetry_cell_setting 'monoclinic'
loop_
_space_group_symop_operation_xyz
x,y,z
-x,y,-z
-x,-y,-z
x,-y,z
1/2+x,1/2+y,z
1/2-x,1/2+y,-z
1/2-x,1/2-y,-z
1/2+x,1/2-y,z
loop_
_atom_site_type_symbol
_atom_site_label
_atom_site_fract_x
_atom_site_fract_y
_atom_site_fract_z
Si Si1 0.743895 0.572405 0.809551
Si Si2 0.665456 0.072375 0.992549
Si Si3 0.888641 0.430475 0.597919
Si Si4 0.621410 0.607220 0.542971
Si Si5 0.544431 0.347081 0.099647
Si Si6 0.288933 0.207371 0.399789
Si Si7 0.454071 0.284301 0.700762
O O1 0.716397 0.500000 0.793048
O O2 0.819696 0.574419 0.896143
O O3 0.853576 0.599075 0.706977
O O4 0.590157 0.607402 0.846136
O O5 0.685999 0.000000 0.957606
O O6 0.500000 0.091290 0.000000
O O7 0.801842 0.115095 0.931147
O O8 0.947423 0.500000 0.602985
O O9 0.728341 0.432764 0.584223
O O10 0.000000 0.399434 0.500000
O O11 0.500000 0.577630 0.500000
O O12 0.732474 0.641546 0.446617
O O13 0.540492 0.658606 0.627975
O O14 0.554502 0.298323 0.184586
O O15 0.500000 0.325504 0.000000
O O16 0.250000 0.250000 0.500000
O O17 0.453502 0.223140 0.340554
O O18 0.196671 0.222675 0.324252
#
# Coordination Sequence:
#
# PCOD9185828 Si02
#       7
#     8   8   8   8   8   8   8
#     4   9  17  33  54  78 111 152 191 221 261 326
#     4   9  18  34  56  82 114 149 190 234 270 317
#     4  10  20  33  49  77 116 150 180 218 268 328
#     4   9  18  34  54  77 105 139 182 226 269 323
#     4  10  19  34  58  84 110 146 186 226 278 335
#     4   9  19  35  57  78 104 136 182 231 275 326
#     4  10  19  36  56  83 107 135 180 235 277 328
#
# _framework density 20.344069999999999
#
# number of rings (size 3 to 8) (size 9 to 14) (size 15 to 20)
#    0.000    2.571    1.429    1.714    0.000    4.286 
#    5.143    2.143    0.000    0.000    0.000    0.000 
#    0.000    0.000    0.000    0.000    0.000    0.000 
#
# Total GULP energy -155928.206721 kJ/mol
# GULP energy per Si atom -5568.864526 kJ/mol
# Density = 2.029777 g / cm^3
# Si number density = 20.344070 Si / 1000 Ang^3
#
#
#
# Elastic Constant Matrix: (Units=GPa)
#
#
# Indices 1 2 3 4 5 6 
#
# 1 67.4475 10.7381 12.2279 0.0000 6.2920 0.0000
# 2 10.7381 26.9217 17.3582 0.0000 1.7702 0.0000
# 3 12.2279 17.3582 115.1401 0.0000 -3.2379 0.0000
# 4 0.0000 0.0000 0.0000 11.3994 0.0000 9.5032
# 5 6.2920 1.7702 -3.2379 0.0000 29.2448 0.0000
# 6 0.0000 0.0000 0.0000 9.5032 0.0000 18.5866
#
#
#
# Elastic Compliance Matrix: (Units=1/GPa)
#
#
# Indices 1 2 3 4 5 6 
#
# 1 0.016200 -0.005627 -0.000964 0.000000 -0.003252 0.000000
# 2 -0.005627 0.043397 -0.006003 0.000000 -0.002081 0.000000
# 3 -0.000964 -0.006003 0.009739 0.000000 0.001649 0.000000
# 4 0.000000 0.000000 0.000000 0.152893 0.000000 -0.078173
# 5 -0.003252 -0.002081 0.001649 0.000000 0.035202 0.000000
# 6 0.000000 0.000000 0.000000 -0.078173 0.000000 0.093771
#
#
# Mechanical properties :
#
#
# Convention : Reuss Voigt Hill
#
# Bulk Modulus (GPa) = 22.65081 32.23976 27.44529
# Shear Modulus (GPa) = 12.78429 23.12516 17.95472
#
# Velocity S-wave (km/s) = 2.50952 3.37516 2.97400
# Velocity P-wave (km/s) = 4.42210 5.57410 5.03118
#
# Compressibility (1/GPa) = 0.04414852
#
# Stress axis : x y z
#
# Youngs Moduli (GPa) = 61.72773 23.04328 102.68177
#
# Poissons Ratio (x) = 0.12965 0.09895
# Poissons Ratio (y) = 0.34731 0.61643
# Poissons Ratio (z) = 0.05948 0.13834
#
# Static dielectric constant tensor:
#      x y z
#    x 1.738480 0.000000 0.037740 
#    y 0.000000 1.753950 0.000000 
#    z 0.037740 0.000000 1.827000 
# 
# From -- ./inp_files/124219.got.cif
#   From: 2010.05.17/outbox.cif.g08.bks.cpg/sg12_63_cif.got.tgz:124219.got - 2010.06.03 13:09:07.
