data_PCOD9185137
_publ_section_title
;
Structure prediction by ZEFSAII (Michael W. Deem and Ramdas Pophale) SiO2 
 PCOD9185137
Probable space group: C 2/M
;
_chemical_formula_sum "Si O2"
_cell_formula_units_Z 64
_cell_length_a 16.791481
_cell_length_b 7.512283
_cell_length_c 33.947989
_cell_angle_alpha 90.000000
_cell_angle_beta 41.435928
_cell_angle_gamma 90.000000
_cell_volume 2833.935831
_symmetry_space_group_name_H-M "C 2/M"
_symmetry_group_IT_number 12
_symmetry_cell_setting 'monoclinic'
loop_
_space_group_symop_operation_xyz
x,y,z
-x,y,-z
-x,-y,-z
x,-y,z
1/2+x,1/2+y,z
1/2-x,1/2+y,-z
1/2-x,1/2-y,-z
1/2+x,1/2-y,z
loop_
_atom_site_type_symbol
_atom_site_label
_atom_site_fract_x
_atom_site_fract_y
_atom_site_fract_z
Si Si1 0.717494 0.782555 0.626161
Si Si2 0.338611 0.295329 0.872800
Si Si3 0.520450 0.718537 0.868362
Si Si4 0.343211 0.712930 0.499893
Si Si5 0.457860 0.783636 0.750448
Si Si6 0.579165 0.708477 0.935315
Si Si7 0.721755 0.788726 0.248044
Si Si8 0.600432 0.714015 0.374775
O O1 0.785058 0.719327 0.561898
O O2 0.580605 0.726861 0.683660
O O3 0.795089 0.726019 0.634758
O O4 0.716246 0.000000 0.625164
O O5 0.308378 0.500000 0.891708
O O6 0.400978 0.220480 0.889330
O O7 0.439870 0.282779 0.801248
O O8 0.218096 0.216862 0.897831
O O9 0.515155 0.500000 0.869695
O O10 0.544875 0.777316 0.904436
O O11 0.641526 0.776447 0.800180
O O12 0.356475 0.500000 0.499962
O O13 0.250000 0.750000 0.500000
O O14 0.472850 0.782566 0.438059
O O15 0.346734 0.719922 0.765053
O O16 0.457380 0.000000 0.752104
O O17 0.548671 0.500000 0.943727
O O18 0.500000 0.787534 0.000000
O O19 0.638381 0.759356 0.316643
O O20 0.731134 0.000000 0.239050
O O21 0.595346 0.500000 0.378590
#
# Coordination Sequence:
#
# PCOD9185137 Si02
#       8
#     8   8   8   8   8   8   8   8
#     4   9  18  33  53  76 102 138 182 227 276 331
#     4  11  22  36  58  87 121 153 185 236 292 334
#     4   9  19  37  58  84 118 154 189 230 285 337
#     4  10  20  35  53  72  99 137 177 222 280 336
#     4  10  19  34  57  80 107 147 193 231 268 337
#     4  10  21  41  66  87 114 156 199 231 269 337
#     4  10  19  34  56  78 109 149 184 222 274 337
#     4  10  20  33  51  77 106 134 176 233 281 328
#
# _framework density 22.583434
#
# number of rings (size 3 to 8) (size 9 to 14) (size 15 to 20)
#    0.000    2.125    1.250    2.250    0.000    4.250 
#    0.000    3.125    0.000    1.500    0.000    0.000 
#    0.000    0.000    0.000    0.000    0.000    0.000 
#
# Total GULP energy -178684.518800 kJ/mol
# GULP energy per Si atom -5583.891212 kJ/mol
# Density = 2.253203 g / cm^3
# Si number density = 22.583434 Si / 1000 Ang^3
#
#
#
# Elastic Constant Matrix: (Units=GPa)
#
#
# Indices 1 2 3 4 5 6 
#
# 1 139.0470 -7.3392 42.1364 0.0003 20.6818 -0.0052
# 2 -7.3392 52.4795 -9.3449 -0.0175 3.2672 -0.0376
# 3 42.1364 -9.3449 117.0702 0.0053 12.0815 0.0059
# 4 0.0003 -0.0175 0.0053 5.8258 0.0024 -1.3858
# 5 20.6818 3.2672 12.0815 0.0024 18.9559 0.0169
# 6 -0.0052 -0.0376 0.0059 -1.3858 0.0169 2.8879
#
#
#
# Elastic Compliance Matrix: (Units=1/GPa)
#
#
# Indices 1 2 3 4 5 6 
#
# 1 0.009294 0.001444 -0.002310 0.000036 -0.008917 0.000109
# 2 0.001444 0.019940 0.001701 0.000148 -0.006097 0.000365
# 3 -0.002310 0.001701 0.009932 0.000003 -0.004104 0.000023
# 4 0.000036 0.000148 0.000003 0.193772 -0.000174 0.092990
# 5 -0.008917 -0.006097 -0.004104 -0.000174 0.066150 -0.000557
# 6 0.000109 0.000365 0.000023 0.092990 -0.000557 0.390905
#
#
# Mechanical properties :
#
#
# Convention : Reuss Voigt Hill
#
# Bulk Modulus (GPa) = 24.48765 39.94459 32.21612
# Shear Modulus (GPa) = 7.12315 24.41020 15.76668
#
# Velocity S-wave (km/s) = 1.77792 3.29126 2.64512
# Velocity P-wave (km/s) = 3.88348 5.67178 4.86058
#
# Compressibility (1/GPa) = 0.04083691
#
# Stress axis : x y z
#
# Youngs Moduli (GPa) = 107.59243 50.15109 100.67960
#
# Poissons Ratio (x) = -0.07241 0.23255
# Poissons Ratio (y) = -0.15534 -0.17127
# Poissons Ratio (z) = 0.24851 -0.08531
#
# Static dielectric constant tensor:
#      x y z
#    x 1.818480 -0.000010 -0.002280 
#    y -0.000010 1.906860 -0.000130 
#    z -0.002280 -0.000130 1.851630 
# 
# From -- ./inp_files/375364.got.cif
#   From: 2010.05.17/outbox.cif.g08.bks.cpg/sg12_188_cif.got.tgz:375364.got - 2010.06.03 13:09:07.
