data_PCOD9185344
_publ_section_title
;
Structure prediction by ZEFSAII (Michael W. Deem and Ramdas Pophale) SiO2 
 PCOD9185344
Probable space group: C 2/M
;
_chemical_formula_sum "Si O2"
_cell_formula_units_Z 52
_cell_length_a 26.982801
_cell_length_b 15.990176
_cell_length_c 12.745167
_cell_angle_alpha 90.000000
_cell_angle_beta 149.121770
_cell_angle_gamma 90.000000
_cell_volume 2822.183859
_symmetry_space_group_name_H-M "C 2/M"
_symmetry_group_IT_number 12
_symmetry_cell_setting 'monoclinic'
loop_
_space_group_symop_operation_xyz
x,y,z
-x,y,-z
-x,-y,-z
x,-y,z
1/2+x,1/2+y,z
1/2-x,1/2+y,-z
1/2-x,1/2-y,-z
1/2+x,1/2-y,z
loop_
_atom_site_type_symbol
_atom_site_label
_atom_site_fract_x
_atom_site_fract_y
_atom_site_fract_z
Si Si1 0.298830 0.600271 0.435241
Si Si2 0.604865 0.905833 0.724225
Si Si3 0.500000 0.717938 0.000000
Si Si4 0.169566 0.905162 0.265199
Si Si5 0.451658 0.253185 0.697430
Si Si6 0.834063 0.699611 0.967610
Si Si7 0.701517 0.145796 0.696515
O O1 0.309176 0.500000 0.432611
O O2 0.284194 0.609431 0.534923
O O3 0.395239 0.657102 0.585789
O O4 0.212565 0.642345 0.210443
O O5 0.500000 0.870670 0.500000
O O6 0.653254 0.853845 0.904535
O O7 0.670416 0.907544 0.739494
O O8 0.587933 0.000000 0.732335
O O9 0.419419 0.658311 0.904622
O O10 0.448832 0.768274 0.815768
O O11 0.239319 0.893580 0.292670
O O12 0.132752 0.000000 0.199046
O O13 0.562612 0.241694 0.868322
O O14 0.393186 0.185825 0.526251
O O15 0.761643 0.776101 0.849416
#
# Coordination Sequence:
#
# PCOD9185344 Si02
#       7
#     8   8   4   8   8   8   8
#     4   9  21  38  58  86 122 159 191 231 292 354
#     4  11  23  40  60  81 113 152 193 241 294 344
#     4  10  19  34  56  84 119 154 186 226 293 342
#     4  10  20  35  56  86 121 151 188 232 285 348
#     4  10  21  34  58  87 118 150 194 241 282 343
#     4  11  21  39  61  85 112 154 198 241 290 344
#     4  11  22  38  59  86 115 151 194 242 286 345
#
# _framework density 18.425446999999998
#
# number of rings (size 3 to 8) (size 9 to 14) (size 15 to 20)
#    0.000    1.692    3.077    1.615    2.154    2.462 
#    0.000    0.000    0.000    1.846    0.000    5.385 
#    0.000    0.000    0.000    0.000    0.000    0.000 
#
# Total GULP energy -144868.714405 kJ/mol
# GULP energy per Si atom -5571.873631 kJ/mol
# Density = 1.838351 g / cm^3
# Si number density = 18.425447 Si / 1000 Ang^3
#
#
#
# Elastic Constant Matrix: (Units=GPa)
#
#
# Indices 1 2 3 4 5 6 
#
# 1 100.6603 24.4362 38.5843 0.0000 -9.7850 0.0000
# 2 24.4362 60.9728 36.2961 0.0000 -16.5209 0.0000
# 3 38.5843 36.2961 117.4729 0.0000 -8.3049 0.0000
# 4 0.0000 0.0000 0.0000 17.2233 0.0000 -10.4691
# 5 -9.7850 -16.5209 -8.3049 0.0000 26.6825 0.0000
# 6 0.0000 0.0000 0.0000 -10.4691 0.0000 24.6506
#
#
#
# Elastic Compliance Matrix: (Units=1/GPa)
#
#
# Indices 1 2 3 4 5 6 
#
# 1 0.011866 -0.002452 -0.003006 0.000000 0.001898 0.000000
# 2 -0.002452 0.024150 -0.005790 0.000000 0.012251 0.000000
# 3 -0.003006 -0.005790 0.011204 0.000000 -0.001200 0.000000
# 4 0.000000 0.000000 0.000000 0.078265 0.000000 0.033239
# 5 0.001898 0.012251 -0.001200 0.000000 0.045386 0.000000
# 6 0.000000 0.000000 0.000000 0.033239 0.000000 0.054684
#
#
# Mechanical properties :
#
#
# Convention : Reuss Voigt Hill
#
# Bulk Modulus (GPa) = 40.44647 53.08214 46.76431
# Shear Modulus (GPa) = 19.50900 25.69724 22.60312
#
# Velocity S-wave (km/s) = 3.25746 3.73857 3.50628
# Velocity P-wave (km/s) = 6.01225 6.89257 6.46741
#
# Compressibility (1/GPa) = 0.02472404
#
# Stress axis : x y z
#
# Youngs Moduli (GPa) = 84.27227 41.40812 89.25398
#
# Poissons Ratio (x) = 0.10154 0.26827
# Poissons Ratio (y) = 0.20666 0.51679
# Poissons Ratio (z) = 0.25329 0.23976
#
# Static dielectric constant tensor:
#      x y z
#    x 1.666780 0.000000 0.003750 
#    y 0.000000 1.624010 0.000000 
#    z 0.003750 0.000000 1.642290 
# 
# From -- ./inp_files/184372.got.cif
#   From: 2010.05.17/outbox.cif.g08.bks.cpg/sg12_93_cif.got.tgz:184372.got - 2010.06.03 13:09:07.
