data_PCOD9185666
_publ_section_title
;
Structure prediction by ZEFSAII (Michael W. Deem and Ramdas Pophale) SiO2 
 PCOD9185666
Probable space group: C 2/M
;
_chemical_formula_sum "Si O2"
_cell_formula_units_Z 48
_cell_length_a 26.452251
_cell_length_b 20.666569
_cell_length_c 13.835354
_cell_angle_alpha 90.000000
_cell_angle_beta 21.162765
_cell_angle_gamma 90.000000
_cell_volume 2730.554647
_symmetry_space_group_name_H-M "C 2/M"
_symmetry_group_IT_number 12
_symmetry_cell_setting 'monoclinic'
loop_
_space_group_symop_operation_xyz
x,y,z
-x,y,-z
-x,-y,-z
x,-y,z
1/2+x,1/2+y,z
1/2-x,1/2+y,-z
1/2-x,1/2-y,-z
1/2+x,1/2-y,z
loop_
_atom_site_type_symbol
_atom_site_label
_atom_site_fract_x
_atom_site_fract_y
_atom_site_fract_z
Si Si1 0.326927 0.871992 0.056148
Si Si2 0.653888 0.137284 0.411719
Si Si3 0.844108 0.242063 0.738203
Si Si4 0.337672 0.000000 0.697617
Si Si5 0.149948 0.179492 0.764662
Si Si6 0.825891 0.500000 0.936676
Si Si7 0.853669 0.330323 0.219235
O O1 0.492837 0.861190 0.737318
O O2 0.290766 0.937275 0.062731
O O3 0.226728 0.815578 0.195569
O O4 0.312203 0.869927 0.198247
O O5 0.659323 0.193232 0.320925
O O6 0.761076 0.149713 0.307461
O O7 0.695719 0.068080 0.292737
O O8 0.000000 0.229491 0.500000
O O9 0.750000 0.250000 0.000000
O O10 0.272769 0.000000 0.921113
O O11 0.507488 0.000000 0.383742
O O12 0.124828 0.254055 0.843243
O O13 0.242424 0.172975 0.503429
O O14 0.000000 0.152142 0.000000
O O15 0.000000 0.355720 0.000000
#
# Coordination Sequence:
#
# PCOD9185666 Si02
#       7
#     8   8   8   4   8   4   8
#     4  11  21  38  61  88 121 158 203 244 303 356
#     4  11  21  38  60  89 119 162 201 246 301 357
#     4  12  24  36  59  91 120 152 201 257 295 348
#     4   9  20  36  60  82 121 164 207 237 292 361
#     4  10  21  34  58  89 121 153 195 243 306 354
#     4   9  20  38  59  85 119 165 199 248 293 355
#     4  10  19  34  57  85 118 154 193 246 298 356
#
# _framework density 17.578845000000001
#
# number of rings (size 3 to 8) (size 9 to 14) (size 15 to 20)
#    0.000    1.500    5.000    1.000    2.333    1.333 
#    0.000    2.083    0.000    2.000    0.000    0.000 
#    0.000    0.000    0.000    0.000    0.000    0.000 
#
# Total GULP energy -133760.882398 kJ/mol
# GULP energy per Si atom -5573.370100 kJ/mol
# Density = 1.753884 g / cm^3
# Si number density = 17.578845 Si / 1000 Ang^3
#
#
#
# Elastic Constant Matrix: (Units=GPa)
#
#
# Indices 1 2 3 4 5 6 
#
# 1 146.7484 62.0499 38.6598 -0.0002 -7.8966 -0.0009
# 2 62.0499 103.3848 17.1011 -0.0003 -4.6044 0.0001
# 3 38.6598 17.1011 69.8352 -0.0009 -14.0322 -0.0008
# 4 -0.0002 -0.0003 -0.0009 16.9584 0.0005 5.5708
# 5 -7.8966 -4.6044 -14.0322 0.0005 36.8096 0.0003
# 6 -0.0009 0.0001 -0.0008 5.5708 0.0003 30.7333
#
#
#
# Elastic Compliance Matrix: (Units=1/GPa)
#
#
# Indices 1 2 3 4 5 6 
#
# 1 0.010260 -0.005440 -0.004377 0.000000 -0.000148 0.000000
# 2 -0.005440 0.012970 -0.000079 0.000000 0.000425 0.000000
# 3 -0.004377 -0.000079 0.017946 0.000001 0.005892 0.000000
# 4 0.000000 0.000000 0.000001 0.062701 -0.000001 -0.011366
# 5 -0.000148 0.000425 0.005892 -0.000001 0.029434 0.000000
# 6 0.000000 0.000000 0.000000 -0.011366 0.000000 0.034598
#
#
# Mechanical properties :
#
#
# Convention : Reuss Voigt Hill
#
# Bulk Modulus (GPa) = 46.76711 61.73224 54.24968
# Shear Modulus (GPa) = 25.66335 30.37742 28.02038
#
# Velocity S-wave (km/s) = 3.82501 4.16151 3.99680
# Velocity P-wave (km/s) = 6.79482 7.63443 7.22683
#
# Compressibility (1/GPa) = 0.02138255
#
# Stress axis : x y z
#
# Youngs Moduli (GPa) = 97.46621 77.10203 55.72298
#
# Poissons Ratio (x) = 0.41947 0.24392
# Poissons Ratio (y) = 0.53026 0.00439
# Poissons Ratio (z) = 0.42664 0.00608
#
# Static dielectric constant tensor:
#      x y z
#    x 1.648990 0.000000 0.005510 
#    y 0.000000 1.607040 0.000000 
#    z 0.005510 0.000000 1.581490 
# 
# From -- ./inp_files/169607.got.cif
#   From: 2010.05.17/outbox.cif.g08.bks.cpg/sg12_85_cif.got.tgz:169607.got - 2010.06.03 13:09:07.
