data_PCOD9185378
_publ_section_title
;
Structure prediction by ZEFSAII (Michael W. Deem and Ramdas Pophale) SiO2 
 PCOD9185378
Probable space group: C 2/M
;
_chemical_formula_sum "Si O2"
_cell_formula_units_Z 56
_cell_length_a 9.344993
_cell_length_b 18.159104
_cell_length_c 26.941157
_cell_angle_alpha 90.000000
_cell_angle_beta 144.583581
_cell_angle_gamma 90.000000
_cell_volume 2649.440208
_symmetry_space_group_name_H-M "C 2/M"
_symmetry_group_IT_number 12
_symmetry_cell_setting 'monoclinic'
loop_
_space_group_symop_operation_xyz
x,y,z
-x,y,-z
-x,-y,-z
x,-y,z
1/2+x,1/2+y,z
1/2-x,1/2+y,-z
1/2-x,1/2-y,-z
1/2+x,1/2-y,z
loop_
_atom_site_type_symbol
_atom_site_label
_atom_site_fract_x
_atom_site_fract_y
_atom_site_fract_z
Si Si1 0.662867 0.163149 0.972890
Si Si2 0.643968 0.085536 0.493717
Si Si3 0.129574 0.866397 0.871542
Si Si4 0.361390 0.082193 0.310050
Si Si5 0.031062 0.301055 0.180363
Si Si6 0.515261 0.222232 0.721323
Si Si7 0.018637 0.200262 0.446997
O O1 0.391256 0.146994 0.918837
O O2 0.622628 0.151562 0.902791
O O3 0.750000 0.250000 0.000000
O O4 0.829488 0.115799 0.058302
O O5 0.500000 0.118730 0.500000
O O6 0.465909 0.089823 0.395232
O O7 0.904798 0.124406 0.557353
O O8 0.690305 0.000000 0.516976
O O9 0.933504 0.912378 0.784346
O O10 0.021040 0.784832 0.843796
O O11 0.464146 0.152310 0.309259
O O12 0.440831 0.000000 0.315672
O O13 0.324190 0.293525 0.249959
O O14 0.939074 0.309323 0.210396
O O15 0.225944 0.239799 0.640959
O O16 0.250000 0.250000 0.500000
O O17 0.000000 0.187826 0.500000
#
# Coordination Sequence:
#
# PCOD9185378 Si02
#       7
#     8   8   8   8   8   8   8
#     4   9  17  31  54  86 122 150 190 238 295 366
#     4  10  23  44  66  86 115 163 214 254 300 370
#     4   9  18  33  57  86 115 153 195 242 296 347
#     4  10  22  41  62  83 116 160 208 246 290 358
#     4  10  19  34  56  86 120 152 194 242 298 362
#     4  11  22  36  58  88 117 160 196 247 307 355
#     4  12  24  38  57  91 128 160 196 255 317 367
#
# _framework density 21.13654
#
# number of rings (size 3 to 8) (size 9 to 14) (size 15 to 20)
#    0.000    1.857    2.857    1.286    2.000    2.000 
#    0.000    1.429    0.000    2.571    0.000    0.000 
#    0.000    0.000    0.000    0.000    0.000    0.000 
#
# Total GULP energy -155869.806918 kJ/mol
# GULP energy per Si atom -5566.778818 kJ/mol
# Density = 2.108843 g / cm^3
# Si number density = 21.136540 Si / 1000 Ang^3
#
#
#
# Elastic Constant Matrix: (Units=GPa)
#
#
# Indices 1 2 3 4 5 6 
#
# 1 83.1474 1.9297 -0.9852 -0.0001 -15.5754 -0.0001
# 2 1.9297 37.3309 -11.0898 0.0000 0.7541 0.0000
# 3 -0.9852 -11.0898 47.1742 0.0002 -0.8560 0.0000
# 4 -0.0001 0.0000 0.0002 21.2168 0.0001 -0.1295
# 5 -15.5754 0.7541 -0.8560 0.0001 40.0282 0.0000
# 6 -0.0001 0.0000 0.0000 -0.1295 0.0000 17.1757
#
#
#
# Elastic Compliance Matrix: (Units=1/GPa)
#
#
# Indices 1 2 3 4 5 6 
#
# 1 0.012996 -0.000716 0.000195 0.000000 0.005075 0.000000
# 2 -0.000716 0.028844 0.006754 0.000000 -0.000678 0.000000
# 3 0.000195 0.006754 0.022798 0.000000 0.000436 0.000000
# 4 0.000000 0.000000 0.000000 0.047135 0.000000 0.000355
# 5 0.005075 -0.000678 0.000436 0.000000 0.026979 0.000000
# 6 0.000000 0.000000 0.000000 0.000355 0.000000 0.058224
#
#
# Mechanical properties :
#
#
# Convention : Reuss Voigt Hill
#
# Bulk Modulus (GPa) = 12.96965 16.37354 14.67159
# Shear Modulus (GPa) = 23.78541 27.53735 25.66138
#
# Velocity S-wave (km/s) = 3.35822 3.61339 3.48814
# Velocity P-wave (km/s) = 4.60286 5.01719 4.81448
#
# Compressibility (1/GPa) = 0.07710308
#
# Stress axis : x y z
#
# Youngs Moduli (GPa) = 76.94456 34.66875 43.86412
#
# Poissons Ratio (x) = 0.02484 -0.00856
# Poissons Ratio (y) = 0.05512 -0.29624
# Poissons Ratio (z) = -0.01501 -0.23414
#
# Static dielectric constant tensor:
#      x y z
#    x 7.599510 0.000000 2.539190 
#    y 0.000000 1.771560 0.000000 
#    z 2.539190 0.000000 2.999400 
# 
# From -- ./inp_files/356752.got.cif
#   From: 2010.05.17/outbox.cif.g08.bks.cpg/sg12_179_cif.got.tgz:356752.got - 2010.06.03 13:09:07.
