data_PCOD9185217
_publ_section_title
;
Structure prediction by ZEFSAII (Michael W. Deem and Ramdas Pophale) SiO2 
 PCOD9185217
Probable space group: C 2/M
;
_chemical_formula_sum "Si O2"
_cell_formula_units_Z 64
_cell_length_a 14.578427
_cell_length_b 8.783878
_cell_length_c 27.786083
_cell_angle_alpha 90.000000
_cell_angle_beta 75.455531
_cell_angle_gamma 90.000000
_cell_volume 3444.122342
_symmetry_space_group_name_H-M "C 2/M"
_symmetry_group_IT_number 12
_symmetry_cell_setting 'monoclinic'
loop_
_space_group_symop_operation_xyz
x,y,z
-x,y,-z
-x,-y,-z
x,-y,z
1/2+x,1/2+y,z
1/2-x,1/2+y,-z
1/2-x,1/2-y,-z
1/2+x,1/2-y,z
loop_
_atom_site_type_symbol
_atom_site_label
_atom_site_fract_x
_atom_site_fract_y
_atom_site_fract_z
Si Si1 0.096334 0.317557 0.591081
Si Si2 0.305361 0.818230 0.322045
Si Si3 0.125829 0.680373 0.386335
Si Si4 0.615305 0.326448 0.488403
Si Si5 0.035886 0.815889 0.942453
Si Si6 0.788531 0.316568 0.134532
Si Si7 0.422626 0.684364 0.863026
Si Si8 0.611253 0.682905 0.785634
O O1 0.104489 0.500000 0.584648
O O2 0.145197 0.271338 0.634257
O O3 0.137779 0.241430 0.537584
O O4 0.984229 0.281003 0.608267
O O5 0.196938 0.765560 0.341519
O O6 0.356130 0.743525 0.269989
O O7 0.310845 0.000000 0.317391
O O8 0.137483 0.500000 0.379948
O O9 0.148037 0.730908 0.438151
O O10 0.500000 0.326339 0.500000
O O11 0.648722 0.500000 0.479451
O O12 0.135336 0.742100 0.914365
O O13 0.961200 0.770719 0.910588
O O14 0.045810 0.000000 0.939361
O O15 0.000000 0.773380 0.000000
O O16 0.790523 0.500000 0.136149
O O17 0.682578 0.263407 0.135576
O O18 0.822367 0.250115 0.181135
O O19 0.419761 0.500000 0.863166
O O20 0.504037 0.729556 0.814332
O O21 0.616291 0.500000 0.786286
#
# Coordination Sequence:
#
# PCOD9185217 Si02
#       8
#     8   8   8   8   8   8   8   8
#     4   9  20  37  55  76 105 138 172 212 258 314
#     4  11  23  38  55  79 107 134 171 219 268 314
#     4  10  20  36  56  78 105 138 173 210 258 315
#     4   9  17  31  53  79 105 135 172 213 257 308
#     4   9  18  34  54  79 115 153 184 217 260 311
#     4  10  19  34  56  81 108 140 181 225 266 307
#     4   8  17  34  55  78 106 142 180 218 263 313
#     4  10  21  39  57  75 103 138 176 217 266 321
#
# _framework density 18.582383
#
# number of rings (size 3 to 8) (size 9 to 14) (size 15 to 20)
#    0.000    2.500    0.000    2.625    0.000    5.250 
#    0.000    8.750    0.000    0.000    0.000    0.000 
#    0.000    0.000    0.000    0.000    0.000    0.000 
#
# Total GULP energy -178638.579427 kJ/mol
# GULP energy per Si atom -5582.455607 kJ/mol
# Density = 1.854009 g / cm^3
# Si number density = 18.582383 Si / 1000 Ang^3
#
#
#
# Elastic Constant Matrix: (Units=GPa)
#
#
# Indices 1 2 3 4 5 6 
#
# 1 126.9352 27.3977 55.7348 0.0000 -8.9573 0.0000
# 2 27.3977 40.4798 30.1901 0.0000 -3.4032 0.0000
# 3 55.7348 30.1901 117.2733 0.0000 -15.6944 0.0000
# 4 0.0000 0.0000 0.0000 30.2353 0.0000 -3.8856
# 5 -8.9573 -3.4032 -15.6944 0.0000 11.1669 0.0000
# 6 0.0000 0.0000 0.0000 -3.8856 0.0000 22.2280
#
#
#
# Elastic Compliance Matrix: (Units=1/GPa)
#
#
# Indices 1 2 3 4 5 6 
#
# 1 0.010537 -0.004244 -0.003642 0.000000 0.002040 0.000000
# 2 -0.004244 0.032325 -0.006702 0.000000 -0.002973 0.000000
# 3 -0.003642 -0.006702 0.013941 0.000000 0.014630 0.000000
# 4 0.000000 0.000000 0.000000 0.033834 0.000000 0.005914
# 5 0.002040 -0.002973 0.014630 0.000000 0.110841 0.000000
# 6 0.000000 0.000000 0.000000 0.005914 0.000000 0.046022
#
#
# Mechanical properties :
#
#
# Convention : Reuss Voigt Hill
#
# Bulk Modulus (GPa) = 36.19762 56.81482 46.50622
# Shear Modulus (GPa) = 17.48942 24.15043 20.81992
#
# Velocity S-wave (km/s) = 3.07120 3.60896 3.35089
# Velocity P-wave (km/s) = 5.66552 6.92872 6.32872
#
# Compressibility (1/GPa) = 0.02762613
#
# Stress axis : x y z
#
# Youngs Moduli (GPa) = 94.90112 30.93597 71.72868
#
# Poissons Ratio (x) = 0.13129 0.26127
# Poissons Ratio (y) = 0.40275 0.48076
# Poissons Ratio (z) = 0.34567 0.20735
#
# Static dielectric constant tensor:
#      x y z
#    x 1.663040 0.000000 -0.001730 
#    y 0.000000 1.623990 0.000000 
#    z -0.001730 0.000000 1.609490 
# 
# From -- ./inp_files/359852.got.cif
#   From: 2010.05.17/outbox.cif.g08.bks.cpg/sg12_180_cif.got.tgz:359852.got - 2010.06.03 13:09:07.
