data_PCOD9185816
_publ_section_title
;
Structure prediction by ZEFSAII (Michael W. Deem and Ramdas Pophale) SiO2 
 PCOD9185816
Probable space group: C 2/M
;
_chemical_formula_sum "Si O2"
_cell_formula_units_Z 64
_cell_length_a 12.589813
_cell_length_b 13.229638
_cell_length_c 17.351070
_cell_angle_alpha 90.000000
_cell_angle_beta 92.918157
_cell_angle_gamma 90.000000
_cell_volume 2886.223616
_symmetry_space_group_name_H-M "C 2/M"
_symmetry_group_IT_number 12
_symmetry_cell_setting 'monoclinic'
loop_
_space_group_symop_operation_xyz
x,y,z
-x,y,-z
-x,-y,-z
x,-y,z
1/2+x,1/2+y,z
1/2-x,1/2+y,-z
1/2-x,1/2-y,-z
1/2+x,1/2-y,z
loop_
_atom_site_type_symbol
_atom_site_label
_atom_site_fract_x
_atom_site_fract_y
_atom_site_fract_z
Si Si1 0.891962 0.769386 0.589091
Si Si2 0.378125 0.381516 0.005091
Si Si3 0.307780 0.388303 0.180591
Si Si4 0.528713 0.324864 0.247252
Si Si5 0.919225 0.389053 0.406247
Si Si6 0.238650 0.885782 0.531199
Si Si7 0.577097 0.888355 0.768227
Si Si8 0.214782 0.818335 0.149492
O O1 0.917742 0.830596 0.667094
O O2 0.863668 0.839712 0.515325
O O3 0.790211 0.693165 0.592893
O O4 0.992808 0.696413 0.582023
O O5 0.370588 0.500000 0.982404
O O6 0.308883 0.319684 0.941684
O O7 0.500000 0.348767 0.000000
O O8 0.345758 0.376349 0.092980
O O9 0.261591 0.500000 0.189570
O O10 0.413971 0.376937 0.235820
O O11 0.232113 0.292491 0.187472
O O12 0.500950 0.206780 0.228212
O O13 0.612170 0.364500 0.187867
O O14 0.972185 0.500000 0.414139
O O15 0.826579 0.386063 0.465378
O O16 0.877403 0.381696 0.317504
O O17 0.224315 0.000000 0.558555
O O18 0.675761 0.875037 0.828733
O O19 0.528739 0.000000 0.775356
#
# Coordination Sequence:
#
# PCOD9185816 Si02
#       8
#     8   8   8   8   8   8   8   8
#     4  10  20  33  53  78 107 136 173 221 265 309
#     4  10  19  34  58  84 107 135 173 217 262 303
#     4  10  22  38  55  80 109 138 175 216 259 309
#     4  10  21  35  53  77 107 142 175 213 262 314
#     4   9  17  33  56  78 102 136 178 221 264 308
#     4  10  20  34  54  79 103 134 178 221 264 312
#     4   9  19  33  51  79 108 136 177 222 261 306
#     4  11  20  34  57  79 106 143 178 212 256 310
#
# _framework density 22.174303999999999
#
# number of rings (size 3 to 8) (size 9 to 14) (size 15 to 20)
#    0.000    2.125    1.250    2.250    0.000    3.000 
#    0.000    0.000    0.000    7.125    0.000    0.000 
#    0.000    0.000    0.000    0.000    0.000    0.000 
#
# Total GULP energy -178764.107163 kJ/mol
# GULP energy per Si atom -5586.378349 kJ/mol
# Density = 2.212383 g / cm^3
# Si number density = 22.174304 Si / 1000 Ang^3
#
#
#
# Elastic Constant Matrix: (Units=GPa)
#
#
# Indices 1 2 3 4 5 6 
#
# 1 50.4761 -3.8465 15.7870 0.0000 14.6972 0.0000
# 2 -3.8465 79.9348 0.4462 0.0000 13.3525 0.0000
# 3 15.7870 0.4462 106.4373 0.0000 34.3305 0.0000
# 4 0.0000 0.0000 0.0000 18.1440 0.0000 -1.2919
# 5 14.6972 13.3525 34.3305 0.0000 34.0624 0.0000
# 6 0.0000 0.0000 0.0000 -1.2919 0.0000 10.8935
#
#
#
# Elastic Compliance Matrix: (Units=1/GPa)
#
#
# Indices 1 2 3 4 5 6 
#
# 1 0.023314 0.003039 0.000234 0.000000 -0.011487 0.000000
# 2 0.003039 0.014219 0.002534 0.000000 -0.009440 0.000000
# 3 0.000234 0.002534 0.014376 0.000000 -0.015584 0.000000
# 4 0.000000 0.000000 0.000000 0.055584 0.000000 0.006592
# 5 -0.011487 -0.009440 -0.015584 0.000000 0.053721 0.000000
# 6 0.000000 0.000000 0.000000 0.006592 0.000000 0.092580
#
#
# Mechanical properties :
#
#
# Convention : Reuss Voigt Hill
#
# Bulk Modulus (GPa) = 15.74158 29.06908 22.40533
# Shear Modulus (GPa) = 18.98583 27.58408 23.28495
#
# Velocity S-wave (km/s) = 2.92928 3.53082 3.24402
# Velocity P-wave (km/s) = 4.30759 5.45528 4.91505
#
# Compressibility (1/GPa) = 0.06352602
#
# Stress axis : x y z
#
# Youngs Moduli (GPa) = 42.89180 70.32793 69.55892
#
# Poissons Ratio (x) = -0.21376 -0.01630
# Poissons Ratio (y) = -0.13037 -0.17628
# Poissons Ratio (z) = -0.01005 -0.17823
#
# Static dielectric constant tensor:
#      x y z
#    x 1.791730 0.000000 -0.003200 
#    y 0.000000 1.857250 0.000000 
#    z -0.003200 0.000000 1.839410 
# 
# From -- ./inp_files/309944.got.cif
#   From: 2010.05.17/outbox.cif.g08.bks.cpg/sg12_155_cif.got.tgz:309944.got - 2010.06.03 13:09:07.
