data_PCOD9185388
_publ_section_title
;
Structure prediction by ZEFSAII (Michael W. Deem and Ramdas Pophale) SiO2 
 PCOD9185388
Probable space group: C 2/M
;
_chemical_formula_sum "Si O2"
_cell_formula_units_Z 44
_cell_length_a 12.647686
_cell_length_b 15.147652
_cell_length_c 16.849316
_cell_angle_alpha 90.000000
_cell_angle_beta 136.209655
_cell_angle_gamma 90.000000
_cell_volume 2233.871984
_symmetry_space_group_name_H-M "C 2/M"
_symmetry_group_IT_number 12
_symmetry_cell_setting 'monoclinic'
loop_
_space_group_symop_operation_xyz
x,y,z
-x,y,-z
-x,-y,-z
x,-y,z
1/2+x,1/2+y,z
1/2-x,1/2+y,-z
1/2-x,1/2-y,-z
1/2+x,1/2-y,z
loop_
_atom_site_type_symbol
_atom_site_label
_atom_site_fract_x
_atom_site_fract_y
_atom_site_fract_z
Si Si1 0.187239 0.602592 0.596641
Si Si2 0.393568 0.898253 0.189841
Si Si3 0.439004 0.100161 0.877580
Si Si4 0.267416 0.102844 0.553885
Si Si5 0.000000 0.807113 0.500000
Si Si6 0.217097 0.267149 0.743861
O O1 0.226827 0.500000 0.626321
O O2 0.235134 0.639143 0.536846
O O3 0.269416 0.659419 0.708325
O O4 0.000000 0.604611 0.500000
O O5 0.426583 0.886498 0.114431
O O6 0.561536 0.891762 0.320479
O O7 0.301815 0.820965 0.184471
O O8 0.339037 0.000000 0.174436
O O9 0.320360 0.180475 0.806044
O O10 0.376827 0.000000 0.827022
O O11 0.500000 0.100074 0.000000
O O12 0.148008 0.142317 0.549747
O O13 0.230566 0.000000 0.525660
O O14 0.939203 0.761151 0.386021
#
# Coordination Sequence:
#
# PCOD9185388 Si02
#       6
#     8   8   8   8   4   8
#     4  10  19  34  56  87 123 158 194 236 291 364
#     4  10  20  38  62  86 116 158 200 242 297 363
#     4  10  24  45  64  83 114 159 207 251 300 359
#     4  10  20  34  52  81 126 165 196 234 294 364
#     4  12  23  30  51  92 126 156 194 248 294 360
#     4  12  22  34  63  90 121 151 198 249 296 356
#
# _framework density 19.696740999999999
#
# number of rings (size 3 to 8) (size 9 to 14) (size 15 to 20)
#    0.000    1.455    4.545    0.818    2.545    2.909 
#    0.000    0.000    0.000    2.182    0.000    0.000 
#    0.000    0.000    0.000    0.000    0.000    0.000 
#
# Total GULP energy -122593.335937 kJ/mol
# GULP energy per Si atom -5572.424361 kJ/mol
# Density = 1.965191 g / cm^3
# Si number density = 19.696741 Si / 1000 Ang^3
#
#
#
# Elastic Constant Matrix: (Units=GPa)
#
#
# Indices 1 2 3 4 5 6 
#
# 1 101.8807 58.2069 18.9079 0.0000 -34.5496 0.0000
# 2 58.2069 110.0424 27.7325 0.0000 -6.5377 0.0000
# 3 18.9079 27.7325 41.4474 0.0000 -26.6953 0.0000
# 4 0.0000 0.0000 0.0000 20.8430 0.0000 -4.1308
# 5 -34.5496 -6.5377 -26.6953 0.0000 35.2321 0.0000
# 6 0.0000 0.0000 0.0000 -4.1308 0.0000 22.1511
#
#
#
# Elastic Compliance Matrix: (Units=1/GPa)
#
#
# Indices 1 2 3 4 5 6 
#
# 1 0.042715 -0.030172 0.047022 0.000000 0.071917 0.000000
# 2 -0.030172 0.033164 -0.045936 0.000000 -0.058239 0.000000
# 3 0.047022 -0.045936 0.112544 0.000000 0.122862 0.000000
# 4 0.000000 0.000000 0.000000 0.049819 0.000000 0.009290
# 5 0.071917 -0.058239 0.122862 0.000000 0.181193 0.000000
# 6 0.000000 0.000000 0.000000 0.009290 0.000000 0.046877
#
#
# Mechanical properties :
#
#
# Convention : Reuss Voigt Hill
#
# Bulk Modulus (GPa) = 7.67747 51.45168 29.56457
# Shear Modulus (GPa) = 8.80436 25.54679 17.17558
#
# Velocity S-wave (km/s) = 2.11652 3.60530 2.95617
# Velocity P-wave (km/s) = 3.14312 6.59618 5.16666
#
# Compressibility (1/GPa) = 0.13025129
#
# Stress axis : x y z
#
# Youngs Moduli (GPa) = 23.41095 30.15363 8.88538
#
# Poissons Ratio (x) = 0.90979 -0.41781
# Poissons Ratio (y) = 0.70635 0.40816
# Poissons Ratio (z) = -1.10084 1.38514
#
# Static dielectric constant tensor:
#      x y z
#    x 1.762160 0.000000 -0.043160 
#    y 0.000000 1.791040 0.000000 
#    z -0.043160 0.000000 1.673380 
# 
# From -- ./inp_files/263070.got.cif
#   From: 2010.05.17/outbox.cif.g08.bks.cpg/sg12_132_cif.got.tgz:263070.got - 2010.06.03 13:09:07.
