data_PCOD9185402
_publ_section_title
;
Structure prediction by ZEFSAII (Michael W. Deem and Ramdas Pophale) SiO2 
 PCOD9185402
Probable space group: C 2/M
;
_chemical_formula_sum "Si O2"
_cell_formula_units_Z 44
_cell_length_a 13.789704
_cell_length_b 18.942459
_cell_length_c 24.505070
_cell_angle_alpha 90.000000
_cell_angle_beta 22.944183
_cell_angle_gamma 90.000000
_cell_volume 2495.325358
_symmetry_space_group_name_H-M "C 2/M"
_symmetry_group_IT_number 12
_symmetry_cell_setting 'monoclinic'
loop_
_space_group_symop_operation_xyz
x,y,z
-x,y,-z
-x,-y,-z
x,-y,z
1/2+x,1/2+y,z
1/2-x,1/2+y,-z
1/2-x,1/2-y,-z
1/2+x,1/2-y,z
loop_
_atom_site_type_symbol
_atom_site_label
_atom_site_fract_x
_atom_site_fract_y
_atom_site_fract_z
Si Si1 0.752039 0.864860 0.523879
Si Si2 0.476684 0.228801 0.121774
Si Si3 0.000000 0.812530 0.000000
Si Si4 0.058083 0.579371 0.217172
Si Si5 0.201404 0.420379 0.762865
Si Si6 0.998935 0.277385 0.564427
O O1 0.581789 0.907768 0.653618
O O2 0.830931 0.791751 0.512952
O O3 0.610114 0.840530 0.543115
O O4 0.007016 0.905828 0.380105
O O5 0.444629 0.144395 0.134158
O O6 0.270480 0.256423 0.271670
O O7 0.750000 0.250000 0.000000
O O8 0.425770 0.265231 0.090119
O O9 0.228231 0.862572 0.898828
O O10 0.161724 0.500000 0.161453
O O11 0.865465 0.585689 0.266856
O O12 0.135729 0.500000 0.814127
O O13 0.000000 0.292866 0.500000
#
# Coordination Sequence:
#
# PCOD9185402 Si02
#       6
#     8   8   4   8   8   8
#     4  10  19  34  56  89 118 152 192 250 302 351
#     4  11  22  38  61  87 121 157 200 247 295 361
#     4  12  23  38  59  90 118 158 200 238 305 354
#     4  11  21  36  59  89 122 152 194 249 307 360
#     4  10  21  37  59  88 120 155 198 249 301 356
#     4  10  21  35  59  88 119 153 203 251 292 349
#
# _framework density 17.63297
#
# number of rings (size 3 to 8) (size 9 to 14) (size 15 to 20)
#    0.000    1.455    3.636    3.545    0.000    1.455 
#    0.000    0.455    0.000    2.182    0.000    0.000 
#    0.000    0.000    0.000    0.000    0.000    0.000 
#
# Total GULP energy -122837.827420 kJ/mol
# GULP energy per Si atom -5583.537610 kJ/mol
# Density = 1.759284 g / cm^3
# Si number density = 17.632970 Si / 1000 Ang^3
#
#
#
# Elastic Constant Matrix: (Units=GPa)
#
#
# Indices 1 2 3 4 5 6 
#
# 1 97.9374 47.5523 35.0995 0.0512 5.2374 -0.0250
# 2 47.5523 132.9639 41.8557 -0.0282 4.5623 0.0233
# 3 35.0995 41.8557 70.3971 0.0144 1.3975 0.0065
# 4 0.0512 -0.0282 0.0144 13.8179 -0.0527 -1.5143
# 5 5.2374 4.5623 1.3975 -0.0527 28.8854 0.0063
# 6 -0.0250 0.0233 0.0065 -1.5143 0.0063 27.7376
#
#
#
# Elastic Compliance Matrix: (Units=1/GPa)
#
#
# Indices 1 2 3 4 5 6 
#
# 1 0.013625 -0.003305 -0.004795 -0.000057 -0.001717 0.000013
# 2 -0.003305 0.010096 -0.004339 0.000033 -0.000785 -0.000008
# 3 -0.004795 -0.004339 0.019163 -0.000009 0.000628 -0.000006
# 4 -0.000057 0.000033 -0.000009 0.072806 0.000138 0.003975
# 5 -0.001717 -0.000785 0.000628 0.000138 0.035025 -0.000001
# 6 0.000013 -0.000008 -0.000006 0.003975 -0.000001 0.036269
#
#
# Mechanical properties :
#
#
# Convention : Reuss Voigt Hill
#
# Bulk Modulus (GPa) = 55.53347 61.14594 58.33970
# Shear Modulus (GPa) = 22.95012 25.87423 24.41217
#
# Velocity S-wave (km/s) = 3.61161 3.83479 3.72487
# Velocity P-wave (km/s) = 6.99672 7.37291 7.18728
#
# Compressibility (1/GPa) = 0.01800716
#
# Stress axis : x y z
#
# Youngs Moduli (GPa) = 73.39288 99.05304 52.18346
#
# Poissons Ratio (x) = 0.32734 0.25020
# Poissons Ratio (y) = 0.24254 0.22644
# Poissons Ratio (z) = 0.35189 0.42981
#
# Static dielectric constant tensor:
#      x y z
#    x 1.592930 0.000010 -0.017670 
#    y 0.000010 1.609440 0.000010 
#    z -0.017670 0.000010 1.582120 
# 
# From -- ./inp_files/131571.got.cif
#   From: 2010.05.17/outbox.cif.g08.bks.cpg/sg12_66_cif.got.tgz:131571.got - 2010.06.03 13:09:07.
