data_PCOD9185508
_publ_section_title
;
Structure prediction by ZEFSAII (Michael W. Deem and Ramdas Pophale) SiO2 
 PCOD9185508
Probable space group: C 2/M
;
_chemical_formula_sum "Si O2"
_cell_formula_units_Z 64
_cell_length_a 20.797780
_cell_length_b 8.716993
_cell_length_c 22.268832
_cell_angle_alpha 90.000000
_cell_angle_beta 130.817144
_cell_angle_gamma 90.000000
_cell_volume 3055.356955
_symmetry_space_group_name_H-M "C 2/M"
_symmetry_group_IT_number 12
_symmetry_cell_setting 'monoclinic'
loop_
_space_group_symop_operation_xyz
x,y,z
-x,y,-z
-x,-y,-z
x,-y,z
1/2+x,1/2+y,z
1/2-x,1/2+y,-z
1/2-x,1/2-y,-z
1/2+x,1/2-y,z
loop_
_atom_site_type_symbol
_atom_site_label
_atom_site_fract_x
_atom_site_fract_y
_atom_site_fract_z
Si Si1 0.244242 0.321037 0.170127
Si Si2 0.492994 0.822112 0.403477
Si Si3 0.331366 0.682536 0.682173
Si Si4 0.402717 0.824523 0.218272
Si Si5 0.324340 0.316099 0.346643
Si Si6 0.655260 0.814781 0.437135
Si Si7 0.994941 0.815677 0.162491
Si Si8 0.078951 0.184465 0.009101
O O1 0.226224 0.500000 0.164713
O O2 0.323672 0.288812 0.175536
O O3 0.277713 0.266345 0.255753
O O4 0.164065 0.239587 0.092420
O O5 0.453552 0.816247 0.312015
O O6 0.421884 0.742308 0.401784
O O7 0.588314 0.761491 0.447734
O O8 0.498943 0.000000 0.425417
O O9 0.323157 0.500000 0.669219
O O10 0.239389 0.750000 0.642432
O O11 0.367854 0.755904 0.643470
O O12 0.403205 0.712454 0.776892
O O13 0.458342 0.773910 0.196503
O O14 0.373124 0.000000 0.193763
O O15 0.325890 0.500000 0.350662
O O16 0.750000 0.750000 0.500000
O O17 0.655064 0.000000 0.438439
O O18 0.985742 0.000000 0.165244
O O19 0.942449 0.768380 0.071847
O O20 0.079303 0.000000 0.009599
O O21 0.000000 0.239841 0.000000
#
# Coordination Sequence:
#
# PCOD9185508 Si02
#       8
#     8   8   8   8   8   8   8   8
#     4  10  21  36  54  80 113 149 192 241 292 346
#     4   9  19  37  60  86 118 154 193 235 285 346
#     4  11  22  38  62  90 120 155 196 242 292 349
#     4  10  19  34  57  82 108 146 189 236 289 342
#     4  10  21  36  59  88 119 155 197 246 292 342
#     4  11  23  41  64  93 125 156 192 236 288 348
#     4  10  21  35  55  82 111 146 191 241 290 343
#     4  10  21  37  54  74 106 148 192 239 292 348
#
# _framework density 20.946816999999999
#
# number of rings (size 3 to 8) (size 9 to 14) (size 15 to 20)
#    0.000    1.875    1.250    2.625    0.000    5.750 
#    0.000    0.625    0.000    3.750    0.000    0.000 
#    0.000    0.000    0.000    0.000    0.000    0.000 
#
# Total GULP energy -178647.349125 kJ/mol
# GULP energy per Si atom -5582.729660 kJ/mol
# Density = 2.089914 g / cm^3
# Si number density = 20.946817 Si / 1000 Ang^3
#
#
#
# Elastic Constant Matrix: (Units=GPa)
#
#
# Indices 1 2 3 4 5 6 
#
# 1 119.3235 13.6189 10.1402 0.0000 17.0614 0.0000
# 2 13.6189 21.1041 0.8975 0.0000 4.0257 0.0000
# 3 10.1402 0.8975 69.1192 0.0000 17.4964 0.0000
# 4 0.0000 0.0000 0.0000 24.6227 0.0000 4.1080
# 5 17.0614 4.0257 17.4964 0.0000 30.9051 0.0000
# 6 0.0000 0.0000 0.0000 4.1080 0.0000 22.7278
#
#
#
# Elastic Compliance Matrix: (Units=1/GPa)
#
#
# Indices 1 2 3 4 5 6 
#
# 1 0.009656 -0.005361 -0.000204 0.000000 -0.004517 0.000000
# 2 -0.005361 0.051644 0.001248 0.000000 -0.004475 0.000000
# 3 -0.000204 0.001248 0.016919 0.000000 -0.009628 0.000000
# 4 0.000000 0.000000 0.000000 0.041876 0.000000 -0.007569
# 5 -0.004517 -0.004475 -0.009628 0.000000 0.040885 0.000000
# 6 0.000000 0.000000 0.000000 -0.007569 0.000000 0.045367
#
#
# Mechanical properties :
#
#
# Convention : Reuss Voigt Hill
#
# Bulk Modulus (GPa) = 14.37056 28.76225 21.56641
# Shear Modulus (GPa) = 20.99319 27.97713 24.48516
#
# Velocity S-wave (km/s) = 3.16921 3.65859 3.42266
# Velocity P-wave (km/s) = 4.50192 5.62209 5.09290
#
# Compressibility (1/GPa) = 0.06958669
#
# Stress axis : x y z
#
# Youngs Moduli (GPa) = 103.56722 19.36338 59.10619
#
# Poissons Ratio (x) = 0.10380 0.01203
# Poissons Ratio (y) = 0.55519 -0.07379
# Poissons Ratio (z) = 0.02108 -0.02417
#
# Static dielectric constant tensor:
#      x y z
#    x 1.751110 0.000000 0.005790 
#    y 0.000000 1.702190 0.000000 
#    z 0.005790 0.000000 1.866270 
# 
# From -- ./inp_files/346265.got.cif
#   From: 2010.05.17/outbox.cif.g08.bks.cpg/sg12_174_cif.got.tgz:346265.got - 2010.06.03 13:09:07.
