data_PCOD9185584
_publ_section_title
;
Structure prediction by ZEFSAII (Michael W. Deem and Ramdas Pophale) SiO2 
 PCOD9185584
Probable space group: C 2/M
;
_chemical_formula_sum "Si O2"
_cell_formula_units_Z 64
_cell_length_a 17.280422
_cell_length_b 19.517130
_cell_length_c 17.884719
_cell_angle_alpha 90.000000
_cell_angle_beta 34.815960
_cell_angle_gamma 90.000000
_cell_volume 3443.853157
_symmetry_space_group_name_H-M "C 2/M"
_symmetry_group_IT_number 12
_symmetry_cell_setting 'monoclinic'
loop_
_space_group_symop_operation_xyz
x,y,z
-x,y,-z
-x,-y,-z
x,-y,z
1/2+x,1/2+y,z
1/2-x,1/2+y,-z
1/2-x,1/2-y,-z
1/2+x,1/2-y,z
loop_
_atom_site_type_symbol
_atom_site_label
_atom_site_fract_x
_atom_site_fract_y
_atom_site_fract_z
Si Si1 0.826528 0.082285 0.493415
Si Si2 0.176940 0.357616 0.037981
Si Si3 0.657121 0.667503 0.369257
Si Si4 0.619339 0.288409 0.010398
Si Si5 0.635532 0.580846 0.236400
Si Si6 0.679371 0.697168 0.787256
Si Si7 0.467327 0.082488 0.316347
Si Si8 0.619332 0.077812 0.345438
O O1 0.816601 0.116983 0.582479
O O2 0.690633 0.104175 0.557194
O O3 0.977440 0.098433 0.342671
O O4 0.821207 0.000000 0.504984
O O5 0.280149 0.335337 0.021654
O O6 0.261465 0.402894 0.912230
O O7 0.132873 0.288346 0.030961
O O8 0.047178 0.392050 0.179807
O O9 0.500000 0.688747 0.500000
O O10 0.673697 0.626196 0.278477
O O11 0.747207 0.735152 0.301178
O O12 0.464400 0.312014 0.138354
O O13 0.656294 0.289765 0.893916
O O14 0.639827 0.500000 0.251420
O O15 0.769112 0.629388 0.712653
O O16 0.552025 0.104532 0.321970
O O17 0.468678 0.000000 0.316152
O O18 0.500000 0.074248 0.500000
O O19 0.671416 0.000000 0.292065
#
# Coordination Sequence:
#
# PCOD9185584 Si02
#       8
#     8   8   8   8   8   8   8   8
#     4   9  19  35  55  84 120 151 186 231 277 331
#     4  11  20  39  56  83 114 151 187 237 280 332
#     4  10  19  34  57  83 114 152 189 227 275 335
#     4  10  23  35  59  78 113 149 186 230 289 329
#     4  10  20  34  56  85 118 154 190 228 278 334
#     4  11  20  40  56  84 109 147 190 232 279 341
#     4  10  20  36  58  82 110 149 188 230 286 337
#     4  10  22  40  62  84 110 143 185 239 293 341
#
# _framework density 18.583835000000001
#
# number of rings (size 3 to 8) (size 9 to 14) (size 15 to 20)
#    0.000    1.875    2.500    1.875    0.000    2.500 
#    0.000    3.750    0.000    9.000    0.000    0.000 
#    0.000    0.000    0.000    0.000    0.000    0.000 
#
# Total GULP energy -178545.991444 kJ/mol
# GULP energy per Si atom -5579.562233 kJ/mol
# Density = 1.854154 g / cm^3
# Si number density = 18.583835 Si / 1000 Ang^3
#
#
#
# Elastic Constant Matrix: (Units=GPa)
#
#
# Indices 1 2 3 4 5 6 
#
# 1 46.9578 13.3524 12.8230 0.0003 -20.6002 0.0000
# 2 13.3524 31.8280 10.1439 0.0010 -14.9900 -0.0001
# 3 12.8230 10.1439 61.8355 0.0019 -5.2370 -0.0003
# 4 0.0003 0.0010 0.0019 28.3052 -0.0008 -0.5055
# 5 -20.6002 -14.9900 -5.2370 -0.0008 31.8342 0.0000
# 6 0.0000 -0.0001 -0.0003 -0.5055 0.0000 14.6398
#
#
#
# Elastic Compliance Matrix: (Units=1/GPa)
#
#
# Indices 1 2 3 4 5 6 
#
# 1 0.031336 -0.003244 -0.004440 0.000001 0.018020 0.000000
# 2 -0.003244 0.042348 -0.004831 -0.000001 0.017047 0.000000
# 3 -0.004440 -0.004831 0.017696 -0.000001 -0.002237 0.000000
# 4 0.000001 -0.000001 -0.000001 0.035351 0.000001 0.001221
# 5 0.018020 0.017047 -0.002237 0.000001 0.050733 0.000000
# 6 0.000000 0.000000 0.000000 0.001221 0.000000 0.068349
#
#
# Mechanical properties :
#
#
# Convention : Reuss Voigt Hill
#
# Bulk Modulus (GPa) = 15.07149 23.69553 19.38351
# Shear Modulus (GPa) = 17.06731 21.90931 19.48831
#
# Velocity S-wave (km/s) = 3.03379 3.43730 3.24183
# Velocity P-wave (km/s) = 4.51658 5.34151 4.94627
#
# Compressibility (1/GPa) = 0.06635045
#
# Stress axis : x y z
#
# Youngs Moduli (GPa) = 31.91233 23.61391 56.51099
#
# Poissons Ratio (x) = 0.07660 0.25090
# Poissons Ratio (y) = 0.10353 0.27298
# Poissons Ratio (z) = 0.14169 0.11407
#
# Static dielectric constant tensor:
#      x y z
#    x 1.640510 0.000000 -0.011870 
#    y 0.000000 1.615500 0.000000 
#    z -0.011870 0.000000 1.637990 
# 
# From -- ./inp_files/279081.got.cif
#   From: 2010.05.17/outbox.cif.g08.bks.cpg/sg12_140_cif.got.tgz:279081.got - 2010.06.03 13:09:07.
