data_PCOD9185953
_publ_section_title
;
Structure prediction by ZEFSAII (Michael W. Deem and Ramdas Pophale) SiO2 
 PCOD9185953
Probable space group: C 2/M
;
_chemical_formula_sum "Si O2"
_cell_formula_units_Z 56
_cell_length_a 20.190098
_cell_length_b 29.665460
_cell_length_c 8.267168
_cell_angle_alpha 90.000000
_cell_angle_beta 148.446351
_cell_angle_gamma 90.000000
_cell_volume 2591.160285
_symmetry_space_group_name_H-M "C 2/M"
_symmetry_group_IT_number 12
_symmetry_cell_setting 'monoclinic'
loop_
_space_group_symop_operation_xyz
x,y,z
-x,y,-z
-x,-y,-z
x,-y,z
1/2+x,1/2+y,z
1/2-x,1/2+y,-z
1/2-x,1/2-y,-z
1/2+x,1/2-y,z
loop_
_atom_site_type_symbol
_atom_site_label
_atom_site_fract_x
_atom_site_fract_y
_atom_site_fract_z
Si Si1 0.202294 0.000000 0.025594
Si Si2 0.561476 0.174976 0.379635
Si Si3 0.293014 0.828922 0.653735
Si Si4 0.827710 0.907526 0.438157
Si Si5 0.051974 0.846641 0.775467
Si Si6 0.569996 0.500000 0.391293
Si Si7 0.707231 0.902112 0.843043
Si Si8 0.437952 0.732583 0.708610
O O1 0.134632 0.000000 0.706368
O O2 0.283081 0.953536 0.203678
O O3 0.080846 0.000000 0.892948
O O4 0.656452 0.174153 0.422726
O O5 0.596652 0.132619 0.564770
O O6 0.577019 0.228119 0.455913
O O7 0.416572 0.170338 0.023776
O O8 0.225073 0.877078 0.529770
O O9 0.193332 0.792026 0.515517
O O10 0.951070 0.882749 0.626362
O O11 0.874441 0.956542 0.580120
O O12 0.730800 0.907103 0.084586
O O13 0.000000 0.826757 0.500000
O O14 0.040960 0.805243 0.874150
O O15 0.175043 0.874323 0.986911
O O16 0.500000 0.753106 0.000000
#
# Coordination Sequence:
#
# PCOD9185953 Si02
#       8
#     4   8   8   8   8   4   8   8
#     4   9  16  30  60  89 118 142 186 226 278 344
#     4  11  23  37  55  77 110 154 191 228 275 336
#     4  10  22  39  54  79 112 147 190 230 282 331
#     4   9  18  34  57  85 115 143 180 233 283 328
#     4   9  18  33  53  86 119 139 174 230 291 326
#     4   9  14  30  60  91 110 144 181 232 289 324
#     4  10  19  34  58  87 116 147 181 229 280 339
#     4  11  21  37  60  81 103 148 192 238 272 337
#
# _framework density 21.611941999999999
#
# number of rings (size 3 to 8) (size 9 to 14) (size 15 to 20)
#    0.000    2.143    2.857    1.286    2.000    0.571 
#    2.571    3.571    0.000    5.143    0.000    0.000 
#    0.000    0.000    0.000    0.000    0.000    0.000 
#
# Total GULP energy -156131.649717 kJ/mol
# GULP energy per Si atom -5576.130347 kJ/mol
# Density = 2.156275 g / cm^3
# Si number density = 21.611942 Si / 1000 Ang^3
#
#
#
# Elastic Constant Matrix: (Units=GPa)
#
#
# Indices 1 2 3 4 5 6 
#
# 1 50.5828 22.7292 2.4336 0.0000 18.8099 0.0000
# 2 22.7292 162.4666 28.6674 0.0000 2.7817 0.0000
# 3 2.4336 28.6674 43.0026 0.0000 8.9423 0.0000
# 4 0.0000 0.0000 0.0000 -22.0564 0.0000 -22.7854
# 5 18.8099 2.7817 8.9423 0.0000 20.9643 0.0000
# 6 0.0000 0.0000 0.0000 -22.7854 0.0000 13.2757
#
#
#
# Elastic Compliance Matrix: (Units=1/GPa)
#
#
# Indices 1 2 3 4 5 6 
#
# 1 0.034693 -0.005867 0.009063 0.000000 -0.034215 0.000000
# 2 -0.005867 0.007994 -0.006442 0.000000 0.006951 0.000000
# 3 0.009063 -0.006442 0.031328 0.000000 -0.020640 0.000000
# 4 0.000000 0.000000 0.000000 -0.016350 0.000000 -0.028061
# 5 -0.034215 0.006951 -0.020640 0.000000 0.086281 0.000000
# 6 0.000000 0.000000 0.000000 -0.028061 0.000000 0.027163
#
#
# Mechanical properties :
#
#
# Convention : Reuss Voigt Hill
#
# Bulk Modulus (GPa) = 14.81000 40.41249 27.61125
# Shear Modulus (GPa) = 24.98627 15.91818 20.45223
#
# Velocity S-wave (km/s) = 3.40388 2.71688 3.07960
# Velocity P-wave (km/s) = 4.72400 5.34618 5.04469
#
# Compressibility (1/GPa) = 0.06752193
#
# Stress axis : x y z
#
# Youngs Moduli (GPa) = 28.82406 125.09944 31.92011
#
# Poissons Ratio (x) = 0.73395 -0.28928
# Poissons Ratio (y) = 0.16911 0.20564
# Poissons Ratio (z) = -0.26122 0.80594
#
# Static dielectric constant tensor:
#      x y z
#    x 1.820470 0.000000 0.010530 
#    y 0.000000 1.801820 0.000000 
#    z 0.010530 0.000000 1.740420 
# 
# From -- ./inp_files/91691.got.cif
#   From: 2010.05.17/outbox.cif.g08.bks.cpg/sg12_46_cif.got.tgz:91691.got - 2010.06.03 13:09:07.
