data_PCOD9185758
_publ_section_title
;
Structure prediction by ZEFSAII (Michael W. Deem and Ramdas Pophale) SiO2 
 PCOD9185758
Probable space group: C 2/M
;
_chemical_formula_sum "Si O2"
_cell_formula_units_Z 56
_cell_length_a 29.051388
_cell_length_b 8.485653
_cell_length_c 15.708981
_cell_angle_alpha 90.000000
_cell_angle_beta 40.819425
_cell_angle_gamma 90.000000
_cell_volume 2531.415959
_symmetry_space_group_name_H-M "C 2/M"
_symmetry_group_IT_number 12
_symmetry_cell_setting 'monoclinic'
loop_
_space_group_symop_operation_xyz
x,y,z
-x,y,-z
-x,-y,-z
x,-y,z
1/2+x,1/2+y,z
1/2-x,1/2+y,-z
1/2-x,1/2-y,-z
1/2+x,1/2-y,z
loop_
_atom_site_type_symbol
_atom_site_label
_atom_site_fract_x
_atom_site_fract_y
_atom_site_fract_z
Si Si1 0.738508 0.692678 0.747342
Si Si2 0.753944 0.827318 0.084956
Si Si3 0.912146 0.676187 0.681281
Si Si4 0.472180 0.313505 0.767264
Si Si5 0.818292 0.809865 0.352406
Si Si6 0.099752 0.308617 0.486337
Si Si7 0.021336 0.807143 0.874444
O O1 0.737799 0.500000 0.754797
O O2 0.715492 0.751561 0.872985
O O3 0.692966 0.736487 0.730495
O O4 0.819284 0.740600 0.616273
O O5 0.671011 0.840574 0.220357
O O6 0.786458 0.000000 0.029901
O O7 0.750000 0.750000 0.000000
O O8 0.941939 0.500000 0.647998
O O9 0.923585 0.752869 0.757428
O O10 0.932195 0.745175 0.560631
O O11 0.464641 0.500000 0.779314
O O12 0.549589 0.264551 0.626488
O O13 0.469875 0.257249 0.868746
O O14 0.750000 0.750000 0.500000
O O15 0.898138 0.758781 0.261234
O O16 0.816406 0.000000 0.360825
O O17 0.098001 0.500000 0.491578
O O18 0.979405 0.000000 0.123245
O O19 0.000000 0.756714 0.000000
#
# Coordination Sequence:
#
# PCOD9185758 Si02
#       7
#     8   8   8   8   8   8   8
#     4   8  16  31  52  75  97 130 172 206 246 310
#     4   9  18  33  51  73 100 128 164 206 248 301
#     4   9  19  34  50  70 100 137 168 196 244 312
#     4  11  21  31  49  76 101 129 169 215 255 293
#     4  10  19  34  58  82 104 134 175 222 267 313
#     4   9  17  32  52  73 101 134 165 200 250 313
#     4   9  20  37  53  74 107 144 179 216 263 317
#
# _framework density 22.122005999999999
#
# number of rings (size 3 to 8) (size 9 to 14) (size 15 to 20)
#    0.000    2.714    0.000    3.429    0.000    4.000 
#    0.000    6.429    0.000    3.857    0.000    0.000 
#    0.000    0.000    0.000    0.000    0.000    0.000 
#
# Total GULP energy -155943.096688 kJ/mol
# GULP energy per Si atom -5569.396310 kJ/mol
# Density = 2.207165 g / cm^3
# Si number density = 22.122006 Si / 1000 Ang^3
#
#
#
# Elastic Constant Matrix: (Units=GPa)
#
#
# Indices 1 2 3 4 5 6 
#
# 1 140.1574 17.2856 33.7215 0.0010 34.4951 0.0008
# 2 17.2856 8.8272 8.0132 0.0060 8.9810 0.0000
# 3 33.7215 8.0132 83.0780 0.0018 31.9998 0.0011
# 4 0.0010 0.0060 0.0018 20.2527 -0.0011 3.9560
# 5 34.4951 8.9810 31.9998 -0.0011 50.8108 -0.0008
# 6 0.0008 0.0000 0.0011 3.9560 -0.0008 4.8177
#
#
#
# Elastic Compliance Matrix: (Units=1/GPa)
#
#
# Indices 1 2 3 4 5 6 
#
# 1 0.010170 -0.015272 -0.001367 0.000005 -0.003344 -0.000006
# 2 -0.015272 0.162764 -0.003185 -0.000057 -0.016395 0.000047
# 3 -0.001367 -0.003185 0.016272 0.000000 -0.008757 -0.000005
# 4 0.000005 -0.000057 0.000000 0.058809 0.000007 -0.048290
# 5 -0.003344 -0.016395 -0.008757 0.000007 0.030364 0.000002
# 6 -0.000006 0.000047 -0.000005 -0.048290 0.000002 0.247222
#
#
# Mechanical properties :
#
#
# Convention : Reuss Voigt Hill
#
# Bulk Modulus (GPa) = 6.68641 38.90036 22.79339
# Shear Modulus (GPa) = 8.12872 26.71240 17.42056
#
# Velocity S-wave (km/s) = 1.91898 3.47868 2.80925
# Velocity P-wave (km/s) = 2.81763 5.81013 4.56600
#
# Compressibility (1/GPa) = 0.14955708
#
# Stress axis : x y z
#
# Youngs Moduli (GPa) = 98.32529 6.14386 61.45574
#
# Poissons Ratio (x) = 0.09383 0.08401
# Poissons Ratio (y) = 1.50165 0.19576
# Poissons Ratio (z) = 0.13441 0.01957
#
# Static dielectric constant tensor:
#      x y z
#    x 1.865390 0.000000 0.009190 
#    y 0.000000 1.780160 0.000000 
#    z 0.009190 0.000000 1.930950 
# 
# From -- ./inp_files/248877.got.cif
#   From: 2010.05.17/outbox.cif.g08.bks.cpg/sg12_125_cif.got.tgz:248877.got - 2010.06.03 13:09:07.
