data_PCOD9185473
_publ_section_title
;
Structure prediction by ZEFSAII (Michael W. Deem and Ramdas Pophale) SiO2 
 PCOD9185473
Probable space group: C 2/M
;
_chemical_formula_sum "Si O2"
_cell_formula_units_Z 40
_cell_length_a 10.390074
_cell_length_b 14.452745
_cell_length_c 16.009184
_cell_angle_alpha 90.000000
_cell_angle_beta 49.533403
_cell_angle_gamma 90.000000
_cell_volume 1828.941480
_symmetry_space_group_name_H-M "C 2/M"
_symmetry_group_IT_number 12
_symmetry_cell_setting 'monoclinic'
loop_
_space_group_symop_operation_xyz
x,y,z
-x,y,-z
-x,-y,-z
x,-y,z
1/2+x,1/2+y,z
1/2-x,1/2+y,-z
1/2-x,1/2-y,-z
1/2+x,1/2-y,z
loop_
_atom_site_type_symbol
_atom_site_label
_atom_site_fract_x
_atom_site_fract_y
_atom_site_fract_z
Si Si1 0.462226 0.894131 0.772507
Si Si2 0.633353 0.888231 0.866646
Si Si3 0.372351 0.113336 0.627648
Si Si4 0.007241 0.894131 0.227494
Si Si5 0.146050 0.167044 0.000000
O O1 0.569818 0.851394 0.803729
O O2 0.443404 0.854093 0.687632
O O3 0.520996 0.000000 0.737476
O O4 0.276390 0.891735 0.891094
O O5 0.822722 0.851395 0.803729
O O6 0.645716 0.000000 0.854283
O O7 0.500000 0.878881 0.000000
O O8 0.500000 0.137540 0.500000
O O9 0.181329 0.145908 0.687631
O O10 0.362893 0.000000 0.637105
O O11 0.058577 0.891734 0.108908
O O12 0.995949 0.000000 0.262525
O O13 0.250000 0.250000 0.000000
O O14 0.000000 0.199496 0.000000
#
# Coordination Sequence:
#
# PCOD9185473 Si02
#       5
#     8   8   8   8   8
#     4  10  19  34  57  81 109 146 184 222 275 332
#     4   9  16  26  47  79 109 136 168 213 263 326
#     4   9  18  33  55  83 109 137 187 244 274 304
#     4  10  19  34  57  81 109 146 184 222 275 332
#     4  12  25  35  50  82 116 147 174 227 283 335
#
# _framework density 21.870576
#
# number of rings (size 3 to 8) (size 9 to 14) (size 15 to 20)
#    0.000    2.000    4.000    0.600    2.800    0.800 
#    0.000    1.000    0.000    7.200    0.000    0.000 
#    0.000    0.000    0.000    0.000    0.000    0.000 
#
# Total GULP energy -111543.474871 kJ/mol
# GULP energy per Si atom -5577.173744 kJ/mol
# Density = 2.182080 g / cm^3
# Si number density = 21.870576 Si / 1000 Ang^3
#
#
#
# Elastic Constant Matrix: (Units=GPa)
#
#
# Indices 1 2 3 4 5 6 
#
# 1 246.5662 7.7010 97.4471 0.0000 -7.8150 0.0000
# 2 7.7010 46.9115 -2.9183 0.0000 -0.7445 0.0000
# 3 97.4471 -2.9183 153.7082 0.0000 1.2989 0.0000
# 4 0.0000 0.0000 0.0000 7.9652 0.0000 -0.0227
# 5 -7.8150 -0.7445 1.2989 0.0000 19.4885 0.0000
# 6 0.0000 0.0000 0.0000 -0.0227 0.0000 8.2859
#
#
#
# Elastic Compliance Matrix: (Units=1/GPa)
#
#
# Indices 1 2 3 4 5 6 
#
# 1 0.005582 -0.001100 -0.003581 0.000000 0.002435 0.000000
# 2 -0.001100 0.021571 0.001105 0.000000 0.000309 0.000000
# 3 -0.003581 0.001105 0.008814 0.000000 -0.001981 0.000000
# 4 0.000000 0.000000 0.000000 0.125547 0.000000 0.000344
# 5 0.002435 0.000309 -0.001981 0.000000 0.052433 0.000000
# 6 0.000000 0.000000 0.000000 0.000344 0.000000 0.120688
#
#
# Mechanical properties :
#
#
# Convention : Reuss Voigt Hill
#
# Bulk Modulus (GPa) = 34.70529 72.40506 53.55518
# Shear Modulus (GPa) = 14.22911 30.14498 22.18704
#
# Velocity S-wave (km/s) = 2.55346 3.71662 3.18853
# Velocity P-wave (km/s) = 4.95949 7.18302 6.17220
#
# Compressibility (1/GPa) = 0.02881405
#
# Stress axis : x y z
#
# Youngs Moduli (GPa) = 179.13595 46.35851 113.46200
#
# Poissons Ratio (x) = 0.05102 0.40626
# Poissons Ratio (y) = 0.19714 -0.12533
# Poissons Ratio (z) = 0.64140 -0.05121
#
# Static dielectric constant tensor:
#      x y z
#    x 1.875960 0.000000 -0.009620 
#    y 0.000000 1.831460 0.000000 
#    z -0.009620 0.000000 1.738800 
# 
# From -- ./inp_files/120242.got.cif
#   From: 2010.05.17/outbox.cif.g08.bks.cpg/sg12_61_cif.got.tgz:120242.got - 2010.06.03 13:09:07.
