data_PCOD9185023
_publ_section_title
;
Structure prediction by ZEFSAII (Michael W. Deem and Ramdas Pophale) SiO2 
 PCOD9185023
Probable space group: C 2/M
;
_chemical_formula_sum "Si O2"
_cell_formula_units_Z 48
_cell_length_a 25.682317
_cell_length_b 18.683196
_cell_length_c 9.163265
_cell_angle_alpha 90.000000
_cell_angle_beta 152.156497
_cell_angle_gamma 90.000000
_cell_volume 2053.556074
_symmetry_space_group_name_H-M "C 2/M"
_symmetry_group_IT_number 12
_symmetry_cell_setting 'monoclinic'
loop_
_space_group_symop_operation_xyz
x,y,z
-x,y,-z
-x,-y,-z
x,-y,z
1/2+x,1/2+y,z
1/2-x,1/2+y,-z
1/2-x,1/2-y,-z
1/2+x,1/2-y,z
loop_
_atom_site_type_symbol
_atom_site_label
_atom_site_fract_x
_atom_site_fract_y
_atom_site_fract_z
Si Si1 0.872328 0.078056 0.995991
Si Si2 0.618005 0.613491 0.647229
Si Si3 0.379783 0.226361 0.325700
Si Si4 0.384926 0.695071 0.789172
Si Si5 0.699638 0.856298 0.124407
Si Si6 0.471240 0.147696 0.085859
O O1 0.845272 0.096405 0.097024
O O2 0.007055 0.072475 0.329366
O O3 0.825541 0.000000 0.840092
O O4 0.845331 0.141771 0.818160
O O5 0.570547 0.695335 0.527007
O O6 0.721421 0.602443 0.794360
O O7 0.421295 0.171655 0.552112
O O8 0.250000 0.250000 0.000000
O O9 0.386572 0.190896 0.183777
O O10 0.289742 0.692455 0.431201
O O11 0.500000 0.667500 0.000000
O O12 0.412104 0.775443 0.904861
O O13 0.619196 0.894202 0.041043
O O14 0.500000 0.115835 0.000000
#
# Coordination Sequence:
#
# PCOD9185023 Si02
#       6
#     8   8   8   8   8   8
#     4  11  22  36  59  82 113 158 203 249 303 351
#     4  10  19  36  52  79 116 151 193 247 288 342
#     4  10  19  34  55  81 116 161 193 230 289 354
#     4  11  20  38  53  80 122 160 191 244 292 342
#     4  11  22  33  53  81 113 163 200 225 286 359
#     4  11  21  34  54  82 122 159 196 230 285 356
#
# _framework density 23.374088
#
# number of rings (size 3 to 8) (size 9 to 14) (size 15 to 20)
#    0.000    1.333    3.333    6.000    2.333    3.000 
#    0.000    0.000    0.000    0.000    0.000    0.000 
#    0.000  118.000    0.000    0.000    0.000    0.000 
#
# Total GULP energy -133995.672906 kJ/mol
# GULP energy per Si atom -5583.153038 kJ/mol
# Density = 2.332089 g / cm^3
# Si number density = 23.374088 Si / 1000 Ang^3
#
#
#
# Elastic Constant Matrix: (Units=GPa)
#
#
# Indices 1 2 3 4 5 6 
#
# 1 189.3331 8.5434 24.5914 0.0000 6.2219 0.0000
# 2 8.5434 28.4163 -4.0528 0.0000 -4.3193 0.0000
# 3 24.5914 -4.0528 125.6453 0.0000 -9.8567 0.0000
# 4 0.0000 0.0000 0.0000 5.8701 0.0000 4.7340
# 5 6.2219 -4.3193 -9.8567 0.0000 38.4503 0.0000
# 6 0.0000 0.0000 0.0000 4.7340 0.0000 -9.8345
#
#
#
# Elastic Compliance Matrix: (Units=1/GPa)
#
#
# Indices 1 2 3 4 5 6 
#
# 1 0.005590 -0.002085 -0.001276 0.000000 -0.001466 0.000000
# 2 -0.002085 0.036860 0.001988 0.000000 0.004988 0.000000
# 3 -0.001276 0.001988 0.008477 0.000000 0.002603 0.000000
# 4 0.000000 0.000000 0.000000 0.122716 0.000000 0.059071
# 5 -0.001466 0.004988 0.002603 0.000000 0.027472 0.000000
# 6 0.000000 0.000000 0.000000 0.059071 0.000000 -0.073248
#
#
# Mechanical properties :
#
#
# Convention : Reuss Voigt Hill
#
# Bulk Modulus (GPa) = 20.75551 44.61763 32.68657
# Shear Modulus (GPa) = 34.08915 27.85136 30.97026
#
# Velocity S-wave (km/s) = 3.82306 3.45563 3.64398
# Velocity P-wave (km/s) = 5.32792 5.92045 5.63198
#
# Compressibility (1/GPa) = 0.04817999
#
# Stress axis : x y z
#
# Youngs Moduli (GPa) = 178.89909 27.12980 117.96557
#
# Poissons Ratio (x) = 0.05658 0.15056
# Poissons Ratio (y) = 0.37308 -0.23456
# Poissons Ratio (z) = 0.22833 -0.05395
#
# Static dielectric constant tensor:
#      x y z
#    x 2.029260 0.000000 0.001380 
#    y 0.000000 1.918290 0.000000 
#    z 0.001380 0.000000 1.933870 
# 
# From -- ./inp_files/106586.got.cif
#   From: 2010.05.17/outbox.cif.g08.bks.cpg/sg12_54_cif.got.tgz:106586.got - 2010.06.03 13:09:07.
