data_PCOD9185345
_publ_section_title
;
Structure prediction by ZEFSAII (Michael W. Deem and Ramdas Pophale) SiO2 
 PCOD9185345
Probable space group: C 2/M
;
_chemical_formula_sum "Si O2"
_cell_formula_units_Z 58
_cell_length_a 20.932683
_cell_length_b 23.643889
_cell_length_c 8.843686
_cell_angle_alpha 90.000000
_cell_angle_beta 40.877439
_cell_angle_gamma 90.000000
_cell_volume 2864.501403
_symmetry_space_group_name_H-M "C 2/M"
_symmetry_group_IT_number 12
_symmetry_cell_setting 'monoclinic'
loop_
_space_group_symop_operation_xyz
x,y,z
-x,y,-z
-x,-y,-z
x,-y,z
1/2+x,1/2+y,z
1/2-x,1/2+y,-z
1/2-x,1/2-y,-z
1/2+x,1/2-y,z
loop_
_atom_site_type_symbol
_atom_site_label
_atom_site_fract_x
_atom_site_fract_y
_atom_site_fract_z
Si Si1 0.289399 0.433471 0.297221
Si Si2 0.346996 0.397946 0.692418
Si Si3 0.816610 0.438408 0.200251
Si Si4 0.000000 0.500000 0.500000
Si Si5 0.882901 0.612623 0.592084
Si Si6 0.296043 0.196627 0.999393
Si Si7 0.958615 0.067704 0.797214
Si Si8 0.541756 0.832661 0.086742
O O1 0.281134 0.500000 0.273628
O O2 0.254645 0.428435 0.530905
O O3 0.212912 0.399677 0.334012
O O4 0.399155 0.417739 0.054553
O O5 0.255018 0.437038 0.814805
O O6 0.436335 0.405500 0.417991
O O7 0.390796 0.413041 0.777433
O O8 0.297380 0.336983 0.769572
O O9 0.864113 0.500000 0.126728
O O10 0.896568 0.390174 0.052513
O O11 0.071010 0.552027 0.441435
O O12 0.849938 0.652446 0.789711
O O13 0.957906 0.648112 0.353403
O O14 0.378841 0.208384 0.976865
O O15 0.250000 0.250000 0.000000
O O16 0.972600 0.000000 0.763086
O O17 0.500000 0.813351 0.000000
#
# Coordination Sequence:
#
# PCOD9185345 Si02
#       8
#     8   8   8   2   8   8   8   8
#     4  10  20  33  54  86 130 169 200 251 314 389
#     4  10  20  36  58  84 114 160 216 267 314 368
#     4  10  21  33  56  91 133 175 202 250 324 400
#     4  12  24  36  66 104 142 170 220 260 340 406
#     4  12  22  40  62  99 133 174 211 266 327 404
#     4  11  25  46  66  91 124 172 223 277 324 393
#     4  10  19  34  56  84 119 159 208 259 304 371
#     4  11  23  40  66  96 132 163 214 273 336 399
#
# _framework density 20.247852999999999
#
# number of rings (size 3 to 8) (size 9 to 14) (size 15 to 20)
#    0.000    1.379    4.828    1.655    0.966    0.828 
#    6.207    2.759    0.000    0.000    0.000    0.000 
#    0.000    0.000    0.000    0.000    0.000    0.000 
#
# Total GULP energy -161613.797467 kJ/mol
# GULP energy per Si atom -5572.889568 kJ/mol
# Density = 2.020177 g / cm^3
# Si number density = 20.247853 Si / 1000 Ang^3
#
#
#
# Elastic Constant Matrix: (Units=GPa)
#
#
# Indices 1 2 3 4 5 6 
#
# 1 111.7616 36.6594 20.3678 0.0000 -11.5283 0.0000
# 2 36.6594 48.3576 17.7789 0.0000 -8.2627 0.0000
# 3 20.3678 17.7789 89.2395 0.0000 -23.6277 0.0000
# 4 0.0000 0.0000 0.0000 8.1555 0.0000 -3.7565
# 5 -11.5283 -8.2627 -23.6277 0.0000 18.0969 0.0000
# 6 0.0000 0.0000 0.0000 -3.7565 0.0000 14.1723
#
#
#
# Elastic Compliance Matrix: (Units=1/GPa)
#
#
# Indices 1 2 3 4 5 6 
#
# 1 0.012150 -0.008542 -0.000083 0.000000 0.003730 0.000000
# 2 -0.008542 0.028864 -0.002678 0.000000 0.004241 0.000000
# 3 -0.000083 -0.002678 0.017454 0.000000 0.021513 0.000000
# 4 0.000000 0.000000 0.000000 0.139668 0.000000 0.037020
# 5 0.003730 0.004241 0.021513 0.000000 0.087658 0.000000
# 6 0.000000 0.000000 0.000000 0.037020 0.000000 0.080373
#
#
# Mechanical properties :
#
#
# Convention : Reuss Voigt Hill
#
# Bulk Modulus (GPa) = 27.88590 44.33011 36.10801
# Shear Modulus (GPa) = 12.47726 19.72178 16.09952
#
# Velocity S-wave (km/s) = 2.48508 3.12431 2.82285
# Velocity P-wave (km/s) = 4.69429 5.91239 5.33820
#
# Compressibility (1/GPa) = 0.03586041
#
# Stress axis : x y z
#
# Youngs Moduli (GPa) = 82.30679 34.64474 57.29265
#
# Poissons Ratio (x) = 0.29595 0.00478
# Poissons Ratio (y) = 0.70310 0.15343
# Poissons Ratio (z) = 0.00687 0.09278
#
# Static dielectric constant tensor:
#      x y z
#    x 1.760130 0.000000 0.029970 
#    y 0.000000 1.706370 0.000000 
#    z 0.029970 0.000000 1.761670 
# 
# From -- ./inp_files/90801.got.cif
#   From: 2010.05.17/outbox.cif.g08.bks.cpg/sg12_46_cif.got.tgz:90801.got - 2010.06.03 13:09:07.
