data_PCOD9185705
_publ_section_title
;
Structure prediction by ZEFSAII (Michael W. Deem and Ramdas Pophale) SiO2 
 PCOD9185705
Probable space group: C 2/M
;
_chemical_formula_sum "Si O2"
_cell_formula_units_Z 52
_cell_length_a 11.249074
_cell_length_b 29.947680
_cell_length_c 11.806317
_cell_angle_alpha 90.000000
_cell_angle_beta 40.934213
_cell_angle_gamma 90.000000
_cell_volume 2605.931584
_symmetry_space_group_name_H-M "C 2/M"
_symmetry_group_IT_number 12
_symmetry_cell_setting 'monoclinic'
loop_
_space_group_symop_operation_xyz
x,y,z
-x,y,-z
-x,-y,-z
x,-y,z
1/2+x,1/2+y,z
1/2-x,1/2+y,-z
1/2-x,1/2-y,-z
1/2+x,1/2-y,z
loop_
_atom_site_type_symbol
_atom_site_label
_atom_site_fract_x
_atom_site_fract_y
_atom_site_fract_z
Si Si1 0.795106 0.351034 0.490005
Si Si2 0.500000 0.211440 0.500000
Si Si3 0.965920 0.138617 0.890722
Si Si4 0.304258 0.203025 0.011799
Si Si5 0.536839 0.948374 0.608127
Si Si6 0.140066 0.047295 0.004441
Si Si7 0.236650 0.705439 0.704800
O O1 0.640275 0.345471 0.696889
O O2 0.721688 0.328936 0.426600
O O3 0.962140 0.321249 0.420523
O O4 0.851484 0.403435 0.439805
O O5 0.668831 0.246401 0.379452
O O6 0.785424 0.166297 0.001452
O O7 0.924379 0.088849 0.878038
O O8 0.000000 0.138421 0.000000
O O9 0.220316 0.193705 0.196320
O O10 0.250000 0.250000 0.000000
O O11 0.519384 0.205331 0.860727
O O12 0.500000 0.945118 0.500000
O O13 0.606755 0.000000 0.577815
O O14 0.341295 0.945797 0.810513
O O15 0.132694 0.000000 0.070432
O O16 0.000000 0.045156 0.000000
#
# Coordination Sequence:
#
# PCOD9185705 Si02
#       7
#     8   4   8   8   8   8   8
#     4  12  24  38  61  91 126 167 204 262 316 374
#     4  12  24  40  57  90 123 164 208 256 310 368
#     4  11  24  38  62  89 122 164 209 258 308 369
#     4  11  24  42  64  87 117 162 209 256 306 373
#     4  10  19  34  57  87 123 163 207 260 315 372
#     4   9  18  32  53  83 118 153 197 253 311 365
#     4  11  25  41  62  87 123 163 207 257 310 377
#
# _framework density 19.954474999999999
#
# number of rings (size 3 to 8) (size 9 to 14) (size 15 to 20)
#    0.000    1.231    0.769    6.000    6.462    1.846 
#    0.000    0.000    0.000    0.923    0.000    7.000 
#    0.000    0.000    0.000    0.000    0.000    0.000 
#
# Total GULP energy -144998.884132 kJ/mol
# GULP energy per Si atom -5576.880159 kJ/mol
# Density = 1.990906 g / cm^3
# Si number density = 19.954475 Si / 1000 Ang^3
#
#
#
# Elastic Constant Matrix: (Units=GPa)
#
#
# Indices 1 2 3 4 5 6 
#
# 1 72.6959 52.4831 33.2013 0.0000 4.4297 0.0000
# 2 52.4831 150.4080 40.3774 0.0000 -4.6819 0.0000
# 3 33.2013 40.3774 95.2438 0.0000 3.9077 0.0000
# 4 0.0000 0.0000 0.0000 17.2040 0.0000 -15.7083
# 5 4.4297 -4.6819 3.9077 0.0000 33.7028 0.0000
# 6 0.0000 0.0000 0.0000 -15.7083 0.0000 24.9660
#
#
#
# Elastic Compliance Matrix: (Units=1/GPa)
#
#
# Indices 1 2 3 4 5 6 
#
# 1 0.020270 -0.005983 -0.004407 0.000000 -0.002984 0.000000
# 2 -0.005983 0.009336 -0.001967 0.000000 0.002311 0.000000
# 3 -0.004407 -0.001967 0.012919 0.000000 -0.001192 0.000000
# 4 0.000000 0.000000 0.000000 0.136604 0.000000 0.085950
# 5 -0.002984 0.002311 -0.001192 0.000000 0.030523 0.000000
# 6 0.000000 0.000000 0.000000 0.085950 0.000000 0.094133
#
#
# Mechanical properties :
#
#
# Convention : Reuss Voigt Hill
#
# Bulk Modulus (GPa) = 56.14720 63.38570 59.76645
# Shear Modulus (GPa) = 14.95058 27.99360 21.47209
#
# Velocity S-wave (km/s) = 2.74018 3.74956 3.28388
# Velocity P-wave (km/s) = 6.18144 7.11194 6.66295
#
# Compressibility (1/GPa) = 0.01781033
#
# Stress axis : x y z
#
# Youngs Moduli (GPa) = 49.33440 107.10937 77.40782
#
# Poissons Ratio (x) = 0.64080 0.34115
# Poissons Ratio (y) = 0.29515 0.15228
# Poissons Ratio (z) = 0.21743 0.21072
#
# Static dielectric constant tensor:
#      x y z
#    x 1.782830 0.000000 0.061080 
#    y 0.000000 1.740410 0.000000 
#    z 0.061080 0.000000 1.874230 
# 
# From -- ./inp_files/137546.got.cif
#   From: 2010.05.17/outbox.cif.g08.bks.cpg/sg12_69_cif.got.tgz:137546.got - 2010.06.03 13:09:07.
