data_PCOD9185320
_publ_section_title
;
Structure prediction by ZEFSAII (Michael W. Deem and Ramdas Pophale) SiO2 
 PCOD9185320
Probable space group: C 2/M
;
_chemical_formula_sum "Si O2"
_cell_formula_units_Z 56
_cell_length_a 17.116662
_cell_length_b 16.893368
_cell_length_c 11.466960
_cell_angle_alpha 90.000000
_cell_angle_beta 62.756908
_cell_angle_gamma 90.000000
_cell_volume 2947.954078
_symmetry_space_group_name_H-M "C 2/M"
_symmetry_group_IT_number 12
_symmetry_cell_setting 'monoclinic'
loop_
_space_group_symop_operation_xyz
x,y,z
-x,y,-z
-x,-y,-z
x,-y,z
1/2+x,1/2+y,z
1/2-x,1/2+y,-z
1/2-x,1/2-y,-z
1/2+x,1/2-y,z
loop_
_atom_site_type_symbol
_atom_site_label
_atom_site_fract_x
_atom_site_fract_y
_atom_site_fract_z
Si Si1 0.540492 0.691289 0.344982
Si Si2 0.901926 0.500000 0.726793
Si Si3 0.102319 0.500000 0.550824
Si Si4 0.848992 0.675110 0.827148
Si Si5 0.271190 0.860252 0.472678
Si Si6 0.329383 0.769881 0.087812
Si Si7 0.707610 0.593541 0.265586
Si Si8 0.625895 0.288998 0.699128
O O1 0.500000 0.681868 0.500000
O O2 0.590135 0.776089 0.303995
O O3 0.615483 0.625101 0.278518
O O4 0.463734 0.687581 0.302122
O O5 0.897451 0.500000 0.589392
O O6 0.861023 0.581532 0.803920
O O7 0.006745 0.500000 0.674205
O O8 0.156868 0.425392 0.554309
O O9 0.749152 0.706208 0.879515
O O10 0.876636 0.709474 0.935027
O O11 0.214297 0.882886 0.397569
O O12 0.328825 0.782838 0.403973
O O13 0.203786 0.852690 0.626316
O O14 0.282231 0.852242 0.156027
O O15 0.383112 0.738110 0.161519
O O16 0.719251 0.500000 0.243164
#
# Coordination Sequence:
#
# PCOD9185320 Si02
#       8
#     8   4   4   8   8   8   8   8
#     4  11  22  36  58  88 122 156 194 253 301 353
#     4  11  24  34  57  89 122 156 193 253 308 360
#     4  11  22  34  51  86 124 158 183 251 300 354
#     4  10  22  40  59  88 115 158 206 243 302 359
#     4  10  19  34  56  83 117 154 199 235 295 357
#     4   9  21  40  63  84 115 163 207 243 290 367
#     4  10  20  37  60  89 120 158 200 249 301 350
#     4  10  20  35  58  82 112 158 195 243 291 353
#
# _framework density 18.996226
#
# number of rings (size 3 to 8) (size 9 to 14) (size 15 to 20)
#    0.000    1.857    2.143    1.714    7.000    0.857 
#    1.286    0.000    0.000    2.571    0.000    3.000 
#    0.000    0.000    0.000    0.000    0.000    0.000 
#
# Total GULP energy -156220.987053 kJ/mol
# GULP energy per Si atom -5579.320966 kJ/mol
# Density = 1.895299 g / cm^3
# Si number density = 18.996226 Si / 1000 Ang^3
#
#
#
# Elastic Constant Matrix: (Units=GPa)
#
#
# Indices 1 2 3 4 5 6 
#
# 1 89.2714 13.0450 5.7906 0.0000 5.7460 0.0000
# 2 13.0450 90.7286 3.9587 0.0000 -13.3199 0.0000
# 3 5.7906 3.9587 35.9360 0.0000 9.0004 0.0000
# 4 0.0000 0.0000 0.0000 14.4134 0.0000 6.0140
# 5 5.7460 -13.3199 9.0004 0.0000 21.4148 0.0000
# 6 0.0000 0.0000 0.0000 6.0140 0.0000 23.3038
#
#
#
# Elastic Compliance Matrix: (Units=1/GPa)
#
#
# Indices 1 2 3 4 5 6 
#
# 1 0.011861 -0.002327 -0.000554 0.000000 -0.004397 0.000000
# 2 -0.002327 0.013019 -0.003625 0.000000 0.010246 0.000000
# 3 -0.000554 -0.003625 0.032237 0.000000 -0.015655 0.000000
# 4 0.000000 0.000000 0.000000 0.077752 0.000000 -0.020065
# 5 -0.004397 0.010246 -0.015655 0.000000 0.060829 0.000000
# 6 0.000000 0.000000 0.000000 -0.020065 0.000000 0.048090
#
#
# Mechanical properties :
#
#
# Convention : Reuss Voigt Hill
#
# Bulk Modulus (GPa) = 22.67321 29.05830 25.86575
# Shear Modulus (GPa) = 18.41623 24.70252 21.55937
#
# Velocity S-wave (km/s) = 3.11701 3.61001 3.37253
# Velocity P-wave (km/s) = 4.99158 5.71894 5.36759
#
# Compressibility (1/GPa) = 0.04410492
#
# Stress axis : x y z
#
# Youngs Moduli (GPa) = 84.31195 76.81219 31.02055
#
# Poissons Ratio (x) = 0.17872 0.01717
# Poissons Ratio (y) = 0.19617 0.11246
# Poissons Ratio (z) = 0.04668 0.27847
#
# Static dielectric constant tensor:
#      x y z
#    x 1.679170 0.000000 0.013830 
#    y 0.000000 1.638470 0.000000 
#    z 0.013830 0.000000 1.683000 
# 
# From -- ./inp_files/146077.got.cif
#   From: 2010.05.17/outbox.cif.g08.bks.cpg/sg12_74_cif.got.tgz:146077.got - 2010.06.03 13:09:07.
