data_PCOD9185861
_publ_section_title
;
Structure prediction by ZEFSAII (Michael W. Deem and Ramdas Pophale) SiO2 
 PCOD9185861
Probable space group: C 2/M
;
_chemical_formula_sum "Si O2"
_cell_formula_units_Z 56
_cell_length_a 18.752626
_cell_length_b 18.672082
_cell_length_c 10.091679
_cell_angle_alpha 90.000000
_cell_angle_beta 119.713668
_cell_angle_gamma 90.000000
_cell_volume 3068.984804
_symmetry_space_group_name_H-M "C 2/M"
_symmetry_group_IT_number 12
_symmetry_cell_setting 'monoclinic'
loop_
_space_group_symop_operation_xyz
x,y,z
-x,y,-z
-x,-y,-z
x,-y,z
1/2+x,1/2+y,z
1/2-x,1/2+y,-z
1/2-x,1/2-y,-z
1/2+x,1/2-y,z
loop_
_atom_site_type_symbol
_atom_site_label
_atom_site_fract_x
_atom_site_fract_y
_atom_site_fract_z
Si Si1 0.640401 0.212196 0.309141
Si Si2 0.505230 0.317501 0.861764
Si Si3 0.315842 0.703267 0.381038
Si Si4 0.408493 0.080523 0.575673
Si Si5 0.393755 0.917347 0.258033
Si Si6 0.156310 0.734760 0.874812
Si Si7 0.935949 0.083273 0.562550
O O1 0.561012 0.253388 0.185708
O O2 0.662506 0.253154 0.466235
O O3 0.717523 0.209368 0.282612
O O4 0.621325 0.133211 0.340166
O O5 0.591101 0.280351 0.900532
O O6 0.475184 0.371595 0.719664
O O7 0.500000 0.354688 0.000000
O O8 0.355428 0.737597 0.287355
O O9 0.353691 0.624844 0.440759
O O10 0.507303 0.085057 0.659707
O O11 0.374894 0.095964 0.396702
O O12 0.385018 0.000000 0.585636
O O13 0.359812 0.850898 0.142502
O O14 0.368902 0.000000 0.202891
O O15 0.250000 0.750000 0.000000
O O16 0.000000 0.086426 0.500000
O O17 0.921745 0.000000 0.582875
#
# Coordination Sequence:
#
# PCOD9185861 Si02
#       7
#     8   8   8   8   8   8   8
#     4  10  19  34  58  84 122 145 196 247 297 348
#     4  11  23  39  61  88 121 156 198 250 295 356
#     4  10  21  35  56  88 115 153 197 252 286 346
#     4   9  16  29  57  87 111 146 187 242 302 350
#     4   9  18  33  55  87 117 144 193 244 293 352
#     4  12  22  36  59  83 119 163 204 236 297 350
#     4  10  21  40  66  89 115 158 203 244 298 355
#
# _framework density 18.247077999999998
#
# number of rings (size 3 to 8) (size 9 to 14) (size 15 to 20)
#    0.000    1.857    4.286    1.714    0.000    0.857 
#    0.000    1.429    0.000    3.429    0.000    0.000 
#    0.000    0.000    0.000    0.000    0.000    0.000 
#
# Total GULP energy -156084.860443 kJ/mol
# GULP energy per Si atom -5574.459302 kJ/mol
# Density = 1.820555 g / cm^3
# Si number density = 18.247078 Si / 1000 Ang^3
#
#
#
# Elastic Constant Matrix: (Units=GPa)
#
#
# Indices 1 2 3 4 5 6 
#
# 1 85.4289 27.0114 24.3369 0.0000 -1.2916 0.0000
# 2 27.0114 121.7576 26.8467 0.0000 3.5232 0.0000
# 3 24.3369 26.8467 45.3318 0.0000 -4.5236 0.0000
# 4 0.0000 0.0000 0.0000 16.5194 0.0000 -1.4573
# 5 -1.2916 3.5232 -4.5236 0.0000 33.1607 0.0000
# 6 0.0000 0.0000 0.0000 -1.4573 0.0000 23.5629
#
#
#
# Elastic Compliance Matrix: (Units=1/GPa)
#
#
# Indices 1 2 3 4 5 6 
#
# 1 0.014113 -0.001669 -0.006605 0.000000 -0.000174 0.000000
# 2 -0.001669 0.009750 -0.005057 0.000000 -0.001791 0.000000
# 3 -0.006605 -0.005057 0.029023 0.000000 0.004239 0.000000
# 4 0.000000 0.000000 0.000000 0.060867 0.000000 0.003764
# 5 -0.000174 -0.001791 0.004239 0.000000 0.030918 0.000000
# 6 0.000000 0.000000 0.000000 0.003764 0.000000 0.042672
#
#
# Mechanical properties :
#
#
# Convention : Reuss Voigt Hill
#
# Bulk Modulus (GPa) = 38.13382 45.43425 41.78404
# Shear Modulus (GPa) = 22.44697 26.27014 24.35856
#
# Velocity S-wave (km/s) = 3.51118 3.79844 3.65763
# Velocity P-wave (km/s) = 6.11407 6.64764 6.38643
#
# Compressibility (1/GPa) = 0.02622344
#
# Stress axis : x y z
#
# Youngs Moduli (GPa) = 70.85905 102.56210 34.45494
#
# Poissons Ratio (x) = 0.17121 0.22758
# Poissons Ratio (y) = 0.11829 0.17423
# Poissons Ratio (z) = 0.46804 0.51864
#
# Static dielectric constant tensor:
#      x y z
#    x 1.627660 0.000000 0.009020 
#    y 0.000000 1.617830 0.000000 
#    z 0.009020 0.000000 1.656610 
# 
# From -- ./inp_files/75961.got.cif
#   From: 2010.05.17/outbox.cif.g08.bks.cpg/sg12_38_cif.got.tgz:75961.got - 2010.06.03 13:09:07.
