data_PCOD9185782
_publ_section_title
;
Structure prediction by ZEFSAII (Michael W. Deem and Ramdas Pophale) SiO2 
 PCOD9185782
Probable space group: C 2/M
;
_chemical_formula_sum "Si O2"
_cell_formula_units_Z 64
_cell_length_a 16.713475
_cell_length_b 15.928374
_cell_length_c 13.141524
_cell_angle_alpha 90.000000
_cell_angle_beta 79.496010
_cell_angle_gamma 90.000000
_cell_volume 3439.889163
_symmetry_space_group_name_H-M "C 2/M"
_symmetry_group_IT_number 12
_symmetry_cell_setting 'monoclinic'
loop_
_space_group_symop_operation_xyz
x,y,z
-x,y,-z
-x,-y,-z
x,-y,z
1/2+x,1/2+y,z
1/2-x,1/2+y,-z
1/2-x,1/2-y,-z
1/2+x,1/2-y,z
loop_
_atom_site_type_symbol
_atom_site_label
_atom_site_fract_x
_atom_site_fract_y
_atom_site_fract_z
Si Si1 0.785607 0.398497 0.708980
Si Si2 0.226325 0.900322 0.334792
Si Si3 0.398038 0.197747 0.298836
Si Si4 0.190153 0.098895 0.923327
Si Si5 0.369893 0.601749 0.848145
Si Si6 0.032318 0.399025 0.381244
Si Si7 0.314350 0.679286 0.451726
Si Si8 0.033234 0.815311 0.884128
O O1 0.786366 0.500000 0.710858
O O2 0.753994 0.366453 0.825883
O O3 0.876234 0.368571 0.661102
O O4 0.725332 0.370433 0.633383
O O5 0.311942 0.850493 0.312901
O O6 0.174034 0.878270 0.247337
O O7 0.178339 0.876841 0.449512
O O8 0.242660 0.000000 0.330356
O O9 0.468858 0.135265 0.314936
O O10 0.389504 0.269888 0.387519
O O11 0.422195 0.244055 0.190172
O O12 0.101092 0.115415 0.896355
O O13 0.205874 0.000000 0.925967
O O14 0.184069 0.129408 0.041104
O O15 0.379615 0.500000 0.851624
O O16 0.457549 0.644899 0.841216
O O17 0.033779 0.500000 0.377765
O O18 0.000000 0.374475 0.500000
O O19 0.250000 0.750000 0.500000
O O20 0.000000 0.783306 0.000000
#
# Coordination Sequence:
#
# PCOD9185782 Si02
#       8
#     8   8   8   8   8   8   8   8
#     4  10  19  34  58  83 107 140 190 240 272 316
#     4  10  21  39  59  81 114 151 188 224 275 340
#     4  11  22  36  55  82 117 150 183 224 282 336
#     4   9  17  34  60  84 108 142 189 237 278 321
#     4   9  19  36  59  83 109 148 189 228 275 332
#     4  10  21  37  57  81 107 145 192 232 274 326
#     4  10  20  34  56  81 111 145 181 224 278 332
#     4  10  20  37  56  84 115 147 184 231 283 331
#
# _framework density 18.605250999999999
#
# number of rings (size 3 to 8) (size 9 to 14) (size 15 to 20)
#    0.000    2.125    1.250    2.625    0.000    5.500 
#    2.250    1.250    0.000    2.250    0.000    0.000 
#    0.000    0.000    0.000    0.000    0.000    0.000 
#
# Total GULP energy -178452.805112 kJ/mol
# GULP energy per Si atom -5576.650160 kJ/mol
# Density = 1.856291 g / cm^3
# Si number density = 18.605251 Si / 1000 Ang^3
#
#
#
# Elastic Constant Matrix: (Units=GPa)
#
#
# Indices 1 2 3 4 5 6 
#
# 1 65.5092 17.9469 50.7905 0.0000 -4.7702 0.0000
# 2 17.9469 30.0265 27.4572 0.0000 0.7297 0.0000
# 3 50.7905 27.4572 118.4089 0.0000 -5.4633 0.0000
# 4 0.0000 0.0000 0.0000 18.2467 0.0000 -9.8581
# 5 -4.7702 0.7297 -5.4633 0.0000 37.1857 0.0000
# 6 0.0000 0.0000 0.0000 -9.8581 0.0000 1.6006
#
#
#
# Elastic Compliance Matrix: (Units=1/GPa)
#
#
# Indices 1 2 3 4 5 6 
#
# 1 0.023879 -0.006388 -0.008673 0.000000 0.001914 0.000000
# 2 -0.006388 0.044169 -0.007632 0.000000 -0.002807 0.000000
# 3 -0.008673 -0.007632 0.013986 0.000000 0.001092 0.000000
# 4 0.000000 0.000000 0.000000 -0.023546 0.000000 -0.145022
# 5 0.001914 -0.002807 0.001092 0.000000 0.027353 0.000000
# 6 0.000000 0.000000 0.000000 -0.145022 0.000000 -0.268427
#
#
# Mechanical properties :
#
#
# Convention : Reuss Voigt Hill
#
# Bulk Modulus (GPa) = 27.28660 45.14820 36.21740
# Shear Modulus (GPa) = -40.00454 19.25660 -10.37397
#
# Velocity S-wave (km/s) = -4.64203 3.22065 -2.36388
# Velocity P-wave (km/s) = 3.74611 6.17650 3.47245
#
# Compressibility (1/GPa) = 0.03664802
#
# Stress axis : x y z
#
# Youngs Moduli (GPa) = 41.87808 22.64041 71.50242
#
# Poissons Ratio (x) = 0.14463 0.62014
# Poissons Ratio (y) = 0.26752 0.54567
# Poissons Ratio (z) = 0.36321 0.17278
#
# Static dielectric constant tensor:
#      x y z
#    x 1.623260 0.000000 -0.016210 
#    y 0.000000 1.645200 0.000000 
#    z -0.016210 0.000000 1.670920 
# 
# From -- ./inp_files/146166.got.cif
#   From: 2010.05.17/outbox.cif.g08.bks.cpg/sg12_74_cif.got.tgz:146166.got - 2010.06.03 13:09:07.
