data_PCOD9185109
_publ_section_title
;
Structure prediction by ZEFSAII (Michael W. Deem and Ramdas Pophale) SiO2 
 PCOD9185109
Probable space group: C 2/M
;
_chemical_formula_sum "Si O2"
_cell_formula_units_Z 40
_cell_length_a 5.286454
_cell_length_b 24.988764
_cell_length_c 20.925683
_cell_angle_alpha 90.000000
_cell_angle_beta 120.344094
_cell_angle_gamma 90.000000
_cell_volume 2385.630631
_symmetry_space_group_name_H-M "C 2/M"
_symmetry_group_IT_number 12
_symmetry_cell_setting 'monoclinic'
loop_
_space_group_symop_operation_xyz
x,y,z
-x,y,-z
-x,-y,-z
x,-y,z
1/2+x,1/2+y,z
1/2-x,1/2+y,-z
1/2-x,1/2-y,-z
1/2+x,1/2-y,z
loop_
_atom_site_type_symbol
_atom_site_label
_atom_site_fract_x
_atom_site_fract_y
_atom_site_fract_z
Si Si1 0.397951 0.063588 0.662253
Si Si2 0.715509 0.934772 0.084457
Si Si3 0.115967 0.227947 0.415817
Si Si4 0.387740 0.934868 0.170204
Si Si5 0.239955 0.396596 0.583161
O O1 0.495100 0.081474 0.745487
O O2 0.592928 0.091350 0.632664
O O3 0.051565 0.074983 0.612101
O O4 0.449599 0.000000 0.663352
O O5 0.589045 0.917499 0.136853
O O6 0.051071 0.918060 0.117871
O O7 0.715478 0.000000 0.084172
O O8 0.500000 0.917774 0.000000
O O9 0.250000 0.250000 0.500000
O O10 0.272616 0.261849 0.380624
O O11 0.197163 0.166448 0.417510
O O12 0.391955 0.000000 0.170381
O O13 0.000000 0.413249 0.500000
#
# Coordination Sequence:
#
# PCOD9185109 Si02
#       5
#     8   8   8   8   8
#     4  11  24  37  48  67 100 141 174 201 242 285
#     4   9  15  24  43  67  85 110 158 209 238 264
#     4  10  19  34  56  76  92 110 142 209 265 322
#     4   9  17  30  43  58  90 128 159 194 236 282
#     4  12  23  35  55  73  91 123 174 218 247 297
#
# _framework density 16.767054999999999
#
# number of rings (size 3 to 8) (size 9 to 14) (size 15 to 20)
#    0.000    1.800    2.000    4.200    2.800    8.000 
#    0.000    0.000    0.000    0.000    0.000    0.000 
#    0.000    0.000    0.000    0.000    0.000  252.000 
#
# Total GULP energy -111539.980661 kJ/mol
# GULP energy per Si atom -5576.999033 kJ/mol
# Density = 1.672889 g / cm^3
# Si number density = 16.767055 Si / 1000 Ang^3
#
#
#
# Elastic Constant Matrix: (Units=GPa)
#
#
# Indices 1 2 3 4 5 6 
#
# 1 95.4670 8.4167 -4.3135 0.0000 -12.2929 0.0000
# 2 8.4167 32.7918 15.1734 0.0000 -6.7492 0.0000
# 3 -4.3135 15.1734 40.1779 0.0000 -7.2459 0.0000
# 4 0.0000 0.0000 0.0000 -2.8112 0.0000 -6.4583
# 5 -12.2929 -6.7492 -7.2459 0.0000 32.0718 0.0000
# 6 0.0000 0.0000 0.0000 -6.4583 0.0000 25.0890
#
#
#
# Elastic Compliance Matrix: (Units=1/GPa)
#
#
# Indices 1 2 3 4 5 6 
#
# 1 0.011517 -0.003620 0.003401 0.000000 0.004421 0.000000
# 2 -0.003620 0.038819 -0.014413 0.000000 0.003525 0.000000
# 3 0.003401 -0.014413 0.031676 0.000000 0.005427 0.000000
# 4 0.000000 0.000000 0.000000 -0.223531 0.000000 -0.057541
# 5 0.004421 0.003525 0.005427 0.000000 0.034843 0.000000
# 6 0.000000 0.000000 0.000000 -0.057541 0.000000 0.025046
#
#
# Mechanical properties :
#
#
# Convention : Reuss Voigt Hill
#
# Bulk Modulus (GPa) = 18.95795 22.99888 20.97841
# Shear Modulus (GPa) = -143.74881 20.81393 -61.46744
#
# Velocity S-wave (km/s) = -9.26925 3.52711 -6.06129
# Velocity P-wave (km/s) = 10.16009 5.50762 6.03712
#
# Compressibility (1/GPa) = 0.05274832
#
# Stress axis : x y z
#
# Youngs Moduli (GPa) = 86.82918 25.76032 31.56936
#
# Poissons Ratio (x) = 0.09325 -0.10736
# Poissons Ratio (y) = 0.31430 0.45501
# Poissons Ratio (z) = -0.29528 0.37129
#
# Static dielectric constant tensor:
#      x y z
#    x 1.583950 0.000000 -0.022680 
#    y 0.000000 1.552500 0.000000 
#    z -0.022680 0.000000 1.534340 
# 
# From -- ./inp_files/191476.got.cif
#   From: 2010.05.17/outbox.cif.g08.bks.cpg/sg12_96_cif.got.tgz:191476.got - 2010.06.03 13:09:07.
