data_PCOD9185013
_publ_section_title
;
Structure prediction by ZEFSAII (Michael W. Deem and Ramdas Pophale) SiO2 
 PCOD9185013
Probable space group: C 2/M
;
_chemical_formula_sum "Si O2"
_cell_formula_units_Z 56
_cell_length_a 30.130573
_cell_length_b 7.593011
_cell_length_c 11.608381
_cell_angle_alpha 90.000000
_cell_angle_beta 67.938707
_cell_angle_gamma 90.000000
_cell_volume 2461.336189
_symmetry_space_group_name_H-M "C 2/M"
_symmetry_group_IT_number 12
_symmetry_cell_setting 'monoclinic'
loop_
_space_group_symop_operation_xyz
x,y,z
-x,y,-z
-x,-y,-z
x,-y,z
1/2+x,1/2+y,z
1/2-x,1/2+y,-z
1/2-x,1/2-y,-z
1/2+x,1/2-y,z
loop_
_atom_site_type_symbol
_atom_site_label
_atom_site_fract_x
_atom_site_fract_y
_atom_site_fract_z
Si Si1 0.973724 0.790147 0.408981
Si Si2 0.984867 0.296403 0.886771
Si Si3 0.332486 0.708530 0.244893
Si Si4 0.775083 0.212533 0.641232
Si Si5 0.627020 0.716013 0.569688
Si Si6 0.373749 0.285410 0.968210
Si Si7 0.704915 0.289014 0.123959
O O1 0.995450 0.768588 0.257816
O O2 0.000000 0.721551 0.500000
O O3 0.919386 0.721454 0.452242
O O4 0.971037 0.000000 0.428188
O O5 0.999252 0.500000 0.876499
O O6 0.927625 0.277050 0.931253
O O7 0.000000 0.220805 0.000000
O O8 0.338979 0.500000 0.230936
O O9 0.278456 0.735959 0.340984
O O10 0.371308 0.773159 0.298903
O O11 0.342451 0.777321 0.108113
O O12 0.822006 0.273696 0.529121
O O13 0.782865 0.279873 0.762839
O O14 0.775588 0.000000 0.637729
O O15 0.626374 0.500000 0.567320
O O16 0.375111 0.500000 0.964420
O O17 0.344487 0.225874 0.884565
O O18 0.700597 0.500000 0.138002
O O19 0.750000 0.250000 0.000000
#
# Coordination Sequence:
#
# PCOD9185013 Si02
#       7
#     8   8   8   8   8   8   8
#     4  10  22  41  68  93 117 156 206 255 305 363
#     4  11  25  43  63  90 124 160 201 254 315 371
#     4  10  19  34  55  81 114 148 186 232 281 340
#     4  10  20  33  53  80 114 148 183 228 279 341
#     4   9  19  35  56  82 111 145 187 235 285 341
#     4  10  21  36  59  86 113 150 198 245 292 352
#     4  10  20  34  54  80 113 150 188 236 286 341
#
# _framework density 22.751868000000002
#
# number of rings (size 3 to 8) (size 9 to 14) (size 15 to 20)
#    0.000    2.000    1.429    1.714    2.000    3.714 
#    0.000    1.429    0.000    0.000    0.000    0.000 
#    0.000    0.000    0.000    0.000    0.000    0.000 
#
# Total GULP energy -156214.461779 kJ/mol
# GULP energy per Si atom -5579.087921 kJ/mol
# Density = 2.270008 g / cm^3
# Si number density = 22.751868 Si / 1000 Ang^3
#
#
#
# Elastic Constant Matrix: (Units=GPa)
#
#
# Indices 1 2 3 4 5 6 
#
# 1 182.5453 -9.6585 62.5470 0.0000 31.5956 0.0000
# 2 -9.6585 45.1042 -5.9363 0.0000 11.1521 0.0000
# 3 62.5470 -5.9363 99.0342 0.0000 18.4451 0.0000
# 4 0.0000 0.0000 0.0000 15.9175 0.0000 -3.4634
# 5 31.5956 11.1521 18.4451 0.0000 41.8444 0.0000
# 6 0.0000 0.0000 0.0000 -3.4634 0.0000 16.0558
#
#
#
# Elastic Compliance Matrix: (Units=1/GPa)
#
#
# Indices 1 2 3 4 5 6 
#
# 1 0.007752 0.002330 -0.003868 0.000000 -0.004770 0.000000
# 2 0.002330 0.025188 0.001761 0.000000 -0.009249 0.000000
# 3 -0.003868 0.001761 0.013280 0.000000 -0.003402 0.000000
# 4 0.000000 0.000000 0.000000 0.065918 0.000000 0.014219
# 5 -0.004770 -0.009249 -0.003402 0.000000 0.031464 0.000000
# 6 0.000000 0.000000 0.000000 0.014219 0.000000 0.065350
#
#
# Mechanical properties :
#
#
# Convention : Reuss Voigt Hill
#
# Bulk Modulus (GPa) = 21.42889 46.73199 34.08044
# Shear Modulus (GPa) = 22.31531 33.41233 27.86382
#
# Velocity S-wave (km/s) = 3.13519 3.83633 3.50334
# Velocity P-wave (km/s) = 4.74814 6.34095 5.60145
#
# Compressibility (1/GPa) = 0.04666598
#
# Stress axis : x y z
#
# Youngs Moduli (GPa) = 128.99447 39.70088 75.30289
#
# Poissons Ratio (x) = -0.09251 0.29128
# Poissons Ratio (y) = -0.30059 -0.13258
# Poissons Ratio (z) = 0.49896 -0.06990
#
# Static dielectric constant tensor:
#      x y z
#    x 1.814030 0.000000 0.028620 
#    y 0.000000 1.872330 0.000000 
#    z 0.028620 0.000000 1.873360 
# 
# From -- ./inp_files/180739.got.cif
#   From: 2010.05.17/outbox.cif.g08.bks.cpg/sg12_91_cif.got.tgz:180739.got - 2010.06.03 13:09:07.
