data_PCOD9185475
_publ_section_title
;
Structure prediction by ZEFSAII (Michael W. Deem and Ramdas Pophale) SiO2 
 PCOD9185475
Probable space group: C 2/M
;
_chemical_formula_sum "Si O2"
_cell_formula_units_Z 48
_cell_length_a 13.821077
_cell_length_b 23.665777
_cell_length_c 13.256360
_cell_angle_alpha 90.000000
_cell_angle_beta 36.161083
_cell_angle_gamma 90.000000
_cell_volume 2558.475249
_symmetry_space_group_name_H-M "C 2/M"
_symmetry_group_IT_number 12
_symmetry_cell_setting 'monoclinic'
loop_
_space_group_symop_operation_xyz
x,y,z
-x,y,-z
-x,-y,-z
x,-y,z
1/2+x,1/2+y,z
1/2-x,1/2+y,-z
1/2-x,1/2-y,-z
1/2+x,1/2-y,z
loop_
_atom_site_type_symbol
_atom_site_label
_atom_site_fract_x
_atom_site_fract_y
_atom_site_fract_z
Si Si1 0.675128 0.500000 0.984219
Si Si2 0.903261 0.292378 0.363639
Si Si3 0.232943 0.879032 0.620606
Si Si4 0.390996 0.191240 0.009734
Si Si5 0.221343 0.000000 0.714219
Si Si6 0.156835 0.122207 0.068925
Si Si7 0.780379 0.697210 0.778238
O O1 0.477242 0.500000 0.132485
O O2 0.713566 0.557586 0.009669
O O3 0.753038 0.500000 0.807107
O O4 0.750000 0.250000 0.500000
O O5 0.832756 0.355001 0.442286
O O6 0.000197 0.288512 0.177206
O O7 0.038490 0.285207 0.337450
O O8 0.281095 0.941910 0.614164
O O9 0.266090 0.835971 0.685620
O O10 0.039600 0.876864 0.759974
O O11 0.500000 0.158906 0.000000
O O12 0.244818 0.154888 0.085222
O O13 0.322207 0.245603 0.126400
O O14 0.209532 0.154572 0.922507
#
# Coordination Sequence:
#
# PCOD9185475 Si02
#       7
#     4   8   8   8   4   8   8
#     4   9  16  32  56  85 110 145 185 219 267 348
#     4  11  22  36  52  80 114 150 186 227 280 330
#     4  11  20  35  59  88 119 142 175 230 290 344
#     4  11  23  38  55  76 106 151 198 233 267 320
#     4   9  18  32  56  90 118 144 172 215 287 360
#     4  10  19  34  57  81 110 145 186 224 269 331
#     4  11  20  34  56  82 111 146 180 225 282 342
#
# _framework density 18.761174
#
# number of rings (size 3 to 8) (size 9 to 14) (size 15 to 20)
#    0.000    1.500    1.667    7.000    0.000    0.000 
#    0.000    7.917    0.000    0.000    0.000    3.500 
#    0.000    0.000    0.000    0.000    0.000    0.000 
#
# Total GULP energy -134051.880828 kJ/mol
# GULP energy per Si atom -5585.495035 kJ/mol
# Density = 1.871847 g / cm^3
# Si number density = 18.761174 Si / 1000 Ang^3
#
#
#
# Elastic Constant Matrix: (Units=GPa)
#
#
# Indices 1 2 3 4 5 6 
#
# 1 96.8783 36.8932 19.6700 -0.0002 -13.3028 -0.0002
# 2 36.8932 116.7937 21.7686 0.0002 0.5967 -0.0002
# 3 19.6700 21.7686 49.8886 -0.0011 -16.3145 0.0001
# 4 -0.0002 0.0002 -0.0011 23.9426 0.0003 0.0209
# 5 -13.3028 0.5967 -16.3145 0.0003 22.9816 0.0001
# 6 -0.0002 -0.0002 0.0001 0.0209 0.0001 17.1772
#
#
#
# Elastic Compliance Matrix: (Units=1/GPa)
#
#
# Indices 1 2 3 4 5 6 
#
# 1 0.012985 -0.003913 -0.001200 0.000000 0.006766 0.000000
# 2 -0.003913 0.010802 -0.005213 0.000000 -0.006246 0.000000
# 3 -0.001200 -0.005213 0.029445 0.000001 0.020344 0.000000
# 4 0.000000 0.000000 0.000001 0.041767 0.000000 -0.000051
# 5 0.006766 -0.006246 0.020344 0.000000 0.062034 -0.000001
# 6 0.000000 0.000000 0.000000 -0.000051 -0.000001 0.058217
#
#
# Mechanical properties :
#
#
# Convention : Reuss Voigt Hill
#
# Bulk Modulus (GPa) = 30.69299 46.69158 38.69229
# Shear Modulus (GPa) = 20.26256 25.16886 22.71571
#
# Velocity S-wave (km/s) = 3.28994 3.66668 3.48341
# Velocity P-wave (km/s) = 5.55220 6.54732 6.07019
#
# Compressibility (1/GPa) = 0.03258073
#
# Stress axis : x y z
#
# Youngs Moduli (GPa) = 77.01230 92.57872 33.96130
#
# Poissons Ratio (x) = 0.36223 0.04074
# Poissons Ratio (y) = 0.30132 0.17704
# Poissons Ratio (z) = 0.09239 0.48263
#
# Static dielectric constant tensor:
#      x y z
#    x 1.653840 0.000000 -0.031690 
#    y 0.000000 1.655570 0.000000 
#    z -0.031690 0.000000 1.690390 
# 
# From -- ./inp_files/218458.got.cif
#   From: 2010.05.17/outbox.cif.g08.bks.cpg/sg12_110_cif.got.tgz:218458.got - 2010.06.03 13:09:07.
