data_PCOD9185624
_publ_section_title
;
Structure prediction by ZEFSAII (Michael W. Deem and Ramdas Pophale) SiO2 
 PCOD9185624
Probable space group: C 2/M
;
_chemical_formula_sum "Si O2"
_cell_formula_units_Z 48
_cell_length_a 20.497868
_cell_length_b 13.852995
_cell_length_c 22.698459
_cell_angle_alpha 90.000000
_cell_angle_beta 158.825726
_cell_angle_gamma 90.000000
_cell_volume 2328.110554
_symmetry_space_group_name_H-M "C 2/M"
_symmetry_group_IT_number 12
_symmetry_cell_setting 'monoclinic'
loop_
_space_group_symop_operation_xyz
x,y,z
-x,y,-z
-x,-y,-z
x,-y,z
1/2+x,1/2+y,z
1/2-x,1/2+y,-z
1/2-x,1/2-y,-z
1/2+x,1/2-y,z
loop_
_atom_site_type_symbol
_atom_site_label
_atom_site_fract_x
_atom_site_fract_y
_atom_site_fract_z
Si Si1 0.384462 0.810478 0.671703
Si Si2 0.644313 0.113689 0.791339
Si Si3 0.064806 0.887543 0.332081
Si Si4 0.816517 0.391922 0.311660
Si Si5 0.507971 0.293663 0.938475
Si Si6 0.631807 0.888210 0.986938
O O1 0.501570 0.833892 0.711746
O O2 0.189872 0.859047 0.494292
O O3 0.377441 0.694087 0.666549
O O4 0.504955 0.853684 0.825747
O O5 0.635156 0.138192 0.714475
O O6 0.621362 0.000000 0.779669
O O7 0.848159 0.146178 0.978004
O O8 0.101683 0.000000 0.348220
O O9 0.847582 0.878036 0.157585
O O10 0.730375 0.500000 0.236101
O O11 0.696020 0.318036 0.247813
O O12 0.000000 0.401237 0.500000
O O13 0.572287 0.184517 0.988008
O O14 0.500000 0.326942 0.000000
O O15 0.597111 0.000000 0.969595
#
# Coordination Sequence:
#
# PCOD9185624 Si02
#       6
#     8   8   8   8   8   8
#     4  11  22  40  61  89 126 156 193 243 300 355
#     4  10  19  34  57  84 116 152 190 237 296 354
#     4  10  22  38  59  88 124 160 195 238 290 354
#     4   9  19  36  57  85 118 151 192 242 294 351
#     4  10  21  38  57  81 112 152 199 242 294 341
#     4  11  23  41  62  87 120 157 201 245 296 354
#
# _framework density 20.617578000000002
#
# number of rings (size 3 to 8) (size 9 to 14) (size 15 to 20)
#    0.000    1.833    1.667    2.500    0.000    5.000 
#    0.000    2.500    0.000    0.500    0.000    0.000 
#    0.000    0.000    0.000    0.000    0.000    0.000 
#
# Total GULP energy -133780.000393 kJ/mol
# GULP energy per Si atom -5574.166683 kJ/mol
# Density = 2.057065 g / cm^3
# Si number density = 20.617578 Si / 1000 Ang^3
#
#
#
# Elastic Constant Matrix: (Units=GPa)
#
#
# Indices 1 2 3 4 5 6 
#
# 1 32.9738 7.3302 4.5367 -0.0011 6.4100 -0.0006
# 2 7.3302 100.7990 21.0785 -0.0115 12.3136 -0.0068
# 3 4.5367 21.0785 105.2171 -0.0056 2.0088 -0.0038
# 4 -0.0011 -0.0115 -0.0056 33.2939 -0.0014 4.3877
# 5 6.4100 12.3136 2.0088 -0.0014 16.1033 -0.0007
# 6 -0.0006 -0.0068 -0.0038 4.3877 -0.0007 24.3583
#
#
#
# Elastic Compliance Matrix: (Units=1/GPa)
#
#
# Indices 1 2 3 4 5 6 
#
# 1 0.033052 -0.000653 -0.001055 0.000000 -0.012526 0.000000
# 2 -0.000653 0.011410 -0.002101 0.000003 -0.008203 0.000002
# 3 -0.001055 -0.002101 0.009956 0.000001 0.000785 0.000001
# 4 0.000000 0.000003 0.000001 0.030766 0.000000 -0.005542
# 5 -0.012526 -0.008203 0.000785 0.000000 0.073260 0.000000
# 6 0.000000 0.000002 0.000001 -0.005542 0.000000 0.042052
#
#
# Mechanical properties :
#
#
# Convention : Reuss Voigt Hill
#
# Bulk Modulus (GPa) = 21.36772 33.87563 27.62167
# Shear Modulus (GPa) = 22.35007 28.48738 25.41873
#
# Velocity S-wave (km/s) = 3.29603 3.72116 3.51503
# Velocity P-wave (km/s) = 4.98713 5.91006 5.46810
#
# Compressibility (1/GPa) = 0.04679957
#
# Stress axis : x y z
#
# Youngs Moduli (GPa) = 30.25504 87.64559 100.44628
#
# Poissons Ratio (x) = 0.05721 0.10599
# Poissons Ratio (y) = 0.01975 0.21103
# Poissons Ratio (z) = 0.03193 0.18414
#
# Static dielectric constant tensor:
#      x y z
#    x 1.727510 0.000000 -0.034310 
#    y 0.000000 1.760160 0.000000 
#    z -0.034310 0.000000 1.902470 
# 
# From -- ./inp_files/367948.got.cif
#   From: 2010.05.17/outbox.cif.g08.bks.cpg/sg12_184_cif.got.tgz:367948.got - 2010.06.03 13:09:07.
