data_PCOD9185234
_publ_section_title
;
Structure prediction by ZEFSAII (Michael W. Deem and Ramdas Pophale) SiO2 
 PCOD9185234
Probable space group: C 2/M
;
_chemical_formula_sum "Si O2"
_cell_formula_units_Z 48
_cell_length_a 20.993878
_cell_length_b 8.474579
_cell_length_c 17.054803
_cell_angle_alpha 90.000000
_cell_angle_beta 62.466410
_cell_angle_gamma 90.000000
_cell_volume 2690.628868
_symmetry_space_group_name_H-M "C 2/M"
_symmetry_group_IT_number 12
_symmetry_cell_setting 'monoclinic'
loop_
_space_group_symop_operation_xyz
x,y,z
-x,y,-z
-x,-y,-z
x,-y,z
1/2+x,1/2+y,z
1/2-x,1/2+y,-z
1/2-x,1/2-y,-z
1/2+x,1/2-y,z
loop_
_atom_site_type_symbol
_atom_site_label
_atom_site_fract_x
_atom_site_fract_y
_atom_site_fract_z
Si Si1 0.918183 0.306967 0.548767
Si Si2 0.080181 0.689168 0.931078
Si Si3 0.722897 0.310496 0.931988
Si Si4 0.350354 0.688916 0.264599
Si Si5 0.669057 0.811072 0.555493
Si Si6 0.701650 0.191437 0.267759
O O1 0.918717 0.500000 0.550091
O O2 0.877012 0.259304 0.493254
O O3 0.871553 0.253691 0.650218
O O4 0.000000 0.252986 0.500000
O O5 0.082691 0.500000 0.933520
O O6 0.143442 0.754571 0.951164
O O7 0.099232 0.743458 0.832170
O O8 0.000000 0.741635 0.000000
O O9 0.722613 0.500000 0.932526
O O10 0.776667 0.255473 0.831579
O O11 0.750000 0.250000 0.000000
O O12 0.354836 0.500000 0.261076
O O13 0.362970 0.751457 0.344324
O O14 0.268943 0.733256 0.285214
O O15 0.750000 0.750000 0.500000
O O16 0.670663 0.000000 0.555084
O O17 0.699137 0.000000 0.266874
#
# Coordination Sequence:
#
# PCOD9185234 Si02
#       6
#     8   8   8   8   8   8
#     4   9  17  31  51  76 106 138 176 221 268 317
#     4  10  21  38  59  84 113 142 182 235 285 336
#     4  10  20  35  57  81 111 148 188 231 275 332
#     4  10  19  34  56  81 110 143 181 224 274 333
#     4  11  20  32  54  82 108 139 184 228 271 324
#     4   8  15  30  51  75 101 137 179 218 264 317
#
# _framework density 17.839696
#
# number of rings (size 3 to 8) (size 9 to 14) (size 15 to 20)
#    0.000    2.333    1.667    3.000    0.000    1.333 
#    3.000    0.000    0.000    2.000    0.000    0.000 
#    0.000    0.000    0.000    0.000    0.000    0.000 
#
# Total GULP energy -133865.441393 kJ/mol
# GULP energy per Si atom -5577.726725 kJ/mol
# Density = 1.779909 g / cm^3
# Si number density = 17.839696 Si / 1000 Ang^3
#
#
#
# Elastic Constant Matrix: (Units=GPa)
#
#
# Indices 1 2 3 4 5 6 
#
# 1 131.6690 26.8418 109.2880 0.0000 -5.5770 0.0000
# 2 26.8418 37.0932 29.8978 0.0000 0.4153 0.0003
# 3 109.2880 29.8978 174.3310 0.0000 -7.2343 0.0000
# 4 0.0000 0.0000 0.0000 27.1729 0.0000 3.1073
# 5 -5.5770 0.4153 -7.2343 0.0000 37.5751 0.0000
# 6 0.0000 0.0003 0.0000 3.1073 0.0000 22.7869
#
#
#
# Elastic Compliance Matrix: (Units=1/GPa)
#
#
# Indices 1 2 3 4 5 6 
#
# 1 0.016381 -0.004184 -0.009525 0.000000 0.000644 0.000000
# 2 -0.004184 0.032424 -0.003003 0.000000 -0.001557 0.000000
# 3 -0.009525 -0.003003 0.012263 0.000000 0.000980 0.000000
# 4 0.000000 0.000000 0.000000 0.037384 0.000000 -0.005098
# 5 0.000644 -0.001557 0.000980 0.000000 0.026915 0.000000
# 6 0.000000 0.000000 0.000000 -0.005098 0.000000 0.044580
#
#
# Mechanical properties :
#
#
# Convention : Reuss Voigt Hill
#
# Bulk Modulus (GPa) = 36.17213 75.01648 55.59431
# Shear Modulus (GPa) = 23.52003 29.31136 26.41569
#
# Velocity S-wave (km/s) = 3.63493 4.05784 3.85219
# Velocity P-wave (km/s) = 6.15932 8.00602 7.14260
#
# Compressibility (1/GPa) = 0.02764559
#
# Stress axis : x y z
#
# Youngs Moduli (GPa) = 61.04709 30.84121 81.54592
#
# Poissons Ratio (x) = 0.12903 0.77672
# Poissons Ratio (y) = 0.25540 0.24486
# Poissons Ratio (z) = 0.58147 0.09261
#
# Static dielectric constant tensor:
#      x y z
#    x 1.579780 0.000000 -0.011460 
#    y 0.000000 1.612300 0.000000 
#    z -0.011460 0.000000 1.611470 
# 
# From -- ./inp_files/280066.got.cif
#   From: 2010.05.17/outbox.cif.g08.bks.cpg/sg12_141_cif.got.tgz:280066.got - 2010.06.03 13:09:07.
