data_PCOD9185208
_publ_section_title
;
Structure prediction by ZEFSAII (Michael W. Deem and Ramdas Pophale) SiO2 
 PCOD9185208
Probable space group: C 2/M
;
_chemical_formula_sum "Si O2"
_cell_formula_units_Z 56
_cell_length_a 16.139955
_cell_length_b 26.836847
_cell_length_c 8.565963
_cell_angle_alpha 90.000000
_cell_angle_beta 124.741318
_cell_angle_gamma 90.000000
_cell_volume 3048.883925
_symmetry_space_group_name_H-M "C 2/M"
_symmetry_group_IT_number 12
_symmetry_cell_setting 'monoclinic'
loop_
_space_group_symop_operation_xyz
x,y,z
-x,y,-z
-x,-y,-z
x,-y,z
1/2+x,1/2+y,z
1/2-x,1/2+y,-z
1/2-x,1/2-y,-z
1/2+x,1/2-y,z
loop_
_atom_site_type_symbol
_atom_site_label
_atom_site_fract_x
_atom_site_fract_y
_atom_site_fract_z
Si Si1 0.702934 0.802741 0.494850
Si Si2 0.119057 0.000000 0.934973
Si Si3 0.468857 0.660813 0.289264
Si Si4 0.151131 0.108460 0.336905
Si Si5 0.292675 0.395284 0.966050
Si Si6 0.615952 0.500000 0.312353
Si Si7 0.891905 0.664628 0.294435
Si Si8 0.504248 0.768245 0.825231
O O1 0.750000 0.750000 0.500000
O O2 0.773015 0.848832 0.522263
O O3 0.677614 0.807181 0.651960
O O4 0.594587 0.802172 0.299225
O O5 0.175889 0.950031 0.942907
O O6 0.118241 0.000000 0.124601
O O7 0.001284 0.000000 0.762643
O O8 0.500000 0.652098 0.500000
O O9 0.539026 0.625503 0.259017
O O10 0.495409 0.717470 0.273343
O O11 0.353961 0.645867 0.130448
O O12 0.166175 0.108135 0.167183
O O13 0.165962 0.052272 0.413956
O O14 0.174127 0.383055 0.825975
O O15 0.000000 0.655899 0.500000
O O16 0.909692 0.698442 0.161531
O O17 0.500000 0.752837 0.000000
#
# Coordination Sequence:
#
# PCOD9185208 Si02
#       8
#     8   4   8   8   8   4   8   8
#     4  10  19  34  57  81 113 148 182 232 281 333
#     4   9  16  30  57  86 111 140 185 228 275 331
#     4  12  23  33  51  83 117 149 186 229 279 343
#     4  10  19  34  56  80 113 151 188 224 277 332
#     4  10  20  36  58  81 111 151 187 228 282 333
#     4   9  16  30  54  84 113 146 184 227 269 336
#     4   9  21  39  55  80 112 146 189 238 278 332
#     4  11  23  38  56  77 111 149 191 231 285 338
#
# _framework density 18.367377000000001
#
# number of rings (size 3 to 8) (size 9 to 14) (size 15 to 20)
#    0.000    1.857    2.857    2.571    2.000    1.714 
#    0.000    1.786    0.000    2.571    0.000    1.000 
#    0.000    0.000    0.000    0.000    0.000    0.000 
#
# Total GULP energy -156027.751163 kJ/mol
# GULP energy per Si atom -5572.419684 kJ/mol
# Density = 1.832557 g / cm^3
# Si number density = 18.367377 Si / 1000 Ang^3
#
#
#
# Elastic Constant Matrix: (Units=GPa)
#
#
# Indices 1 2 3 4 5 6 
#
# 1 69.1532 36.3859 9.7302 0.0000 10.4862 0.0000
# 2 36.3859 127.6357 24.6465 0.0000 20.2337 0.0000
# 3 9.7302 24.6465 31.3504 0.0000 9.5526 0.0000
# 4 0.0000 0.0000 0.0000 20.5152 0.0000 9.6453
# 5 10.4862 20.2337 9.5526 0.0000 17.9851 0.0000
# 6 0.0000 0.0000 0.0000 9.6453 0.0000 18.2787
#
#
#
# Elastic Compliance Matrix: (Units=1/GPa)
#
#
# Indices 1 2 3 4 5 6 
#
# 1 0.017470 -0.004011 -0.000645 0.000000 -0.005332 0.000000
# 2 -0.004011 0.011175 -0.005276 0.000000 -0.007431 0.000000
# 3 -0.000645 -0.005276 0.040950 0.000000 -0.015438 0.000000
# 4 0.000000 0.000000 0.000000 0.064827 0.000000 -0.034208
# 5 -0.005332 -0.007431 -0.015438 0.000000 0.075271 0.000000
# 6 0.000000 0.000000 0.000000 -0.034208 0.000000 0.072759
#
#
# Mechanical properties :
#
#
# Convention : Reuss Voigt Hill
#
# Bulk Modulus (GPa) = 20.10785 41.07382 30.59083
# Shear Modulus (GPa) = 15.67926 21.84758 18.76342
#
# Velocity S-wave (km/s) = 2.92489 3.45262 3.19966
# Velocity P-wave (km/s) = 4.73054 6.18911 5.50832
#
# Compressibility (1/GPa) = 0.04973183
#
# Stress axis : x y z
#
# Youngs Moduli (GPa) = 57.24077 89.48508 24.42019
#
# Poissons Ratio (x) = 0.35889 0.01574
# Poissons Ratio (y) = 0.22957 0.12885
# Poissons Ratio (z) = 0.03690 0.47214
#
# Static dielectric constant tensor:
#      x y z
#    x 1.670920 0.000000 0.004110 
#    y 0.000000 1.651370 0.000000 
#    z 0.004110 0.000000 1.669870 
# 
# From -- ./inp_files/67092.got.cif
#   From: 2010.05.17/outbox.cif.g08.bks.cpg/sg12_34_cif.got.tgz:67092.got - 2010.06.03 13:09:07.
