data_PCOD9185746
_publ_section_title
;
Structure prediction by ZEFSAII (Michael W. Deem and Ramdas Pophale) SiO2 
 PCOD9185746
Probable space group: C 2/M
;
_chemical_formula_sum "Si O2"
_cell_formula_units_Z 56
_cell_length_a 19.220614
_cell_length_b 7.369348
_cell_length_c 17.305939
_cell_angle_alpha 90.000000
_cell_angle_beta 80.088209
_cell_angle_gamma 90.000000
_cell_volume 2414.684053
_symmetry_space_group_name_H-M "C 2/M"
_symmetry_group_IT_number 12
_symmetry_cell_setting 'monoclinic'
loop_
_space_group_symop_operation_xyz
x,y,z
-x,y,-z
-x,-y,-z
x,-y,z
1/2+x,1/2+y,z
1/2-x,1/2+y,-z
1/2-x,1/2-y,-z
1/2+x,1/2-y,z
loop_
_atom_site_type_symbol
_atom_site_label
_atom_site_fract_x
_atom_site_fract_y
_atom_site_fract_z
Si Si1 0.529810 0.719814 0.258278
Si Si2 0.871008 0.778928 0.297550
Si Si3 0.668356 0.715666 0.524536
Si Si4 0.059181 0.220359 0.426530
Si Si5 0.797352 0.222149 0.161387
Si Si6 0.848803 0.291540 0.886382
Si Si7 0.077826 0.205415 0.970980
O O1 0.532044 0.500000 0.255600
O O2 0.449443 0.773820 0.254990
O O3 0.546104 0.782258 0.342422
O O4 0.589496 0.785538 0.188927
O O5 0.858751 0.714841 0.387519
O O6 0.811688 0.723431 0.247220
O O7 0.870101 0.000000 0.299687
O O8 0.654472 0.500000 0.529284
O O9 0.750000 0.750000 0.500000
O O10 0.629981 0.783035 0.454891
O O11 0.000000 0.271905 0.500000
O O12 0.057702 0.000000 0.421704
O O13 0.723996 0.281734 0.136410
O O14 0.866013 0.283813 0.100117
O O15 0.795825 0.000000 0.159751
O O16 0.835235 0.500000 0.911333
O O17 0.879900 0.199565 0.956564
O O18 0.063333 0.000000 0.945191
O O19 0.000000 0.288126 0.000000
#
# Coordination Sequence:
#
# PCOD9185746 Si02
#       7
#     8   8   8   8   8   8   8
#     4  10  19  34  58  80 104 141 189 233 265 308
#     4   9  17  33  56  78 102 141 187 225 262 310
#     4  10  20  33  53  79 109 143 180 224 273 323
#     4   9  16  31  54  81 105 135 185 237 273 305
#     4   9  19  34  53  80 111 140 175 218 264 318
#     4  11  23  36  53  81 117 146 170 212 273 330
#     4  10  20  38  64  86 104 135 184 226 256 308
#
# _framework density 23.191438999999999
#
# number of rings (size 3 to 8) (size 9 to 14) (size 15 to 20)
#    0.000    2.286    1.429    1.714    2.000    2.571 
#    0.000    1.429    0.000    3.429    0.000    0.000 
#    0.000    0.000    0.000    0.000    0.000    0.000 
#
# Total GULP energy -156441.839539 kJ/mol
# GULP energy per Si atom -5587.208555 kJ/mol
# Density = 2.313865 g / cm^3
# Si number density = 23.191439 Si / 1000 Ang^3
#
#
#
# Elastic Constant Matrix: (Units=GPa)
#
#
# Indices 1 2 3 4 5 6 
#
# 1 134.9985 -3.2657 12.2992 0.0000 14.8857 0.0000
# 2 -3.2657 83.1854 -7.4397 0.0000 3.4630 0.0000
# 3 12.2992 -7.4397 81.0787 0.0000 13.0277 0.0000
# 4 0.0000 0.0000 0.0000 42.2870 0.0000 30.7794
# 5 14.8857 3.4630 13.0277 0.0000 44.6703 0.0000
# 6 0.0000 0.0000 0.0000 30.7794 0.0000 34.0168
#
#
#
# Elastic Compliance Matrix: (Units=1/GPa)
#
#
# Indices 1 2 3 4 5 6 
#
# 1 0.007748 0.000335 -0.000761 0.000000 -0.002386 0.000000
# 2 0.000335 0.012211 0.001301 0.000000 -0.001438 0.000000
# 3 -0.000761 0.001301 0.013161 0.000000 -0.003685 0.000000
# 4 0.000000 0.000000 0.000000 0.069267 0.000000 -0.062675
# 5 -0.002386 -0.001438 -0.003685 0.000000 0.024368 0.000000
# 6 0.000000 0.000000 0.000000 -0.062675 0.000000 0.086107
#
#
# Mechanical properties :
#
#
# Convention : Reuss Voigt Hill
#
# Bulk Modulus (GPa) = 28.67880 33.60559 31.14220
# Shear Modulus (GPa) = 22.44821 44.03940 33.24381
#
# Velocity S-wave (km/s) = 3.11457 4.36242 3.79020
# Velocity P-wave (km/s) = 5.03259 6.31635 5.71066
#
# Compressibility (1/GPa) = 0.03486896
#
# Stress axis : x y z
#
# Youngs Moduli (GPa) = 129.06496 81.89553 75.98400
#
# Poissons Ratio (x) = -0.02747 0.05784
# Poissons Ratio (y) = -0.04329 -0.09882
# Poissons Ratio (z) = 0.09824 -0.10651
#
# Static dielectric constant tensor:
#      x y z
#    x 1.908230 0.000000 0.032820 
#    y 0.000000 2.040960 0.000000 
#    z 0.032820 0.000000 1.821980 
# 
# From -- ./inp_files/275174.got.cif
#   From: 2010.05.17/outbox.cif.g08.bks.cpg/sg12_138_cif.got.tgz:275174.got - 2010.06.03 13:09:07.
