data_PCOD9185144
_publ_section_title
;
Structure prediction by ZEFSAII (Michael W. Deem and Ramdas Pophale) SiO2 
 PCOD9185144
Probable space group: C 2/M
;
_chemical_formula_sum "Si O2"
_cell_formula_units_Z 44
_cell_length_a 24.549789
_cell_length_b 9.435093
_cell_length_c 8.518248
_cell_angle_alpha 90.000000
_cell_angle_beta 86.635556
_cell_angle_gamma 90.000000
_cell_volume 1969.677167
_symmetry_space_group_name_H-M "C 2/M"
_symmetry_group_IT_number 12
_symmetry_cell_setting 'monoclinic'
loop_
_space_group_symop_operation_xyz
x,y,z
-x,y,-z
-x,-y,-z
x,-y,z
1/2+x,1/2+y,z
1/2-x,1/2+y,-z
1/2-x,1/2-y,-z
1/2+x,1/2-y,z
loop_
_atom_site_type_symbol
_atom_site_label
_atom_site_fract_x
_atom_site_fract_y
_atom_site_fract_z
Si Si1 0.000000 0.782144 0.000000
Si Si2 0.818526 0.159319 0.892803
Si Si3 0.392414 0.672220 0.154013
Si Si4 0.399159 0.842492 0.465012
Si Si5 0.278587 0.158280 0.630116
Si Si6 0.562221 0.350068 0.295666
O O1 0.018819 0.849013 0.162760
O O2 0.940153 0.732421 0.064511
O O3 0.782103 0.265127 0.797973
O O4 0.877794 0.152845 0.794638
O O5 0.795568 0.000000 0.893359
O O6 0.837204 0.197563 0.065346
O O7 0.403336 0.500000 0.138364
O O8 0.390978 0.727936 0.329774
O O9 0.341019 0.853447 0.561370
O O10 0.440699 0.780212 0.586294
O O11 0.414170 0.000000 0.406113
O O12 0.250000 0.250000 0.500000
O O13 0.254732 0.000000 0.644474
O O14 0.557755 0.500000 0.383181
#
# Coordination Sequence:
#
# PCOD9185144 Si02
#       6
#     4   8   8   8   8   8
#     4  10  19  34  57  82 103 134 185 228 255 294
#     4   8  16  31  52  77 104 134 170 212 259 307
#     4  10  19  34  56  79 105 139 178 219 258 300
#     4  10  22  37  51  75 110 141 169 210 262 313
#     4  10  20  35  57  80 103 133 171 213 258 312
#     4   9  16  31  54  76 101 135 175 218 259 301
#
# _framework density 22.338685000000002
#
# number of rings (size 3 to 8) (size 9 to 14) (size 15 to 20)
#    0.000    2.545    0.000    3.818    0.000    3.636 
#    0.000    8.182    0.000    0.000    0.000    0.000 
#    0.000    0.000    0.000    0.000    0.000    0.000 
#
# Total GULP energy -122499.633321 kJ/mol
# GULP energy per Si atom -5568.165151 kJ/mol
# Density = 2.228784 g / cm^3
# Si number density = 22.338685 Si / 1000 Ang^3
#
#
#
# Elastic Constant Matrix: (Units=GPa)
#
#
# Indices 1 2 3 4 5 6 
#
# 1 67.6855 24.3927 15.9311 0.0000 9.9964 0.0000
# 2 24.3927 107.3126 65.8121 0.0000 40.1632 0.0000
# 3 15.9311 65.8121 124.2465 0.0000 40.8479 0.0000
# 4 0.0000 0.0000 0.0000 20.6207 0.0000 -3.6384
# 5 9.9964 40.1632 40.8479 0.0000 44.7111 0.0000
# 6 0.0000 0.0000 0.0000 -3.6384 0.0000 3.7040
#
#
#
# Elastic Compliance Matrix: (Units=1/GPa)
#
#
# Indices 1 2 3 4 5 6 
#
# 1 0.016100 -0.003440 -0.000107 0.000000 -0.000412 0.000000
# 2 -0.003440 0.017000 -0.005426 0.000000 -0.009545 0.000000
# 3 -0.000107 -0.005426 0.013330 0.000000 -0.007280 0.000000
# 4 0.000000 0.000000 0.000000 0.058662 0.000000 0.057624
# 5 -0.000412 -0.009545 -0.007280 0.000000 0.037683 0.000000
# 6 0.000000 0.000000 0.000000 0.057624 0.000000 0.326582
#
#
# Mechanical properties :
#
#
# Convention : Reuss Voigt Hill
#
# Bulk Modulus (GPa) = 35.10630 56.83516 45.97073
# Shear Modulus (GPa) = 10.06447 26.68107 18.37277
#
# Velocity S-wave (km/s) = 2.12490 3.45974 2.87097
# Velocity P-wave (km/s) = 4.66582 6.43875 5.62260
#
# Compressibility (1/GPa) = 0.02848492
#
# Stress axis : x y z
#
# Youngs Moduli (GPa) = 62.11230 58.82239 75.02068
#
# Poissons Ratio (x) = 0.20234 0.00802
# Poissons Ratio (y) = 0.21366 0.40704
# Poissons Ratio (z) = 0.00664 0.31916
#
# Static dielectric constant tensor:
#      x y z
#    x 1.857350 0.000000 -0.036470 
#    y 0.000000 1.817280 0.000000 
#    z -0.036470 0.000000 1.808130 
# 
# From -- ./inp_files/108183.got.cif
#   From: 2010.05.17/outbox.cif.g08.bks.cpg/sg12_55_cif.got.tgz:108183.got - 2010.06.03 13:09:07.
