data_PCOD9185815
_publ_section_title
;
Structure prediction by ZEFSAII (Michael W. Deem and Ramdas Pophale) SiO2 
 PCOD9185815
Probable space group: C 2/M
;
_chemical_formula_sum "Si O2"
_cell_formula_units_Z 64
_cell_length_a 14.322919
_cell_length_b 7.840449
_cell_length_c 27.322788
_cell_angle_alpha 90.000000
_cell_angle_beta 78.998038
_cell_angle_gamma 90.000000
_cell_volume 3011.904296
_symmetry_space_group_name_H-M "C 2/M"
_symmetry_group_IT_number 12
_symmetry_cell_setting 'monoclinic'
loop_
_space_group_symop_operation_xyz
x,y,z
-x,y,-z
-x,-y,-z
x,-y,z
1/2+x,1/2+y,z
1/2-x,1/2+y,-z
1/2-x,1/2-y,-z
1/2+x,1/2-y,z
loop_
_atom_site_type_symbol
_atom_site_label
_atom_site_fract_x
_atom_site_fract_y
_atom_site_fract_z
Si Si1 0.326567 0.709005 0.140845
Si Si2 0.040983 0.200547 0.134918
Si Si3 0.654961 0.300029 0.613778
Si Si4 0.629154 0.301428 0.403412
Si Si5 0.138055 0.204513 0.509632
Si Si6 0.346212 0.802536 0.781956
Si Si7 0.473524 0.196885 0.682953
Si Si8 0.211529 0.296556 0.056885
O O1 0.325060 0.500000 0.141442
O O2 0.434546 0.763143 0.136730
O O3 0.255448 0.769709 0.190851
O O4 0.282160 0.762562 0.093299
O O5 0.091142 0.293997 0.175092
O O6 0.108454 0.223538 0.081160
O O7 0.037709 0.000000 0.147522
O O8 0.677497 0.500000 0.605951
O O9 0.755752 0.209156 0.611267
O O10 0.607463 0.239602 0.566913
O O11 0.576294 0.278266 0.663162
O O12 0.599568 0.500000 0.403417
O O13 0.601936 0.232830 0.460463
O O14 0.584564 0.208940 0.361758
O O15 0.250000 0.250000 0.500000
O O16 0.125857 0.000000 0.508381
O O17 0.407367 0.724522 0.731917
O O18 0.328929 0.000000 0.769924
O O19 0.491654 0.000000 0.693561
O O20 0.204746 0.500000 0.060868
O O21 0.250000 0.250000 0.000000
#
# Coordination Sequence:
#
# PCOD9185815 Si02
#       8
#     8   8   8   8   8   8   8   8
#     4   8  17  35  57  77 103 142 180 215 263 318
#     4  10  19  34  58  84 106 138 184 224 266 322
#     4  10  20  36  56  78 106 140 178 220 272 332
#     4  10  20  36  56  79 107 137 175 223 274 329
#     4   8  16  31  52  75 101 135 172 215 267 325
#     4   9  20  39  56  74 105 141 177 223 272 316
#     4  11  23  37  54  79 110 144 182 224 275 331
#     4  10  20  36  55  80 117 153 183 220 264 309
#
# _framework density 21.249016000000001
#
# number of rings (size 3 to 8) (size 9 to 14) (size 15 to 20)
#    0.000    2.500    0.000    2.625    0.000    4.000 
#    0.000   12.500    0.000    0.000    0.000    0.000 
#    0.000    0.000    0.000    0.000    0.000    0.000 
#
# Total GULP energy -178562.995464 kJ/mol
# GULP energy per Si atom -5580.093608 kJ/mol
# Density = 2.120065 g / cm^3
# Si number density = 21.249016 Si / 1000 Ang^3
#
#
#
# Elastic Constant Matrix: (Units=GPa)
#
#
# Indices 1 2 3 4 5 6 
#
# 1 105.7690 -6.7397 32.7210 0.0000 -28.2204 0.0000
# 2 -6.7397 33.7699 -8.7409 0.0000 -0.7614 0.0000
# 3 32.7210 -8.7409 107.0627 0.0000 -37.6710 0.0000
# 4 0.0000 0.0000 0.0000 19.9387 0.0000 1.3193
# 5 -28.2204 -0.7614 -37.6710 0.0000 25.6546 0.0000
# 6 0.0000 0.0000 0.0000 1.3193 0.0000 19.2055
#
#
#
# Elastic Compliance Matrix: (Units=1/GPa)
#
#
# Indices 1 2 3 4 5 6 
#
# 1 0.014168 0.004107 0.003169 0.000000 0.020361 0.000000
# 2 0.004107 0.032569 0.006897 0.000000 0.015612 0.000000
# 3 0.003169 0.006897 0.021173 0.000000 0.034781 0.000000
# 4 0.000000 0.000000 0.000000 0.050383 0.000000 -0.003461
# 5 0.020361 0.015612 0.034781 0.000000 0.112913 0.000000
# 6 0.000000 0.000000 0.000000 -0.003461 0.000000 0.052306
#
#
# Mechanical properties :
#
#
# Convention : Reuss Voigt Hill
#
# Bulk Modulus (GPa) = 10.38880 31.23137 20.81009
# Shear Modulus (GPa) = 17.40640 28.25051 22.82845
#
# Velocity S-wave (km/s) = 2.86521 3.65018 3.28125
# Velocity P-wave (km/s) = 3.98065 5.70042 4.91632
#
# Compressibility (1/GPa) = 0.09625752
#
# Stress axis : x y z
#
# Youngs Moduli (GPa) = 70.57962 30.70398 47.23031
#
# Poissons Ratio (x) = -0.12611 -0.14969
# Poissons Ratio (y) = -0.28988 -0.32575
# Poissons Ratio (z) = -0.22370 -0.21177
#
# Static dielectric constant tensor:
#      x y z
#    x 1.766230 0.000000 -0.023570 
#    y 0.000000 1.809860 0.000000 
#    z -0.023570 0.000000 1.780350 
# 
# From -- ./inp_files/359863.got.cif
#   From: 2010.05.17/outbox.cif.g08.bks.cpg/sg12_180_cif.got.tgz:359863.got - 2010.06.03 13:09:07.
