data_PCOD9185590
_publ_section_title
;
Structure prediction by ZEFSAII (Michael W. Deem and Ramdas Pophale) SiO2 
 PCOD9185590
Probable space group: C 2/M
;
_chemical_formula_sum "Si O2"
_cell_formula_units_Z 56
_cell_length_a 8.907431
_cell_length_b 20.813854
_cell_length_c 16.703635
_cell_angle_alpha 90.000000
_cell_angle_beta 59.893427
_cell_angle_gamma 90.000000
_cell_volume 2679.040028
_symmetry_space_group_name_H-M "C 2/M"
_symmetry_group_IT_number 12
_symmetry_cell_setting 'monoclinic'
loop_
_space_group_symop_operation_xyz
x,y,z
-x,y,-z
-x,-y,-z
x,-y,z
1/2+x,1/2+y,z
1/2-x,1/2+y,-z
1/2-x,1/2-y,-z
1/2+x,1/2-y,z
loop_
_atom_site_type_symbol
_atom_site_label
_atom_site_fract_x
_atom_site_fract_y
_atom_site_fract_z
Si Si1 0.598921 0.746755 0.162864
Si Si2 0.224302 0.305324 0.289917
Si Si3 0.191254 0.073756 0.638419
Si Si4 0.925853 0.342808 0.099298
Si Si5 0.822824 0.428690 0.419688
Si Si6 0.699929 0.295132 0.439760
Si Si7 0.799831 0.927897 0.726251
O O1 0.426108 0.703531 0.210813
O O2 0.617062 0.787037 0.240174
O O3 0.571277 0.797581 0.099696
O O4 0.767540 0.702649 0.114102
O O5 0.203286 0.375204 0.336924
O O6 0.197916 0.249104 0.362008
O O7 0.249750 0.071925 0.530072
O O8 0.992215 0.096629 0.692741
O O9 0.197965 0.000000 0.665442
O O10 0.845308 0.385907 0.191666
O O11 0.000000 0.376487 0.000000
O O12 0.917502 0.500000 0.392713
O O13 0.843505 0.351308 0.404401
O O14 0.713747 0.433348 0.366047
O O15 0.500000 0.320048 0.500000
O O16 0.750000 0.250000 0.500000
O O17 0.785255 0.000000 0.762388
#
# Coordination Sequence:
#
# PCOD9185590 Si02
#       7
#     8   8   8   8   8   8   8
#     4  10  22  37  61  86 117 151 190 241 301 355
#     4  11  21  38  57  85 120 157 198 243 292 347
#     4  10  19  34  57  83 116 161 203 238 280 346
#     4  11  22  40  63  89 116 148 189 244 306 364
#     4  10  20  34  55  84 116 156 203 240 276 334
#     4  12  23  33  52  82 118 158 202 245 284 327
#     4  10  20  35  58  86 117 152 196 246 294 346
#
# _framework density 20.903009999999998
#
# number of rings (size 3 to 8) (size 9 to 14) (size 15 to 20)
#    0.000    1.429    2.857    4.286    0.000    3.429 
#    0.000    0.714    0.000    4.286    0.000    2.000 
#    0.000    0.000    0.000    0.000    0.000    0.000 
#
# Total GULP energy -155994.013876 kJ/mol
# GULP energy per Si atom -5571.214781 kJ/mol
# Density = 2.085543 g / cm^3
# Si number density = 20.903010 Si / 1000 Ang^3
#
#
#
# Elastic Constant Matrix: (Units=GPa)
#
#
# Indices 1 2 3 4 5 6 
#
# 1 60.5041 -5.7934 10.7392 0.0000 -5.3424 0.0000
# 2 -5.7934 76.3991 9.8640 0.0000 -3.3796 0.0000
# 3 10.7392 9.8640 62.1734 0.0000 4.4720 0.0000
# 4 0.0000 0.0000 0.0000 2.2163 0.0000 -1.2989
# 5 -5.3424 -3.3796 4.4720 0.0000 10.1476 0.0000
# 6 0.0000 0.0000 0.0000 -1.2989 0.0000 18.9613
#
#
#
# Elastic Compliance Matrix: (Units=1/GPa)
#
#
# Indices 1 2 3 4 5 6 
#
# 1 0.018704 0.002568 -0.004552 0.000000 0.012709 0.000000
# 2 0.002568 0.014026 -0.003204 0.000000 0.007436 0.000000
# 3 -0.004552 -0.003204 0.018205 0.000000 -0.011487 0.000000
# 4 0.000000 0.000000 0.000000 0.470076 0.000000 0.032201
# 5 0.012709 0.007436 -0.011487 0.000000 0.112775 0.000000
# 6 0.000000 0.000000 0.000000 0.032201 0.000000 0.054945
#
#
# Mechanical properties :
#
#
# Convention : Reuss Voigt Hill
#
# Bulk Modulus (GPa) = 24.65505 25.41067 25.03286
# Shear Modulus (GPa) = 7.01630 18.54948 12.78289
#
# Velocity S-wave (km/s) = 1.83409 2.98217 2.47560
# Velocity P-wave (km/s) = 4.03804 4.90313 4.49146
#
# Compressibility (1/GPa) = 0.04055964
#
# Stress axis : x y z
#
# Youngs Moduli (GPa) = 53.46481 71.29372 54.93041
#
# Poissons Ratio (x) = -0.18310 0.25006
# Poissons Ratio (y) = -0.13731 0.17599
# Poissons Ratio (z) = 0.24339 0.22841
#
# Static dielectric constant tensor:
#      x y z
#    x 1.791510 0.000000 -0.055680 
#    y 0.000000 1.860400 0.000000 
#    z -0.055680 0.000000 1.771690 
# 
# From -- ./inp_files/258009.got.cif
#   From: 2010.05.17/outbox.cif.g08.bks.cpg/sg12_130_cif.got.tgz:258009.got - 2010.06.03 13:09:07.
