data_PCOD9185593
_publ_section_title
;
Structure prediction by ZEFSAII (Michael W. Deem and Ramdas Pophale) SiO2 
 PCOD9185593
Probable space group: C 2/M
;
_chemical_formula_sum "Si O2"
_cell_formula_units_Z 64
_cell_length_a 11.713465
_cell_length_b 26.230980
_cell_length_c 12.040815
_cell_angle_alpha 90.000000
_cell_angle_beta 109.280619
_cell_angle_gamma 90.000000
_cell_volume 3492.107568
_symmetry_space_group_name_H-M "C 2/M"
_symmetry_group_IT_number 12
_symmetry_cell_setting 'monoclinic'
loop_
_space_group_symop_operation_xyz
x,y,z
-x,y,-z
-x,-y,-z
x,-y,z
1/2+x,1/2+y,z
1/2-x,1/2+y,-z
1/2-x,1/2-y,-z
1/2+x,1/2-y,z
loop_
_atom_site_type_symbol
_atom_site_label
_atom_site_fract_x
_atom_site_fract_y
_atom_site_fract_z
Si Si1 0.133815 0.734716 0.094165
Si Si2 0.620343 0.320983 0.465193
Si Si3 0.139809 0.941729 0.081546
Si Si4 0.237965 0.336036 0.944672
Si Si5 0.596771 0.054842 0.429998
Si Si6 0.286739 0.403794 0.653173
Si Si7 0.558374 0.142389 0.703088
Si Si8 0.641079 0.213604 0.354743
O O1 0.188812 0.791843 0.098346
O O2 0.131801 0.718802 0.220468
O O3 0.211954 0.692638 0.051771
O O4 0.000000 0.735982 0.000000
O O5 0.500000 0.319272 0.500000
O O6 0.619124 0.367247 0.377654
O O7 0.643016 0.269890 0.403401
O O8 0.742971 0.320864 0.577944
O O9 0.199611 0.891887 0.041193
O O10 0.161743 0.932207 0.221392
O O11 0.185374 0.000000 0.072033
O O12 0.000000 0.940944 0.000000
O O13 0.112202 0.345208 0.840131
O O14 0.500000 0.053655 0.500000
O O15 0.722671 0.064551 0.533893
O O16 0.538554 0.096671 0.331227
O O17 0.599217 0.000000 0.375128
O O18 0.174012 0.370671 0.665142
O O19 0.480605 0.189165 0.635400
#
# Coordination Sequence:
#
# PCOD9185593 Si02
#       8
#     8   8   8   8   8   8   8   8
#     4  11  22  38  59  87 121 160 200 239 298 355
#     4  11  26  36  56  84 119 161 198 239 299 355
#     4  10  21  38  63  91 119 155 200 250 299 350
#     4  10  22  36  60  90 119 155 197 249 291 359
#     4   9  17  30  55  85 111 144 186 239 296 344
#     4  10  20  37  57  86 117 151 195 247 295 352
#     4  10  19  34  57  83 118 147 189 245 297 345
#     4  11  23  37  55  83 119 156 195 240 292 356
#
# _framework density 18.32704
#
# number of rings (size 3 to 8) (size 9 to 14) (size 15 to 20)
#    0.000    1.750    2.500    2.250    5.250    4.000 
#    0.000    0.000    0.000    2.625    0.000    0.000 
#    0.000    0.000    0.000    0.000    0.000    0.000 
#
# Total GULP energy -178227.178314 kJ/mol
# GULP energy per Si atom -5569.599322 kJ/mol
# Density = 1.828533 g / cm^3
# Si number density = 18.327040 Si / 1000 Ang^3
#
#
#
# Elastic Constant Matrix: (Units=GPa)
#
#
# Indices 1 2 3 4 5 6 
#
# 1 58.8922 24.4065 30.5690 0.0000 7.4907 0.0000
# 2 24.4065 118.0425 33.3931 0.0000 2.6712 0.0000
# 3 30.5690 33.3931 82.1050 0.0000 8.5865 0.0000
# 4 0.0000 0.0000 0.0000 14.3054 0.0000 -2.7142
# 5 7.4907 2.6712 8.5865 0.0000 26.9642 0.0000
# 6 0.0000 0.0000 0.0000 -2.7142 0.0000 14.7550
#
#
#
# Elastic Compliance Matrix: (Units=1/GPa)
#
#
# Indices 1 2 3 4 5 6 
#
# 1 0.022027 -0.002554 -0.006774 0.000000 -0.003709 0.000000
# 2 -0.002554 0.009871 -0.003140 0.000000 0.000732 0.000000
# 3 -0.006774 -0.003140 0.016292 0.000000 -0.002995 0.000000
# 4 0.000000 0.000000 0.000000 0.072432 0.000000 0.013324
# 5 -0.003709 0.000732 -0.002995 0.000000 0.038998 0.000000
# 6 0.000000 0.000000 0.000000 0.013324 0.000000 0.070225
#
#
# Mechanical properties :
#
#
# Convention : Reuss Voigt Hill
#
# Bulk Modulus (GPa) = 43.00542 48.41964 45.71253
# Shear Modulus (GPa) = 19.04525 22.58299 20.81412
#
# Velocity S-wave (km/s) = 3.22714 3.51411 3.37368
# Velocity P-wave (km/s) = 6.11575 6.55305 6.33817
#
# Compressibility (1/GPa) = 0.02325288
#
# Stress axis : x y z
#
# Youngs Moduli (GPa) = 45.39963 101.30242 61.37912
#
# Poissons Ratio (x) = 0.25872 0.41580
# Poissons Ratio (y) = 0.11595 0.19276
# Poissons Ratio (z) = 0.30755 0.31814
#
# Static dielectric constant tensor:
#      x y z
#    x 1.638990 0.000000 0.016110 
#    y 0.000000 1.672810 0.000000 
#    z 0.016110 0.000000 1.637500 
# 
# From -- ./inp_files/136000.got.cif
#   From: 2010.05.17/outbox.cif.g08.bks.cpg/sg12_68_cif.got.tgz:136000.got - 2010.06.03 13:09:07.
