data_PCOD9185857
_publ_section_title
;
Structure prediction by ZEFSAII (Michael W. Deem and Ramdas Pophale) SiO2 
 PCOD9185857
Probable space group: C 2/M
;
_chemical_formula_sum "Si O2"
_cell_formula_units_Z 64
_cell_length_a 14.175538
_cell_length_b 16.270983
_cell_length_c 22.019373
_cell_angle_alpha 90.000000
_cell_angle_beta 145.766558
_cell_angle_gamma 90.000000
_cell_volume 2857.141779
_symmetry_space_group_name_H-M "C 2/M"
_symmetry_group_IT_number 12
_symmetry_cell_setting 'monoclinic'
loop_
_space_group_symop_operation_xyz
x,y,z
-x,y,-z
-x,-y,-z
x,-y,z
1/2+x,1/2+y,z
1/2-x,1/2+y,-z
1/2-x,1/2-y,-z
1/2+x,1/2-y,z
loop_
_atom_site_type_symbol
_atom_site_label
_atom_site_fract_x
_atom_site_fract_y
_atom_site_fract_z
Si Si1 0.516439 0.406799 0.689857
Si Si2 0.993590 0.313791 0.214244
Si Si3 0.192097 0.911513 0.028403
Si Si4 0.209650 0.409132 0.057537
Si Si5 0.387807 0.760447 0.291160
Si Si6 0.694632 0.405281 0.591228
Si Si7 0.491810 0.749774 0.083436
Si Si8 0.696021 0.155350 0.482180
O O1 0.526300 0.500000 0.671612
O O2 0.649096 0.401033 0.815487
O O3 0.569095 0.334608 0.671800
O O4 0.320066 0.384819 0.597867
O O5 0.952947 0.272206 0.256387
O O6 0.946488 0.259999 0.130814
O O7 0.184983 0.341146 0.310945
O O8 0.880642 0.395620 0.151361
O O9 0.200702 0.911556 0.960059
O O10 0.095696 0.828654 0.992704
O O11 0.128773 0.000000 0.015216
O O12 0.129796 0.500000 0.021557
O O13 0.078600 0.334031 0.983423
O O14 0.496816 0.829287 0.385022
O O15 0.189308 0.765996 0.186220
O O16 0.500000 0.387893 0.500000
O O17 0.723897 0.500000 0.624623
O O18 0.757115 0.393651 0.554485
O O19 0.750000 0.250000 0.500000
#
# Coordination Sequence:
#
# PCOD9185857 Si02
#       8
#     8   8   8   8   8   8   8   8
#     4  10  19  34  58  84 117 158 191 244 307 363
#     4  10  21  39  60  84 121 158 195 249 318 362
#     4  10  20  37  59  85 117 159 206 253 299 360
#     4   9  19  35  59  91 123 154 198 247 307 372
#     4  10  22  38  58  88 118 156 204 254 298 370
#     4  10  21  36  59  90 119 151 198 256 313 374
#     4  11  22  38  63  87 121 163 205 247 309 370
#     4   9  20  37  56  80 118 156 201 241 301 362
#
# _framework density 22.400009000000001
#
# number of rings (size 3 to 8) (size 9 to 14) (size 15 to 20)
#    0.000    2.125    0.000    3.750    3.500    3.000 
#    0.000    5.625    0.000    0.000    0.000    3.500 
#    0.000    0.000    0.000    0.000    0.000    0.000 
#
# Total GULP energy -178542.346765 kJ/mol
# GULP energy per Si atom -5579.448336 kJ/mol
# Density = 2.234903 g / cm^3
# Si number density = 22.400009 Si / 1000 Ang^3
#
#
#
# Elastic Constant Matrix: (Units=GPa)
#
#
# Indices 1 2 3 4 5 6 
#
# 1 60.9337 12.8332 15.1732 0.0001 8.9449 0.0000
# 2 12.8332 122.5666 32.7956 0.0001 26.2561 0.0000
# 3 15.1732 32.7956 112.8034 0.0001 29.3848 0.0000
# 4 0.0001 0.0001 0.0001 32.3248 0.0000 -4.4482
# 5 8.9449 26.2561 29.3848 0.0000 39.9787 0.0000
# 6 0.0000 0.0000 0.0000 -4.4482 0.0000 -0.4960
#
#
#
# Elastic Compliance Matrix: (Units=1/GPa)
#
#
# Indices 1 2 3 4 5 6 
#
# 1 0.017298 -0.000952 -0.001490 0.000000 -0.002150 0.000000
# 2 -0.000952 0.009731 -0.001350 0.000000 -0.005185 0.000000
# 3 -0.001490 -0.001350 0.011305 0.000000 -0.007089 0.000000
# 4 0.000000 0.000000 0.000000 0.013847 0.000000 -0.124186
# 5 -0.002150 -0.005185 -0.007089 0.000000 0.034110 0.000000
# 6 0.000000 0.000000 0.000000 -0.124186 0.000000 -0.902457
#
#
# Mechanical properties :
#
#
# Convention : Reuss Voigt Hill
#
# Bulk Modulus (GPa) = 32.52116 46.43417 39.47767
# Shear Modulus (GPa) = -6.26305 30.06161 11.89928
#
# Velocity S-wave (km/s) = -1.67394 3.66735 2.30732
# Velocity P-wave (km/s) = 3.28843 6.22151 4.97599
#
# Compressibility (1/GPa) = 0.03074921
#
# Stress axis : x y z
#
# Youngs Moduli (GPa) = 57.80877 102.76920 88.45984
#
# Poissons Ratio (x) = 0.09783 0.13180
# Poissons Ratio (y) = 0.05503 0.11944
# Poissons Ratio (z) = 0.08613 0.13876
#
# Static dielectric constant tensor:
#      x y z
#    x 1.847620 0.000000 -0.000550 
#    y 0.000000 1.849640 0.000000 
#    z -0.000550 0.000000 1.938070 
# 
# From -- ./inp_files/340875.got.cif
#   From: 2010.05.17/outbox.cif.g08.bks.cpg/sg12_171_cif.got.tgz:340875.got - 2010.06.03 13:09:07.
