data_PCOD9185952
_publ_section_title
;
Structure prediction by ZEFSAII (Michael W. Deem and Ramdas Pophale) SiO2 
 PCOD9185952
Probable space group: C 2/M
;
_chemical_formula_sum "Si O2"
_cell_formula_units_Z 64
_cell_length_a 20.904166
_cell_length_b 7.753787
_cell_length_c 24.062621
_cell_angle_alpha 90.000000
_cell_angle_beta 43.642936
_cell_angle_gamma 90.000000
_cell_volume 2691.787070
_symmetry_space_group_name_H-M "C 2/M"
_symmetry_group_IT_number 12
_symmetry_cell_setting 'monoclinic'
loop_
_space_group_symop_operation_xyz
x,y,z
-x,y,-z
-x,-y,-z
x,-y,z
1/2+x,1/2+y,z
1/2-x,1/2+y,-z
1/2-x,1/2-y,-z
1/2+x,1/2-y,z
loop_
_atom_site_type_symbol
_atom_site_label
_atom_site_fract_x
_atom_site_fract_y
_atom_site_fract_z
Si Si1 0.056600 0.293718 0.745508
Si Si2 0.131605 0.194359 0.076258
Si Si3 0.559763 0.792988 0.513452
Si Si4 0.989634 0.790892 0.943573
Si Si5 0.023603 0.706774 0.319926
Si Si6 0.805507 0.295925 0.185512
Si Si7 0.795441 0.300181 0.855326
Si Si8 0.244975 0.207881 0.337466
O O1 0.047097 0.500000 0.763105
O O2 0.967018 0.205153 0.828831
O O3 0.048463 0.271501 0.684674
O O4 0.155779 0.231103 0.703038
O O5 0.094479 0.278731 0.041717
O O6 0.203584 0.238820 0.081091
O O7 0.155753 0.000000 0.045942
O O8 0.500000 0.723707 0.500000
O O9 0.518163 0.723257 0.596960
O O10 0.664840 0.758231 0.429966
O O11 0.549808 0.000000 0.521695
O O12 0.091294 0.742625 0.857048
O O13 0.982758 0.000000 0.948978
O O14 0.000000 0.725881 0.000000
O O15 0.038089 0.500000 0.318393
O O16 0.119919 0.778969 0.234272
O O17 0.795685 0.500000 0.184700
O O18 0.788505 0.215197 0.135496
O O19 0.736683 0.233156 0.278039
O O20 0.817120 0.500000 0.848977
O O21 0.247679 0.000000 0.333522
#
# Coordination Sequence:
#
# PCOD9185952 Si02
#       8
#     8   8   8   8   8   8   8   8
#     4   9  17  33  53  74 105 144 184 225 279 334
#     4  10  19  34  58  87 116 145 185 230 273 329
#     4  10  20  33  48  69 100 139 186 235 281 331
#     4  10  22  40  62  88 118 150 183 224 277 336
#     4   8  16  31  51  73 101 142 187 229 273 330
#     4  11  22  37  58  86 116 145 189 238 279 331
#     4  10  20  36  60  84 113 153 191 231 283 334
#     4  10  21  34  51  76 107 142 180 231 284 330
#
# _framework density 23.776026999999999
#
# number of rings (size 3 to 8) (size 9 to 14) (size 15 to 20)
#    0.000    2.250    1.250    2.625    0.000    4.000 
#    0.000    3.750    0.000    0.000    0.000    0.000 
#    0.000    0.000    0.000    0.000    0.000    0.000 
#
# Total GULP energy -178589.823603 kJ/mol
# GULP energy per Si atom -5580.931988 kJ/mol
# Density = 2.372191 g / cm^3
# Si number density = 23.776027 Si / 1000 Ang^3
#
#
#
# Elastic Constant Matrix: (Units=GPa)
#
#
# Indices 1 2 3 4 5 6 
#
# 1 132.5087 -0.1654 28.4706 0.0094 8.1407 -0.0115
# 2 -0.1654 37.1009 -7.5453 0.0269 11.7052 -0.0257
# 3 28.4706 -7.5453 107.0402 0.0080 26.4552 -0.0093
# 4 0.0094 0.0269 0.0080 -39.0742 0.0021 63.4351
# 5 8.1407 11.7052 26.4552 0.0021 39.1757 -0.0025
# 6 -0.0115 -0.0257 -0.0093 63.4351 -0.0025 -63.5060
#
#
#
# Elastic Compliance Matrix: (Units=1/GPa)
#
#
# Indices 1 2 3 4 5 6 
#
# 1 0.008010 -0.000358 -0.002126 0.000001 -0.000122 0.000000
# 2 -0.000358 0.032350 0.005697 -0.000002 -0.013439 -0.000015
# 3 -0.002126 0.005697 0.012749 0.000000 -0.009870 -0.000003
# 4 0.000001 -0.000002 0.000000 0.041169 0.000001 0.041123
# 5 -0.000122 -0.013439 -0.009870 0.000001 0.036232 0.000006
# 6 0.000000 -0.000015 -0.000003 0.041123 0.000006 0.025331
#
#
# Mechanical properties :
#
#
# Convention : Reuss Voigt Hill
#
# Bulk Modulus (GPa) = 16.79657 35.35217 26.07437
# Shear Modulus (GPa) = 29.54049 4.37844 16.95947
#
# Velocity S-wave (km/s) = 3.52866 1.35850 2.67367
# Velocity P-wave (km/s) = 4.86639 4.16675 4.53010
#
# Compressibility (1/GPa) = 0.05953597
#
# Stress axis : x y z
#
# Youngs Moduli (GPa) = 124.83689 30.91150 78.44031
#
# Poissons Ratio (x) = 0.01107 0.16674
# Poissons Ratio (y) = 0.04470 -0.44688
# Poissons Ratio (z) = 0.26536 -0.17610
#
# Static dielectric constant tensor:
#      x y z
#    x 1.937420 0.000000 0.002730 
#    y 0.000000 1.877580 0.000000 
#    z 0.002730 0.000000 1.966360 
# 
# From -- ./inp_files/346013.got.cif
#   From: 2010.05.17/outbox.cif.g08.bks.cpg/sg12_174_cif.got.tgz:346013.got - 2010.06.03 13:09:07.
