data_PCOD9185829
_publ_section_title
;
Structure prediction by ZEFSAII (Michael W. Deem and Ramdas Pophale) SiO2 
 PCOD9185829
Probable space group: C 2/M
;
_chemical_formula_sum "Si O2"
_cell_formula_units_Z 64
_cell_length_a 20.924125
_cell_length_b 8.968462
_cell_length_c 19.306206
_cell_angle_alpha 90.000000
_cell_angle_beta 89.478821
_cell_angle_gamma 90.000000
_cell_volume 3622.799061
_symmetry_space_group_name_H-M "C 2/M"
_symmetry_group_IT_number 12
_symmetry_cell_setting 'monoclinic'
loop_
_space_group_symop_operation_xyz
x,y,z
-x,y,-z
-x,-y,-z
x,-y,z
1/2+x,1/2+y,z
1/2-x,1/2+y,-z
1/2-x,1/2-y,-z
1/2+x,1/2-y,z
loop_
_atom_site_type_symbol
_atom_site_label
_atom_site_fract_x
_atom_site_fract_y
_atom_site_fract_z
Si Si1 0.804494 0.677567 0.952558
Si Si2 0.625348 0.821152 0.574822
Si Si3 0.876536 0.178108 0.576055
Si Si4 0.748683 0.178313 0.664113
Si Si5 0.494602 0.177982 0.656645
Si Si6 0.554489 0.677806 0.210736
Si Si7 0.807337 0.322946 0.790964
Si Si8 0.057422 0.820818 0.050151
O O1 0.805676 0.500000 0.962537
O O2 0.790768 0.707255 0.871259
O O3 0.874846 0.744204 0.966513
O O4 0.750000 0.750000 0.000000
O O5 0.627272 0.738140 0.501823
O O6 0.685706 0.781116 0.621894
O O7 0.560049 0.787798 0.616070
O O8 0.627627 0.000000 0.562302
O O9 0.811036 0.213118 0.617261
O O10 0.935664 0.253875 0.614541
O O11 0.884888 0.000000 0.576476
O O12 0.756690 0.261909 0.736622
O O13 0.747749 0.000000 0.676228
O O14 0.491749 0.246774 0.733351
O O15 0.487625 0.000000 0.660774
O O16 0.554403 0.500000 0.219912
O O17 0.625580 0.740395 0.224039
O O18 0.540371 0.712410 0.130499
O O19 0.816174 0.500000 0.782647
O O20 0.065704 0.000000 0.044523
O O21 0.000000 0.775785 0.000000
#
# Coordination Sequence:
#
# PCOD9185829 Si02
#       8
#     8   8   8   8   8   8   8   8
#     4  10  21  37  58  86 117 150 191 234 278 333
#     4  10  23  40  55  78 113 150 183 226 281 332
#     4  11  22  36  59  85 107 141 189 234 276 331
#     4  10  21  38  58  81 112 147 186 227 277 333
#     4  11  22  37  57  80 111 148 187 229 276 329
#     4  10  19  34  58  84 110 146 188 228 274 329
#     4  10  20  35  58  85 111 145 189 231 272 326
#     4   9  19  37  60  85 116 151 186 230 285 337
#
# _framework density 17.665897999999999
#
# number of rings (size 3 to 8) (size 9 to 14) (size 15 to 20)
#    0.000    1.875    1.250    2.625    0.000    5.750 
#    2.250    0.000    0.000    0.000    0.000    0.000 
#    0.000    0.000    0.000    0.000    0.000    0.000 
#
# Total GULP energy -178732.148275 kJ/mol
# GULP energy per Si atom -5585.379634 kJ/mol
# Density = 1.762569 g / cm^3
# Si number density = 17.665898 Si / 1000 Ang^3
#
#
#
# Elastic Constant Matrix: (Units=GPa)
#
#
# Indices 1 2 3 4 5 6 
#
# 1 130.5714 59.1147 82.0164 0.0000 9.6711 0.0000
# 2 59.1147 52.9910 59.9645 0.0000 -1.8271 0.0000
# 3 82.0164 59.9645 127.0150 0.0000 8.7346 0.0000
# 4 0.0000 0.0000 0.0000 34.1150 0.0000 -1.5180
# 5 9.6711 -1.8271 8.7346 0.0000 24.9739 0.0000
# 6 0.0000 0.0000 0.0000 -1.5180 0.0000 25.2296
#
#
#
# Elastic Compliance Matrix: (Units=1/GPa)
#
#
# Indices 1 2 3 4 5 6 
#
# 1 0.017461 -0.016071 -0.003220 0.000000 -0.006812 0.000000
# 2 -0.016071 0.057841 -0.018084 0.000000 0.016780 0.000000
# 3 -0.003220 -0.018084 0.018951 0.000000 -0.006704 0.000000
# 4 0.000000 0.000000 0.000000 0.029391 0.000000 0.001768
# 5 -0.006812 0.016780 -0.006704 0.000000 0.046252 0.000000
# 6 0.000000 0.000000 0.000000 0.001768 0.000000 0.039742
#
#
# Mechanical properties :
#
#
# Convention : Reuss Voigt Hill
#
# Bulk Modulus (GPa) = 51.26971 79.19649 65.23310
# Shear Modulus (GPa) = 17.18868 24.16249 20.67559
#
# Velocity S-wave (km/s) = 3.12266 3.70232 3.42477
# Velocity P-wave (km/s) = 6.48739 7.95008 7.25568
#
# Compressibility (1/GPa) = 0.01950470
#
# Stress axis : x y z
#
# Youngs Moduli (GPa) = 57.26917 17.28871 52.76855
#
# Poissons Ratio (x) = 0.27784 0.16990
# Poissons Ratio (y) = 0.92035 0.95426
# Poissons Ratio (z) = 0.18439 0.31265
#
# Static dielectric constant tensor:
#      x y z
#    x 1.572220 0.000000 0.001990 
#    y 0.000000 1.590170 0.000000 
#    z 0.001990 0.000000 1.598190 
# 
# From -- ./inp_files/281322.got.cif
#   From: 2010.05.17/outbox.cif.g08.bks.cpg/sg12_141_cif.got.tgz:281322.got - 2010.06.03 13:09:07.
