data_PCOD9185798
_publ_section_title
;
Structure prediction by ZEFSAII (Michael W. Deem and Ramdas Pophale) SiO2 
 PCOD9185798
Probable space group: C 2/M
;
_chemical_formula_sum "Si O2"
_cell_formula_units_Z 64
_cell_length_a 16.119639
_cell_length_b 8.652714
_cell_length_c 24.491160
_cell_angle_alpha 90.000000
_cell_angle_beta 80.386672
_cell_angle_gamma 90.000000
_cell_volume 3368.023294
_symmetry_space_group_name_H-M "C 2/M"
_symmetry_group_IT_number 12
_symmetry_cell_setting 'monoclinic'
loop_
_space_group_symop_operation_xyz
x,y,z
-x,y,-z
-x,-y,-z
x,-y,z
1/2+x,1/2+y,z
1/2-x,1/2+y,-z
1/2-x,1/2-y,-z
1/2+x,1/2-y,z
loop_
_atom_site_type_symbol
_atom_site_label
_atom_site_fract_x
_atom_site_fract_y
_atom_site_fract_z
Si Si1 0.920141 0.688016 0.676421
Si Si2 0.796365 0.184434 0.442024
Si Si3 0.435232 0.186650 0.256457
Si Si4 0.856065 0.185029 0.934874
Si Si5 0.322983 0.314956 0.065237
Si Si6 0.032426 0.685576 0.872119
Si Si7 0.979920 0.686780 0.440527
Si Si8 0.737839 0.686742 0.676623
O O1 0.919734 0.500000 0.678320
O O2 0.824364 0.738853 0.695496
O O3 0.988822 0.741244 0.712721
O O4 0.951462 0.730706 0.612281
O O5 0.750000 0.250000 0.500000
O O6 0.891508 0.243716 0.432380
O O7 0.757712 0.230565 0.387913
O O8 0.793677 0.000000 0.445359
O O9 0.451326 0.232643 0.192310
O O10 0.346375 0.246977 0.288011
O O11 0.433904 0.000000 0.259053
O O12 0.771363 0.250611 0.916407
O O13 0.942363 0.251562 0.901752
O O14 0.856308 0.000000 0.930334
O O15 0.849072 0.225599 0.000069
O O16 0.321437 0.500000 0.070004
O O17 0.392191 0.247748 0.098454
O O18 0.031228 0.500000 0.875145
O O19 0.973605 0.500000 0.441236
O O20 0.000000 0.736084 0.500000
O O21 0.733411 0.500000 0.679575
#
# Coordination Sequence:
#
# PCOD9185798 Si02
#       8
#     8   8   8   8   8   8   8   8
#     4   9  18  36  59  79 108 147 185 228 285 346
#     4  11  22  35  54  83 117 147 186 233 287 351
#     4  10  22  40  59  82 113 153 197 241 290 346
#     4  10  21  38  61  90 123 158 200 250 304 359
#     4  10  21  38  61  89 122 161 202 247 303 358
#     4  11  23  37  57  87 122 160 207 250 294 358
#     4  10  19  34  58  83 110 146 187 230 286 351
#     4  10  21  38  60  84 110 146 192 239 287 348
#
# _framework density 19.002243
#
# number of rings (size 3 to 8) (size 9 to 14) (size 15 to 20)
#    0.000    1.875    1.250    2.625    0.000    7.750 
#    0.000    2.500    0.000    0.000    0.000    0.000 
#    0.000    0.000    0.000    0.000    0.000    0.000 
#
# Total GULP energy -178729.701200 kJ/mol
# GULP energy per Si atom -5585.303162 kJ/mol
# Density = 1.895899 g / cm^3
# Si number density = 19.002243 Si / 1000 Ang^3
#
#
#
# Elastic Constant Matrix: (Units=GPa)
#
#
# Indices 1 2 3 4 5 6 
#
# 1 203.9382 35.6220 98.8634 0.0000 9.4411 0.0000
# 2 35.6220 20.0834 36.0426 0.0000 0.9282 0.0000
# 3 98.8634 36.0426 124.5251 0.0000 1.3756 0.0000
# 4 0.0000 0.0000 0.0000 16.1543 0.0000 0.2988
# 5 9.4411 0.9282 1.3756 0.0000 9.5439 0.0000
# 6 0.0000 0.0000 0.0000 0.2988 0.0000 36.1507
#
#
#
# Elastic Compliance Matrix: (Units=1/GPa)
#
#
# Indices 1 2 3 4 5 6 
#
# 1 0.008796 -0.005981 -0.005171 0.000000 -0.007375 0.000000
# 2 -0.005981 0.107998 -0.026502 0.000000 -0.000767 0.000000
# 3 -0.005171 -0.026502 0.019753 0.000000 0.004846 0.000000
# 4 0.000000 0.000000 0.000000 0.061912 0.000000 -0.000512
# 5 -0.007375 -0.000767 0.004846 0.000000 0.111450 0.000000
# 6 0.000000 0.000000 0.000000 -0.000512 0.000000 0.027666
#
#
# Mechanical properties :
#
#
# Convention : Reuss Voigt Hill
#
# Bulk Modulus (GPa) = 16.32936 76.62253 46.47594
# Shear Modulus (GPa) = 11.53940 24.23770 17.88855
#
# Velocity S-wave (km/s) = 2.46695 3.57531 3.07154
# Velocity P-wave (km/s) = 4.08980 7.57986 6.09019
#
# Compressibility (1/GPa) = 0.06123941
#
# Stress axis : x y z
#
# Youngs Moduli (GPa) = 113.68416 9.25940 50.62499
#
# Poissons Ratio (x) = 0.05538 0.26178
# Poissons Ratio (y) = 0.67996 1.34167
# Poissons Ratio (z) = 0.58785 0.24539
#
# Static dielectric constant tensor:
#      x y z
#    x 1.639700 0.000000 0.007880 
#    y 0.000000 1.653520 0.000000 
#    z 0.007880 0.000000 1.663410 
# 
# From -- ./inp_files/338707.got.cif
#   From: 2010.05.17/outbox.cif.g08.bks.cpg/sg12_170_cif.got.tgz:338707.got - 2010.06.03 13:09:07.
