data_PCOD9185121
_publ_section_title
;
Structure prediction by ZEFSAII (Michael W. Deem and Ramdas Pophale) SiO2 
 PCOD9185121
Probable space group: C 2/M
;
_chemical_formula_sum "Si O2"
_cell_formula_units_Z 64
_cell_length_a 21.712349
_cell_length_b 20.684766
_cell_length_c 9.545613
_cell_angle_alpha 90.000000
_cell_angle_beta 64.496742
_cell_angle_gamma 90.000000
_cell_volume 3869.347325
_symmetry_space_group_name_H-M "C 2/M"
_symmetry_group_IT_number 12
_symmetry_cell_setting 'monoclinic'
loop_
_space_group_symop_operation_xyz
x,y,z
-x,y,-z
-x,-y,-z
x,-y,z
1/2+x,1/2+y,z
1/2-x,1/2+y,-z
1/2-x,1/2-y,-z
1/2+x,1/2-y,z
loop_
_atom_site_type_symbol
_atom_site_label
_atom_site_fract_x
_atom_site_fract_y
_atom_site_fract_z
Si Si1 0.683892 0.076116 0.377802
Si Si2 0.421998 0.811138 0.527741
Si Si3 0.070230 0.824374 0.000164
Si Si4 0.259329 0.648044 0.552186
Si Si5 0.139949 0.250242 0.686155
Si Si6 0.336094 0.425969 0.716694
Si Si7 0.564912 0.309562 0.333232
Si Si8 0.188757 0.073121 0.937915
O O1 0.619852 0.122945 0.419910
O O2 0.723064 0.101036 0.477205
O O3 0.739191 0.087828 0.202287
O O4 0.667599 0.000000 0.400584
O O5 0.500000 0.822161 0.500000
O O6 0.408952 0.782657 0.383916
O O7 0.393557 0.753743 0.656228
O O8 0.054353 0.804523 0.176689
O O9 0.099664 0.770012 0.865371
O O10 0.129429 0.878048 0.951679
O O11 0.000000 0.848647 0.000000
O O12 0.202103 0.700167 0.653526
O O13 0.321957 0.687703 0.419336
O O14 0.287164 0.605555 0.650988
O O15 0.354358 0.500000 0.663880
O O16 0.399154 0.377169 0.669622
O O17 0.303802 0.425405 0.902541
O O18 0.500000 0.308002 0.500000
O O19 0.169375 0.000000 0.914896
#
# Coordination Sequence:
#
# PCOD9185121 Si02
#       8
#     8   8   8   8   8   8   8   8
#     4  10  20  35  57  81 107 143 183 226 273 322
#     4  10  20  36  56  78 111 143 178 228 271 324
#     4  11  21  33  54  77 108 144 180 224 273 319
#     4  10  19  34  56  77 106 136 177 226 262 322
#     4  10  20  35  53  80 106 137 178 219 273 318
#     4  10  20  34  53  75 103 141 180 225 270 316
#     4  10  21  35  52  75 107 145 182 221 267 323
#     4   9  20  36  50  74 109 141 182 226 267 320
#
# _framework density 16.540255999999999
#
# number of rings (size 3 to 8) (size 9 to 14) (size 15 to 20)
#    0.000    2.000    2.500    1.875    0.000    1.750 
#    0.000    2.500    0.000    0.000    0.000    0.000 
#    0.000   19.000    0.000    0.000    0.000    0.000 
#
# Total GULP energy -178277.334275 kJ/mol
# GULP energy per Si atom -5571.166696 kJ/mol
# Density = 1.650261 g / cm^3
# Si number density = 16.540256 Si / 1000 Ang^3
#
#
#
# Elastic Constant Matrix: (Units=GPa)
#
#
# Indices 1 2 3 4 5 6 
#
# 1 93.2225 63.4844 59.5743 0.0000 7.1177 0.0000
# 2 63.4844 123.3508 58.3953 0.0000 1.2488 0.0000
# 3 59.5743 58.3953 100.5707 0.0000 0.4420 0.0000
# 4 0.0000 0.0000 0.0000 30.6811 0.0000 -11.0447
# 5 7.1177 1.2488 0.4420 0.0000 21.0095 0.0000
# 6 0.0000 0.0000 0.0000 -11.0447 0.0000 34.9844
#
#
#
# Elastic Compliance Matrix: (Units=1/GPa)
#
#
# Indices 1 2 3 4 5 6 
#
# 1 0.021475 -0.006863 -0.008707 0.000000 -0.006684 0.000000
# 2 -0.006863 0.013379 -0.003710 0.000000 0.001608 0.000000
# 3 -0.008707 -0.003710 0.017243 0.000000 0.002808 0.000000
# 4 0.000000 0.000000 0.000000 0.036772 0.000000 0.011609
# 5 -0.006684 0.001608 0.002808 0.000000 0.049708 0.000000
# 6 0.000000 0.000000 0.000000 0.011609 0.000000 0.032249
#
#
# Mechanical properties :
#
#
# Convention : Reuss Voigt Hill
#
# Bulk Modulus (GPa) = 73.87028 75.56133 74.71580
# Shear Modulus (GPa) = 23.37550 26.38098 24.87824
#
# Velocity S-wave (km/s) = 3.76340 3.99802 3.88248
# Velocity P-wave (km/s) = 7.97760 8.19114 8.08507
#
# Compressibility (1/GPa) = 0.01353724
#
# Stress axis : x y z
#
# Youngs Moduli (GPa) = 46.56523 74.74236 57.99520
#
# Poissons Ratio (x) = 0.51296 0.50495
# Poissons Ratio (y) = 0.31958 0.21517
# Poissons Ratio (z) = 0.40543 0.27731
#
# Static dielectric constant tensor:
#      x y z
#    x 1.559560 0.000000 -0.001730 
#    y 0.000000 1.569970 0.000000 
#    z -0.001730 0.000000 1.561170 
# 
# From -- ./inp_files/89122.got.cif
#   From: 2010.05.17/outbox.cif.g08.bks.cpg/sg12_45_cif.got.tgz:89122.got - 2010.06.03 13:09:07.
