data_PCOD9185725
_publ_section_title
;
Structure prediction by ZEFSAII (Michael W. Deem and Ramdas Pophale) SiO2 
 PCOD9185725
Probable space group: C 2/M
;
_chemical_formula_sum "Si O2"
_cell_formula_units_Z 58
_cell_length_a 5.524010
_cell_length_b 27.567091
_cell_length_c 16.292058
_cell_angle_alpha 90.000000
_cell_angle_beta 79.715924
_cell_angle_gamma 90.000000
_cell_volume 2441.111506
_symmetry_space_group_name_H-M "C 2/M"
_symmetry_group_IT_number 12
_symmetry_cell_setting 'monoclinic'
loop_
_space_group_symop_operation_xyz
x,y,z
-x,y,-z
-x,-y,-z
x,-y,z
1/2+x,1/2+y,z
1/2-x,1/2+y,-z
1/2-x,1/2-y,-z
1/2+x,1/2-y,z
loop_
_atom_site_type_symbol
_atom_site_label
_atom_site_fract_x
_atom_site_fract_y
_atom_site_fract_z
Si Si1 0.314809 0.737559 0.633864
Si Si2 0.373836 0.632686 0.686671
Si Si3 0.015849 0.445311 0.755858
Si Si4 0.773001 0.274249 0.824090
Si Si5 0.500000 0.500000 0.500000
Si Si6 0.231121 0.554647 0.927755
Si Si7 0.222729 0.899242 0.540476
Si Si8 0.404795 0.622926 0.160806
O O1 0.097279 0.757207 0.591463
O O2 0.270726 0.681197 0.654420
O O3 0.305386 0.766276 0.722920
O O4 0.192707 0.586965 0.688103
O O5 0.639421 0.618957 0.634349
O O6 0.409597 0.642428 0.780698
O O7 0.990773 0.500000 0.725956
O O8 0.140502 0.446936 0.838537
O O9 0.760038 0.419079 0.788423
O O10 0.504638 0.250579 0.854239
O O11 0.760103 0.330762 0.849037
O O12 0.671083 0.456454 0.531482
O O13 0.320775 0.500000 0.940930
O O14 0.437234 0.595697 0.916788
O O15 0.000000 0.564730 0.000000
O O16 0.500000 0.886891 0.500000
O O17 0.000000 0.876234 0.500000
#
# Coordination Sequence:
#
# PCOD9185725 Si02
#       8
#     8   8   8   8   2   8   8   8
#     4  10  19  34  58  89 117 156 199 250 308 372
#     4  11  23  37  62  89 122 157 205 260 310 365
#     4  10  22  36  55  93 123 153 202 259 310 360
#     4  10  19  34  57  89 120 157 199 252 306 372
#     4   8  22  44  62  84 110 172 212 248 294 386
#     4   9  20  39  58  83 125 167 203 247 306 377
#     4  10  24  42  62  85 120 164 211 246 306 373
#     4  11  21  34  62  91 120 157 208 259 311 366
#
# _framework density 23.75967
#
# number of rings (size 3 to 8) (size 9 to 14) (size 15 to 20)
#    0.414    1.517    2.759    2.276    4.828    1.103 
#    0.000    2.069    0.000    3.310    0.000    0.000 
#    0.000    0.000    0.000    0.000    0.000    0.000 
#
# Total GULP energy -161785.485848 kJ/mol
# GULP energy per Si atom -5578.809857 kJ/mol
# Density = 2.370559 g / cm^3
# Si number density = 23.759670 Si / 1000 Ang^3
#
#
#
# Elastic Constant Matrix: (Units=GPa)
#
#
# Indices 1 2 3 4 5 6 
#
# 1 116.1781 39.0876 28.0200 0.0000 -19.2930 0.0000
# 2 39.0876 150.1202 47.9372 0.0000 -35.1345 0.0000
# 3 28.0200 47.9372 81.3383 0.0000 -21.6737 0.0000
# 4 0.0000 0.0000 0.0000 12.8222 0.0000 -14.9406
# 5 -19.2930 -35.1345 -21.6737 0.0000 33.6708 0.0000
# 6 0.0000 0.0000 0.0000 -14.9406 0.0000 31.3657
#
#
#
# Elastic Compliance Matrix: (Units=1/GPa)
#
#
# Indices 1 2 3 4 5 6 
#
# 1 0.010014 -0.001261 -0.001844 0.000000 0.003234 0.000000
# 2 -0.001261 0.009779 -0.003383 0.000000 0.007304 0.000000
# 3 -0.001844 -0.003383 0.016538 0.000000 0.006059 0.000000
# 4 0.000000 0.000000 0.000000 0.175270 0.000000 0.083487
# 5 0.003234 0.007304 0.006059 0.000000 0.043074 0.000000
# 6 0.000000 0.000000 0.000000 0.083487 0.000000 0.071650
#
#
# Mechanical properties :
#
#
# Convention : Reuss Voigt Hill
#
# Bulk Modulus (GPa) = 42.81913 64.19180 53.50546
# Shear Modulus (GPa) = 14.40560 31.07787 22.74174
#
# Velocity S-wave (km/s) = 2.46500 3.62056 3.09715
# Velocity P-wave (km/s) = 5.11493 6.67486 5.94627
#
# Compressibility (1/GPa) = 0.02335405
#
# Stress axis : x y z
#
# Youngs Moduli (GPa) = 99.86211 102.25482 60.46776
#
# Poissons Ratio (x) = 0.12899 0.11153
# Poissons Ratio (y) = 0.12597 0.20454
# Poissons Ratio (z) = 0.18418 0.34590
#
# Static dielectric constant tensor:
#      x y z
#    x 1.959270 0.000000 0.018750 
#    y 0.000000 1.888510 0.000000 
#    z 0.018750 0.000000 1.965770 
# 
# From -- ./inp_files/253627.got.cif
#   From: 2010.05.17/outbox.cif.g08.bks.cpg/sg12_127_cif.got.tgz:253627.got - 2010.06.03 13:09:07.
