data_PCOD9185465
_publ_section_title
;
Structure prediction by ZEFSAII (Michael W. Deem and Ramdas Pophale) SiO2 
 PCOD9185465
Probable space group: C 2/M
;
_chemical_formula_sum "Si O2"
_cell_formula_units_Z 64
_cell_length_a 15.871253
_cell_length_b 7.524984
_cell_length_c 30.830663
_cell_angle_alpha 90.000000
_cell_angle_beta 127.319900
_cell_angle_gamma 90.000000
_cell_volume 2928.265261
_symmetry_space_group_name_H-M "C 2/M"
_symmetry_group_IT_number 12
_symmetry_cell_setting 'monoclinic'
loop_
_space_group_symop_operation_xyz
x,y,z
-x,y,-z
-x,-y,-z
x,-y,z
1/2+x,1/2+y,z
1/2-x,1/2+y,-z
1/2-x,1/2-y,-z
1/2+x,1/2-y,z
loop_
_atom_site_type_symbol
_atom_site_label
_atom_site_fract_x
_atom_site_fract_y
_atom_site_fract_z
Si Si1 0.013984 0.785852 0.827359
Si Si2 0.659993 0.212599 0.569583
Si Si3 0.411373 0.702489 0.941317
Si Si4 0.219820 0.788487 0.941235
Si Si5 0.600182 0.787278 0.367204
Si Si6 0.176378 0.218514 0.176840
Si Si7 0.915603 0.709048 0.247707
Si Si8 0.547240 0.782748 0.446834
O O1 0.102627 0.731243 0.890223
O O2 0.049104 0.725706 0.791040
O O3 0.898233 0.728022 0.806733
O O4 0.013189 0.000000 0.826411
O O5 0.782498 0.254271 0.614342
O O6 0.572419 0.272620 0.577313
O O7 0.621520 0.275748 0.509989
O O8 0.651058 0.000000 0.566079
O O9 0.448974 0.500000 0.944171
O O10 0.304399 0.700917 0.935739
O O11 0.380883 0.779690 0.885328
O O12 0.500000 0.787252 0.000000
O O13 0.226892 0.000000 0.936816
O O14 0.250000 0.750000 0.000000
O O15 0.506925 0.716506 0.307304
O O16 0.585861 0.720236 0.412011
O O17 0.589102 0.000000 0.365736
O O18 0.297047 0.282106 0.216347
O O19 0.178900 0.000000 0.175633
O O20 0.907375 0.500000 0.255242
O O21 0.549439 0.000000 0.446913
#
# Coordination Sequence:
#
# PCOD9185465 Si02
#       8
#     8   8   8   8   8   8   8   8
#     4  10  21  38  59  81 105 137 181 228 268 316
#     4   9  17  32  55  80 106 141 183 224 267 316
#     4  10  19  34  57  81 108 140 177 220 268 327
#     4  11  22  35  54  82 114 142 175 221 275 330
#     4  10  20  33  51  77 109 142 179 223 272 323
#     4   9  18  35  57  77 102 139 179 215 266 326
#     4  10  21  37  55  76 105 144 184 222 268 326
#     4   8  16  32  53  78 109 143 180 221 266 322
#
# _framework density 21.855944000000001
#
# number of rings (size 3 to 8) (size 9 to 14) (size 15 to 20)
#    0.000    2.375    1.250    2.250    0.000    4.250 
#    0.000    5.625    0.000    0.000    0.000    0.000 
#    0.000    0.000    0.000    0.000    0.000    0.000 
#
# Total GULP energy -178696.986148 kJ/mol
# GULP energy per Si atom -5584.280817 kJ/mol
# Density = 2.180620 g / cm^3
# Si number density = 21.855944 Si / 1000 Ang^3
#
#
#
# Elastic Constant Matrix: (Units=GPa)
#
#
# Indices 1 2 3 4 5 6 
#
# 1 113.4889 -5.3756 24.7259 0.0000 34.5297 0.0000
# 2 -5.3756 56.2435 0.6412 0.0000 4.5543 0.0000
# 3 24.7259 0.6412 61.2090 0.0000 36.0088 0.0000
# 4 0.0000 0.0000 0.0000 4.8202 0.0000 10.6466
# 5 34.5297 4.5543 36.0088 0.0000 33.3365 0.0000
# 6 0.0000 0.0000 0.0000 10.6466 0.0000 17.9419
#
#
#
# Elastic Compliance Matrix: (Units=1/GPa)
#
#
# Indices 1 2 3 4 5 6 
#
# 1 0.014752 0.003366 0.008957 0.000000 -0.025414 0.000000
# 2 0.003366 0.019016 0.005542 0.000000 -0.012071 0.000000
# 3 0.008957 0.005542 0.050924 0.000000 -0.065040 0.000000
# 4 0.000000 0.000000 0.000000 -0.667819 -0.000001 0.396278
# 5 -0.025414 -0.012071 -0.065040 -0.000001 0.128224 0.000000
# 6 0.000000 0.000000 0.000000 0.396278 0.000000 -0.179413
#
#
# Mechanical properties :
#
#
# Convention : Reuss Voigt Hill
#
# Bulk Modulus (GPa) = 8.30420 30.10272 19.20346
# Shear Modulus (GPa) = -7.93771 25.28305 8.67267
#
# Velocity S-wave (km/s) = -1.90780 3.40487 1.99417
# Velocity P-wave (km/s) = 1.02234 5.40931 3.75603
#
# Compressibility (1/GPa) = 0.12042099
#
# Stress axis : x y z
#
# Youngs Moduli (GPa) = 67.78757 52.58799 19.63706
#
# Poissons Ratio (x) = -0.17700 -0.17588
# Poissons Ratio (y) = -0.22816 -0.10883
# Poissons Ratio (z) = -0.60715 -0.29145
#
# Static dielectric constant tensor:
#      x y z
#    x 1.746480 0.000000 0.012050 
#    y 0.000000 1.817040 0.000000 
#    z 0.012050 0.000000 1.781660 
# 
# From -- ./inp_files/375091.got.cif
#   From: 2010.05.17/outbox.cif.g08.bks.cpg/sg12_188_cif.got.tgz:375091.got - 2010.06.03 13:09:07.
