data_PCOD9185404
_publ_section_title
;
Structure prediction by ZEFSAII (Michael W. Deem and Ramdas Pophale) SiO2 
 PCOD9185404
Probable space group: C 2/M
;
_chemical_formula_sum "Si O2"
_cell_formula_units_Z 40
_cell_length_a 14.444328
_cell_length_b 19.162852
_cell_length_c 19.243932
_cell_angle_alpha 90.000000
_cell_angle_beta 161.712735
_cell_angle_gamma 90.000000
_cell_volume 1671.392800
_symmetry_space_group_name_H-M "C 2/M"
_symmetry_group_IT_number 12
_symmetry_cell_setting 'monoclinic'
loop_
_space_group_symop_operation_xyz
x,y,z
-x,y,-z
-x,-y,-z
x,-y,z
1/2+x,1/2+y,z
1/2-x,1/2+y,-z
1/2-x,1/2-y,-z
1/2+x,1/2-y,z
loop_
_atom_site_type_symbol
_atom_site_label
_atom_site_fract_x
_atom_site_fract_y
_atom_site_fract_z
Si Si1 0.696031 0.381078 0.079372
Si Si2 0.365753 0.422945 0.296829
Si Si3 0.317569 0.672778 0.574164
Si Si4 0.535831 0.109519 0.192677
Si Si5 0.145717 0.772563 0.252131
O O1 0.012979 0.366871 0.340703
O O2 0.783910 0.414435 0.067308
O O3 0.500000 0.415502 0.000000
O O4 0.514473 0.310903 0.926248
O O5 0.369999 0.500000 0.268648
O O6 0.416468 0.361245 0.278698
O O7 0.662349 0.413969 0.554168
O O8 0.091946 0.416144 0.154416
O O9 0.250000 0.750000 0.500000
O O10 0.393208 0.679010 0.708230
O O11 0.533328 0.194310 0.187053
O O12 0.500000 0.765688 0.500000
#
# Coordination Sequence:
#
# PCOD9185404 Si02
#       5
#     8   8   8   8   8
#     4  11  23  33  56  94 126 159 205 254 319 359
#     4  10  20  37  64  90 123 168 206 251 312 371
#     4  11  21  39  61  92 127 160 206 262 311 364
#     4  10  19  34  56  89 125 158 208 247 306 362
#     4  12  20  36  59  94 125 160 206 262 307 367
#
# _framework density 23.932137000000001
#
# number of rings (size 3 to 8) (size 9 to 14) (size 15 to 20)
#    0.000    1.200    8.000    1.800    0.000    0.000 
#    0.000    1.000    0.000   22.800    0.000    0.000 
#    0.000    0.000    0.000    0.000    0.000    0.000 
#
# Total GULP energy -111707.166946 kJ/mol
# GULP energy per Si atom -5585.358347 kJ/mol
# Density = 2.387767 g / cm^3
# Si number density = 23.932137 Si / 1000 Ang^3
#
#
#
# Elastic Constant Matrix: (Units=GPa)
#
#
# Indices 1 2 3 4 5 6 
#
# 1 178.6686 51.2689 31.3685 -0.1363 46.1775 -0.1665
# 2 51.2689 97.9101 10.3347 -0.0429 -0.2331 -0.0065
# 3 31.3685 10.3347 124.6810 0.0679 -1.1967 -0.1908
# 4 -0.1363 -0.0429 0.0679 10.6706 -0.0723 -12.0192
# 5 46.1775 -0.2331 -1.1967 -0.0723 55.2352 -0.1313
# 6 -0.1665 -0.0065 -0.1908 -12.0192 -0.1313 7.7600
#
#
#
# Elastic Compliance Matrix: (Units=1/GPa)
#
#
# Indices 1 2 3 4 5 6 
#
# 1 0.009334 -0.004691 -0.002035 -0.000101 -0.007867 -0.000143
# 2 -0.004691 0.012662 0.000169 0.000006 0.003979 -0.000010
# 3 -0.002035 0.000169 0.008536 -0.000210 0.001886 -0.000127
# 4 -0.000101 0.000006 -0.000210 -0.125826 -0.000548 -0.194905
# 5 -0.007867 0.003979 0.001886 -0.000548 0.024737 -0.000550
# 6 -0.000143 -0.000010 -0.000127 -0.194905 -0.000550 -0.173032
#
#
# Mechanical properties :
#
#
# Convention : Reuss Voigt Hill
#
# Bulk Modulus (GPa) = 57.41577 65.24490 61.33034
# Shear Modulus (GPa) = -22.25505 35.28565 6.51530
#
# Velocity S-wave (km/s) = -3.05277 3.84396 1.65176
# Velocity P-wave (km/s) = 3.40841 6.85734 5.41481
#
# Compressibility (1/GPa) = 0.01741682
#
# Stress axis : x y z
#
# Youngs Moduli (GPa) = 107.14021 78.97880 117.14424
#
# Poissons Ratio (x) = 0.37052 0.23839
# Poissons Ratio (y) = 0.50263 -0.01979
# Poissons Ratio (z) = 0.21804 -0.01334
#
# Static dielectric constant tensor:
#      x y z
#    x 2.029130 -0.000130 0.030010 
#    y -0.000130 1.874010 -0.000370 
#    z 0.030010 -0.000370 1.997840 
# 
# From -- ./inp_files/311800.got.cif
#   From: 2010.05.17/outbox.cif.g08.bks.cpg/sg12_156_cif.got.tgz:311800.got - 2010.06.03 13:09:07.
