data_PCOD9185348
_publ_section_title
;
Structure prediction by ZEFSAII (Michael W. Deem and Ramdas Pophale) SiO2 
 PCOD9185348
Probable space group: C 2/M
;
_chemical_formula_sum "Si O2"
_cell_formula_units_Z 56
_cell_length_a 8.214477
_cell_length_b 25.638688
_cell_length_c 10.933021
_cell_angle_alpha 90.000000
_cell_angle_beta 97.979560
_cell_angle_gamma 90.000000
_cell_volume 2280.291767
_symmetry_space_group_name_H-M "C 2/M"
_symmetry_group_IT_number 12
_symmetry_cell_setting 'monoclinic'
loop_
_space_group_symop_operation_xyz
x,y,z
-x,y,-z
-x,-y,-z
x,-y,z
1/2+x,1/2+y,z
1/2-x,1/2+y,-z
1/2-x,1/2-y,-z
1/2+x,1/2-y,z
loop_
_atom_site_type_symbol
_atom_site_label
_atom_site_fract_x
_atom_site_fract_y
_atom_site_fract_z
Si Si1 0.690276 0.139293 0.545442
Si Si2 0.852135 0.783682 0.731727
Si Si3 0.947553 0.861914 0.116386
Si Si4 0.700447 0.555837 0.630896
Si Si5 0.958957 0.695311 0.139061
Si Si6 0.352733 0.558808 0.733768
Si Si7 0.399859 0.087257 0.878181
O O1 0.500000 0.146817 0.500000
O O2 0.771037 0.192919 0.601129
O O3 0.769329 0.108561 0.439883
O O4 0.722480 0.096076 0.655218
O O5 0.719444 0.791280 0.826821
O O6 0.007628 0.822131 0.771658
O O7 0.918049 0.725791 0.756882
O O8 0.763726 0.882050 0.093891
O O9 0.071057 0.910974 0.142933
O O10 0.000000 0.833161 0.000000
O O11 0.722328 0.500000 0.565262
O O12 0.515484 0.556849 0.663845
O O13 0.827586 0.555769 0.757379
O O14 0.984130 0.633859 0.153682
O O15 0.000000 0.707863 0.000000
O O16 0.297558 0.500000 0.752954
O O17 0.500000 0.061378 0.000000
#
# Coordination Sequence:
#
# PCOD9185348 Si02
#       7
#     8   8   8   8   8   8   8
#     4  11  23  39  58  85 119 154 197 253 301 348
#     4  11  23  39  60  89 120 154 201 247 295 357
#     4  10  19  34  56  84 121 158 195 243 299 356
#     4  10  21  40  64  87 118 162 206 246 298 360
#     4  11  21  38  64  91 121 155 196 243 297 360
#     4   9  20  37  58  84 114 156 206 249 294 356
#     4  10  21  37  60  92 125 158 197 246 301 359
#
# _framework density 24.558260000000001
#
# number of rings (size 3 to 8) (size 9 to 14) (size 15 to 20)
#    0.000    1.714    0.000    5.143    0.000    4.000 
#    0.000    4.286    0.000    1.714    0.000    0.000 
#    0.000    0.000    0.000    0.000    0.000    0.000 
#
# Total GULP energy -156497.518400 kJ/mol
# GULP energy per Si atom -5589.197086 kJ/mol
# Density = 2.450236 g / cm^3
# Si number density = 24.558260 Si / 1000 Ang^3
#
#
#
# Elastic Constant Matrix: (Units=GPa)
#
#
# Indices 1 2 3 4 5 6 
#
# 1 83.2213 6.9657 42.3701 0.0000 14.6089 0.0000
# 2 6.9657 95.9718 38.7734 0.0000 7.3459 0.0000
# 3 42.3701 38.7734 115.2280 0.0000 30.1829 0.0000
# 4 0.0000 0.0000 0.0000 19.2232 0.0000 -7.8023
# 5 14.6089 7.3459 30.1829 0.0000 51.1648 0.0000
# 6 0.0000 0.0000 0.0000 -7.8023 0.0000 -12.0288
#
#
#
# Elastic Compliance Matrix: (Units=1/GPa)
#
#
# Indices 1 2 3 4 5 6 
#
# 1 0.014980 0.001279 -0.005642 0.000000 -0.001133 0.000000
# 2 0.001279 0.012195 -0.004754 0.000000 0.000688 0.000000
# 3 -0.005642 -0.004754 0.013900 0.000000 -0.005906 0.000000
# 4 0.000000 0.000000 0.000000 0.041179 0.000000 -0.026710
# 5 -0.001133 0.000688 -0.005906 0.000000 0.023253 0.000000
# 6 0.000000 0.000000 0.000000 -0.026710 0.000000 -0.065809
#
#
# Mechanical properties :
#
#
# Convention : Reuss Voigt Hill
#
# Bulk Modulus (GPa) = 43.78169 52.29329 48.03749
# Shear Modulus (GPa) = 76.28081 25.42597 50.85339
#
# Velocity S-wave (km/s) = 5.57930 3.22115 4.55546
# Velocity P-wave (km/s) = 7.70527 5.93078 6.87551
#
# Compressibility (1/GPa) = 0.02284060
#
# Stress axis : x y z
#
# Youngs Moduli (GPa) = 66.75367 82.00152 71.94311
#
# Poissons Ratio (x) = -0.10487 0.40591
# Poissons Ratio (y) = -0.08537 0.34202
# Poissons Ratio (z) = 0.37663 0.38984
#
# Static dielectric constant tensor:
#      x y z
#    x 1.924650 0.000000 -0.011290 
#    y 0.000000 1.936050 0.000000 
#    z -0.011290 0.000000 2.037110 
# 
# From -- ./inp_files/124365.got.cif
#   From: 2010.05.17/outbox.cif.g08.bks.cpg/sg12_63_cif.got.tgz:124365.got - 2010.06.03 13:09:07.
