data_PCOD9185010
_publ_section_title
;
Structure prediction by ZEFSAII (Michael W. Deem and Ramdas Pophale) SiO2 
 PCOD9185010
Probable space group: C 2/M
;
_chemical_formula_sum "Si O2"
_cell_formula_units_Z 64
_cell_length_a 19.745337
_cell_length_b 15.868139
_cell_length_c 22.139620
_cell_angle_alpha 90.000000
_cell_angle_beta 154.350114
_cell_angle_gamma 90.000000
_cell_volume 3002.748700
_symmetry_space_group_name_H-M "C 2/M"
_symmetry_group_IT_number 12
_symmetry_cell_setting 'monoclinic'
loop_
_space_group_symop_operation_xyz
x,y,z
-x,y,-z
-x,-y,-z
x,-y,z
1/2+x,1/2+y,z
1/2-x,1/2+y,-z
1/2-x,1/2-y,-z
1/2+x,1/2-y,z
loop_
_atom_site_type_symbol
_atom_site_label
_atom_site_fract_x
_atom_site_fract_y
_atom_site_fract_z
Si Si1 0.951806 0.898719 0.391492
Si Si2 0.219399 0.595190 0.384948
Si Si3 0.889750 0.402847 0.075380
Si Si4 0.270898 0.816548 0.092473
Si Si5 0.654411 0.167247 0.082899
Si Si6 0.375475 0.180600 0.580996
Si Si7 0.836076 0.096337 0.888614
Si Si8 0.509190 0.100876 0.578263
O O1 0.802198 0.850060 0.245220
O O2 0.000000 0.885986 0.500000
O O3 0.108494 0.867426 0.483432
O O4 0.925284 0.000000 0.361498
O O5 0.237117 0.500000 0.376766
O O6 0.170913 0.600286 0.415496
O O7 0.069191 0.629806 0.228320
O O8 0.884973 0.500000 0.094324
O O9 0.780945 0.342711 0.029995
O O10 0.851678 0.403430 0.974251
O O11 0.174486 0.746492 0.052776
O O12 0.450301 0.797740 0.255601
O O13 0.202017 0.898372 0.071399
O O14 0.500000 0.169226 0.000000
O O15 0.250000 0.250000 0.500000
O O16 0.388338 0.152642 0.522124
O O17 0.681640 0.133676 0.734506
O O18 0.839633 0.000000 0.870376
O O19 0.000000 0.134521 0.000000
O O20 0.500000 0.111187 0.500000
O O21 0.496370 0.000000 0.581935
#
# Coordination Sequence:
#
# PCOD9185010 Si02
#       8
#     8   8   8   8   8   8   8   8
#     4  10  21  38  59  84 117 156 199 244 289 344
#     4   9  18  35  58  81 106 144 192 238 285 336
#     4  10  21  39  64  89 114 151 198 244 290 346
#     4  10  21  38  57  83 118 156 193 235 291 346
#     4  12  24  38  58  88 124 157 192 239 294 350
#     4  10  19  34  55  81 112 148 190 232 280 344
#     4   9  17  33  57  81 108 148 196 236 275 337
#     4   9  18  34  56  83 112 142 182 235 288 332
#
# _framework density 21.313804999999999
#
# number of rings (size 3 to 8) (size 9 to 14) (size 15 to 20)
#    0.000    2.125    0.000    3.375    0.000    5.000 
#    0.000   15.625    0.000    6.000    0.000    0.000 
#    0.000    0.000    0.000    0.000    0.000    0.000 
#
# Total GULP energy -178147.460241 kJ/mol
# GULP energy per Si atom -5567.108133 kJ/mol
# Density = 2.126529 g / cm^3
# Si number density = 21.313805 Si / 1000 Ang^3
#
#
#
# Elastic Constant Matrix: (Units=GPa)
#
#
# Indices 1 2 3 4 5 6 
#
# 1 168.0088 34.6647 68.4030 0.0033 7.3792 -0.0004
# 2 34.6647 72.1479 21.0762 0.0148 3.0618 0.0029
# 3 68.4030 21.0762 86.6661 0.0198 9.6258 0.0014
# 4 0.0033 0.0148 0.0198 9.8922 0.0068 4.0506
# 5 7.3792 3.0618 9.6258 0.0068 36.1953 0.0000
# 6 -0.0004 0.0029 0.0014 4.0506 0.0000 27.2478
#
#
#
# Elastic Compliance Matrix: (Units=1/GPa)
#
#
# Indices 1 2 3 4 5 6 
#
# 1 0.009160 -0.002465 -0.006642 0.000014 0.000107 -0.000001
# 2 -0.002465 0.015587 -0.001808 -0.000019 -0.000335 0.000001
# 3 -0.006642 -0.001808 0.017572 -0.000030 -0.003166 0.000004
# 4 0.000014 -0.000019 -0.000030 0.107642 -0.000014 -0.016002
# 5 0.000107 -0.000335 -0.003166 -0.000014 0.028476 0.000002
# 6 -0.000001 0.000001 0.000004 -0.016002 0.000002 0.039079
#
#
# Mechanical properties :
#
#
# Convention : Reuss Voigt Hill
#
# Bulk Modulus (GPa) = 48.80583 63.90117 56.35350
# Shear Modulus (GPa) = 20.31050 28.17899 24.24475
#
# Velocity S-wave (km/s) = 3.09030 3.64001 3.37636
# Velocity P-wave (km/s) = 5.97341 6.90742 6.45733
#
# Compressibility (1/GPa) = 0.02048935
#
# Stress axis : x y z
#
# Youngs Moduli (GPa) = 109.16518 64.15509 56.90730
#
# Poissons Ratio (x) = 0.15817 0.37800
# Poissons Ratio (y) = 0.26914 0.10286
# Poissons Ratio (z) = 0.72512 0.11596
#
# Static dielectric constant tensor:
#      x y z
#    x 1.797850 0.000000 -0.007600 
#    y 0.000000 1.920910 0.000000 
#    z -0.007600 0.000000 1.778670 
# 
# From -- ./inp_files/317369.got.cif
#   From: 2010.05.17/outbox.cif.g08.bks.cpg/sg12_159_cif.got.tgz:317369.got - 2010.06.03 13:09:07.
