data_PCOD9185597
_publ_section_title
;
Structure prediction by ZEFSAII (Michael W. Deem and Ramdas Pophale) SiO2 
 PCOD9185597
Probable space group: C 2/M
;
_chemical_formula_sum "Si O2"
_cell_formula_units_Z 48
_cell_length_a 9.702544
_cell_length_b 28.781710
_cell_length_c 13.507737
_cell_angle_alpha 90.000000
_cell_angle_beta 32.524293
_cell_angle_gamma 90.000000
_cell_volume 2028.104073
_symmetry_space_group_name_H-M "C 2/M"
_symmetry_group_IT_number 12
_symmetry_cell_setting 'monoclinic'
loop_
_space_group_symop_operation_xyz
x,y,z
-x,y,-z
-x,-y,-z
x,-y,z
1/2+x,1/2+y,z
1/2-x,1/2+y,-z
1/2-x,1/2-y,-z
1/2+x,1/2-y,z
loop_
_atom_site_type_symbol
_atom_site_label
_atom_site_fract_x
_atom_site_fract_y
_atom_site_fract_z
Si Si1 0.080215 0.202018 0.209945
Si Si2 0.583388 0.946950 0.335461
Si Si3 0.889633 0.610754 0.283581
Si Si4 0.131729 0.710513 0.762226
Si Si5 0.967250 0.103336 0.850157
Si Si6 0.788257 0.050730 0.780751
O O1 0.159721 0.208822 0.276172
O O2 0.975980 0.151665 0.240479
O O3 0.893180 0.242193 0.283836
O O4 0.354419 0.205987 0.985633
O O5 0.500000 0.948882 0.500000
O O6 0.386286 0.922099 0.380665
O O7 0.827487 0.912920 0.194633
O O8 0.636506 0.000000 0.269754
O O9 0.835677 0.665176 0.326000
O O10 0.719970 0.589852 0.297642
O O11 0.183772 0.607297 0.066970
O O12 0.952812 0.063535 0.776012
O O13 0.851574 0.000000 0.702314
O O14 0.500000 0.049405 0.000000
#
# Coordination Sequence:
#
# PCOD9185597 Si02
#       6
#     8   8   8   8   8   8
#     4   9  17  29  49  83 119 143 170 217 274 326
#     4  11  25  41  54  75 111 151 189 231 280 331
#     4  10  19  34  57  84 110 140 183 228 272 326
#     4   9  17  29  49  83 119 143 170 217 274 326
#     4  10  19  34  57  84 110 140 183 228 272 326
#     4   9  16  28  50  79 107 131 165 223 278 317
#
# _framework density 23.667425000000001
#
# number of rings (size 3 to 8) (size 9 to 14) (size 15 to 20)
#    0.000    2.333    1.667    1.500    2.333    2.667 
#    0.000    0.833    0.000    4.000    0.000    0.000 
#    0.000    0.000    0.000    0.000    0.000    0.000 
#
# Total GULP energy -134214.565097 kJ/mol
# GULP energy per Si atom -5592.273546 kJ/mol
# Density = 2.361356 g / cm^3
# Si number density = 23.667425 Si / 1000 Ang^3
#
#
#
# Elastic Constant Matrix: (Units=GPa)
#
#
# Indices 1 2 3 4 5 6 
#
# 1 127.6665 46.1314 -1.0516 0.0000 -0.7927 0.0000
# 2 46.1314 152.7458 7.2504 0.0000 5.2260 0.0000
# 3 -1.0516 7.2504 60.2852 0.0000 0.5064 0.0000
# 4 0.0000 0.0000 0.0000 2.8633 0.0000 -0.6993
# 5 -0.7927 5.2260 0.5064 0.0000 19.0827 0.0000
# 6 0.0000 0.0000 0.0000 -0.6993 0.0000 32.3431
#
#
#
# Elastic Compliance Matrix: (Units=1/GPa)
#
#
# Indices 1 2 3 4 5 6 
#
# 1 0.008829 -0.002727 0.000473 0.000000 0.001101 0.000000
# 2 -0.002727 0.007488 -0.000930 0.000000 -0.002139 0.000000
# 3 0.000473 -0.000930 0.016709 0.000000 -0.000169 0.000000
# 4 0.000000 0.000000 0.000000 0.351099 0.000000 0.007591
# 5 0.001101 -0.002139 -0.000169 0.000000 0.053039 0.000000
# 6 0.000000 0.000000 0.000000 0.007591 0.000000 0.031083
#
#
# Mechanical properties :
#
#
# Convention : Reuss Voigt Hill
#
# Bulk Modulus (GPa) = 37.51240 49.48421 43.49830
# Shear Modulus (GPa) = 10.34125 30.08233 20.21179
#
# Velocity S-wave (km/s) = 2.09258 3.56904 2.92548
# Velocity P-wave (km/s) = 4.66076 6.15935 5.46170
#
# Compressibility (1/GPa) = 0.02665786
#
# Stress axis : x y z
#
# Youngs Moduli (GPa) = 113.26501 133.55382 59.84676
#
# Poissons Ratio (x) = 0.36414 -0.02829
# Poissons Ratio (y) = 0.30882 0.05566
# Poissons Ratio (z) = -0.05354 0.12422
#
# Static dielectric constant tensor:
#      x y z
#    x 1.929270 0.000000 -0.156330 
#    y 0.000000 1.835000 0.000000 
#    z -0.156330 0.000000 2.204080 
# 
# From -- ./inp_files/200785.got.cif
#   From: 2010.05.17/outbox.cif.g08.bks.cpg/sg12_101_cif.got.tgz:200785.got - 2010.06.03 13:09:07.
