data_PCOD9185633
_publ_section_title
;
Structure prediction by ZEFSAII (Michael W. Deem and Ramdas Pophale) SiO2 
 PCOD9185633
Probable space group: C 2/M
;
_chemical_formula_sum "Si O2"
_cell_formula_units_Z 64
_cell_length_a 28.916334
_cell_length_b 9.632628
_cell_length_c 10.930416
_cell_angle_alpha 90.000000
_cell_angle_beta 100.730129
_cell_angle_gamma 90.000000
_cell_volume 2991.327158
_symmetry_space_group_name_H-M "C 2/M"
_symmetry_group_IT_number 12
_symmetry_cell_setting 'monoclinic'
loop_
_space_group_symop_operation_xyz
x,y,z
-x,y,-z
-x,-y,-z
x,-y,z
1/2+x,1/2+y,z
1/2-x,1/2+y,-z
1/2-x,1/2-y,-z
1/2+x,1/2-y,z
loop_
_atom_site_type_symbol
_atom_site_label
_atom_site_fract_x
_atom_site_fract_y
_atom_site_fract_z
Si Si1 0.908536 0.835911 0.893977
Si Si2 0.984565 0.338048 0.800988
Si Si3 0.314810 0.662842 0.707826
Si Si4 0.346980 0.660808 0.099119
Si Si5 0.228275 0.336615 0.809829
Si Si6 0.439682 0.338785 0.289790
Si Si7 0.318546 0.157411 0.478703
Si Si8 0.568654 0.844495 0.485210
O O1 0.952394 0.739050 0.884982
O O2 0.869476 0.820981 0.767943
O O3 0.921611 0.000000 0.909843
O O4 0.878811 0.797282 0.999345
O O5 0.993240 0.500000 0.833452
O O6 0.955465 0.332275 0.658371
O O7 0.030984 0.249929 0.793981
O O8 0.305455 0.500000 0.687029
O O9 0.281681 0.706727 0.804984
O O10 0.302805 0.741367 0.578223
O O11 0.333586 0.500000 0.073228
O O12 0.301470 0.749750 0.108289
O O13 0.384486 0.668429 0.228857
O O14 0.226864 0.500000 0.840133
O O15 0.202862 0.317312 0.665251
O O16 0.453965 0.500000 0.293011
O O17 0.447192 0.269379 0.425110
O O18 0.375131 0.165916 0.499227
O O19 0.306056 0.000000 0.507704
O O20 0.557934 0.000000 0.529076
#
# Coordination Sequence:
#
# PCOD9185633 Si02
#       8
#     8   8   8   8   8   8   8   8
#     4  10  22  41  60  80 113 151 190 236 281 326
#     4  11  23  39  60  86 115 147 186 229 282 340
#     4  10  21  36  58  87 116 148 188 232 278 331
#     4  10  23  41  59  81 111 151 193 234 280 331
#     4  10  21  37  58  86 117 149 186 231 281 332
#     4  11  23  38  59  86 114 147 189 231 279 336
#     4  10  19  34  57  84 118 152 181 224 283 337
#     4  10  20  36  58  85 117 150 181 224 282 339
#
# _framework density 21.395185000000001
#
# number of rings (size 3 to 8) (size 9 to 14) (size 15 to 20)
#    0.000    1.750    2.500    1.500    0.000    6.000 
#    0.000    2.500    0.000    0.000    0.000    0.000 
#    0.000    0.000    0.000    0.000    0.000    0.000 
#
# Total GULP energy -178911.378877 kJ/mol
# GULP energy per Si atom -5590.980590 kJ/mol
# Density = 2.134649 g / cm^3
# Si number density = 21.395185 Si / 1000 Ang^3
#
#
#
# Elastic Constant Matrix: (Units=GPa)
#
#
# Indices 1 2 3 4 5 6 
#
# 1 98.5982 59.6880 4.0866 0.0000 -22.3188 0.0000
# 2 59.6880 114.7692 39.9188 0.0000 -36.9706 0.0000
# 3 4.0866 39.9188 62.2175 0.0000 -16.5283 0.0000
# 4 0.0000 0.0000 0.0000 27.7420 0.0000 -16.1577
# 5 -22.3188 -36.9706 -16.5283 0.0000 42.1196 0.0000
# 6 0.0000 0.0000 0.0000 -16.1577 0.0000 32.5214
#
#
#
# Elastic Compliance Matrix: (Units=1/GPa)
#
#
# Indices 1 2 3 4 5 6 
#
# 1 0.016348 -0.009760 0.005820 0.000000 0.002380 0.000000
# 2 -0.009760 0.019965 -0.009921 0.000000 0.008459 0.000000
# 3 0.005820 -0.009921 0.022955 0.000000 0.003384 0.000000
# 4 0.000000 0.000000 0.000000 0.050725 0.000000 0.025202
# 5 0.002380 0.008459 0.003384 0.000000 0.033756 0.000000
# 6 0.000000 0.000000 0.000000 0.025202 0.000000 0.043270
#
#
# Mechanical properties :
#
#
# Convention : Reuss Voigt Hill
#
# Bulk Modulus (GPa) = 31.69969 53.66353 42.68161
# Shear Modulus (GPa) = 22.19715 31.93603 27.06659
#
# Velocity S-wave (km/s) = 3.22449 3.86770 3.56065
# Velocity P-wave (km/s) = 5.35832 6.71432 6.07427
#
# Compressibility (1/GPa) = 0.03154605
#
# Stress axis : x y z
#
# Youngs Moduli (GPa) = 61.16979 50.08851 43.56426
#
# Poissons Ratio (x) = 0.48886 -0.25356
# Poissons Ratio (y) = 0.59701 0.43220
# Poissons Ratio (z) = -0.35603 0.49693
#
# Static dielectric constant tensor:
#      x y z
#    x 1.791290 0.000000 0.024530 
#    y 0.000000 1.729720 0.000000 
#    z 0.024530 0.000000 1.793130 
# 
# From -- ./inp_files/187389.got.cif
#   From: 2010.05.17/outbox.cif.g08.bks.cpg/sg12_94_cif.got.tgz:187389.got - 2010.06.03 13:09:07.
