data_PCOD9185781
_publ_section_title
;
Structure prediction by ZEFSAII (Michael W. Deem and Ramdas Pophale) SiO2 
 PCOD9185781
Probable space group: C 2/M
;
_chemical_formula_sum "Si O2"
_cell_formula_units_Z 56
_cell_length_a 19.583072
_cell_length_b 7.487820
_cell_length_c 19.519155
_cell_angle_alpha 90.000000
_cell_angle_beta 120.822289
_cell_angle_gamma 90.000000
_cell_volume 2457.929147
_symmetry_space_group_name_H-M "C 2/M"
_symmetry_group_IT_number 12
_symmetry_cell_setting 'monoclinic'
loop_
_space_group_symop_operation_xyz
x,y,z
-x,y,-z
-x,-y,-z
x,-y,z
1/2+x,1/2+y,z
1/2-x,1/2+y,-z
1/2-x,1/2-y,-z
1/2+x,1/2-y,z
loop_
_atom_site_type_symbol
_atom_site_label
_atom_site_fract_x
_atom_site_fract_y
_atom_site_fract_z
Si Si1 0.753990 0.782027 0.317306
Si Si2 0.898353 0.218371 0.143088
Si Si3 0.248105 0.287679 0.157560
Si Si4 0.823410 0.288350 0.588202
Si Si5 0.072039 0.781959 0.583184
Si Si6 0.498954 0.708891 0.316758
Si Si7 0.920777 0.785009 0.998924
O O1 0.749015 0.718982 0.236468
O O2 0.692200 0.719158 0.342569
O O3 0.839836 0.731439 0.392151
O O4 0.749870 0.000000 0.313171
O O5 0.817742 0.276785 0.141652
O O6 0.972240 0.276935 0.229098
O O7 0.895313 0.000000 0.137381
O O8 0.910248 0.281186 0.071588
O O9 0.262264 0.500000 0.170270
O O10 0.160809 0.257272 0.082306
O O11 0.829038 0.500000 0.594894
O O12 0.750000 0.250000 0.500000
O O13 0.910518 0.224159 0.612618
O O14 0.000000 0.718344 0.500000
O O15 0.056593 0.717785 0.652149
O O16 0.069810 0.000000 0.581257
O O17 0.480825 0.500000 0.304265
O O18 0.927651 0.000000 0.005484
O O19 0.000000 0.719856 0.000000
#
# Coordination Sequence:
#
# PCOD9185781 Si02
#       7
#     8   8   8   8   8   8   8
#     4   9  18  33  54  81 108 137 181 231 268 308
#     4   9  18  35  58  82 109 144 184 223 268 324
#     4  10  19  36  60  83 107 139 185 233 270 310
#     4  11  23  38  55  79 112 147 182 224 274 326
#     4   9  15  27  52  81 103 131 176 223 263 310
#     4  10  19  34  58  83 107 140 181 224 272 324
#     4  10  22  37  54  81 116 149 178 214 269 336
#
# _framework density 22.783407
#
# number of rings (size 3 to 8) (size 9 to 14) (size 15 to 20)
#    0.000    2.286    1.429    1.714    2.000    2.571 
#    0.000    2.143    0.000    4.714    0.000    0.000 
#    0.000    0.000    0.000    0.000    0.000    0.000 
#
# Total GULP energy -156308.086163 kJ/mol
# GULP energy per Si atom -5582.431649 kJ/mol
# Density = 2.273155 g / cm^3
# Si number density = 22.783407 Si / 1000 Ang^3
#
#
#
# Elastic Constant Matrix: (Units=GPa)
#
#
# Indices 1 2 3 4 5 6 
#
# 1 95.0247 -4.4821 14.4170 0.0000 -4.5184 0.0000
# 2 -4.4821 61.1678 -6.9958 0.0000 -8.9462 0.0000
# 3 14.4170 -6.9958 106.6217 0.0000 -1.7741 0.0000
# 4 0.0000 0.0000 0.0000 13.5395 0.0000 7.0662
# 5 -4.5184 -8.9462 -1.7741 0.0000 39.4779 0.0000
# 6 0.0000 0.0000 0.0000 7.0662 0.0000 -5.3031
#
#
#
# Elastic Compliance Matrix: (Units=1/GPa)
#
#
# Indices 1 2 3 4 5 6 
#
# 1 0.010839 0.000835 -0.001388 0.000000 0.001367 0.000000
# 2 0.000835 0.017121 0.001077 0.000000 0.004024 0.000000
# 3 -0.001388 0.001077 0.009646 0.000000 0.000519 0.000000
# 4 0.000000 0.000000 0.000000 0.043564 0.000000 0.058047
# 5 0.001367 0.004024 0.000519 0.000000 0.026422 0.000000
# 6 0.000000 0.000000 0.000000 0.058047 0.000000 -0.111224
#
#
# Mechanical properties :
#
#
# Convention : Reuss Voigt Hill
#
# Bulk Modulus (GPa) = 25.86942 29.85472 27.86207
# Shear Modulus (GPa) = 609.51515 26.86787 318.19151
#
# Velocity S-wave (km/s) = 16.37396 3.43778 11.83058
# Velocity P-wave (km/s) = 19.20559 5.37494 14.10221
#
# Compressibility (1/GPa) = 0.03865568
#
# Stress axis : x y z
#
# Youngs Moduli (GPa) = 92.26296 58.40632 103.67038
#
# Poissons Ratio (x) = -0.04880 0.14389
# Poissons Ratio (y) = -0.07708 -0.11169
# Poissons Ratio (z) = 0.12806 -0.06293
#
# Static dielectric constant tensor:
#      x y z
#    x 1.784500 0.000000 -0.041860 
#    y 0.000000 1.874740 0.000000 
#    z -0.041860 0.000000 1.836090 
# 
# From -- ./inp_files/314379.got.cif
#   From: 2010.05.17/outbox.cif.g08.bks.cpg/sg12_158_cif.got.tgz:314379.got - 2010.06.03 13:09:07.
