data_PCOD9185353
_publ_section_title
;
Structure prediction by ZEFSAII (Michael W. Deem and Ramdas Pophale) SiO2 
 PCOD9185353
Probable space group: C 2/M
;
_chemical_formula_sum "Si O2"
_cell_formula_units_Z 40
_cell_length_a 8.275357
_cell_length_b 28.040267
_cell_length_c 16.631322
_cell_angle_alpha 90.000000
_cell_angle_beta 155.426457
_cell_angle_gamma 90.000000
_cell_volume 1604.884348
_symmetry_space_group_name_H-M "C 2/M"
_symmetry_group_IT_number 12
_symmetry_cell_setting 'monoclinic'
loop_
_space_group_symop_operation_xyz
x,y,z
-x,y,-z
-x,-y,-z
x,-y,z
1/2+x,1/2+y,z
1/2-x,1/2+y,-z
1/2-x,1/2-y,-z
1/2+x,1/2-y,z
loop_
_atom_site_type_symbol
_atom_site_label
_atom_site_fract_x
_atom_site_fract_y
_atom_site_fract_z
Si Si1 0.306917 0.099349 0.300526
Si Si2 0.567462 0.555344 0.727854
Si Si3 0.611731 0.700970 0.244681
Si Si4 0.108066 0.402541 0.273266
Si Si5 0.821606 0.696645 0.784232
O O1 0.668891 0.070338 0.501339
O O2 0.952557 0.085334 0.198772
O O3 0.283995 0.091062 0.195167
O O4 0.374762 0.155921 0.341195
O O5 0.568929 0.500000 0.748797
O O6 0.890782 0.567150 0.807742
O O7 0.460142 0.693914 0.266445
O O8 0.763762 0.754251 0.300694
O O9 0.247717 0.698005 0.018534
O O10 0.500000 0.414941 0.500000
O O11 0.162463 0.348424 0.267110
#
# Coordination Sequence:
#
# PCOD9185353 Si02
#       5
#     8   8   8   8   8
#     4  10  19  34  56  85 111 149 188 235 280 336
#     4  10  21  38  59  84 117 150 192 238 287 340
#     4  10  20  35  60  80 116 155 191 235 277 340
#     4  10  21  36  56  86 118 147 188 235 285 337
#     4  10  20  37  55  85 115 154 194 229 282 339
#
# _framework density 24.923912999999999
#
# number of rings (size 3 to 8) (size 9 to 14) (size 15 to 20)
#    0.000    2.000    2.000    2.400    0.000    6.800 
#    3.600    3.000    0.000    3.600    0.000   14.000 
#    0.000    0.000    0.000    0.000    0.000    0.000 
#
# Total GULP energy -111899.881810 kJ/mol
# GULP energy per Si atom -5594.994091 kJ/mol
# Density = 2.486719 g / cm^3
# Si number density = 24.923913 Si / 1000 Ang^3
#
#
#
# Elastic Constant Matrix: (Units=GPa)
#
#
# Indices 1 2 3 4 5 6 
#
# 1 186.8706 29.2098 11.8769 0.0000 -18.3526 0.0000
# 2 29.2098 119.1864 -4.6733 0.0000 -5.8191 0.0000
# 3 11.8769 -4.6733 75.8351 0.0000 -17.3297 0.0000
# 4 0.0000 0.0000 0.0000 45.0962 0.0000 -18.1793
# 5 -18.3526 -5.8191 -17.3297 0.0000 30.3827 0.0000
# 6 0.0000 0.0000 0.0000 -18.1793 0.0000 36.0173
#
#
#
# Elastic Compliance Matrix: (Units=1/GPa)
#
#
# Indices 1 2 3 4 5 6 
#
# 1 0.005881 -0.001299 -0.000283 0.000000 0.003142 0.000000
# 2 -0.001299 0.008826 0.001097 0.000000 0.001532 0.000000
# 3 -0.000283 0.001097 0.015302 0.000000 0.008767 0.000000
# 4 0.000000 0.000000 0.000000 0.027839 0.000000 0.014052
# 5 0.003142 0.001532 0.008767 0.000000 0.040105 0.000000
# 6 0.000000 0.000000 0.000000 0.014052 0.000000 0.034857
#
#
# Mechanical properties :
#
#
# Convention : Reuss Voigt Hill
#
# Bulk Modulus (GPa) = 34.43530 50.52434 42.47982
# Shear Modulus (GPa) = 34.85294 45.33116 40.09205
#
# Velocity S-wave (km/s) = 3.74354 4.26934 4.01506
# Velocity P-wave (km/s) = 5.70365 6.67971 6.21088
#
# Compressibility (1/GPa) = 0.02903996
#
# Stress axis : x y z
#
# Youngs Moduli (GPa) = 170.04157 113.29674 65.35128
#
# Poissons Ratio (x) = 0.14717 0.01850
# Poissons Ratio (y) = 0.22088 -0.07172
# Poissons Ratio (z) = 0.04813 -0.12433
#
# Static dielectric constant tensor:
#      x y z
#    x 2.238170 0.000000 0.313730 
#    y 0.000000 1.892240 0.000000 
#    z 0.313730 0.000000 2.315460 
# 
# From -- ./inp_files/198182.got.cif
#   From: 2010.05.17/outbox.cif.g08.bks.cpg/sg12_100_cif.got.tgz:198182.got - 2010.06.03 13:09:07.
