data_PCOD9185150
_publ_section_title
;
Structure prediction by ZEFSAII (Michael W. Deem and Ramdas Pophale) SiO2 
 PCOD9185150
Probable space group: C 2/M
;
_chemical_formula_sum "Si O2"
_cell_formula_units_Z 64
_cell_length_a 20.423994
_cell_length_b 7.724572
_cell_length_c 21.499438
_cell_angle_alpha 90.000000
_cell_angle_beta 45.033993
_cell_angle_gamma 90.000000
_cell_volume 2399.853435
_symmetry_space_group_name_H-M "C 2/M"
_symmetry_group_IT_number 12
_symmetry_cell_setting 'monoclinic'
loop_
_space_group_symop_operation_xyz
x,y,z
-x,y,-z
-x,-y,-z
x,-y,z
1/2+x,1/2+y,z
1/2-x,1/2+y,-z
1/2-x,1/2-y,-z
1/2+x,1/2-y,z
loop_
_atom_site_type_symbol
_atom_site_label
_atom_site_fract_x
_atom_site_fract_y
_atom_site_fract_z
Si Si1 0.282510 0.708813 0.846051
Si Si2 0.068839 0.800828 0.704889
Si Si3 0.986971 0.212393 0.938624
Si Si4 0.377995 0.289109 0.900574
Si Si5 0.313015 0.703403 0.209565
Si Si6 0.370780 0.795623 0.603483
Si Si7 0.731051 0.304955 0.442395
Si Si8 0.975772 0.704100 0.646298
O O1 0.278127 0.500000 0.848885
O O2 0.297816 0.771657 0.907123
O O3 0.203370 0.779998 0.853914
O O4 0.376471 0.766168 0.747122
O O5 0.974326 0.741278 0.800732
O O6 0.165519 0.712590 0.655135
O O7 0.047565 0.790524 0.645187
O O8 0.081098 0.000000 0.714184
O O9 0.900767 0.273062 0.954951
O O10 0.085085 0.265692 0.842362
O O11 0.984048 0.000000 0.941454
O O12 0.000000 0.273082 0.000000
O O13 0.372445 0.500000 0.905126
O O14 0.311198 0.500000 0.225649
O O15 0.223343 0.781926 0.302890
O O16 0.346119 0.788679 0.547292
O O17 0.455308 0.728750 0.589834
O O18 0.376888 0.000000 0.613291
O O19 0.701162 0.500000 0.461258
O O20 0.750000 0.250000 0.500000
O O21 0.997291 0.500000 0.632597
#
# Coordination Sequence:
#
# PCOD9185150 Si02
#       8
#     8   8   8   8   8   8   8   8
#     4   9  16  27  46  71  99 130 164 206 255 307
#     4  10  19  34  56  79 106 137 171 212 258 308
#     4   9  16  27  45  69  97 131 173 214 250 297
#     4   8  15  28  47  71  97 128 165 206 251 296
#     4   9  17  30  50  75 101 129 164 211 260 302
#     4   9  18  34  55  77 104 135 167 210 261 308
#     4  12  25  39  55  76 105 138 174 213 253 302
#     4   9  17  31  53  81 109 133 164 210 259 305
#
# _framework density 26.668293999999999
#
# number of rings (size 3 to 8) (size 9 to 14) (size 15 to 20)
#    0.000    2.625    0.000    4.500    0.000    4.500 
#    0.000    1.250    0.000    5.625    0.000    0.000 
#    0.000    0.000    0.000    0.000    0.000    0.000 
#
# Total GULP energy -178815.966827 kJ/mol
# GULP energy per Si atom -5587.998963 kJ/mol
# Density = 2.660760 g / cm^3
# Si number density = 26.668294 Si / 1000 Ang^3
#
#
#
# Elastic Constant Matrix: (Units=GPa)
#
#
# Indices 1 2 3 4 5 6 
#
# 1 247.0613 -4.1590 35.2428 -0.0004 21.3602 0.0005
# 2 -4.1590 58.7172 -9.6312 -0.0018 -7.7036 0.0023
# 3 35.2428 -9.6312 69.2777 -0.0003 23.4006 0.0004
# 4 -0.0004 -0.0018 -0.0003 9.0694 0.0002 4.1681
# 5 21.3602 -7.7036 23.4006 0.0002 58.3970 -0.0002
# 6 0.0005 0.0023 0.0004 4.1681 -0.0002 25.1904
#
#
#
# Elastic Compliance Matrix: (Units=1/GPa)
#
#
# Indices 1 2 3 4 5 6 
#
# 1 0.004399 -0.000122 -0.001973 0.000000 -0.000835 0.000000
# 2 -0.000122 0.017552 0.001972 0.000005 0.001570 -0.000002
# 3 -0.001973 0.001972 0.017789 0.000001 -0.006146 -0.000001
# 4 0.000000 0.000005 0.000001 0.119335 0.000000 -0.019745
# 5 -0.000835 0.001570 -0.006146 0.000000 0.020099 0.000000
# 6 0.000000 -0.000002 -0.000001 -0.019745 0.000000 0.042965
#
#
# Mechanical properties :
#
#
# Convention : Reuss Voigt Hill
#
# Bulk Modulus (GPa) = 25.32053 46.44017 35.88035
# Shear Modulus (GPa) = 21.22705 42.10494 31.66599
#
# Velocity S-wave (km/s) = 2.82435 3.97777 3.44961
# Velocity P-wave (km/s) = 4.48900 6.20876 5.41756
#
# Compressibility (1/GPa) = 0.03949365
#
# Stress axis : x y z
#
# Youngs Moduli (GPa) = 227.31832 56.97510 56.21595
#
# Poissons Ratio (x) = 0.00692 0.11091
# Poissons Ratio (y) = 0.02762 -0.11084
# Poissons Ratio (z) = 0.44848 -0.11233
#
# Static dielectric constant tensor:
#      x y z
#    x 1.995130 0.000000 0.000250 
#    y 0.000000 1.943100 0.000000 
#    z 0.000250 0.000000 2.268330 
# 
# From -- ./inp_files/319957.got.cif
#   From: 2010.05.17/outbox.cif.g08.bks.cpg/sg12_160_cif.got.tgz:319957.got - 2010.06.03 13:09:07.
