data_PCOD9185563
_publ_section_title
;
Structure prediction by ZEFSAII (Michael W. Deem and Ramdas Pophale) SiO2 
 PCOD9185563
Probable space group: C 2/M
;
_chemical_formula_sum "Si O2"
_cell_formula_units_Z 56
_cell_length_a 20.389883
_cell_length_b 10.959503
_cell_length_c 23.582724
_cell_angle_alpha 90.000000
_cell_angle_beta 35.223146
_cell_angle_gamma 90.000000
_cell_volume 3039.460354
_symmetry_space_group_name_H-M "C 2/M"
_symmetry_group_IT_number 12
_symmetry_cell_setting 'monoclinic'
loop_
_space_group_symop_operation_xyz
x,y,z
-x,y,-z
-x,-y,-z
x,-y,z
1/2+x,1/2+y,z
1/2-x,1/2+y,-z
1/2-x,1/2-y,-z
1/2+x,1/2-y,z
loop_
_atom_site_type_symbol
_atom_site_label
_atom_site_fract_x
_atom_site_fract_y
_atom_site_fract_z
Si Si1 0.675164 0.355405 0.312364
Si Si2 0.775067 0.635979 0.941707
Si Si3 0.750935 0.352763 0.383437
Si Si4 0.505729 0.256073 0.756546
Si Si5 0.027180 0.866347 0.100560
Si Si6 0.424520 0.137348 0.109542
Si Si7 0.460631 0.352932 0.392993
O O1 0.653426 0.500000 0.335372
O O2 0.706498 0.309010 0.353052
O O3 0.790235 0.344673 0.194313
O O4 0.564722 0.305875 0.358671
O O5 0.780021 0.500000 0.964895
O O6 0.897669 0.665119 0.829150
O O7 0.750000 0.750000 0.000000
O O8 0.659083 0.635320 0.987240
O O9 0.753588 0.500000 0.380138
O O10 0.876523 0.307092 0.308688
O O11 0.658879 0.313369 0.495336
O O12 0.477390 0.349630 0.827927
O O13 0.522652 0.314693 0.683378
O O14 0.966688 0.748055 0.118209
O O15 0.979362 0.000000 0.119438
O O16 0.436181 0.000000 0.127305
O O17 0.500000 0.138550 0.000000
O O18 0.462713 0.500000 0.393581
#
# Coordination Sequence:
#
# PCOD9185563 Si02
#       7
#     8   8   8   8   8   8   8
#     4   9  18  35  56  81 111 144 186 239 293 339
#     4   9  20  35  53  79 112 150 188 228 278 338
#     4  10  19  34  57  83 110 146 192 244 292 335
#     4  11  20  34  56  82 115 153 192 234 284 343
#     4  10  21  37  55  81 117 155 191 228 283 350
#     4  10  21  36  59  88 113 143 192 243 289 338
#     4  10  21  34  53  84 117 147 188 241 293 339
#
# _framework density 18.424323000000001
#
# number of rings (size 3 to 8) (size 9 to 14) (size 15 to 20)
#    0.000    2.143    1.429    1.714    2.000    4.857 
#    0.000    0.000    0.000    0.000    0.000    1.000 
#    0.000    0.000    0.000    0.000    0.000    0.000 
#
# Total GULP energy -155908.407900 kJ/mol
# GULP energy per Si atom -5568.157425 kJ/mol
# Density = 1.838239 g / cm^3
# Si number density = 18.424323 Si / 1000 Ang^3
#
#
#
# Elastic Constant Matrix: (Units=GPa)
#
#
# Indices 1 2 3 4 5 6 
#
# 1 73.2994 17.5633 50.5676 0.0000 -11.9656 0.0000
# 2 17.5633 83.3220 32.5334 0.0000 -9.6604 0.0000
# 3 50.5676 32.5334 132.1084 0.0000 -12.0196 0.0000
# 4 0.0000 0.0000 0.0000 18.1077 0.0000 2.6394
# 5 -11.9656 -9.6604 -12.0196 0.0000 29.3967 0.0000
# 6 0.0000 0.0000 0.0000 2.6394 0.0000 24.3957
#
#
#
# Elastic Compliance Matrix: (Units=1/GPa)
#
#
# Indices 1 2 3 4 5 6 
#
# 1 0.019278 -0.000880 -0.006725 0.000000 0.004808 0.000000
# 2 -0.000880 0.013604 -0.002741 0.000000 0.002992 0.000000
# 3 -0.006725 -0.002741 0.010893 0.000000 0.000816 0.000000
# 4 0.000000 0.000000 0.000000 0.056110 0.000000 -0.006071
# 5 0.004808 0.002992 0.000816 0.000000 0.037291 0.000000
# 6 0.000000 0.000000 0.000000 -0.006071 0.000000 0.041648
#
#
# Mechanical properties :
#
#
# Convention : Reuss Voigt Hill
#
# Bulk Modulus (GPa) = 43.32296 54.45095 48.88696
# Shear Modulus (GPa) = 24.13007 26.91770 25.52388
#
# Velocity S-wave (km/s) = 3.62288 3.82643 3.72605
# Velocity P-wave (km/s) = 6.40823 7.01000 6.71586
#
# Compressibility (1/GPa) = 0.02308245
#
# Stress axis : x y z
#
# Youngs Moduli (GPa) = 51.87328 73.50605 91.80321
#
# Poissons Ratio (x) = 0.06471 0.61736
# Poissons Ratio (y) = 0.04567 0.25164
# Poissons Ratio (z) = 0.34884 0.20149
#
# Static dielectric constant tensor:
#      x y z
#    x 1.648670 0.000000 -0.006920 
#    y 0.000000 1.588070 0.000000 
#    z -0.006920 0.000000 1.663310 
# 
# From -- ./inp_files/346979.got.cif
#   From: 2010.05.17/outbox.cif.g08.bks.cpg/sg12_174_cif.got.tgz:346979.got - 2010.06.03 13:09:07.
