data_PCOD9185585
_publ_section_title
;
Structure prediction by ZEFSAII (Michael W. Deem and Ramdas Pophale) SiO2 
 PCOD9185585
Probable space group: C 2/M
;
_chemical_formula_sum "Si O2"
_cell_formula_units_Z 64
_cell_length_a 20.185762
_cell_length_b 30.410675
_cell_length_c 14.504949
_cell_angle_alpha 90.000000
_cell_angle_beta 158.774415
_cell_angle_gamma 90.000000
_cell_volume 3223.628582
_symmetry_space_group_name_H-M "C 2/M"
_symmetry_group_IT_number 12
_symmetry_cell_setting 'monoclinic'
loop_
_space_group_symop_operation_xyz
x,y,z
-x,y,-z
-x,-y,-z
x,-y,z
1/2+x,1/2+y,z
1/2-x,1/2+y,-z
1/2-x,1/2-y,-z
1/2+x,1/2-y,z
loop_
_atom_site_type_symbol
_atom_site_label
_atom_site_fract_x
_atom_site_fract_y
_atom_site_fract_z
Si Si1 0.854303 0.588971 0.036507
Si Si2 0.214028 0.797495 0.248005
Si Si3 0.483621 0.373957 0.606748
Si Si4 0.192857 0.653667 0.458442
Si Si5 0.595043 0.631288 0.955413
Si Si6 0.214260 0.301927 0.290241
Si Si7 0.696811 0.950096 0.217463
Si Si8 0.172694 0.449720 0.792251
O O1 0.870182 0.569724 0.160868
O O2 0.025379 0.620003 0.231777
O O3 0.661427 0.614927 0.778894
O O4 0.829032 0.552140 0.926090
O O5 0.334881 0.819217 0.484448
O O6 0.262107 0.746103 0.312847
O O7 0.209049 0.830257 0.154237
O O8 0.000000 0.797080 0.000000
O O9 0.571192 0.358468 0.816991
O O10 0.339039 0.336255 0.397933
O O11 0.360681 0.417906 0.459605
O O12 0.387761 0.629252 0.724437
O O13 0.229286 0.686823 0.419676
O O14 0.688398 0.583867 0.076503
O O15 0.000000 0.309645 0.000000
O O16 0.729758 0.000000 0.290892
O O17 0.500000 0.934702 0.000000
O O18 0.238906 0.500000 0.888597
O O19 0.000000 0.450302 0.500000
#
# Coordination Sequence:
#
# PCOD9185585 Si02
#       8
#     8   8   8   8   8   8   8   8
#     4  11  22  37  59  86 119 158 193 238 295 352
#     4   9  18  33  58  86 110 147 195 244 290 342
#     4  10  21  36  56  83 117 152 188 233 291 352
#     4  10  19  34  57  83 114 152 195 240 287 344
#     4   9  19  36  58  83 114 152 196 240 290 344
#     4  10  19  34  57  84 114 149 192 240 290 347
#     4  11  23  39  60  86 114 148 194 245 296 352
#     4  10  21  38  60  87 121 159 198 242 294 353
#
# _framework density 19.853404000000001
#
# number of rings (size 3 to 8) (size 9 to 14) (size 15 to 20)
#    0.000    2.000    0.000    4.500    0.000    4.000 
#    0.000    1.875    0.000   24.375    0.000    0.000 
#    0.000    0.000    0.000    0.000    0.000    0.000 
#
# Total GULP energy -178273.332085 kJ/mol
# GULP energy per Si atom -5571.041628 kJ/mol
# Density = 1.980822 g / cm^3
# Si number density = 19.853404 Si / 1000 Ang^3
#
#
#
# Elastic Constant Matrix: (Units=GPa)
#
#
# Indices 1 2 3 4 5 6 
#
# 1 79.6931 47.7021 32.0908 0.0000 -8.2535 0.0000
# 2 47.7021 141.4980 50.9839 0.0000 3.7192 0.0000
# 3 32.0908 50.9839 68.7940 0.0000 -1.0393 -0.0002
# 4 0.0000 0.0000 0.0000 18.2170 -0.0001 -5.9151
# 5 -8.2535 3.7192 -1.0393 -0.0001 34.9877 -0.0001
# 6 0.0000 0.0000 -0.0002 -5.9151 -0.0001 17.5277
#
#
#
# Elastic Compliance Matrix: (Units=1/GPa)
#
#
# Indices 1 2 3 4 5 6 
#
# 1 0.017551 -0.004240 -0.004978 0.000000 0.004443 0.000000
# 2 -0.004240 0.010720 -0.006002 0.000000 -0.002318 0.000000
# 3 -0.004978 -0.006002 0.021308 0.000000 0.000097 0.000000
# 4 0.000000 0.000000 0.000000 0.061649 0.000000 0.020805
# 5 0.004443 -0.002318 0.000097 0.000000 0.029879 0.000000
# 6 0.000000 0.000000 0.000000 0.020805 0.000000 0.064073
#
#
# Mechanical properties :
#
#
# Convention : Reuss Voigt Hill
#
# Bulk Modulus (GPa) = 52.24825 61.28208 56.76516
# Shear Modulus (GPa) = 20.66130 24.76038 22.71084
#
# Velocity S-wave (km/s) = 3.22948 3.53535 3.38587
# Velocity P-wave (km/s) = 6.34667 6.89922 6.62870
#
# Compressibility (1/GPa) = 0.01913940
#
# Stress axis : x y z
#
# Youngs Moduli (GPa) = 56.97816 93.28205 46.93145
#
# Poissons Ratio (x) = 0.39551 0.23360
# Poissons Ratio (y) = 0.24159 0.28168
# Poissons Ratio (z) = 0.28361 0.55988
#
# Static dielectric constant tensor:
#      x y z
#    x 1.766850 0.000000 -0.026070 
#    y 0.000000 1.719640 0.000000 
#    z -0.026070 0.000000 1.716570 
# 
# From -- ./inp_files/236010.got.cif
#   From: 2010.05.17/outbox.cif.g08.bks.cpg/sg12_119_cif.got.tgz:236010.got - 2010.06.03 13:09:07.
