data_PCOD9185573
_publ_section_title
;
Structure prediction by ZEFSAII (Michael W. Deem and Ramdas Pophale) SiO2 
 PCOD9185573
Probable space group: C 2/M
;
_chemical_formula_sum "Si O2"
_cell_formula_units_Z 64
_cell_length_a 20.399600
_cell_length_b 15.040501
_cell_length_c 15.242782
_cell_angle_alpha 90.000000
_cell_angle_beta 141.217046
_cell_angle_gamma 90.000000
_cell_volume 2929.412133
_symmetry_space_group_name_H-M "C 2/M"
_symmetry_group_IT_number 12
_symmetry_cell_setting 'monoclinic'
loop_
_space_group_symop_operation_xyz
x,y,z
-x,y,-z
-x,-y,-z
x,-y,z
1/2+x,1/2+y,z
1/2-x,1/2+y,-z
1/2-x,1/2-y,-z
1/2+x,1/2-y,z
loop_
_atom_site_type_symbol
_atom_site_label
_atom_site_fract_x
_atom_site_fract_y
_atom_site_fract_z
Si Si1 0.639261 0.648904 0.956391
Si Si2 0.334409 0.660293 0.825777
Si Si3 0.406112 0.393761 0.705899
Si Si4 0.689887 0.850234 0.993032
Si Si5 0.607633 0.103387 0.568701
Si Si6 0.215890 0.603822 0.387009
Si Si7 0.025457 0.397425 0.288995
Si Si8 0.880488 0.365313 0.891023
O O1 0.517691 0.651772 0.804836
O O2 0.695413 0.745396 0.021980
O O3 0.639145 0.610403 0.055271
O O4 0.711322 0.609269 0.954538
O O5 0.370944 0.621268 0.770426
O O6 0.208689 0.660935 0.693267
O O7 0.381985 0.758195 0.884151
O O8 0.420323 0.500000 0.708316
O O9 0.316294 0.360919 0.544126
O O10 0.588212 0.855853 0.824931
O O11 0.657848 0.891990 0.052556
O O12 0.500000 0.133522 0.500000
O O13 0.586127 0.103450 0.443230
O O14 0.626801 0.000000 0.616249
O O15 0.212203 0.500000 0.409917
O O16 0.105830 0.645573 0.304248
O O17 0.204004 0.606968 0.270487
O O18 0.005385 0.500000 0.243611
O O19 0.000000 0.396889 0.000000
#
# Coordination Sequence:
#
# PCOD9185573 Si02
#       8
#     8   8   8   8   8   8   8   8
#     4  10  23  39  58  83 119 159 191 232 290 343
#     4  11  21  36  58  87 119 152 196 238 283 347
#     4  11  23  40  60  86 121 156 195 238 286 350
#     4  10  21  40  59  84 119 151 192 244 286 341
#     4  10  20  34  54  84 120 153 189 235 286 343
#     4  10  22  39  59  86 114 144 188 240 291 340
#     4  10  19  34  57  83 112 146 186 236 289 336
#     4  11  22  38  61  88 114 147 196 245 291 345
#
# _framework density 21.847387999999999
#
# number of rings (size 3 to 8) (size 9 to 14) (size 15 to 20)
#    0.000    1.625    2.500    3.000    0.000    4.250 
#    0.000    0.625    0.000    1.500    0.000    0.000 
#    0.000    0.000    0.000    0.000    0.000    0.000 
#
# Total GULP energy -178538.210531 kJ/mol
# GULP energy per Si atom -5579.319079 kJ/mol
# Density = 2.179766 g / cm^3
# Si number density = 21.847388 Si / 1000 Ang^3
#
#
#
# Elastic Constant Matrix: (Units=GPa)
#
#
# Indices 1 2 3 4 5 6 
#
# 1 121.2767 16.6495 67.6806 0.0000 16.8302 0.0000
# 2 16.6495 41.5931 7.2249 0.0000 2.2138 0.0000
# 3 67.6806 7.2249 134.0564 0.0000 10.4676 0.0000
# 4 0.0000 0.0000 0.0000 24.8054 0.0000 -0.3623
# 5 16.8302 2.2138 10.4676 0.0000 37.9569 0.0000
# 6 0.0000 0.0000 0.0000 -0.3623 0.0000 -4.2764
#
#
#
# Elastic Compliance Matrix: (Units=1/GPa)
#
#
# Indices 1 2 3 4 5 6 
#
# 1 0.012543 -0.003809 -0.005836 0.000000 -0.003730 0.000000
# 2 -0.003809 0.025469 0.000546 0.000000 0.000053 0.000000
# 3 -0.005836 0.000546 0.010401 0.000000 -0.000312 0.000000
# 4 0.000000 0.000000 0.000000 0.040264 0.000000 -0.003411
# 5 -0.003730 0.000053 -0.000312 0.000000 0.028083 0.000000
# 6 0.000000 0.000000 0.000000 -0.003411 0.000000 -0.233553
#
#
# Mechanical properties :
#
#
# Convention : Reuss Voigt Hill
#
# Bulk Modulus (GPa) = 33.09489 53.33735 43.21612
# Shear Modulus (GPa) = -56.48189 25.38859 -15.54665
#
# Velocity S-wave (km/s) = -5.09009 3.41264 -2.67048
# Velocity P-wave (km/s) = 4.40049 6.32414 3.21173
#
# Compressibility (1/GPa) = 0.03021614
#
# Stress axis : x y z
#
# Youngs Moduli (GPa) = 79.72564 39.26284 96.14521
#
# Poissons Ratio (x) = 0.14954 0.56111
# Poissons Ratio (y) = 0.30365 -0.05250
# Poissons Ratio (z) = 0.46528 -0.02144
#
# Static dielectric constant tensor:
#      x y z
#    x 1.870500 0.000000 -0.032150 
#    y 0.000000 1.872060 0.000000 
#    z -0.032150 0.000000 1.781900 
# 
# From -- ./inp_files/226902.got.cif
#   From: 2010.05.17/outbox.cif.g08.bks.cpg/sg12_114_cif.got.tgz:226902.got - 2010.06.03 13:09:07.
