data_PCOD9185286
_publ_section_title
;
Structure prediction by ZEFSAII (Michael W. Deem and Ramdas Pophale) SiO2 
 PCOD9185286
Probable space group: C 2/M
;
_chemical_formula_sum "Si O2"
_cell_formula_units_Z 56
_cell_length_a 23.258797
_cell_length_b 7.538522
_cell_length_c 18.071950
_cell_angle_alpha 90.000000
_cell_angle_beta 130.773746
_cell_angle_gamma 90.000000
_cell_volume 2399.624063
_symmetry_space_group_name_H-M "C 2/M"
_symmetry_group_IT_number 12
_symmetry_cell_setting 'monoclinic'
loop_
_space_group_symop_operation_xyz
x,y,z
-x,y,-z
-x,-y,-z
x,-y,z
1/2+x,1/2+y,z
1/2-x,1/2+y,-z
1/2-x,1/2-y,-z
1/2+x,1/2-y,z
loop_
_atom_site_type_symbol
_atom_site_label
_atom_site_fract_x
_atom_site_fract_y
_atom_site_fract_z
Si Si1 0.904262 0.795893 0.265069
Si Si2 0.454165 0.202510 0.532869
Si Si3 0.173432 0.714615 0.245836
Si Si4 0.201203 0.301694 0.531548
Si Si5 0.007494 0.283878 0.090827
Si Si6 0.637767 0.784944 0.936016
Si Si7 0.755809 0.716009 0.847620
O O1 0.877422 0.787065 0.157821
O O2 0.829139 0.722454 0.242174
O O3 0.982148 0.701498 0.349562
O O4 0.915764 0.000000 0.295817
O O5 0.500000 0.279948 0.500000
O O6 0.376590 0.285390 0.501270
O O7 0.434981 0.000000 0.494002
O O8 0.178285 0.500000 0.256327
O O9 0.237732 0.792532 0.351602
O O10 0.088019 0.771171 0.192303
O O11 0.189586 0.760865 0.174083
O O12 0.175855 0.500000 0.491989
O O13 0.250000 0.250000 0.500000
O O14 0.008077 0.500000 0.089388
O O15 0.935351 0.232446 0.077396
O O16 0.000000 0.224102 0.000000
O O17 0.640804 0.000000 0.933757
O O18 0.709825 0.723531 0.045158
O O19 0.752887 0.500000 0.848712
#
# Coordination Sequence:
#
# PCOD9185286 Si02
#       7
#     8   8   8   8   8   8   8
#     4  11  23  36  55  86 120 152 188 238 298 345
#     4  10  23  45  68  87 111 152 206 252 293 353
#     4  10  19  35  61  88 114 148 193 241 286 337
#     4  11  25  43  63  89 120 154 195 246 304 359
#     4   9  16  30  56  86 111 145 193 234 271 329
#     4  10  19  34  56  82 116 156 196 232 274 340
#     4   9  18  34  57  85 117 155 196 235 280 343
#
# _framework density 23.336987000000001
#
# number of rings (size 3 to 8) (size 9 to 14) (size 15 to 20)
#    0.000    2.000    1.429    2.143    2.000    1.429 
#    0.000    2.143    0.000    0.857    0.000    0.000 
#    0.000    0.000    0.000    0.000    0.000    0.000 
#
# Total GULP energy -156327.006515 kJ/mol
# GULP energy per Si atom -5583.107376 kJ/mol
# Density = 2.328387 g / cm^3
# Si number density = 23.336987 Si / 1000 Ang^3
#
#
#
# Elastic Constant Matrix: (Units=GPa)
#
#
# Indices 1 2 3 4 5 6 
#
# 1 145.6248 11.6787 42.3761 0.0000 21.1714 0.0000
# 2 11.6787 59.0659 -3.3617 0.0000 0.5665 0.0000
# 3 42.3761 -3.3617 117.2814 0.0000 21.8728 0.0000
# 4 0.0000 0.0000 0.0000 20.1474 0.0000 -7.6303
# 5 21.1714 0.5665 21.8728 0.0000 48.5852 0.0000
# 6 0.0000 0.0000 0.0000 -7.6303 0.0000 -2.0864
#
#
#
# Elastic Compliance Matrix: (Units=1/GPa)
#
#
# Indices 1 2 3 4 5 6 
#
# 1 0.008085 -0.001720 -0.002530 0.000000 -0.002364 0.000000
# 2 -0.001720 0.017333 0.001109 0.000000 0.000048 0.000000
# 3 -0.002530 0.001109 0.010119 0.000000 -0.003466 0.000000
# 4 0.000000 0.000000 0.000000 0.020810 0.000000 -0.076107
# 5 -0.002364 0.000048 -0.003466 0.000000 0.023172 0.000000
# 6 0.000000 0.000000 0.000000 -0.076107 0.000000 -0.200956
#
#
# Mechanical properties :
#
#
# Convention : Reuss Voigt Hill
#
# Bulk Modulus (GPa) = 34.18078 47.03980 40.61029
# Shear Modulus (GPa) = -47.43611 31.41451 -8.01080
#
# Velocity S-wave (km/s) = -4.51339 3.67294 -1.85475
# Velocity P-wave (km/s) = 3.53306 6.17963 3.58506
#
# Compressibility (1/GPa) = 0.02925620
#
# Stress axis : x y z
#
# Youngs Moduli (GPa) = 123.69083 57.69352 98.82702
#
# Poissons Ratio (x) = 0.09922 0.24999
# Poissons Ratio (y) = 0.21273 -0.10963
# Poissons Ratio (z) = 0.31288 -0.06400
#
# Static dielectric constant tensor:
#      x y z
#    x 1.915150 0.000000 0.001470 
#    y 0.000000 1.912360 0.000000 
#    z 0.001470 0.000000 1.831280 
# 
# From -- ./inp_files/288430.got.cif
#   From: 2010.05.17/outbox.cif.g08.bks.cpg/sg12_145_cif.got.tgz:288430.got - 2010.06.03 13:09:07.
