data_PCOD9185498
_publ_section_title
;
Structure prediction by ZEFSAII (Michael W. Deem and Ramdas Pophale) SiO2 
 PCOD9185498
Probable space group: C 2/M
;
_chemical_formula_sum "Si O2"
_cell_formula_units_Z 56
_cell_length_a 9.734190
_cell_length_b 21.442267
_cell_length_c 22.655752
_cell_angle_alpha 90.000000
_cell_angle_beta 42.014445
_cell_angle_gamma 90.000000
_cell_volume 3165.056501
_symmetry_space_group_name_H-M "C 2/M"
_symmetry_group_IT_number 12
_symmetry_cell_setting 'monoclinic'
loop_
_space_group_symop_operation_xyz
x,y,z
-x,y,-z
-x,-y,-z
x,-y,z
1/2+x,1/2+y,z
1/2-x,1/2+y,-z
1/2-x,1/2-y,-z
1/2+x,1/2-y,z
loop_
_atom_site_type_symbol
_atom_site_label
_atom_site_fract_x
_atom_site_fract_y
_atom_site_fract_z
Si Si1 0.375025 0.620681 0.374344
Si Si2 0.156280 0.575681 0.765830
Si Si3 0.742286 0.742847 0.432151
Si Si4 0.501960 0.124230 0.303996
Si Si5 0.817588 0.930116 0.516148
Si Si6 0.373319 0.426630 0.248164
Si Si7 0.352129 0.075389 0.098684
O O1 0.612351 0.602792 0.310741
O O2 0.326935 0.692771 0.377882
O O3 0.272368 0.604518 0.469712
O O4 0.311445 0.582481 0.336694
O O5 0.162170 0.500000 0.757156
O O6 0.029734 0.607724 0.754099
O O7 0.080336 0.590874 0.856184
O O8 0.500000 0.734402 0.500000
O O9 0.750000 0.750000 0.500000
O O10 0.882792 0.686960 0.362066
O O11 0.380302 0.071727 0.379947
O O12 0.733150 0.116920 0.252276
O O13 0.000000 0.904773 0.500000
O O14 0.880459 0.000000 0.479803
O O15 0.355464 0.500000 0.238333
O O16 0.612911 0.407609 0.167758
O O17 0.354610 0.000000 0.095165
O O18 0.500000 0.099395 0.000000
#
# Coordination Sequence:
#
# PCOD9185498 Si02
#       7
#     8   8   8   8   8   8   8
#     4  11  21  35  52  73 100 144 188 227 264 300
#     4  10  19  34  57  82 107 136 178 222 267 329
#     4  12  24  39  51  68 103 149 197 233 254 305
#     4  12  22  35  50  75 108 147 181 225 268 302
#     4  11  20  31  50  74 104 143 186 221 269 320
#     4  10  21  35  53  81 111 132 170 225 270 319
#     4   8  16  34  59  84 111 140 165 202 268 343
#
# _framework density 17.693207000000001
#
# number of rings (size 3 to 8) (size 9 to 14) (size 15 to 20)
#    0.000    1.429    2.857    5.571    0.000    0.000 
#    0.000    2.143    0.000    3.429    0.000   16.000 
#    0.000    0.000    0.000    0.000    0.000    0.000 
#
# Total GULP energy -156144.062879 kJ/mol
# GULP energy per Si atom -5576.573674 kJ/mol
# Density = 1.765294 g / cm^3
# Si number density = 17.693207 Si / 1000 Ang^3
#
#
#
# Elastic Constant Matrix: (Units=GPa)
#
#
# Indices 1 2 3 4 5 6 
#
# 1 139.9814 33.5884 53.2790 0.0001 13.4804 0.0018
# 2 33.5884 93.4248 21.0178 -0.0001 2.3470 0.0000
# 3 53.2790 21.0178 100.0157 0.0002 18.5990 0.0004
# 4 0.0001 -0.0001 0.0002 9.9561 -0.0001 0.5360
# 5 13.4804 2.3470 18.5990 -0.0001 18.8729 -0.0005
# 6 0.0018 0.0000 0.0004 0.5360 -0.0005 12.3598
#
#
#
# Elastic Compliance Matrix: (Units=1/GPa)
#
#
# Indices 1 2 3 4 5 6 
#
# 1 0.009529 -0.002440 -0.004107 0.000000 -0.002456 -0.000001
# 2 -0.002440 0.011880 -0.001526 0.000000 0.001769 0.000000
# 3 -0.004107 -0.001526 0.014602 0.000000 -0.011267 0.000000
# 4 0.000000 0.000000 0.000000 0.100676 0.000001 -0.004366
# 5 -0.002456 0.001769 -0.011267 0.000001 0.065623 0.000003
# 6 -0.000001 0.000000 0.000000 -0.004366 0.000003 0.081097
#
#
# Mechanical properties :
#
#
# Convention : Reuss Voigt Hill
#
# Bulk Modulus (GPa) = 50.33783 61.02136 55.67960
# Shear Modulus (GPa) = 16.33062 23.27355 19.80209
#
# Velocity S-wave (km/s) = 3.04137 3.63077 3.34906
# Velocity P-wave (km/s) = 6.39104 7.22081 6.81856
#
# Compressibility (1/GPa) = 0.01986577
#
# Stress axis : x y z
#
# Youngs Moduli (GPa) = 104.94417 84.17588 68.48463
#
# Poissons Ratio (x) = 0.20541 0.28124
# Poissons Ratio (y) = 0.25609 0.10447
# Poissons Ratio (z) = 0.43096 0.12841
#
# Static dielectric constant tensor:
#      x y z
#    x 1.647940 0.000000 -0.003740 
#    y 0.000000 1.659920 0.000000 
#    z -0.003740 0.000000 1.604960 
# 
# From -- ./inp_files/302072.got.cif
#   From: 2010.05.17/outbox.cif.g08.bks.cpg/sg12_152_cif.got.tgz:302072.got - 2010.06.03 13:09:07.
