data_PCOD9185553
_publ_section_title
;
Structure prediction by ZEFSAII (Michael W. Deem and Ramdas Pophale) SiO2 
 PCOD9185553
Probable space group: C 2/M
;
_chemical_formula_sum "Si O2"
_cell_formula_units_Z 58
_cell_length_a 26.631646
_cell_length_b 7.596679
_cell_length_c 11.612039
_cell_angle_alpha 90.000000
_cell_angle_beta 90.950381
_cell_angle_gamma 90.000000
_cell_volume 2348.932422
_symmetry_space_group_name_H-M "C 2/M"
_symmetry_group_IT_number 12
_symmetry_cell_setting 'monoclinic'
loop_
_space_group_symop_operation_xyz
x,y,z
-x,y,-z
-x,-y,-z
x,-y,z
1/2+x,1/2+y,z
1/2-x,1/2+y,-z
1/2-x,1/2-y,-z
1/2+x,1/2-y,z
loop_
_atom_site_type_symbol
_atom_site_label
_atom_site_fract_x
_atom_site_fract_y
_atom_site_fract_z
Si Si1 0.184830 0.292023 0.934752
Si Si2 0.777487 0.800632 0.310672
Si Si3 0.565756 0.204026 0.925100
Si Si4 0.000000 0.500000 0.000000
Si Si5 0.876285 0.784804 0.437587
Si Si6 0.526055 0.696640 0.691577
Si Si7 0.184820 0.710680 0.188828
Si Si8 0.586324 0.288492 0.310090
O O1 0.196446 0.500000 0.925003
O O2 0.203179 0.197215 0.821096
O O3 0.124291 0.278981 0.932423
O O4 0.199676 0.222987 0.061639
O O5 0.823112 0.719332 0.384895
O O6 0.722392 0.718524 0.289233
O O7 0.770533 0.000000 0.354055
O O8 0.543565 0.318066 0.824444
O O9 0.547813 0.000000 0.887653
O O10 0.539133 0.168330 0.044557
O O11 0.925321 0.720943 0.368846
O O12 0.886124 0.740072 0.569524
O O13 0.874893 0.000000 0.424964
O O14 0.521302 0.500000 0.640237
O O15 0.470911 0.779908 0.684550
O O16 0.191811 0.500000 0.184462
O O17 0.127007 0.741438 0.215029
O O18 0.581568 0.500000 0.303462
#
# Coordination Sequence:
#
# PCOD9185553 Si02
#       8
#     8   8   8   2   8   8   8   8
#     4  10  20  35  55  81 111 145 183 224 273 327
#     4  10  20  37  60  84 108 142 186 230 277 325
#     4   9  19  32  53  76 108 150 183 209 269 329
#     4   8  20  32  50  76 110 156 182 204 264 344
#     4   9  18  36  59  81 111 142 179 232 282 321
#     4  10  19  34  57  83 107 139 184 231 274 320
#     4  10  23  38  56  81 113 149 182 223 278 331
#     4  10  22  37  56  82 110 147 187 224 274 334
#
# _framework density 24.692067999999999
#
# number of rings (size 3 to 8) (size 9 to 14) (size 15 to 20)
#    0.414    1.931    1.379    0.828    1.931    3.862 
#    0.000    1.724    0.000    1.655    0.000    0.000 
#    0.000    0.000    0.000    0.000    0.000    0.000 
#
# Total GULP energy -161455.913302 kJ/mol
# GULP energy per Si atom -5567.445286 kJ/mol
# Density = 2.463587 g / cm^3
# Si number density = 24.692068 Si / 1000 Ang^3
#
#
#
# Elastic Constant Matrix: (Units=GPa)
#
#
# Indices 1 2 3 4 5 6 
#
# 1 141.9094 5.1619 10.8420 0.0000 32.1850 0.0000
# 2 5.1619 53.1739 2.7681 0.0000 8.3397 0.0000
# 3 10.8420 2.7681 53.4361 0.0000 16.0801 0.0000
# 4 0.0000 0.0000 0.0000 -22.5201 0.0000 16.8869
# 5 32.1850 8.3397 16.0801 0.0000 41.2322 0.0000
# 6 0.0000 0.0000 0.0000 16.8869 0.0000 -0.6928
#
#
#
# Elastic Compliance Matrix: (Units=1/GPa)
#
#
# Indices 1 2 3 4 5 6 
#
# 1 0.008570 0.000227 0.000313 0.000000 -0.006857 0.000000
# 2 0.000227 0.019430 0.000208 0.000000 -0.004188 0.000000
# 3 0.000313 0.000208 0.021216 0.000000 -0.008560 0.000000
# 4 0.000000 0.000000 0.000000 0.002570 0.000000 0.062645
# 5 -0.006857 -0.004188 -0.008560 0.000000 0.033791 0.000000
# 6 0.000000 0.000000 0.000000 0.062645 0.000000 0.083542
#
#
# Mechanical properties :
#
#
# Convention : Reuss Voigt Hill
#
# Bulk Modulus (GPa) = 19.71930 31.78484 25.75207
# Shear Modulus (GPa) = 27.09635 18.92036 23.00835
#
# Velocity S-wave (km/s) = 3.31625 2.77113 3.05587
# Velocity P-wave (km/s) = 4.76097 4.81033 4.78571
#
# Compressibility (1/GPa) = 0.05071174
#
# Stress axis : x y z
#
# Youngs Moduli (GPa) = 116.68829 51.46613 47.13512
#
# Poissons Ratio (x) = -0.01170 -0.01475
# Poissons Ratio (y) = -0.02652 -0.00979
# Poissons Ratio (z) = -0.03652 -0.01069
#
# Static dielectric constant tensor:
#      x y z
#    x 2.065590 0.000000 0.022930 
#    y 0.000000 2.061750 0.000000 
#    z 0.022930 0.000000 1.933790 
# 
# From -- ./inp_files/180983.got.cif
#   From: 2010.05.17/outbox.cif.g08.bks.cpg/sg12_91_cif.got.tgz:180983.got - 2010.06.03 13:09:07.
