data_PCOD9185747
_publ_section_title
;
Structure prediction by ZEFSAII (Michael W. Deem and Ramdas Pophale) SiO2 
 PCOD9185747
Probable space group: C 2/M
;
_chemical_formula_sum "Si O2"
_cell_formula_units_Z 56
_cell_length_a 24.226903
_cell_length_b 14.005002
_cell_length_c 13.945957
_cell_angle_alpha 90.000000
_cell_angle_beta 146.959023
_cell_angle_gamma 90.000000
_cell_volume 2579.978402
_symmetry_space_group_name_H-M "C 2/M"
_symmetry_group_IT_number 12
_symmetry_cell_setting 'monoclinic'
loop_
_space_group_symop_operation_xyz
x,y,z
-x,y,-z
-x,-y,-z
x,-y,z
1/2+x,1/2+y,z
1/2-x,1/2+y,-z
1/2-x,1/2-y,-z
1/2+x,1/2-y,z
loop_
_atom_site_type_symbol
_atom_site_label
_atom_site_fract_x
_atom_site_fract_y
_atom_site_fract_z
Si Si1 0.846968 0.393166 0.763343
Si Si2 0.485397 0.824771 0.123129
Si Si3 0.301158 0.108299 0.350393
Si Si4 0.597145 0.389664 0.572539
Si Si5 0.355253 0.288082 0.548831
Si Si6 0.458876 0.893434 0.298768
Si Si7 0.198832 0.727953 0.825315
O O1 0.835728 0.500000 0.786206
O O2 0.931996 0.394617 0.804869
O O3 0.740138 0.355233 0.569245
O O4 0.893771 0.325073 0.914395
O O5 0.558198 0.733381 0.247267
O O6 0.449706 0.859789 0.174994
O O7 0.303746 0.188159 0.437958
O O8 0.421948 0.101332 0.507861
O O9 0.254903 0.155474 0.186354
O O10 0.265313 0.000000 0.318714
O O11 0.500000 0.385624 0.500000
O O12 0.622530 0.500000 0.594372
O O13 0.586205 0.335404 0.455942
O O14 0.682561 0.328118 0.749140
O O15 0.405006 0.820422 0.290393
O O16 0.415330 0.000000 0.247094
O O17 0.250000 0.750000 0.000000
#
# Coordination Sequence:
#
# PCOD9185747 Si02
#       7
#     8   8   8   8   8   8   8
#     4  11  22  38  62  95 124 153 199 256 308 365
#     4  10  21  37  59  89 124 154 195 252 307 354
#     4   9  19  36  55  79 109 144 189 234 285 343
#     4  10  21  39  57  78 113 157 199 237 284 355
#     4  10  21  38  62  88 121 159 201 244 304 359
#     4  10  19  34  58  80 106 147 188 234 290 348
#     4  11  22  32  50  81 115 144 183 232 287 342
#
# _framework density 21.705607000000001
#
# number of rings (size 3 to 8) (size 9 to 14) (size 15 to 20)
#    0.000    1.857    0.000    6.000    4.000    3.429 
#    0.000    0.000    0.000    0.857    0.000    6.000 
#    0.000    0.000    0.000    0.000    0.000    0.000 
#
# Total GULP energy -156219.629473 kJ/mol
# GULP energy per Si atom -5579.272481 kJ/mol
# Density = 2.165620 g / cm^3
# Si number density = 21.705607 Si / 1000 Ang^3
#
#
#
# Elastic Constant Matrix: (Units=GPa)
#
#
# Indices 1 2 3 4 5 6 
#
# 1 67.7883 8.7466 3.4673 0.0000 -3.4318 0.0000
# 2 8.7466 102.7037 24.6148 0.0000 -3.1948 0.0000
# 3 3.4673 24.6148 69.1682 0.0000 -11.4442 0.0000
# 4 0.0000 0.0000 0.0000 9.3280 0.0000 -2.8916
# 5 -3.4318 -3.1948 -11.4442 0.0000 34.1795 0.0000
# 6 0.0000 0.0000 0.0000 -2.8916 0.0000 -4.4586
#
#
#
# Elastic Compliance Matrix: (Units=1/GPa)
#
#
# Indices 1 2 3 4 5 6 
#
# 1 0.014982 -0.001211 -0.000095 0.000000 0.001359 0.000000
# 2 -0.001211 0.010745 -0.003829 0.000000 -0.000399 0.000000
# 3 -0.000095 -0.003829 0.016689 0.000000 0.005220 0.000000
# 4 0.000000 0.000000 0.000000 0.089260 0.000000 -0.057888
# 5 0.001359 -0.000399 0.005220 0.000000 0.031104 0.000000
# 6 0.000000 0.000000 0.000000 -0.057888 0.000000 -0.186742
#
#
# Mechanical properties :
#
#
# Convention : Reuss Voigt Hill
#
# Bulk Modulus (GPa) = 31.10898 34.81305 32.96101
# Shear Modulus (GPa) = -1679.71709 21.33187 -829.19261
#
# Velocity S-wave (km/s) = -27.84858 3.13834 -19.56648
# Velocity P-wave (km/s) = 31.93265 5.40424 22.25408
#
# Compressibility (1/GPa) = 0.03214506
#
# Stress axis : x y z
#
# Youngs Moduli (GPa) = 66.74807 93.06487 59.92068
#
# Poissons Ratio (x) = 0.11268 0.00571
# Poissons Ratio (y) = 0.08082 0.22945
# Poissons Ratio (z) = 0.00636 0.35637
#
# Static dielectric constant tensor:
#      x y z
#    x 1.833670 0.000000 -0.015740 
#    y 0.000000 1.810100 0.000000 
#    z -0.015740 0.000000 1.825460 
# 
# From -- ./inp_files/246593.got.cif
#   From: 2010.05.17/outbox.cif.g08.bks.cpg/sg12_124_cif.got.tgz:246593.got - 2010.06.03 13:09:07.
