data_PCOD9185086
_publ_section_title
;
Structure prediction by ZEFSAII (Michael W. Deem and Ramdas Pophale) SiO2 
 PCOD9185086
Probable space group: C 2/M
;
_chemical_formula_sum "Si O2"
_cell_formula_units_Z 42
_cell_length_a 29.448733
_cell_length_b 7.436802
_cell_length_c 7.941509
_cell_angle_alpha 90.000000
_cell_angle_beta 80.262934
_cell_angle_gamma 90.000000
_cell_volume 1714.170562
_symmetry_space_group_name_H-M "C 2/M"
_symmetry_group_IT_number 12
_symmetry_cell_setting 'monoclinic'
loop_
_space_group_symop_operation_xyz
x,y,z
-x,y,-z
-x,-y,-z
x,-y,z
1/2+x,1/2+y,z
1/2-x,1/2+y,-z
1/2-x,1/2-y,-z
1/2+x,1/2-y,z
loop_
_atom_site_type_symbol
_atom_site_label
_atom_site_fract_x
_atom_site_fract_y
_atom_site_fract_z
Si Si1 0.738729 0.214651 0.309203
Si Si2 0.566367 0.795630 0.005164
Si Si3 0.167045 0.795065 0.854360
Si Si4 0.500000 0.500000 0.000000
Si Si5 0.144825 0.280593 0.483385
Si Si6 0.951911 0.281076 0.603073
O O1 0.750000 0.250000 0.500000
O O2 0.781257 0.286385 0.171132
O O3 0.685736 0.274781 0.329041
O O4 0.739543 0.000000 0.285013
O O5 0.537286 0.657498 0.914402
O O6 0.553295 0.730833 0.199933
O O7 0.552565 0.000000 0.980243
O O8 0.621742 0.791540 0.960599
O O9 0.156230 0.790500 0.661068
O O10 0.168459 0.000000 0.913285
O O11 0.145740 0.500000 0.492167
O O12 0.094261 0.223150 0.461629
O O13 0.952146 0.500000 0.597437
O O14 0.000000 0.216462 0.500000
#
# Coordination Sequence:
#
# PCOD9185086 Si02
#       6
#     8   8   8   2   8   8
#     4   8  15  28  51  80 115 151 191 245 291 338
#     4  11  24  42  63  87 118 155 195 244 296 349
#     4  10  19  34  55  87 121 152 197 248 292 347
#     4  12  26  44  62  90 120 152 200 244 290 350
#     4   9  17  33  57  84 114 157 204 242 295 350
#     4   9  20  37  57  82 115 152 196 245 293 353
#
# _framework density 24.501646999999998
#
# number of rings (size 3 to 8) (size 9 to 14) (size 15 to 20)
#    0.000    2.476    0.952    0.857    2.667    0.762 
#    1.714    1.429    0.000    0.000    0.000    0.000 
#    0.000    0.000    0.000    0.000    0.000    0.000 
#
# Total GULP energy -117045.283324 kJ/mol
# GULP energy per Si atom -5573.584920 kJ/mol
# Density = 2.444588 g / cm^3
# Si number density = 24.501647 Si / 1000 Ang^3
#
#
#
# Elastic Constant Matrix: (Units=GPa)
#
#
# Indices 1 2 3 4 5 6 
#
# 1 175.5328 3.3634 57.3303 0.0000 -56.6628 0.0000
# 2 3.3634 106.2233 6.1801 0.0000 -9.0012 0.0000
# 3 57.3303 6.1801 70.1437 0.0000 -47.1021 0.0000
# 4 0.0000 0.0000 0.0000 20.1328 0.0000 -17.7170
# 5 -56.6628 -9.0012 -47.1021 0.0000 53.4938 0.0000
# 6 0.0000 0.0000 0.0000 -17.7170 0.0000 9.9619
#
#
#
# Elastic Compliance Matrix: (Units=1/GPa)
#
#
# Indices 1 2 3 4 5 6 
#
# 1 0.008828 0.000483 -0.002261 0.000000 0.007442 0.000000
# 2 0.000483 0.009586 0.000458 0.000000 0.002528 0.000000
# 3 -0.002261 0.000458 0.035495 0.000000 0.028936 0.000000
# 4 0.000000 0.000000 0.000000 -0.087903 0.000000 -0.156332
# 5 0.007442 0.002528 0.028936 0.000000 0.052480 0.000000
# 6 0.000000 0.000000 0.000000 -0.156332 0.000000 -0.177650
#
#
# Mechanical properties :
#
#
# Convention : Reuss Voigt Hill
#
# Bulk Modulus (GPa) = 19.50481 53.96084 36.73282
# Shear Modulus (GPa) = -35.85924 35.71945 -0.06989
#
# Velocity S-wave (km/s) = -3.82978 3.82231 -0.16908
# Velocity P-wave (km/s) = 3.40270 6.44602 3.87123
#
# Compressibility (1/GPa) = 0.05126942
#
# Stress axis : x y z
#
# Youngs Moduli (GPa) = 113.27104 104.31454 28.17338
#
# Poissons Ratio (x) = -0.05034 0.06370
# Poissons Ratio (y) = -0.05467 -0.01292
# Poissons Ratio (z) = 0.25611 -0.04782
#
# Static dielectric constant tensor:
#      x y z
#    x 1.909220 0.000000 -0.187120 
#    y 0.000000 1.916810 0.000000 
#    z -0.187120 0.000000 1.682550 
# 
# From -- ./inp_files/107854.got.cif
#   From: 2010.05.17/outbox.cif.g08.bks.cpg/sg12_54_cif.got.tgz:107854.got - 2010.06.03 13:09:07.
