data_PCOD9185786
_publ_section_title
;
Structure prediction by ZEFSAII (Michael W. Deem and Ramdas Pophale) SiO2 
 PCOD9185786
Probable space group: C 2/M
;
_chemical_formula_sum "Si O2"
_cell_formula_units_Z 64
_cell_length_a 20.710482
_cell_length_b 8.578182
_cell_length_c 20.793339
_cell_angle_alpha 90.000000
_cell_angle_beta 102.252958
_cell_angle_gamma 90.000000
_cell_volume 3609.957680
_symmetry_space_group_name_H-M "C 2/M"
_symmetry_group_IT_number 12
_symmetry_cell_setting 'monoclinic'
loop_
_space_group_symop_operation_xyz
x,y,z
-x,y,-z
-x,-y,-z
x,-y,z
1/2+x,1/2+y,z
1/2-x,1/2+y,-z
1/2-x,1/2-y,-z
1/2+x,1/2-y,z
loop_
_atom_site_type_symbol
_atom_site_label
_atom_site_fract_x
_atom_site_fract_y
_atom_site_fract_z
Si Si1 0.480588 0.813596 0.814859
Si Si2 0.351447 0.314589 0.847106
Si Si3 0.121598 0.811820 0.824439
Si Si4 0.362694 0.310085 0.320793
Si Si5 0.009007 0.188222 0.574907
Si Si6 0.746319 0.812958 0.071174
Si Si7 0.583125 0.812489 0.335532
Si Si8 0.785562 0.688666 0.703248
O O1 0.425927 0.744141 0.851012
O O2 0.554605 0.754670 0.840219
O O3 0.457638 0.767071 0.737497
O O4 0.477639 0.000000 0.817691
O O5 0.350165 0.500000 0.846730
O O6 0.316646 0.250399 0.903394
O O7 0.309579 0.251349 0.777243
O O8 0.126174 0.761382 0.750780
O O9 0.187579 0.764450 0.876007
O O10 0.118273 0.000000 0.824434
O O11 0.363515 0.500000 0.321437
O O12 0.422373 0.256205 0.378436
O O13 0.289212 0.261286 0.326149
O O14 0.000000 0.243332 0.500000
O O15 0.950182 0.239776 0.609327
O O16 0.010678 0.000000 0.574330
O O17 0.744042 0.000000 0.070439
O O18 0.750000 0.750000 0.000000
O O19 0.658722 0.765741 0.336636
O O20 0.580490 0.000000 0.340019
O O21 0.786643 0.500000 0.707903
#
# Coordination Sequence:
#
# PCOD9185786 Si02
#       8
#     8   8   8   8   8   8   8   8
#     4  10  20  34  55  83 113 142 180 229 275 320
#     4  11  21  34  55  83 113 145 182 224 273 325
#     4  10  19  34  58  83 108 143 183 224 270 323
#     4   9  16  31  54  77 104 139 179 221 266 316
#     4  10  20  33  51  75 105 142 181 220 266 323
#     4  11  23  40  59  82 114 148 183 222 273 330
#     4   9  18  31  50  75 103 137 175 219 271 322
#     4   9  17  33  54  77 104 139 181 224 273 323
#
# _framework density 17.728739999999998
#
# number of rings (size 3 to 8) (size 9 to 14) (size 15 to 20)
#    0.000    2.125    2.500    2.625    0.000    3.250 
#    0.000    1.875    0.000    3.750    0.000    0.000 
#    0.000    0.000    0.000    0.000    0.000    0.000 
#
# Total GULP energy -178573.300628 kJ/mol
# GULP energy per Si atom -5580.415645 kJ/mol
# Density = 1.768839 g / cm^3
# Si number density = 17.728740 Si / 1000 Ang^3
#
#
#
# Elastic Constant Matrix: (Units=GPa)
#
#
# Indices 1 2 3 4 5 6 
#
# 1 144.1846 29.1736 52.5108 0.0000 -16.8637 0.0000
# 2 29.1736 25.2687 23.6195 0.0000 -4.7353 0.0000
# 3 52.5108 23.6195 85.2166 0.0000 -12.7546 0.0000
# 4 0.0000 0.0000 0.0000 20.9763 0.0000 -5.1349
# 5 -16.8637 -4.7353 -12.7546 0.0000 27.6525 0.0000
# 6 0.0000 0.0000 0.0000 -5.1349 0.0000 27.1584
#
#
#
# Elastic Compliance Matrix: (Units=1/GPa)
#
#
# Indices 1 2 3 4 5 6 
#
# 1 0.010217 -0.007772 -0.003661 0.000000 0.003211 0.000000
# 2 -0.007772 0.059485 -0.011690 0.000000 0.000055 0.000000
# 3 -0.003661 -0.011690 0.017828 0.000000 0.003989 0.000000
# 4 0.000000 0.000000 0.000000 0.049986 0.000000 0.009451
# 5 0.003211 0.000055 0.003989 0.000000 0.039971 0.000000
# 6 0.000000 0.000000 0.000000 0.009451 0.000000 0.038608
#
#
# Mechanical properties :
#
#
# Convention : Reuss Voigt Hill
#
# Bulk Modulus (GPa) = 24.22263 51.69752 37.96008
# Shear Modulus (GPa) = 18.10922 25.11515 21.61218
#
# Velocity S-wave (km/s) = 3.19950 3.76790 3.49527
# Velocity P-wave (km/s) = 5.22892 6.93924 6.14389
#
# Compressibility (1/GPa) = 0.04128370
#
# Stress axis : x y z
#
# Youngs Moduli (GPa) = 97.87616 16.81090 56.09216
#
# Poissons Ratio (x) = 0.13066 0.20535
# Poissons Ratio (y) = 0.76071 0.65572
# Poissons Ratio (z) = 0.35832 0.19652
#
# Static dielectric constant tensor:
#      x y z
#    x 1.611710 0.000000 0.005470 
#    y 0.000000 1.599430 0.000000 
#    z 0.005470 0.000000 1.581710 
# 
# From -- ./inp_files/319220.got.cif
#   From: 2010.05.17/outbox.cif.g08.bks.cpg/sg12_160_cif.got.tgz:319220.got - 2010.06.03 13:09:07.
