data_PCOD9185085
_publ_section_title
;
Structure prediction by ZEFSAII (Michael W. Deem and Ramdas Pophale) SiO2 
 PCOD9185085
Probable space group: C 2/M
;
_chemical_formula_sum "Si O2"
_cell_formula_units_Z 40
_cell_length_a 8.292732
_cell_length_b 18.594216
_cell_length_c 19.439681
_cell_angle_alpha 90.000000
_cell_angle_beta 43.697067
_cell_angle_gamma 90.000000
_cell_volume 2070.835049
_symmetry_space_group_name_H-M "C 2/M"
_symmetry_group_IT_number 12
_symmetry_cell_setting 'monoclinic'
loop_
_space_group_symop_operation_xyz
x,y,z
-x,y,-z
-x,-y,-z
x,-y,z
1/2+x,1/2+y,z
1/2-x,1/2+y,-z
1/2-x,1/2-y,-z
1/2+x,1/2-y,z
loop_
_atom_site_type_symbol
_atom_site_label
_atom_site_fract_x
_atom_site_fract_y
_atom_site_fract_z
Si Si1 0.097177 0.192749 0.759210
Si Si2 0.225480 0.582491 0.563044
Si Si3 0.666082 0.150889 0.720315
Si Si4 0.132892 0.084602 0.628532
Si Si5 0.698272 0.297478 0.882332
O O1 0.171175 0.130582 0.684917
O O2 0.831671 0.221391 0.828488
O O3 0.244754 0.265598 0.698240
O O4 0.107528 0.176792 0.836643
O O5 0.500000 0.581624 0.500000
O O6 0.141926 0.500000 0.592726
O O7 0.114963 0.630186 0.656796
O O8 0.221875 0.606293 0.484746
O O9 0.863420 0.100179 0.689988
O O10 0.418014 0.152476 0.835605
O O11 0.169256 0.000000 0.627572
O O12 0.500000 0.292941 0.000000
#
# Coordination Sequence:
#
# PCOD9185085 Si02
#       5
#     8   8   8   8   8
#     4  10  19  34  55  86 105 140 182 231 267 313
#     4   8  15  29  52  78 110 149 178 207 263 328
#     4   9  17  32  54  84 104 143 183 225 256 317
#     4  10  19  35  57  82 115 148 177 213 269 329
#     4  10  20  35  58  79 104 140 184 230 278 320
#
# _framework density 19.31588
#
# number of rings (size 3 to 8) (size 9 to 14) (size 15 to 20)
#    1.200    1.400    2.000    2.400    0.000    0.800 
#    0.000    3.000    0.000   12.000    0.000    0.000 
#    0.000    0.000    0.000    0.000    0.000    0.000 
#
# Total GULP energy -111352.981769 kJ/mol
# GULP energy per Si atom -5567.649088 kJ/mol
# Density = 1.927192 g / cm^3
# Si number density = 19.315880 Si / 1000 Ang^3
#
#
#
# Elastic Constant Matrix: (Units=GPa)
#
#
# Indices 1 2 3 4 5 6 
#
# 1 64.6366 11.2074 18.4968 -0.0004 17.8659 0.0004
# 2 11.2074 45.3105 40.8302 -0.0001 9.3577 0.0002
# 3 18.4968 40.8302 93.1475 0.0002 5.5375 0.0004
# 4 -0.0004 -0.0001 0.0002 -38.5951 0.0008 -14.0333
# 5 17.8659 9.3577 5.5375 0.0008 35.7704 0.0000
# 6 0.0004 0.0002 0.0004 -14.0333 0.0000 13.9112
#
#
#
# Elastic Compliance Matrix: (Units=1/GPa)
#
#
# Indices 1 2 3 4 5 6 
#
# 1 0.018857 0.000130 -0.003269 0.000000 -0.008946 -0.000001
# 2 0.000130 0.038377 -0.016398 0.000000 -0.007566 0.000000
# 3 -0.003269 -0.016398 0.018390 0.000000 0.003076 0.000000
# 4 0.000000 0.000000 0.000000 -0.018957 0.000001 -0.019123
# 5 -0.008946 -0.007566 0.003076 0.000001 0.033927 0.000001
# 6 -0.000001 0.000000 0.000000 -0.019123 0.000001 0.052593
#
#
# Mechanical properties :
#
#
# Convention : Reuss Voigt Hill
#
# Bulk Modulus (GPa) = 27.36133 38.24037 32.80085
# Shear Modulus (GPa) = 25.71398 11.05466 18.38432
#
# Velocity S-wave (km/s) = 3.65257 2.39489 3.08843
# Velocity P-wave (km/s) = 5.65547 5.24287 5.45307
#
# Compressibility (1/GPa) = 0.03654792
#
# Stress axis : x y z
#
# Youngs Moduli (GPa) = 53.03069 26.05724 54.37741
#
# Poissons Ratio (x) = -0.00338 0.17779
# Poissons Ratio (y) = -0.00687 0.89169
# Poissons Ratio (z) = 0.17338 0.42729
#
# Static dielectric constant tensor:
#      x y z
#    x 1.785640 0.000000 -0.008130 
#    y 0.000000 1.666860 0.000000 
#    z -0.008130 0.000000 1.642370 
# 
# From -- ./inp_files/256392.got.cif
#   From: 2010.05.17/outbox.cif.g08.bks.cpg/sg12_129_cif.got.tgz:256392.got - 2010.06.03 13:09:07.
