data_PCOD9185299
_publ_section_title
;
Structure prediction by ZEFSAII (Michael W. Deem and Ramdas Pophale) SiO2 
 PCOD9185299
Probable space group: C 2/M
;
_chemical_formula_sum "Si O2"
_cell_formula_units_Z 48
_cell_length_a 29.654526
_cell_length_b 10.505268
_cell_length_c 27.691125
_cell_angle_alpha 90.000000
_cell_angle_beta 17.525050
_cell_angle_gamma 90.000000
_cell_volume 2597.659822
_symmetry_space_group_name_H-M "C 2/M"
_symmetry_group_IT_number 12
_symmetry_cell_setting 'monoclinic'
loop_
_space_group_symop_operation_xyz
x,y,z
-x,y,-z
-x,-y,-z
x,-y,z
1/2+x,1/2+y,z
1/2-x,1/2+y,-z
1/2-x,1/2-y,-z
1/2+x,1/2-y,z
loop_
_atom_site_type_symbol
_atom_site_label
_atom_site_fract_x
_atom_site_fract_y
_atom_site_fract_z
Si Si1 0.195401 0.847395 0.692916
Si Si2 0.722441 0.137945 0.584931
Si Si3 0.506512 0.274314 0.242201
Si Si4 0.836217 0.345394 0.650553
Si Si5 0.718729 0.147518 0.102551
Si Si6 0.651155 0.653935 0.930497
O O1 0.235463 0.757501 0.607485
O O2 0.293968 0.813649 0.639055
O O3 0.208856 0.000000 0.669138
O O4 0.022683 0.819107 0.883042
O O5 0.573048 0.160877 0.706094
O O6 0.866678 0.143415 0.402947
O O7 0.716217 0.000000 0.615604
O O8 0.599520 0.225155 0.193146
O O9 0.623617 0.342606 0.087179
O O10 0.835033 0.500000 0.652961
O O11 0.715654 0.301547 0.813492
O O12 0.000000 0.303001 0.500000
O O13 0.750212 0.196913 0.124417
O O14 0.672415 0.000000 0.152416
O O15 0.661717 0.500000 0.919853
#
# Coordination Sequence:
#
# PCOD9185299 Si02
#       6
#     8   8   8   8   8   8
#     4  10  20  35  57  83 112 147 186 228 278 336
#     4  11  23  38  56  82 118 154 189 230 279 334
#     4  10  22  36  54  79 110 154 192 229 275 332
#     4   9  18  31  52  84 113 137 177 235 287 328
#     4  10  19  34  56  83 111 141 185 236 282 329
#     4   9  17  31  53  81 111 140 175 226 282 329
#
# _framework density 18.478169999999999
#
# number of rings (size 3 to 8) (size 9 to 14) (size 15 to 20)
#    0.000    2.167    1.667    1.500    2.333    5.333 
#    0.000    0.000    0.000    2.500    0.000    0.000 
#    0.000    0.000    0.000    0.000    0.000    0.000 
#
# Total GULP energy -133842.358248 kJ/mol
# GULP energy per Si atom -5576.764927 kJ/mol
# Density = 1.843611 g / cm^3
# Si number density = 18.478170 Si / 1000 Ang^3
#
#
#
# Elastic Constant Matrix: (Units=GPa)
#
#
# Indices 1 2 3 4 5 6 
#
# 1 101.6530 20.8244 11.7751 -0.0007 -9.6563 0.0001
# 2 20.8244 51.8537 8.1529 -0.0033 4.2538 0.0014
# 3 11.7751 8.1529 44.3010 -0.0020 0.6417 0.0010
# 4 -0.0007 -0.0033 -0.0020 4.0917 0.0006 4.9468
# 5 -9.6563 4.2538 0.6417 0.0006 23.6423 -0.0001
# 6 0.0001 0.0014 0.0010 4.9468 -0.0001 13.6473
#
#
#
# Elastic Compliance Matrix: (Units=1/GPa)
#
#
# Indices 1 2 3 4 5 6 
#
# 1 0.011618 -0.004770 -0.002292 -0.000008 0.005666 0.000004
# 2 -0.004770 0.022108 -0.002716 0.000033 -0.005852 -0.000014
# 3 -0.002292 -0.002716 0.023698 0.000020 -0.001091 -0.000009
# 4 -0.000008 0.000033 0.000020 0.435047 -0.000021 -0.157695
# 5 0.005666 -0.005852 -0.001091 -0.000021 0.045694 0.000009
# 6 0.000004 -0.000014 -0.000009 -0.157695 0.000009 0.130436
#
#
# Mechanical properties :
#
#
# Convention : Reuss Voigt Hill
#
# Bulk Modulus (GPa) = 26.40821 31.03473 28.72147
# Shear Modulus (GPa) = 7.13490 18.74660 12.94075
#
# Velocity S-wave (km/s) = 1.96714 3.18862 2.64924
# Velocity P-wave (km/s) = 4.41386 5.51255 4.99351
#
# Compressibility (1/GPa) = 0.03786701
#
# Stress axis : x y z
#
# Youngs Moduli (GPa) = 86.07058 45.23270 42.19804
#
# Poissons Ratio (x) = 0.21577 0.09673
# Poissons Ratio (y) = 0.41058 0.11461
# Poissons Ratio (z) = 0.19730 0.12285
#
# Static dielectric constant tensor:
#      x y z
#    x 1.648300 0.000000 0.003490 
#    y 0.000000 1.623540 0.000000 
#    z 0.003490 0.000000 1.650550 
# 
# From -- ./inp_files/109348.got.cif
#   From: 2010.05.17/outbox.cif.g08.bks.cpg/sg12_55_cif.got.tgz:109348.got - 2010.06.03 13:09:07.
