data_PCOD9185886
_publ_section_title
;
Structure prediction by ZEFSAII (Michael W. Deem and Ramdas Pophale) SiO2 
 PCOD9185886
Probable space group: C 2/M
;
_chemical_formula_sum "Si O2"
_cell_formula_units_Z 64
_cell_length_a 33.425050
_cell_length_b 7.732072
_cell_length_c 15.441976
_cell_angle_alpha 90.000000
_cell_angle_beta 132.495277
_cell_angle_gamma 90.000000
_cell_volume 2942.622248
_symmetry_space_group_name_H-M "C 2/M"
_symmetry_group_IT_number 12
_symmetry_cell_setting 'monoclinic'
loop_
_space_group_symop_operation_xyz
x,y,z
-x,y,-z
-x,-y,-z
x,-y,z
1/2+x,1/2+y,z
1/2-x,1/2+y,-z
1/2-x,1/2-y,-z
1/2+x,1/2-y,z
loop_
_atom_site_type_symbol
_atom_site_label
_atom_site_fract_x
_atom_site_fract_y
_atom_site_fract_z
Si Si1 0.578537 0.208677 0.762792
Si Si2 0.125968 0.794583 0.018051
Si Si3 0.360727 0.787694 0.317274
Si Si4 0.893145 0.709418 0.658205
Si Si5 0.272585 0.303143 0.439842
Si Si6 0.254625 0.698286 0.785875
Si Si7 0.061022 0.705019 0.094606
Si Si8 0.957079 0.710104 0.585813
O O1 0.621024 0.265398 0.751886
O O2 0.517521 0.271219 0.653079
O O3 0.577025 0.000000 0.756881
O O4 0.596010 0.258612 0.884450
O O5 0.187416 0.722144 0.105328
O O6 0.092967 0.727123 0.052266
O O7 0.129901 0.000000 0.036319
O O8 0.301329 0.724644 0.258938
O O9 0.408602 0.731373 0.452433
O O10 0.359715 0.000000 0.320192
O O11 0.886679 0.500000 0.648784
O O12 0.837146 0.783186 0.540559
O O13 0.906793 0.772335 0.774492
O O14 0.940744 0.752473 0.660423
O O15 0.256793 0.500000 0.400394
O O16 0.250000 0.250000 0.500000
O O17 0.250691 0.199056 0.325969
O O18 0.255697 0.500000 0.818713
O O19 0.055638 0.500000 0.103225
O O20 0.000000 0.777198 0.000000
O O21 0.957885 0.500000 0.580520
#
# Coordination Sequence:
#
# PCOD9185886 Si02
#       8
#     8   8   8   8   8   8   8   8
#     4  10  20  35  60  90 114 148 198 245 286 336
#     4  11  24  39  56  81 117 160 196 234 290 349
#     4   9  17  33  61  90 115 146 192 246 290 330
#     4  10  19  34  58  85 115 149 183 231 289 339
#     4  12  24  37  56  83 113 147 188 232 284 341
#     4  10  21  40  61  82 114 154 195 237 285 341
#     4  10  21  38  61  87 113 148 197 244 284 333
#     4   9  16  31  59  91 118 145 187 239 289 340
#
# _framework density 21.749310000000001
#
# number of rings (size 3 to 8) (size 9 to 14) (size 15 to 20)
#    0.000    1.875    1.250    3.375    0.000    7.750 
#    0.000    2.500    0.000    0.750    0.000    0.000 
#    0.000    0.000    0.000    0.000    0.000    0.000 
#
# Total GULP energy -178810.893069 kJ/mol
# GULP energy per Si atom -5587.840408 kJ/mol
# Density = 2.169981 g / cm^3
# Si number density = 21.749310 Si / 1000 Ang^3
#
#
#
# Elastic Constant Matrix: (Units=GPa)
#
#
# Indices 1 2 3 4 5 6 
#
# 1 93.1057 -12.3973 16.4691 0.0000 15.2299 0.0000
# 2 -12.3973 33.6253 -9.9260 0.0001 4.8510 0.0003
# 3 16.4691 -9.9260 82.4826 0.0000 12.7059 0.0000
# 4 0.0000 0.0001 0.0000 -22.4580 0.0000 -91.3093
# 5 15.2299 4.8510 12.7059 0.0000 42.6317 0.0000
# 6 0.0000 0.0003 0.0000 -91.3093 0.0000 -244.2018
#
#
#
# Elastic Compliance Matrix: (Units=1/GPa)
#
#
# Indices 1 2 3 4 5 6 
#
# 1 0.012352 0.004876 -0.001168 0.000000 -0.004619 0.000000
# 2 0.004876 0.033741 0.004137 0.000000 -0.006814 0.000000
# 3 -0.001168 0.004137 0.013482 0.000000 -0.004072 0.000000
# 4 0.000000 0.000000 0.000000 0.085591 0.000000 -0.032003
# 5 -0.004619 -0.006814 -0.004072 0.000000 0.027096 0.000000
# 6 0.000000 0.000000 0.000000 -0.032003 0.000000 0.007871
#
#
# Mechanical properties :
#
#
# Convention : Reuss Voigt Hill
#
# Bulk Modulus (GPa) = 13.28661 21.94502 17.61582
# Shear Modulus (GPa) = 26.38065 -30.46777 -2.04356
#
# Velocity S-wave (km/s) = 3.48651 -3.74687 -0.97038
# Velocity P-wave (km/s) = 4.72545 2.93374 2.61946
#
# Compressibility (1/GPa) = 0.07526372
#
# Stress axis : x y z
#
# Youngs Moduli (GPa) = 80.95921 29.63729 74.17310
#
# Poissons Ratio (x) = -0.14450 0.08663
# Poissons Ratio (y) = -0.39473 -0.30682
# Poissons Ratio (z) = 0.09456 -0.12260
#
# Static dielectric constant tensor:
#      x y z
#    x 1.784970 0.000000 0.018510 
#    y 0.000000 1.829310 0.000000 
#    z 0.018510 0.000000 1.776980 
# 
# From -- ./inp_files/250017.got.cif
#   From: 2010.05.17/outbox.cif.g08.bks.cpg/sg12_126_cif.got.tgz:250017.got - 2010.06.03 13:09:07.
