data_PCOD9185267
_publ_section_title
;
Structure prediction by ZEFSAII (Michael W. Deem and Ramdas Pophale) SiO2 
 PCOD9185267
Probable space group: C 2/M
;
_chemical_formula_sum "Si O2"
_cell_formula_units_Z 64
_cell_length_a 20.476678
_cell_length_b 8.994580
_cell_length_c 22.480248
_cell_angle_alpha 90.000000
_cell_angle_beta 63.034893
_cell_angle_gamma 90.000000
_cell_volume 3690.260563
_symmetry_space_group_name_H-M "C 2/M"
_symmetry_group_IT_number 12
_symmetry_cell_setting 'monoclinic'
loop_
_space_group_symop_operation_xyz
x,y,z
-x,y,-z
-x,-y,-z
x,-y,z
1/2+x,1/2+y,z
1/2-x,1/2+y,-z
1/2-x,1/2-y,-z
1/2+x,1/2-y,z
loop_
_atom_site_type_symbol
_atom_site_label
_atom_site_fract_x
_atom_site_fract_y
_atom_site_fract_z
Si Si1 0.244924 0.177059 0.170480
Si Si2 0.017665 0.321180 0.424278
Si Si3 0.170742 0.177192 0.326443
Si Si4 0.898315 0.823568 0.095210
Si Si5 0.061428 0.823511 0.060159
Si Si6 0.138394 0.322573 0.560342
Si Si7 0.692909 0.822632 0.069999
Si Si8 0.253660 0.176657 0.594403
O O1 0.199688 0.211798 0.248620
O O2 0.328616 0.230284 0.143684
O O3 0.212581 0.261433 0.126828
O O4 0.242790 0.000000 0.160876
O O5 0.027802 0.500000 0.418832
O O6 0.090738 0.244020 0.371539
O O7 0.000000 0.280949 0.500000
O O8 0.946014 0.283667 0.415269
O O9 0.224503 0.245481 0.353677
O O10 0.168743 0.000000 0.334129
O O11 0.975157 0.786180 0.095326
O O12 0.884921 0.000000 0.109141
O O13 0.911156 0.800967 0.019141
O O14 0.112621 0.729965 0.082288
O O15 0.069042 0.000000 0.069623
O O16 0.144049 0.500000 0.567850
O O17 0.179314 0.237203 0.595913
O O18 0.182997 0.290658 0.480889
O O19 0.699842 0.000000 0.065284
O O20 0.750000 0.750000 0.000000
O O21 0.250794 0.000000 0.603456
#
# Coordination Sequence:
#
# PCOD9185267 Si02
#       8
#     8   8   8   8   8   8   8   8
#     4  11  24  40  57  81 116 154 193 238 284 339
#     4  10  19  36  59  85 115 148 189 237 288 339
#     4  11  24  39  56  82 116 153 193 237 287 340
#     4   9  18  34  58  85 113 146 183 229 283 336
#     4   9  18  34  57  87 117 142 180 233 284 332
#     4   9  18  33  55  84 115 142 179 234 284 328
#     4  12  23  36  58  87 116 150 192 236 285 339
#     4  10  19  34  56  82 112 146 186 229 279 339
#
# _framework density 17.342948
#
# number of rings (size 3 to 8) (size 9 to 14) (size 15 to 20)
#    0.000    1.875    2.500    3.000    0.000    3.750 
#    0.000    2.500    0.000    0.000    0.000    0.000 
#    0.000    0.000    0.000    0.000    0.000    0.000 
#
# Total GULP energy -178693.193275 kJ/mol
# GULP energy per Si atom -5584.162290 kJ/mol
# Density = 1.730348 g / cm^3
# Si number density = 17.342948 Si / 1000 Ang^3
#
#
#
# Elastic Constant Matrix: (Units=GPa)
#
#
# Indices 1 2 3 4 5 6 
#
# 1 153.0290 79.5204 83.1019 0.0000 5.0106 0.0001
# 2 79.5204 80.8080 73.6774 0.0000 4.3570 0.0000
# 3 83.1019 73.6774 107.7073 0.0000 2.7857 0.0000
# 4 0.0000 0.0000 0.0000 24.5064 0.0000 -0.9330
# 5 5.0106 4.3570 2.7857 0.0000 22.6008 0.0000
# 6 0.0001 0.0000 0.0000 -0.9330 0.0000 36.5218
#
#
#
# Elastic Compliance Matrix: (Units=1/GPa)
#
#
# Indices 1 2 3 4 5 6 
#
# 1 0.013897 -0.010311 -0.003653 0.000000 -0.000643 0.000000
# 2 -0.010311 0.040826 -0.019891 0.000000 -0.003133 0.000000
# 3 -0.003653 -0.019891 0.025671 0.000000 0.001480 0.000000
# 4 0.000000 0.000000 0.000000 0.040845 0.000000 0.001044
# 5 -0.000643 -0.003133 0.001480 0.000000 0.044810 0.000000
# 6 0.000000 0.000000 0.000000 0.001044 0.000000 0.027408
#
#
# Mechanical properties :
#
#
# Convention : Reuss Voigt Hill
#
# Bulk Modulus (GPa) = 78.83046 90.46041 84.64543
# Shear Modulus (GPa) = 18.83988 23.74210 21.29099
#
# Velocity S-wave (km/s) = 3.29950 3.70398 3.50758
# Velocity P-wave (km/s) = 7.75037 8.40034 8.08189
#
# Compressibility (1/GPa) = 0.01268545
#
# Stress axis : x y z
#
# Youngs Moduli (GPa) = 71.95636 24.49421 38.95474
#
# Poissons Ratio (x) = 0.25255 0.14229
# Poissons Ratio (y) = 0.74192 0.77484
# Poissons Ratio (z) = 0.26284 0.48721
#
# Static dielectric constant tensor:
#      x y z
#    x 1.588650 0.000000 -0.003780 
#    y 0.000000 1.575730 0.000000 
#    z -0.003780 0.000000 1.563730 
# 
# From -- ./inp_files/319818.got.cif
#   From: 2010.05.17/outbox.cif.g08.bks.cpg/sg12_160_cif.got.tgz:319818.got - 2010.06.03 13:09:07.
