data_PCOD9185873
_publ_section_title
;
Structure prediction by ZEFSAII (Michael W. Deem and Ramdas Pophale) SiO2 
 PCOD9185873
Probable space group: C 2/M
;
_chemical_formula_sum "Si O2"
_cell_formula_units_Z 64
_cell_length_a 25.424447
_cell_length_b 8.811804
_cell_length_c 15.538001
_cell_angle_alpha 90.000000
_cell_angle_beta 89.844830
_cell_angle_gamma 90.000000
_cell_volume 3481.047076
_symmetry_space_group_name_H-M "C 2/M"
_symmetry_group_IT_number 12
_symmetry_cell_setting 'monoclinic'
loop_
_space_group_symop_operation_xyz
x,y,z
-x,y,-z
-x,-y,-z
x,-y,z
1/2+x,1/2+y,z
1/2-x,1/2+y,-z
1/2-x,1/2-y,-z
1/2+x,1/2-y,z
loop_
_atom_site_type_symbol
_atom_site_label
_atom_site_fract_x
_atom_site_fract_y
_atom_site_fract_z
Si Si1 0.690946 0.169036 0.588402
Si Si2 0.442979 0.823460 0.819011
Si Si3 0.437111 0.331652 0.992060
Si Si4 0.335724 0.320525 0.236912
Si Si5 0.745584 0.817063 0.097417
Si Si6 0.184586 0.829378 0.419835
Si Si7 0.564720 0.179758 0.831167
Si Si8 0.838445 0.180262 0.770984
O O1 0.687056 0.279243 0.669856
O O2 0.752899 0.155194 0.570058
O O3 0.665231 0.233281 0.501279
O O4 0.671226 0.000000 0.609943
O O5 0.504400 0.781491 0.806820
O O6 0.400158 0.718289 0.774861
O O7 0.436083 0.000000 0.797345
O O8 0.429543 0.792612 0.919133
O O9 0.415723 0.500000 0.971011
O O10 0.419090 0.271187 0.083338
O O11 0.500000 0.345562 0.000000
O O12 0.344959 0.500000 0.229120
O O13 0.295393 0.276595 0.159676
O O14 0.390351 0.229462 0.233616
O O15 0.694863 0.757641 0.151857
O O16 0.743346 0.000000 0.091174
O O17 0.750000 0.750000 0.000000
O O18 0.177792 0.764470 0.324046
O O19 0.161609 0.000000 0.421666
O O20 0.565064 0.000000 0.847877
O O21 0.828667 0.000000 0.776326
#
# Coordination Sequence:
#
# PCOD9185873 Si02
#       8
#     8   8   8   8   8   8   8   8
#     4  10  19  34  58  85 113 144 181 229 280 332
#     4  10  21  36  54  79 109 145 189 235 281 330
#     4   9  17  31  51  74 101 136 183 233 276 320
#     4  11  23  38  58  83 114 150 190 233 280 337
#     4  11  25  41  57  80 115 157 195 232 279 335
#     4   9  19  35  56  84 114 144 180 226 278 334
#     4  10  21  36  55  78 108 146 189 235 282 330
#     4  11  22  38  60  84 115 151 189 232 279 336
#
# _framework density 18.385273999999999
#
# number of rings (size 3 to 8) (size 9 to 14) (size 15 to 20)
#    0.000    1.875    1.250    2.625    1.750    6.000 
#    0.000    0.000    0.000    0.750    0.000    5.250 
#    0.000    0.000    0.000    0.000    0.000    0.000 
#
# Total GULP energy -178287.262284 kJ/mol
# GULP energy per Si atom -5571.476946 kJ/mol
# Density = 1.834343 g / cm^3
# Si number density = 18.385274 Si / 1000 Ang^3
#
#
#
# Elastic Constant Matrix: (Units=GPa)
#
#
# Indices 1 2 3 4 5 6 
#
# 1 66.8367 23.1345 22.3240 0.0000 -2.3450 0.0000
# 2 23.1345 50.0638 27.6053 0.0000 -1.3509 0.0000
# 3 22.3240 27.6053 102.5421 0.0000 7.2300 0.0000
# 4 0.0000 0.0000 0.0000 25.3594 0.0000 -3.3934
# 5 -2.3450 -1.3509 7.2300 0.0000 12.4552 0.0000
# 6 0.0000 0.0000 0.0000 -3.3934 0.0000 23.0817
#
#
#
# Elastic Compliance Matrix: (Units=1/GPa)
#
#
# Indices 1 2 3 4 5 6 
#
# 1 0.018341 -0.007053 -0.002381 0.000000 0.004071 0.000000
# 2 -0.007053 0.026680 -0.006003 0.000000 0.005051 0.000000
# 3 -0.002381 -0.006003 0.012475 0.000000 -0.008341 0.000000
# 4 0.000000 0.000000 0.000000 0.040224 0.000000 0.005914
# 5 0.004071 0.005051 -0.008341 0.000000 0.086444 0.000000
# 6 0.000000 0.000000 0.000000 0.005914 0.000000 0.044194
#
#
# Mechanical properties :
#
#
# Convention : Reuss Voigt Hill
#
# Bulk Modulus (GPa) = 37.56346 40.61890 39.09118
# Shear Modulus (GPa) = 18.64933 21.93785 20.29359
#
# Velocity S-wave (km/s) = 3.18836 3.45806 3.32595
# Velocity P-wave (km/s) = 5.83351 6.17134 6.00480
#
# Compressibility (1/GPa) = 0.02662162
#
# Stress axis : x y z
#
# Youngs Moduli (GPa) = 54.52213 37.48128 80.16185
#
# Poissons Ratio (x) = 0.26434 0.19090
# Poissons Ratio (y) = 0.38452 0.48123
# Poissons Ratio (z) = 0.12984 0.22501
#
# Static dielectric constant tensor:
#      x y z
#    x 1.647630 0.000000 0.015490 
#    y 0.000000 1.647980 0.000000 
#    z 0.015490 0.000000 1.657300 
# 
# From -- ./inp_files/238638.got.cif
#   From: 2010.05.17/outbox.cif.g08.bks.cpg/sg12_120_cif.got.tgz:238638.got - 2010.06.03 13:09:07.
