data_PCOD9186951
_publ_section_title
;
Structure prediction by ZEFSAII (Michael W. Deem and Ramdas Pophale) SiO2 
 PCOD9186951
Probable space group: C 2/M
;
_chemical_formula_sum "Si O2"
_cell_formula_units_Z 48
_cell_length_a 20.919066
_cell_length_b 8.854382
_cell_length_c 19.862145
_cell_angle_alpha 90.000000
_cell_angle_beta 130.871926
_cell_angle_gamma 90.000000
_cell_volume 2781.945022
_symmetry_space_group_name_H-M "C 2/M"
_symmetry_group_IT_number 12
_symmetry_cell_setting 'monoclinic'
loop_
_space_group_symop_operation_xyz
x,y,z
-x,y,-z
-x,-y,-z
x,-y,z
1/2+x,1/2+y,z
1/2-x,1/2+y,-z
1/2-x,1/2-y,-z
1/2+x,1/2-y,z
loop_
_atom_site_type_symbol
_atom_site_label
_atom_site_fract_x
_atom_site_fract_y
_atom_site_fract_z
Si Si1 0.720395 0.318538 0.766607
Si Si2 0.097835 0.317458 0.574755
Si Si3 0.524282 0.181630 0.940122
Si Si4 0.281761 0.818243 0.952636
Si Si5 0.362951 0.319405 0.770669
Si Si6 0.760121 0.680885 0.433626
O O1 0.719561 0.500000 0.762285
O O2 0.642019 0.251638 0.671120
O O3 0.727618 0.272744 0.849629
O O4 0.804050 0.257987 0.786487
O O5 0.102438 0.500000 0.582741
O O6 0.156220 0.272071 0.551035
O O7 0.000000 0.273936 0.500000
O O8 0.457239 0.259956 0.845047
O O9 0.516663 0.000000 0.928706
O O10 0.500000 0.221921 0.000000
O O11 0.620678 0.224883 0.992617
O O12 0.278706 0.000000 0.954226
O O13 0.250000 0.750000 0.000000
O O14 0.359105 0.500000 0.776184
O O15 0.319043 0.281078 0.669327
O O16 0.763561 0.500000 0.442326
O O17 0.750000 0.750000 0.500000
#
# Coordination Sequence:
#
# PCOD9186951 Si02
#       6
#     8   8   8   8   8   8
#     4  10  19  35  57  80 108 143 182 223 268 319
#     4   9  19  37  58  80 107 138 180 227 267 317
#     4  10  19  36  58  80 108 140 181 224 264 316
#     4  10  22  38  55  78 111 146 178 222 271 318
#     4  10  20  34  55  84 110 139 181 224 267 316
#     4   9  19  35  54  78 108 139 172 216 268 317
#
# _framework density 17.254114999999999
#
# number of rings (size 3 to 8) (size 9 to 14) (size 15 to 20)
#    0.000    2.333    1.667    2.000    0.000    6.000 
#    3.000    0.000    0.000    0.000    0.000    0.000 
#    0.000    0.000    0.000    0.000    0.000    0.000 
#
# Total GULP energy -133879.843110 kJ/mol
# GULP energy per Si atom -5578.326796 kJ/mol
# Density = 1.721484 g / cm^3
# Si number density = 17.254115 Si / 1000 Ang^3
#
#
#
# Elastic Constant Matrix: (Units=GPa)
#
#
# Indices 1 2 3 4 5 6 
#
# 1 123.9139 35.2753 104.6369 0.0000 -4.8548 0.0000
# 2 35.2753 21.2306 45.6430 0.0000 -1.0590 0.0000
# 3 104.6369 45.6430 170.8327 0.0000 -5.1409 0.0000
# 4 0.0000 0.0000 0.0000 34.3562 0.0000 -0.7383
# 5 -4.8548 -1.0590 -5.1409 0.0000 35.9487 0.0000
# 6 0.0000 0.0000 0.0000 -0.7383 0.0000 29.1148
#
#
#
# Elastic Compliance Matrix: (Units=1/GPa)
#
#
# Indices 1 2 3 4 5 6 
#
# 1 0.018592 -0.015094 -0.007324 0.000000 0.001019 0.000000
# 2 -0.015094 0.122960 -0.023661 0.000000 -0.001800 0.000000
# 3 -0.007324 -0.023661 0.016683 0.000000 0.000700 0.000000
# 4 0.000000 0.000000 0.000000 0.029123 0.000000 0.000738
# 5 0.001019 -0.001800 0.000700 0.000000 0.028002 0.000000
# 6 0.000000 0.000000 0.000000 0.000738 0.000000 0.034365
#
#
# Mechanical properties :
#
#
# Convention : Reuss Voigt Hill
#
# Bulk Modulus (GPa) = 15.13419 76.34307 45.73863
# Shear Modulus (GPa) = 13.73972 28.57874 21.15923
#
# Velocity S-wave (km/s) = 2.82497 4.07424 3.50570
# Velocity P-wave (km/s) = 4.40806 8.15321 6.55385
#
# Compressibility (1/GPa) = 0.06607553
#
# Stress axis : x y z
#
# Youngs Moduli (GPa) = 53.78757 8.13273 59.94231
#
# Poissons Ratio (x) = 0.12275 0.43903
# Poissons Ratio (y) = 0.81186 1.41832
# Poissons Ratio (z) = 0.39395 0.19243
#
# Static dielectric constant tensor:
#      x y z
#    x 1.568000 0.000000 0.009740 
#    y 0.000000 1.582500 0.000000 
#    z 0.009740 0.000000 1.584160 
# 
# From -- ./inp_files/274042.got.cif
#   From: 2010.05.17/outbox.cif.g08.bks.cpg/sg12_138_cif.got.tgz:274042.got - 2010.06.03 13:09:07.
