data_PCOD9186259
_publ_section_title
;
Structure prediction by ZEFSAII (Michael W. Deem and Ramdas Pophale) SiO2 
 PCOD9186259
Probable space group: C 2/M
;
_chemical_formula_sum "Si O2"
_cell_formula_units_Z 48
_cell_length_a 13.743646
_cell_length_b 13.712824
_cell_length_c 14.254791
_cell_angle_alpha 90.000000
_cell_angle_beta 122.101412
_cell_angle_gamma 90.000000
_cell_volume 2275.772907
_symmetry_space_group_name_H-M "C 2/M"
_symmetry_group_IT_number 12
_symmetry_cell_setting 'monoclinic'
loop_
_space_group_symop_operation_xyz
x,y,z
-x,y,-z
-x,-y,-z
x,-y,z
1/2+x,1/2+y,z
1/2-x,1/2+y,-z
1/2-x,1/2-y,-z
1/2+x,1/2-y,z
loop_
_atom_site_type_symbol
_atom_site_label
_atom_site_fract_x
_atom_site_fract_y
_atom_site_fract_z
Si Si1 0.427711 0.740485 0.645613
Si Si2 0.177510 0.286063 0.053893
Si Si3 0.149490 0.115190 0.716516
Si Si4 0.747223 0.106720 0.808961
Si Si5 0.531091 0.109072 0.838363
Si Si6 0.817232 0.713854 0.406177
O O1 0.530754 0.663177 0.693186
O O2 0.451896 0.820278 0.737396
O O3 0.305238 0.694563 0.607484
O O4 0.411729 0.790399 0.535787
O O5 0.253917 0.358603 0.156514
O O6 0.164848 0.190116 0.112280
O O7 0.250000 0.250000 0.000000
O O8 0.069420 0.339118 0.953255
O O9 0.176940 0.177946 0.637103
O O10 0.140973 0.000000 0.696863
O O11 0.647559 0.101695 0.835992
O O12 0.682913 0.142091 0.682273
O O13 0.799167 0.000000 0.824022
O O14 0.484942 0.000000 0.828536
#
# Coordination Sequence:
#
# PCOD9186259 Si02
#       6
#     8   8   8   8   8   8
#     4  11  22  39  59  86 118 161 196 244 300 351
#     4   9  16  35  59  88 117 148 189 243 292 352
#     4  11  22  39  64  89 118 161 202 242 299 359
#     4   9  18  34  58  83 111 148 188 233 286 344
#     4  10  19  34  60  88 113 149 194 236 293 354
#     4  10  23  39  58  84 124 153 198 252 294 345
#
# _framework density 21.091735
#
# number of rings (size 3 to 8) (size 9 to 14) (size 15 to 20)
#    0.000    2.000    5.000    1.000    0.000    4.000 
#    0.000    8.333    0.000    6.000    0.000    0.000 
#    0.000    0.000    0.000    0.000    0.000    0.000 
#
# Total GULP energy -133964.158927 kJ/mol
# GULP energy per Si atom -5581.839955 kJ/mol
# Density = 2.104373 g / cm^3
# Si number density = 21.091735 Si / 1000 Ang^3
#
#
#
# Elastic Constant Matrix: (Units=GPa)
#
#
# Indices 1 2 3 4 5 6 
#
# 1 53.6013 18.2643 16.4952 0.0000 -11.5274 0.0000
# 2 18.2643 125.5145 49.6285 0.0000 6.0440 0.0000
# 3 16.4952 49.6285 164.3464 0.0000 -2.1978 0.0000
# 4 0.0000 0.0000 0.0000 5.9738 0.0000 -2.1344
# 5 -11.5274 6.0440 -2.1978 0.0000 14.7165 0.0000
# 6 0.0000 0.0000 0.0000 -2.1344 0.0000 4.3746
#
#
#
# Elastic Compliance Matrix: (Units=1/GPa)
#
#
# Indices 1 2 3 4 5 6 
#
# 1 0.024953 -0.004283 -0.000928 0.000000 0.021166 0.000000
# 2 -0.004283 0.010041 -0.002708 0.000000 -0.007883 0.000000
# 3 -0.000928 -0.002708 0.007015 0.000000 0.001433 0.000000
# 4 0.000000 0.000000 0.000000 0.202738 0.000000 0.098914
# 5 0.021166 -0.007883 0.001433 0.000000 0.087982 0.000000
# 6 0.000000 0.000000 0.000000 0.098914 0.000000 0.276850
#
#
# Mechanical properties :
#
#
# Convention : Reuss Voigt Hill
#
# Bulk Modulus (GPa) = 38.21054 56.91537 47.56296
# Shear Modulus (GPa) = 7.88470 22.28461 15.08465
#
# Velocity S-wave (km/s) = 1.93556 3.25400 2.67721
# Velocity P-wave (km/s) = 4.81154 6.41570 5.67063
#
# Compressibility (1/GPa) = 0.02617079
#
# Stress axis : x y z
#
# Youngs Moduli (GPa) = 40.07470 99.59490 142.55949
#
# Poissons Ratio (x) = 0.42661 0.13230
# Poissons Ratio (y) = 0.17166 0.38598
# Poissons Ratio (z) = 0.03719 0.26966
#
# Static dielectric constant tensor:
#      x y z
#    x 1.823970 0.000000 0.004030 
#    y 0.000000 1.755630 0.000000 
#    z 0.004030 0.000000 1.764660 
# 
# From -- ./inp_files/215019.got.cif
#   From: 2010.05.17/outbox.cif.g08.bks.cpg/sg12_108_cif.got.tgz:215019.got - 2010.06.03 13:09:07.
