data_PCOD9186626
_publ_section_title
;
Structure prediction by ZEFSAII (Michael W. Deem and Ramdas Pophale) SiO2 
 PCOD9186626
Probable space group: C 2/M
;
_chemical_formula_sum "Si O2"
_cell_formula_units_Z 56
_cell_length_a 17.850771
_cell_length_b 13.398406
_cell_length_c 21.687377
_cell_angle_alpha 90.000000
_cell_angle_beta 38.737551
_cell_angle_gamma 90.000000
_cell_volume 3245.792712
_symmetry_space_group_name_H-M "C 2/M"
_symmetry_group_IT_number 12
_symmetry_cell_setting 'monoclinic'
loop_
_space_group_symop_operation_xyz
x,y,z
-x,y,-z
-x,-y,-z
x,-y,z
1/2+x,1/2+y,z
1/2-x,1/2+y,-z
1/2-x,1/2-y,-z
1/2+x,1/2-y,z
loop_
_atom_site_type_symbol
_atom_site_label
_atom_site_fract_x
_atom_site_fract_y
_atom_site_fract_z
Si Si1 0.994068 0.386447 0.622188
Si Si2 0.800019 0.382156 0.196064
Si Si3 0.526963 0.118708 0.133761
Si Si4 0.993354 0.238983 0.739622
Si Si5 0.623269 0.738690 0.395569
Si Si6 0.251618 0.380617 0.910206
Si Si7 0.248492 0.688229 0.437097
O O1 0.956056 0.500000 0.660545
O O2 0.137291 0.386929 0.516741
O O3 0.978029 0.305589 0.687470
O O4 0.922620 0.339324 0.609890
O O5 0.775754 0.500000 0.217345
O O6 0.696574 0.324130 0.298766
O O7 0.803107 0.358046 0.121999
O O8 0.927042 0.362408 0.146125
O O9 0.491205 0.180442 0.216338
O O10 0.527948 0.000000 0.145936
O O11 0.656537 0.147667 0.023707
O O12 0.876874 0.175493 0.830282
O O13 0.110422 0.167781 0.661249
O O14 0.500000 0.690503 0.500000
O O15 0.706217 0.755308 0.402055
O O16 0.268679 0.500000 0.903262
O O17 0.250000 0.750000 0.500000
#
# Coordination Sequence:
#
# PCOD9186626 Si02
#       7
#     8   8   8   8   8   8   8
#     4  10  21  36  56  80 106 143 184 219 261 318
#     4  10  19  35  56  78 105 140 179 222 267 318
#     4  10  20  34  56  82 107 140 183 224 264 314
#     4  11  19  35  57  79 113 142 173 223 270 317
#     4  10  19  35  55  77 107 137 179 222 261 317
#     4  10  21  35  53  81 110 141 180 220 268 320
#     4   9  20  34  52  77 106 137 173 216 263 314
#
# _framework density 17.253105000000001
#
# number of rings (size 3 to 8) (size 9 to 14) (size 15 to 20)
#    0.000    2.000    2.857    1.286    0.000    5.143 
#    0.000    0.000    0.000    0.000    0.000    1.000 
#    0.000    0.000    0.000    0.000    0.000    0.000 
#
# Total GULP energy -155903.705608 kJ/mol
# GULP energy per Si atom -5567.989486 kJ/mol
# Density = 1.721384 g / cm^3
# Si number density = 17.253105 Si / 1000 Ang^3
#
#
#
# Elastic Constant Matrix: (Units=GPa)
#
#
# Indices 1 2 3 4 5 6 
#
# 1 78.5533 13.4080 -3.0189 0.0000 -4.4633 0.0000
# 2 13.4080 22.7075 18.1611 0.0000 -6.2794 0.0000
# 3 -3.0189 18.1611 71.9684 0.0000 -15.1611 0.0000
# 4 0.0000 0.0000 0.0000 22.9423 0.0000 0.3310
# 5 -4.4633 -6.2794 -15.1611 0.0000 28.6224 0.0000
# 6 0.0000 0.0000 0.0000 0.3310 0.0000 14.5022
#
#
#
# Elastic Compliance Matrix: (Units=1/GPa)
#
#
# Indices 1 2 3 4 5 6 
#
# 1 0.014938 -0.011422 0.003908 0.000000 0.001893 0.000000
# 2 -0.011422 0.064637 -0.015959 0.000000 0.003946 0.000000
# 3 0.003908 -0.015959 0.019672 0.000000 0.007528 0.000000
# 4 0.000000 0.000000 0.000000 0.043602 0.000000 -0.000995
# 5 0.001893 0.003946 0.007528 0.000000 0.040086 0.000000
# 6 0.000000 0.000000 0.000000 -0.000995 0.000000 0.068978
#
#
# Mechanical properties :
#
#
# Convention : Reuss Voigt Hill
#
# Bulk Modulus (GPa) = 19.12011 25.59220 22.35616
# Shear Modulus (GPa) = 15.80814 22.85865 19.33340
#
# Velocity S-wave (km/s) = 3.03024 3.64387 3.35113
# Velocity P-wave (km/s) = 4.83212 5.70695 5.28766
#
# Compressibility (1/GPa) = 0.05230094
#
# Stress axis : x y z
#
# Youngs Moduli (GPa) = 66.94545 15.47091 50.83361
#
# Poissons Ratio (x) = 0.17671 -0.19864
# Poissons Ratio (y) = 0.76464 0.81125
# Poissons Ratio (z) = -0.26161 0.24690
#
# Static dielectric constant tensor:
#      x y z
#    x 1.593310 0.000000 -0.006400 
#    y 0.000000 1.560100 0.000000 
#    z -0.006400 0.000000 1.594180 
# 
# From -- ./inp_files/183567.got.cif
#   From: 2010.05.17/outbox.cif.g08.bks.cpg/sg12_92_cif.got.tgz:183567.got - 2010.06.03 13:09:07.
