data_PCOD9186629
_publ_section_title
;
Structure prediction by ZEFSAII (Michael W. Deem and Ramdas Pophale) SiO2 
 PCOD9186629
Probable space group: C 2/M
;
_chemical_formula_sum "Si O2"
_cell_formula_units_Z 56
_cell_length_a 19.617249
_cell_length_b 8.774752
_cell_length_c 19.539243
_cell_angle_alpha 90.000000
_cell_angle_beta 111.238958
_cell_angle_gamma 90.000000
_cell_volume 3134.965800
_symmetry_space_group_name_H-M "C 2/M"
_symmetry_group_IT_number 12
_symmetry_cell_setting 'monoclinic'
loop_
_space_group_symop_operation_xyz
x,y,z
-x,y,-z
-x,-y,-z
x,-y,z
1/2+x,1/2+y,z
1/2-x,1/2+y,-z
1/2-x,1/2-y,-z
1/2+x,1/2-y,z
loop_
_atom_site_type_symbol
_atom_site_label
_atom_site_fract_x
_atom_site_fract_y
_atom_site_fract_z
Si Si1 0.583701 0.317825 0.595582
Si Si2 0.675420 0.682127 0.204464
Si Si3 0.600887 0.682260 0.317945
Si Si4 0.579194 0.818279 0.451735
Si Si5 0.457015 0.819562 0.195951
Si Si6 0.170125 0.819427 0.765219
Si Si7 0.518322 0.682901 0.084482
O O1 0.573921 0.500000 0.586857
O O2 0.504714 0.242147 0.580905
O O3 0.610827 0.252067 0.533122
O O4 0.636644 0.284348 0.678014
O O5 0.687229 0.500000 0.205336
O O6 0.656182 0.721005 0.276425
O O7 0.746361 0.767655 0.204019
O O8 0.602299 0.717618 0.134845
O O9 0.598972 0.500000 0.325171
O O10 0.616480 0.759955 0.395981
O O11 0.521401 0.737424 0.262561
O O12 0.579315 0.000000 0.455221
O O13 0.380058 0.766882 0.198441
O O14 0.468740 0.766975 0.122273
O O15 0.466024 0.000000 0.205812
O O16 0.163421 0.000000 0.773802
O O17 0.508871 0.500000 0.089593
O O18 0.500000 0.722794 0.000000
#
# Coordination Sequence:
#
# PCOD9186629 Si02
#       7
#     8   8   8   8   8   8   8
#     4  10  20  33  50  72 105 146 183 228 279 329
#     4   9  20  36  57  82 110 142 178 224 273 323
#     4  10  19  35  55  77 107 145 187 228 275 329
#     4  11  20  30  50  79 106 137 183 237 280 322
#     4  11  21  33  56  85 112 142 182 228 268 317
#     4  11  22  36  55  79 111 148 185 224 272 330
#     4   9  19  39  64  87 113 145 179 217 267 326
#
# _framework density 17.863033000000001
#
# number of rings (size 3 to 8) (size 9 to 14) (size 15 to 20)
#    0.000    1.857    1.429    5.571    0.000    4.857 
#    0.000    1.429    0.000    0.000    0.000    0.000 
#    0.000    0.000    0.000    0.000    0.000    0.000 
#
# Total GULP energy -156373.689317 kJ/mol
# GULP energy per Si atom -5584.774618 kJ/mol
# Density = 1.782238 g / cm^3
# Si number density = 17.863033 Si / 1000 Ang^3
#
#
#
# Elastic Constant Matrix: (Units=GPa)
#
#
# Indices 1 2 3 4 5 6 
#
# 1 85.4262 37.8710 34.2774 0.0000 -11.5879 0.0000
# 2 37.8710 76.7458 41.0186 0.0000 -9.3612 0.0000
# 3 34.2774 41.0186 99.2485 0.0000 -18.9573 0.0000
# 4 0.0000 0.0000 0.0000 10.3187 0.0000 -7.6813
# 5 -11.5879 -9.3612 -18.9573 0.0000 17.4178 0.0000
# 6 0.0000 0.0000 0.0000 -7.6813 0.0000 26.1356
#
#
#
# Elastic Compliance Matrix: (Units=1/GPa)
#
#
# Indices 1 2 3 4 5 6 
#
# 1 0.015934 -0.006186 -0.001965 0.000000 0.005137 0.000000
# 2 -0.006186 0.019173 -0.005814 0.000000 -0.000139 0.000000
# 3 -0.001965 -0.005814 0.015542 0.000000 0.012483 0.000000
# 4 0.000000 0.000000 0.000000 0.124051 0.000000 0.036459
# 5 0.005137 -0.000139 0.012483 0.000000 0.074342 0.000000
# 6 0.000000 0.000000 0.000000 0.036459 0.000000 0.048977
#
#
# Mechanical properties :
#
#
# Convention : Reuss Voigt Hill
#
# Bulk Modulus (GPa) = 44.01767 54.19494 49.10630
# Shear Modulus (GPa) = 14.99152 20.65800 17.82476
#
# Velocity S-wave (km/s) = 2.90012 3.40438 3.16231
# Velocity P-wave (km/s) = 5.99246 6.77186 6.39404
#
# Compressibility (1/GPa) = 0.02271815
#
# Stress axis : x y z
#
# Youngs Moduli (GPa) = 62.76043 52.15666 64.34242
#
# Poissons Ratio (x) = 0.32262 0.12645
# Poissons Ratio (y) = 0.38821 0.37410
# Poissons Ratio (z) = 0.12334 0.30325
#
# Static dielectric constant tensor:
#      x y z
#    x 1.594410 0.000000 -0.015150 
#    y 0.000000 1.594330 0.000000 
#    z -0.015150 0.000000 1.614600 
# 
# From -- ./inp_files/275585.got.cif
#   From: 2010.05.17/outbox.cif.g08.bks.cpg/sg12_138_cif.got.tgz:275585.got - 2010.06.03 13:09:07.
