data_PCOD9186764
_publ_section_title
;
Structure prediction by ZEFSAII (Michael W. Deem and Ramdas Pophale) SiO2 
 PCOD9186764
Probable space group: C 2/M
;
_chemical_formula_sum "Si O2"
_cell_formula_units_Z 56
_cell_length_a 14.944129
_cell_length_b 7.424191
_cell_length_c 29.768489
_cell_angle_alpha 90.000000
_cell_angle_beta 50.257585
_cell_angle_gamma 90.000000
_cell_volume 2539.576797
_symmetry_space_group_name_H-M "C 2/M"
_symmetry_group_IT_number 12
_symmetry_cell_setting 'monoclinic'
loop_
_space_group_symop_operation_xyz
x,y,z
-x,y,-z
-x,-y,-z
x,-y,z
1/2+x,1/2+y,z
1/2-x,1/2+y,-z
1/2-x,1/2-y,-z
1/2+x,1/2-y,z
loop_
_atom_site_type_symbol
_atom_site_label
_atom_site_fract_x
_atom_site_fract_y
_atom_site_fract_z
Si Si1 0.800477 0.713904 0.434118
Si Si2 0.868584 0.785150 0.989909
Si Si3 0.095669 0.294042 0.436226
Si Si4 0.013390 0.217765 0.134950
Si Si5 0.252701 0.211205 0.885225
Si Si6 0.433269 0.220210 0.653887
Si Si7 0.744200 0.720424 0.785996
O O1 0.799465 0.500000 0.428314
O O2 0.750000 0.750000 0.500000
O O3 0.714939 0.793964 0.424765
O O4 0.932521 0.776717 0.385860
O O5 0.840748 0.713509 0.048599
O O6 0.885464 0.000000 0.989111
O O7 0.750000 0.750000 0.000000
O O8 0.964819 0.720331 0.923715
O O9 0.054414 0.500000 0.442140
O O10 0.106866 0.219375 0.382770
O O11 0.000000 0.208103 0.500000
O O12 0.884061 0.272178 0.190374
O O13 0.120317 0.276499 0.131986
O O14 0.018313 0.000000 0.132993
O O15 0.255937 0.283148 0.833783
O O16 0.223846 0.000000 0.890106
O O17 0.347522 0.282206 0.720559
O O18 0.430708 0.000000 0.656616
O O19 0.747552 0.500000 0.785354
#
# Coordination Sequence:
#
# PCOD9186764 Si02
#       7
#     8   8   8   8   8   8   8
#     4  11  21  35  56  81 105 132 165 205 251 299
#     4   8  14  25  43  69  96 123 158 205 248 287
#     4  10  19  35  56  78 103 134 165 200 252 302
#     4   9  17  30  49  71  97 128 166 206 247 292
#     4   9  17  30  49  71  98 130 165 203 249 295
#     4   9  19  35  52  72 104 136 164 200 250 304
#     4   9  18  32  50  72  97 133 171 202 242 297
#
# _framework density 22.050919
#
# number of rings (size 3 to 8) (size 9 to 14) (size 15 to 20)
#    0.000    2.714    1.429    0.429    0.000    2.000 
#    0.000    3.571    0.000    3.429    0.000   10.000 
#    0.000    0.000    0.000    0.000    0.000    0.000 
#
# Total GULP energy -156250.045778 kJ/mol
# GULP energy per Si atom -5580.358778 kJ/mol
# Density = 2.200073 g / cm^3
# Si number density = 22.050919 Si / 1000 Ang^3
#
#
#
# Elastic Constant Matrix: (Units=GPa)
#
#
# Indices 1 2 3 4 5 6 
#
# 1 79.5813 -13.5229 43.4502 0.0004 3.5888 0.0005
# 2 -13.5229 72.8406 1.5011 0.0042 2.5323 0.0037
# 3 43.4502 1.5011 155.3907 0.0006 -7.1304 0.0007
# 4 0.0004 0.0042 0.0006 0.5281 0.0006 -5.0272
# 5 3.5888 2.5323 -7.1304 0.0006 37.5347 0.0009
# 6 0.0005 0.0037 0.0007 -5.0272 0.0009 12.1868
#
#
#
# Elastic Compliance Matrix: (Units=1/GPa)
#
#
# Indices 1 2 3 4 5 6 
#
# 1 0.015682 0.003094 -0.004533 0.000013 -0.002569 0.000004
# 2 0.003094 0.014376 -0.001071 0.000053 -0.001469 0.000017
# 3 -0.004533 -0.001071 0.007804 0.000000 0.001988 0.000000
# 4 0.000013 0.000053 0.000000 -0.646946 0.000012 -0.266874
# 5 -0.002569 -0.001469 0.001988 0.000012 0.027364 0.000003
# 6 0.000004 0.000017 0.000000 -0.266874 0.000003 -0.028033
#
#
# Mechanical properties :
#
#
# Convention : Reuss Voigt Hill
#
# Bulk Modulus (GPa) = 30.44828 41.18550 35.81689
# Shear Modulus (GPa) = -8.42058 28.47553 10.02747
#
# Velocity S-wave (km/s) = -1.95627 3.59744 2.13478
# Velocity P-wave (km/s) = 2.95559 5.99778 4.72805
#
# Compressibility (1/GPa) = 0.03284257
#
# Stress axis : x y z
#
# Youngs Moduli (GPa) = 63.76625 69.55940 128.13196
#
# Poissons Ratio (x) = -0.21523 0.58080
# Poissons Ratio (y) = -0.19730 0.13729
# Poissons Ratio (z) = 0.28904 0.07453
#
# Static dielectric constant tensor:
#      x y z
#    x 1.767470 -0.000020 0.006070 
#    y -0.000020 1.446700 0.000000 
#    z 0.006070 0.000000 1.806660 
# 
# From -- ./inp_files/374954.got.cif
#   From: 2010.05.17/outbox.cif.g08.bks.cpg/sg12_188_cif.got.tgz:374954.got - 2010.06.03 13:09:07.
