data_PCOD9186137
_publ_section_title
;
Structure prediction by ZEFSAII (Michael W. Deem and Ramdas Pophale) SiO2 
 PCOD9186137
Probable space group: C 2/M
;
_chemical_formula_sum "Si O2"
_cell_formula_units_Z 48
_cell_length_a 10.552447
_cell_length_b 14.107536
_cell_length_c 18.096978
_cell_angle_alpha 90.000000
_cell_angle_beta 120.449147
_cell_angle_gamma 90.000000
_cell_volume 2322.510126
_symmetry_space_group_name_H-M "C 2/M"
_symmetry_group_IT_number 12
_symmetry_cell_setting 'monoclinic'
loop_
_space_group_symop_operation_xyz
x,y,z
-x,y,-z
-x,-y,-z
x,-y,z
1/2+x,1/2+y,z
1/2-x,1/2+y,-z
1/2-x,1/2-y,-z
1/2+x,1/2-y,z
loop_
_atom_site_type_symbol
_atom_site_label
_atom_site_fract_x
_atom_site_fract_y
_atom_site_fract_z
Si Si1 0.219484 0.641308 0.007877
Si Si2 0.098134 0.890624 0.306448
Si Si3 0.097910 0.675149 0.127065
Si Si4 0.671727 0.754423 0.556046
Si Si5 0.454951 0.603978 0.884183
Si Si6 0.688785 0.386967 0.685734
O O1 0.183953 0.628246 0.084020
O O2 0.376743 0.596492 0.038529
O O3 0.250000 0.750000 0.000000
O O4 0.064273 0.627808 0.920891
O O5 0.238772 0.828222 0.367007
O O6 0.051797 0.887481 0.207066
O O7 0.960998 0.858466 0.316052
O O8 0.128484 0.000000 0.333858
O O9 0.095761 0.789084 0.108545
O O10 0.179048 0.656291 0.227242
O O11 0.500000 0.779018 0.500000
O O12 0.750000 0.750000 0.500000
O O13 0.684438 0.654862 0.602740
O O14 0.383816 0.500000 0.880195
O O15 0.699629 0.500000 0.689920
#
# Coordination Sequence:
#
# PCOD9186137 Si02
#       6
#     8   8   8   8   8   8
#     4   9  19  33  53  84 122 165 203 252 300 357
#     4  10  21  39  64  93 123 161 206 256 315 380
#     4  10  19  35  58  86 123 162 209 254 305 362
#     4  12  25  43  68  95 127 164 204 266 327 383
#     4  10  19  34  59  87 119 160 205 251 307 368
#     4  11  23  40  65  93 125 167 212 259 314 384
#
# _framework density 20.667293999999998
#
# number of rings (size 3 to 8) (size 9 to 14) (size 15 to 20)
#    0.000    1.667    5.000    0.000    0.000    2.000 
#    0.000    8.333    0.000   10.000    0.000    0.000 
#    0.000    0.000    0.000    0.000    0.000    0.000 
#
# Total GULP energy -133870.013160 kJ/mol
# GULP energy per Si atom -5577.917215 kJ/mol
# Density = 2.062025 g / cm^3
# Si number density = 20.667294 Si / 1000 Ang^3
#
#
#
# Elastic Constant Matrix: (Units=GPa)
#
#
# Indices 1 2 3 4 5 6 
#
# 1 66.7765 9.7118 44.1772 0.0000 2.6865 0.0000
# 2 9.7118 80.4836 30.0839 0.0000 9.1816 0.0000
# 3 44.1772 30.0839 120.8294 0.0000 10.9918 0.0000
# 4 0.0000 0.0000 0.0000 12.2857 0.0000 1.7209
# 5 2.6865 9.1816 10.9918 0.0000 38.8986 0.0000
# 6 0.0000 0.0000 0.0000 1.7209 0.0000 17.3988
#
#
#
# Elastic Compliance Matrix: (Units=1/GPa)
#
#
# Indices 1 2 3 4 5 6 
#
# 1 0.019778 0.000292 -0.007362 0.000000 0.000646 0.000000
# 2 0.000292 0.013913 -0.003356 0.000000 -0.002356 0.000000
# 3 -0.007362 -0.003356 0.011994 0.000000 -0.002088 0.000000
# 4 0.000000 0.000000 0.000000 0.082539 0.000000 -0.008164
# 5 0.000646 -0.002356 -0.002088 0.000000 0.026809 0.000000
# 6 0.000000 0.000000 0.000000 -0.008164 0.000000 0.058283
#
#
# Mechanical properties :
#
#
# Convention : Reuss Voigt Hill
#
# Bulk Modulus (GPa) = 40.27356 48.44839 44.36098
# Shear Modulus (GPa) = 20.62313 25.99106 23.30709
#
# Velocity S-wave (km/s) = 3.16232 3.55010 3.36181
# Velocity P-wave (km/s) = 5.73260 6.34801 6.04814
#
# Compressibility (1/GPa) = 0.02483018
#
# Stress axis : x y z
#
# Youngs Moduli (GPa) = 50.56212 71.87513 83.37776
#
# Poissons Ratio (x) = -0.02097 0.61386
# Poissons Ratio (y) = -0.01475 0.27985
# Poissons Ratio (z) = 0.37226 0.24124
#
# Static dielectric constant tensor:
#      x y z
#    x 1.764730 0.000000 -0.001210 
#    y 0.000000 1.763670 0.000000 
#    z -0.001210 0.000000 1.733800 
# 
# From -- ./inp_files/304855.got.cif
#   From: 2010.05.17/outbox.cif.g08.bks.cpg/sg12_153_cif.got.tgz:304855.got - 2010.06.03 13:09:07.
