data_PCOD9186946
_publ_section_title
;
Structure prediction by ZEFSAII (Michael W. Deem and Ramdas Pophale) SiO2 
 PCOD9186946
Probable space group: C 2/M
;
_chemical_formula_sum "Si O2"
_cell_formula_units_Z 64
_cell_length_a 25.086084
_cell_length_b 7.864686
_cell_length_c 20.799014
_cell_angle_alpha 90.000000
_cell_angle_beta 125.622962
_cell_angle_gamma 90.000000
_cell_volume 3335.621123
_symmetry_space_group_name_H-M "C 2/M"
_symmetry_group_IT_number 12
_symmetry_cell_setting 'monoclinic'
loop_
_space_group_symop_operation_xyz
x,y,z
-x,y,-z
-x,-y,-z
x,-y,z
1/2+x,1/2+y,z
1/2-x,1/2+y,-z
1/2-x,1/2-y,-z
1/2+x,1/2-y,z
loop_
_atom_site_type_symbol
_atom_site_label
_atom_site_fract_x
_atom_site_fract_y
_atom_site_fract_z
Si Si1 0.072921 0.791718 0.028936
Si Si2 0.576503 0.199296 0.255070
Si Si3 0.407298 0.706306 0.239565
Si Si4 0.168184 0.200710 0.209020
Si Si5 0.945874 0.701181 0.619323
Si Si6 0.566110 0.301473 0.882303
Si Si7 0.928342 0.800340 0.466210
Si Si8 0.317560 0.706107 0.291294
O O1 0.125887 0.734991 0.118470
O O2 0.073508 0.000000 0.027604
O O3 0.085471 0.729234 0.965149
O O4 0.000000 0.741371 0.000000
O O5 0.638542 0.221764 0.253156
O O6 0.584407 0.260873 0.333998
O O7 0.512882 0.288622 0.179690
O O8 0.559535 0.000000 0.246973
O O9 0.408789 0.500000 0.239100
O O10 0.476449 0.761981 0.319009
O O11 0.405981 0.770573 0.165083
O O12 0.348254 0.758969 0.244302
O O13 0.244513 0.232517 0.252348
O O14 0.156306 0.000000 0.205258
O O15 0.935859 0.500000 0.606285
O O16 0.918961 0.783376 0.535703
O O17 0.584293 0.500000 0.895901
O O18 0.868848 0.732077 0.381685
O O19 0.000000 0.724774 0.500000
O O20 0.931887 0.000000 0.451728
O O21 0.315678 0.500000 0.291113
#
# Coordination Sequence:
#
# PCOD9186946 Si02
#       8
#     8   8   8   8   8   8   8   8
#     4   9  16  30  52  80 107 132 174 226 264 300
#     4  10  20  34  51  77 111 140 170 216 271 313
#     4   9  17  32  54  77 104 142 180 212 258 316
#     4  11  22  36  55  77 105 143 181 216 261 320
#     4  10  20  32  52  82 111 135 169 222 268 306
#     4   9  16  30  55  80 103 136 180 221 256 307
#     4  10  19  35  57  80 106 138 178 218 258 310
#     4  10  21  37  54  76 109 141 173 217 264 311
#
# _framework density 19.186831999999999
#
# number of rings (size 3 to 8) (size 9 to 14) (size 15 to 20)
#    0.000    2.250    2.500    1.125    0.000    2.750 
#    0.000    3.125    0.000    0.000    0.000    0.000 
#    0.000    0.000    0.000    0.000    0.000    0.000 
#
# Total GULP energy -178516.307009 kJ/mol
# GULP energy per Si atom -5578.634594 kJ/mol
# Density = 1.914316 g / cm^3
# Si number density = 19.186832 Si / 1000 Ang^3
#
#
#
# Elastic Constant Matrix: (Units=GPa)
#
#
# Indices 1 2 3 4 5 6 
#
# 1 124.7590 -11.0126 68.1029 0.0000 -10.0516 0.0000
# 2 -11.0126 19.1130 -2.3900 0.0000 0.9329 0.0000
# 3 68.1029 -2.3900 115.5962 0.0000 -7.3708 0.0000
# 4 0.0000 0.0000 0.0000 -3.1548 0.0000 8.8170
# 5 -10.0516 0.9329 -7.3708 0.0000 28.8038 0.0000
# 6 0.0000 0.0000 0.0000 8.8170 0.0000 18.7556
#
#
#
# Elastic Compliance Matrix: (Units=1/GPa)
#
#
# Indices 1 2 3 4 5 6 
#
# 1 0.012691 0.006296 -0.007194 0.000000 0.002384 0.000000
# 2 0.006296 0.055639 -0.002576 0.000000 -0.000264 0.000000
# 3 -0.007194 -0.002576 0.012892 0.000000 0.000872 0.000000
# 4 0.000000 0.000000 0.000000 -0.136994 0.000000 0.064400
# 5 0.002384 -0.000264 0.000872 0.000000 0.035781 0.000000
# 6 0.000000 0.000000 0.000000 0.064400 0.000000 0.023043
#
#
# Mechanical properties :
#
#
# Convention : Reuss Voigt Hill
#
# Bulk Modulus (GPa) = 13.46383 40.98541 27.22462
# Shear Modulus (GPa) = 143.85465 22.53212 83.19338
#
# Velocity S-wave (km/s) = 8.66825 3.43060 6.59195
# Velocity P-wave (km/s) = 10.35457 6.09095 8.49461
#
# Compressibility (1/GPa) = 0.07427308
#
# Stress axis : x y z
#
# Youngs Moduli (GPa) = 78.79901 17.97299 77.56946
#
# Poissons Ratio (x) = -0.11316 0.55806
# Poissons Ratio (y) = -0.49613 0.19981
# Poissons Ratio (z) = 0.56691 0.04630
#
# Static dielectric constant tensor:
#      x y z
#    x 1.663380 0.000000 -0.041870 
#    y 0.000000 1.700350 0.000000 
#    z -0.041870 0.000000 1.663700 
# 
# From -- ./inp_files/324347.got.cif
#   From: 2010.05.17/outbox.cif.g08.bks.cpg/sg12_163_cif.got.tgz:324347.got - 2010.06.03 13:09:07.
