data_PCOD9186741
_publ_section_title
;
Structure prediction by ZEFSAII (Michael W. Deem and Ramdas Pophale) SiO2 
 PCOD9186741
Probable space group: C 2/M
;
_chemical_formula_sum "Si O2"
_cell_formula_units_Z 64
_cell_length_a 14.564060
_cell_length_b 8.671632
_cell_length_c 32.415291
_cell_angle_alpha 90.000000
_cell_angle_beta 63.301311
_cell_angle_gamma 90.000000
_cell_volume 3657.381473
_symmetry_space_group_name_H-M "C 2/M"
_symmetry_group_IT_number 12
_symmetry_cell_setting 'monoclinic'
loop_
_space_group_symop_operation_xyz
x,y,z
-x,y,-z
-x,-y,-z
x,-y,z
1/2+x,1/2+y,z
1/2-x,1/2+y,-z
1/2-x,1/2-y,-z
1/2+x,1/2-y,z
loop_
_atom_site_type_symbol
_atom_site_label
_atom_site_fract_x
_atom_site_fract_y
_atom_site_fract_z
Si Si1 0.346793 0.314362 0.250000
Si Si2 0.898902 0.313937 0.495360
Si Si3 0.175336 0.815643 0.574297
Si Si4 0.636911 0.186998 0.250000
Si Si5 0.440206 0.185097 0.823426
Si Si6 0.823930 0.184357 0.925703
Si Si7 0.389622 0.313937 0.004640
Si Si8 0.412942 0.814903 0.323426
O O1 0.348721 0.500000 0.250000
O O2 0.241469 0.259667 0.250000
O O3 0.445983 0.253246 0.205395
O O4 0.356771 0.253246 0.294606
O O5 0.900846 0.500000 0.490841
O O6 0.889756 0.242021 0.451852
O O7 0.793869 0.272156 0.540557
O O8 0.000000 0.266122 0.500000
O O9 0.135507 0.743029 0.624503
O O10 0.169948 0.000000 0.578076
O O11 0.622220 0.233118 0.205278
O O12 0.532776 0.233118 0.294721
O O13 0.639548 0.000000 0.250000
O O14 0.384512 0.243029 0.875497
O O15 0.446728 0.000000 0.822240
O O16 0.874984 0.227844 0.959443
O O17 0.826101 0.000000 0.921924
O O18 0.706541 0.242021 0.951852
O O19 0.382528 0.500000 0.009159
O O20 0.500000 0.266122 0.000000
O O21 0.408791 0.000000 0.322240
#
# Coordination Sequence:
#
# PCOD9186741 Si02
#       8
#     8   8   8   8   8   8   8   8
#     4  10  19  35  56  77 100 129 171 216 250 288
#     4   9  19  36  55  74 101 138 174 209 256 312
#     4  10  20  34  53  78 104 132 171 216 256 296
#     4   8  18  35  54  73  98 135 171 202 244 304
#     4  10  20  36  54  75 105 139 170 203 254 312
#     4  10  20  34  53  78 104 132 171 216 256 296
#     4   9  19  36  55  74 101 138 174 209 256 312
#     4  10  20  36  54  75 105 139 170 203 254 312
#
# _framework density 17.498858999999999
#
# number of rings (size 3 to 8) (size 9 to 14) (size 15 to 20)
#    0.000    2.500    0.000    2.625    0.000    3.500 
#    0.000   17.500    0.000    0.000    0.000    0.000 
#    0.000    0.000    0.000    0.000    0.000    0.000 
#
# Total GULP energy -178540.791178 kJ/mol
# GULP energy per Si atom -5579.399724 kJ/mol
# Density = 1.745903 g / cm^3
# Si number density = 17.498859 Si / 1000 Ang^3
#
#
#
# Elastic Constant Matrix: (Units=GPa)
#
#
# Indices 1 2 3 4 5 6 
#
# 1 165.0543 36.0342 70.0973 0.0000 0.0010 0.0000
# 2 36.0342 41.2939 42.6892 0.0000 0.0003 0.0000
# 3 70.0973 42.6892 153.7656 0.0000 0.0009 0.0000
# 4 0.0000 0.0000 0.0000 36.0670 0.0000 0.0001
# 5 0.0010 0.0003 0.0009 0.0000 6.2490 0.0000
# 6 0.0000 0.0000 0.0000 0.0001 0.0000 25.4528
#
#
#
# Elastic Compliance Matrix: (Units=1/GPa)
#
#
# Indices 1 2 3 4 5 6 
#
# 1 0.008080 -0.004548 -0.002421 0.000000 -0.000001 0.000000
# 2 -0.004548 0.036525 -0.008067 0.000000 0.000000 0.000000
# 3 -0.002421 -0.008067 0.009846 0.000000 -0.000001 0.000000
# 4 0.000000 0.000000 0.000000 0.027726 0.000000 0.000000
# 5 -0.000001 0.000000 -0.000001 0.000000 0.160026 0.000000
# 6 0.000000 0.000000 0.000000 0.000000 0.000000 0.039288
#
#
# Mechanical properties :
#
#
# Convention : Reuss Voigt Hill
#
# Bulk Modulus (GPa) = 41.01753 73.08393 57.05073
# Shear Modulus (GPa) = 15.64019 27.63996 21.64008
#
# Velocity S-wave (km/s) = 2.99286 3.97864 3.52043
# Velocity P-wave (km/s) = 5.95265 7.93484 7.01412
#
# Compressibility (1/GPa) = 0.02437982
#
# Stress axis : x y z
#
# Youngs Moduli (GPa) = 123.76957 27.37854 101.55938
#
# Poissons Ratio (x) = 0.12452 0.24583
# Poissons Ratio (y) = 0.56291 0.81927
# Poissons Ratio (z) = 0.29959 0.22086
#
# Static dielectric constant tensor:
#      x y z
#    x 1.588470 0.000000 0.000000 
#    y 0.000000 1.593070 0.000000 
#    z 0.000000 0.000000 1.562240 
# 
# From -- ./inp_files/375057.got.cif
#   From: 2010.05.17/outbox.cif.g08.bks.cpg/sg12_188_cif.got.tgz:375057.got - 2010.06.03 13:09:07.
