data_PCOD9186159
_publ_section_title
;
Structure prediction by ZEFSAII (Michael W. Deem and Ramdas Pophale) SiO2 
 PCOD9186159
Probable space group: C 2/M
;
_chemical_formula_sum "Si O2"
_cell_formula_units_Z 64
_cell_length_a 29.620208
_cell_length_b 9.258909
_cell_length_c 14.509504
_cell_angle_alpha 90.000000
_cell_angle_beta 131.108225
_cell_angle_gamma 90.000000
_cell_volume 2998.236482
_symmetry_space_group_name_H-M "C 2/M"
_symmetry_group_IT_number 12
_symmetry_cell_setting 'monoclinic'
loop_
_space_group_symop_operation_xyz
x,y,z
-x,y,-z
-x,-y,-z
x,-y,z
1/2+x,1/2+y,z
1/2-x,1/2+y,-z
1/2-x,1/2-y,-z
1/2+x,1/2-y,z
loop_
_atom_site_type_symbol
_atom_site_label
_atom_site_fract_x
_atom_site_fract_y
_atom_site_fract_z
Si Si1 0.376435 0.167366 0.408031
Si Si2 0.195677 0.171801 0.977522
Si Si3 0.626777 0.669820 0.402396
Si Si4 0.738405 0.667179 0.227105
Si Si5 0.821833 0.328294 0.698712
Si Si6 0.511570 0.330863 0.788944
Si Si7 0.574912 0.671051 0.697770
Si Si8 0.940914 0.328099 0.977805
O O1 0.374811 0.254614 0.500813
O O2 0.306628 0.172195 0.283075
O O3 0.416950 0.240252 0.384348
O O4 0.392468 0.000000 0.444642
O O5 0.134418 0.194317 0.840040
O O6 0.206972 0.000000 0.993400
O O7 0.250000 0.250000 0.000000
O O8 0.197106 0.217189 0.086647
O O9 0.640935 0.500000 0.428389
O O10 0.669310 0.748977 0.386419
O O11 0.557626 0.684480 0.276500
O O12 0.724501 0.500000 0.232003
O O13 0.729684 0.763785 0.305582
O O14 0.815995 0.500000 0.678163
O O15 0.882016 0.296972 0.839306
O O16 0.527672 0.500000 0.813832
O O17 0.522015 0.285775 0.696801
O O18 0.552974 0.247671 0.915879
O O19 0.570030 0.500000 0.669247
O O20 0.943224 0.500000 0.994631
O O21 0.000000 0.284460 0.000000
#
# Coordination Sequence:
#
# PCOD9186159 Si02
#       8
#     8   8   8   8   8   8   8   8
#     4  11  24  42  63  86 116 156 201 248 297 350
#     4  10  19  34  59  88 121 155 190 237 290 347
#     4  11  24  42  63  86 116 156 201 249 296 346
#     4  10  22  40  61  88 121 156 196 243 293 350
#     4  11  23  39  62  91 121 156 196 240 294 353
#     4  10  22  39  62  90 119 157 200 241 290 351
#     4  10  21  38  61  89 121 155 194 243 295 348
#     4  10  20  36  59  89 126 158 188 237 296 352
#
# _framework density 21.345880999999999
#
# number of rings (size 3 to 8) (size 9 to 14) (size 15 to 20)
#    0.000    1.625    2.500    1.875    0.000    5.750 
#    0.000    2.500    0.000    0.000    0.000    0.000 
#    0.000    0.000    0.000    0.000    0.000    0.000 
#
# Total GULP energy -178908.305990 kJ/mol
# GULP energy per Si atom -5590.884562 kJ/mol
# Density = 2.129730 g / cm^3
# Si number density = 21.345881 Si / 1000 Ang^3
#
#
#
# Elastic Constant Matrix: (Units=GPa)
#
#
# Indices 1 2 3 4 5 6 
#
# 1 113.8019 43.6933 9.0470 0.0000 -33.6543 0.0000
# 2 43.6933 63.6837 34.8294 0.0000 -28.3958 0.0000
# 3 9.0470 34.8294 67.7066 0.0000 -29.2151 0.0000
# 4 0.0000 0.0000 0.0000 28.9188 0.0000 -13.7682
# 5 -33.6543 -28.3958 -29.2151 0.0000 44.6610 0.0000
# 6 0.0000 0.0000 0.0000 -13.7682 0.0000 27.0422
#
#
#
# Elastic Compliance Matrix: (Units=1/GPa)
#
#
# Indices 1 2 3 4 5 6 
#
# 1 0.014852 -0.009841 0.007255 0.000000 0.009680 0.000000
# 2 -0.009841 0.031401 -0.013129 0.000000 0.003961 0.000000
# 3 0.007255 -0.013129 0.026906 0.000000 0.014720 0.000000
# 4 0.000000 0.000000 0.000000 0.045644 0.000000 0.023239
# 5 0.009680 0.003961 0.014720 0.000000 0.041833 0.000000
# 6 0.000000 0.000000 0.000000 0.023239 0.000000 0.048811
#
#
# Mechanical properties :
#
#
# Convention : Reuss Voigt Hill
#
# Bulk Modulus (GPa) = 23.96512 46.70348 35.33430
# Shear Modulus (GPa) = 19.62434 30.63256 25.12845
#
# Velocity S-wave (km/s) = 3.03537 3.79232 3.43476
# Velocity P-wave (km/s) = 4.85139 6.41112 5.68500
#
# Compressibility (1/GPa) = 0.04172731
#
# Stress axis : x y z
#
# Youngs Moduli (GPa) = 67.33285 31.84585 37.16707
#
# Poissons Ratio (x) = 0.31340 -0.26964
# Poissons Ratio (y) = 0.66264 0.48798
# Poissons Ratio (z) = -0.48850 0.41811
#
# Static dielectric constant tensor:
#      x y z
#    x 1.774550 0.000000 0.026730 
#    y 0.000000 1.715370 0.000000 
#    z 0.026730 0.000000 1.802800 
# 
# From -- ./inp_files/250074.got.cif
#   From: 2010.05.17/outbox.cif.g08.bks.cpg/sg12_126_cif.got.tgz:250074.got - 2010.06.03 13:09:07.
