data_PCOD9186046
_publ_section_title
;
Structure prediction by ZEFSAII (Michael W. Deem and Ramdas Pophale) SiO2 
 PCOD9186046
Probable space group: C 2/M
;
_chemical_formula_sum "Si O2"
_cell_formula_units_Z 32
_cell_length_a 14.783211
_cell_length_b 16.599966
_cell_length_c 8.101686
_cell_angle_alpha 90.000000
_cell_angle_beta 59.550022
_cell_angle_gamma 90.000000
_cell_volume 1713.937138
_symmetry_space_group_name_H-M "C 2/M"
_symmetry_group_IT_number 12
_symmetry_cell_setting 'monoclinic'
loop_
_space_group_symop_operation_xyz
x,y,z
-x,y,-z
-x,-y,-z
x,-y,z
1/2+x,1/2+y,z
1/2-x,1/2+y,-z
1/2-x,1/2-y,-z
1/2+x,1/2-y,z
loop_
_atom_site_type_symbol
_atom_site_label
_atom_site_fract_x
_atom_site_fract_y
_atom_site_fract_z
Si Si1 0.281940 0.092298 0.044081
Si Si2 0.024657 0.692886 0.285006
Si Si3 0.907855 0.155701 0.969738
Si Si4 0.315923 0.791389 0.294785
O O1 0.177771 0.098023 0.029416
O O2 0.261982 0.141040 0.232283
O O3 0.310662 0.000000 0.047075
O O4 0.376464 0.139737 0.864460
O O5 0.046126 0.786140 0.216091
O O6 0.000000 0.684127 0.500000
O O7 0.921874 0.671467 0.273575
O O8 0.151717 0.219685 0.858104
O O9 0.000000 0.120719 0.000000
O O10 0.250000 0.750000 0.500000
#
# Coordination Sequence:
#
# PCOD9186046 Si02
#       4
#     8   8   8   8
#     4  11  22  35  53  82 118 145 173 225 284 328
#     4  10  19  34  59  83 106 142 187 227 264 320
#     4   9  19  35  56  79 104 144 192 228 261 315
#     4  10  19  35  59  80 104 144 189 226 264 322
#
# _framework density 18.670463000000002
#
# number of rings (size 3 to 8) (size 9 to 14) (size 15 to 20)
#    0.000    2.000    0.000    8.250    0.000    3.000 
#    0.000    3.750    0.000   14.250    0.000    0.000 
#    0.000    0.000    0.000    0.000    0.000    0.000 
#
# Total GULP energy -89259.548264 kJ/mol
# GULP energy per Si atom -5578.721767 kJ/mol
# Density = 1.862797 g / cm^3
# Si number density = 18.670463 Si / 1000 Ang^3
#
#
#
# Elastic Constant Matrix: (Units=GPa)
#
#
# Indices 1 2 3 4 5 6 
#
# 1 129.7252 43.6128 25.7479 0.0000 0.4961 0.0000
# 2 43.6128 48.9493 34.3071 0.0000 4.6074 0.0000
# 3 25.7479 34.3071 107.7814 0.0000 15.2077 0.0000
# 4 0.0000 0.0000 0.0000 9.0784 0.0000 -1.2380
# 5 0.4961 4.6074 15.2077 0.0000 25.4697 0.0000
# 6 0.0000 0.0000 0.0000 -1.2380 0.0000 12.7637
#
#
#
# Elastic Compliance Matrix: (Units=1/GPa)
#
#
# Indices 1 2 3 4 5 6 
#
# 1 0.011084 -0.010314 0.000439 0.000000 0.001388 0.000000
# 2 -0.010314 0.035895 -0.008816 0.000000 -0.001028 0.000000
# 3 0.000439 -0.008816 0.012837 0.000000 -0.006079 0.000000
# 4 0.000000 0.000000 0.000000 0.111628 0.000000 0.010827
# 5 0.001388 -0.001028 -0.006079 0.000000 0.043051 0.000000
# 6 0.000000 0.000000 0.000000 0.010827 0.000000 0.079397
#
#
# Mechanical properties :
#
#
# Convention : Reuss Voigt Hill
#
# Bulk Modulus (GPa) = 44.57602 54.86573 49.72088
# Shear Modulus (GPa) = 14.76014 21.64825 18.20419
#
# Velocity S-wave (km/s) = 2.81474 3.40882 3.12593
# Velocity P-wave (km/s) = 5.87288 6.70400 6.30215
#
# Compressibility (1/GPa) = 0.02243359
#
# Stress axis : x y z
#
# Youngs Moduli (GPa) = 90.22418 27.85935 77.89966
#
# Poissons Ratio (x) = 0.28733 -0.03423
# Poissons Ratio (y) = 0.93055 0.68680
# Poissons Ratio (z) = -0.03964 0.24562
#
# Static dielectric constant tensor:
#      x y z
#    x 1.697840 0.000000 -0.010930 
#    y 0.000000 1.611030 0.000000 
#    z -0.010930 0.000000 1.646760 
# 
# From -- ./inp_files/58215.got.cif
#   From: 2010.05.17/outbox.cif.g08.bks.cpg/sg12_30_cif.got.tgz:58215.got - 2010.06.03 13:09:07.
