data_PCOD9186836
_publ_section_title
;
Structure prediction by ZEFSAII (Michael W. Deem and Ramdas Pophale) SiO2 
 PCOD9186836
Probable space group: C 2/M
;
_chemical_formula_sum "Si O2"
_cell_formula_units_Z 44
_cell_length_a 9.460725
_cell_length_b 27.417443
_cell_length_c 15.904009
_cell_angle_alpha 90.000000
_cell_angle_beta 144.254516
_cell_angle_gamma 90.000000
_cell_volume 2409.954815
_symmetry_space_group_name_H-M "C 2/M"
_symmetry_group_IT_number 12
_symmetry_cell_setting 'monoclinic'
loop_
_space_group_symop_operation_xyz
x,y,z
-x,y,-z
-x,-y,-z
x,-y,z
1/2+x,1/2+y,z
1/2-x,1/2+y,-z
1/2-x,1/2-y,-z
1/2+x,1/2-y,z
loop_
_atom_site_type_symbol
_atom_site_label
_atom_site_fract_x
_atom_site_fract_y
_atom_site_fract_z
Si Si1 0.175686 0.943700 0.012429
Si Si2 0.987005 0.284243 0.631160
Si Si3 0.760669 0.801703 0.326334
Si Si4 0.876370 0.607822 0.849714
Si Si5 0.066487 0.944910 0.287817
Si Si6 0.500000 0.868382 0.500000
O O1 0.031598 0.944200 0.854999
O O2 0.235153 0.000000 0.062883
O O3 0.419920 0.914503 0.112683
O O4 0.000000 0.923924 0.000000
O O5 0.750000 0.250000 0.500000
O O6 0.961879 0.298058 0.716232
O O7 0.990515 0.332063 0.575184
O O8 0.201194 0.249315 0.703424
O O9 0.729808 0.844245 0.244545
O O10 0.000000 0.810770 0.500000
O O11 0.661395 0.569795 0.764487
O O12 0.000000 0.618146 0.000000
O O13 0.269931 0.903862 0.392726
O O14 0.150761 0.000000 0.347633
#
# Coordination Sequence:
#
# PCOD9186836 Si02
#       6
#     8   8   8   8   8   4
#     4   9  19  37  58  81 111 150 196 240 287 343
#     4  10  19  35  56  82 112 153 191 233 283 341
#     4  10  20  36  59  85 114 150 195 236 288 342
#     4  10  21  38  61  84 117 155 198 234 290 345
#     4  10  21  36  58  85 117 154 192 236 287 345
#     4  12  21  34  62  88 120 150 193 236 292 346
#
# _framework density 18.257603
#
# number of rings (size 3 to 8) (size 9 to 14) (size 15 to 20)
#    0.000    2.000    2.727    3.000    2.545    2.182 
#    0.000    0.909    0.000    2.182    0.000    0.000 
#    0.000    0.000    0.000    0.000    0.000    0.000 
#
# Total GULP energy -122687.072553 kJ/mol
# GULP energy per Si atom -5576.685116 kJ/mol
# Density = 1.821605 g / cm^3
# Si number density = 18.257603 Si / 1000 Ang^3
#
#
#
# Elastic Constant Matrix: (Units=GPa)
#
#
# Indices 1 2 3 4 5 6 
#
# 1 150.1576 59.2095 21.2943 0.0000 5.7092 0.0000
# 2 59.2095 137.3849 35.9156 0.0000 5.7297 0.0000
# 3 21.2943 35.9156 28.6958 0.0000 13.3246 0.0000
# 4 0.0000 0.0000 0.0000 3.8068 0.0000 -18.9554
# 5 5.7092 5.7297 13.3246 0.0000 18.0663 0.0000
# 6 0.0000 0.0000 0.0000 -18.9554 0.0000 17.8284
#
#
#
# Elastic Compliance Matrix: (Units=1/GPa)
#
#
# Indices 1 2 3 4 5 6 
#
# 1 0.008138 -0.002837 -0.002603 0.000000 0.000248 0.000000
# 2 -0.002837 0.013133 -0.019489 0.000000 0.011105 0.000000
# 3 -0.002603 -0.019489 0.088088 0.000000 -0.057965 0.000000
# 4 0.000000 0.000000 0.000000 -0.061174 0.000000 -0.065041
# 5 0.000248 0.011105 -0.057965 0.000000 0.094503 0.000000
# 6 0.000000 0.000000 0.000000 -0.065041 0.000000 -0.013062
#
#
# Mechanical properties :
#
#
# Convention : Reuss Voigt Hill
#
# Bulk Modulus (GPa) = 16.80655 61.00855 38.90755
# Shear Modulus (GPa) = 25.08563 21.26155 23.17359
#
# Velocity S-wave (km/s) = 3.71075 3.41622 3.56653
# Velocity P-wave (km/s) = 5.25212 7.00348 6.19005
#
# Compressibility (1/GPa) = 0.05950059
#
# Stress axis : x y z
#
# Youngs Moduli (GPa) = 122.87820 76.14275 11.35233
#
# Poissons Ratio (x) = 0.21603 0.02955
# Poissons Ratio (y) = 0.34862 0.22124
# Poissons Ratio (z) = 0.31989 1.48393
#
# Static dielectric constant tensor:
#      x y z
#    x 1.667040 0.000000 0.012560 
#    y 0.000000 1.624990 0.000000 
#    z 0.012560 0.000000 1.618190 
# 
# From -- ./inp_files/200713.got.cif
#   From: 2010.05.17/outbox.cif.g08.bks.cpg/sg12_101_cif.got.tgz:200713.got - 2010.06.03 13:09:07.
