data_PCOD9186852
_publ_section_title
;
Structure prediction by ZEFSAII (Michael W. Deem and Ramdas Pophale) SiO2 
 PCOD9186852
Probable space group: C 2/M
;
_chemical_formula_sum "Si O2"
_cell_formula_units_Z 56
_cell_length_a 17.451858
_cell_length_b 18.070494
_cell_length_c 15.289828
_cell_angle_alpha 90.000000
_cell_angle_beta 141.714415
_cell_angle_gamma 90.000000
_cell_volume 2987.533523
_symmetry_space_group_name_H-M "C 2/M"
_symmetry_group_IT_number 12
_symmetry_cell_setting 'monoclinic'
loop_
_space_group_symop_operation_xyz
x,y,z
-x,y,-z
-x,-y,-z
x,-y,z
1/2+x,1/2+y,z
1/2-x,1/2+y,-z
1/2-x,1/2-y,-z
1/2+x,1/2-y,z
loop_
_atom_site_type_symbol
_atom_site_label
_atom_site_fract_x
_atom_site_fract_y
_atom_site_fract_z
Si Si1 0.479594 0.233772 0.838924
Si Si2 0.434771 0.084873 0.169254
Si Si3 0.449511 0.417302 0.552012
Si Si4 0.721489 0.582255 0.843061
Si Si5 0.122644 0.779330 0.423990
Si Si6 0.550352 0.164413 0.635519
Si Si7 0.294041 0.764104 0.829626
O O1 0.488459 0.148670 0.812701
O O2 0.464867 0.283248 0.739760
O O3 0.364989 0.243737 0.801664
O O4 0.603909 0.251517 0.003769
O O5 0.431331 0.108510 0.267459
O O6 0.478177 0.000000 0.197943
O O7 0.300193 0.089413 0.002208
O O8 0.500000 0.400838 0.500000
O O9 0.398070 0.500000 0.505439
O O10 0.574434 0.415316 0.721847
O O11 0.361457 0.355570 0.511047
O O12 0.750571 0.500000 0.832332
O O13 0.757333 0.650340 0.813167
O O14 0.250000 0.750000 0.500000
O O15 0.054256 0.722738 0.427136
O O16 0.500000 0.130835 0.500000
O O17 0.675699 0.211499 0.732887
#
# Coordination Sequence:
#
# PCOD9186852 Si02
#       7
#     8   8   8   8   8   8   8
#     4   9  21  34  55  84 112 149 183 231 282 330
#     4   9  20  37  55  82 113 147 189 230 282 334
#     4  10  21  36  56  84 114 148 187 229 282 337
#     4   9  18  32  56  83 111 145 183 228 277 333
#     4  11  22  35  55  81 115 147 188 231 282 334
#     4  11  22  35  58  80 110 151 190 236 278 332
#     4  10  19  35  56  83 115 145 187 228 278 340
#
# _framework density 18.744558000000001
#
# number of rings (size 3 to 8) (size 9 to 14) (size 15 to 20)
#    0.000    2.143    1.429    1.286    4.000    2.571 
#    0.000    5.714    0.000    2.571    0.000    2.000 
#    0.000    0.000    0.000    0.000    0.000    0.000 
#
# Total GULP energy -156205.728341 kJ/mol
# GULP energy per Si atom -5578.776012 kJ/mol
# Density = 1.870189 g / cm^3
# Si number density = 18.744558 Si / 1000 Ang^3
#
#
#
# Elastic Constant Matrix: (Units=GPa)
#
#
# Indices 1 2 3 4 5 6 
#
# 1 68.4540 36.5142 22.7562 0.0000 1.6404 0.0000
# 2 36.5142 82.2028 22.5149 0.0000 -4.2910 0.0000
# 3 22.7562 22.5149 64.6124 0.0000 -9.7937 0.0000
# 4 0.0000 0.0000 0.0000 15.3414 0.0000 0.8744
# 5 1.6404 -4.2910 -9.7937 0.0000 35.2306 0.0000
# 6 0.0000 0.0000 0.0000 0.8744 0.0000 20.2696
#
#
#
# Elastic Compliance Matrix: (Units=1/GPa)
#
#
# Indices 1 2 3 4 5 6 
#
# 1 0.020586 -0.007953 -0.004981 0.000000 -0.003312 0.000000
# 2 -0.007953 0.016525 -0.002710 0.000000 0.001630 0.000000
# 3 -0.004981 -0.002710 0.018960 0.000000 0.005172 0.000000
# 4 0.000000 0.000000 0.000000 0.065344 0.000000 -0.002819
# 5 -0.003312 0.001630 0.005172 0.000000 0.030175 0.000000
# 6 0.000000 0.000000 0.000000 -0.002819 0.000000 0.049457
#
#
# Mechanical properties :
#
#
# Convention : Reuss Voigt Hill
#
# Bulk Modulus (GPa) = 40.35159 42.09332 41.22245
# Shear Modulus (GPa) = 20.78188 23.06726 21.92457
#
# Velocity S-wave (km/s) = 3.33331 3.51181 3.42372
# Velocity P-wave (km/s) = 6.03228 6.24090 6.13748
#
# Compressibility (1/GPa) = 0.02478217
#
# Stress axis : x y z
#
# Youngs Moduli (GPa) = 48.57771 60.51433 52.74354
#
# Poissons Ratio (x) = 0.48125 0.26271
# Poissons Ratio (y) = 0.38632 0.14296
# Poissons Ratio (z) = 0.24196 0.16402
#
# Static dielectric constant tensor:
#      x y z
#    x 1.613160 0.000000 -0.002550 
#    y 0.000000 1.648260 0.000000 
#    z -0.002550 0.000000 1.716450 
# 
# From -- ./inp_files/226579.got.cif
#   From: 2010.05.17/outbox.cif.g08.bks.cpg/sg12_114_cif.got.tgz:226579.got - 2010.06.03 13:09:07.
