data_PCOD9186561
_publ_section_title
;
Structure prediction by ZEFSAII (Michael W. Deem and Ramdas Pophale) SiO2 
 PCOD9186561
Probable space group: C 2/M
;
_chemical_formula_sum "Si O2"
_cell_formula_units_Z 50
_cell_length_a 19.780896
_cell_length_b 7.667854
_cell_length_c 16.862897
_cell_angle_alpha 90.000000
_cell_angle_beta 77.479955
_cell_angle_gamma 90.000000
_cell_volume 2496.892146
_symmetry_space_group_name_H-M "C 2/M"
_symmetry_group_IT_number 12
_symmetry_cell_setting 'monoclinic'
loop_
_space_group_symop_operation_xyz
x,y,z
-x,y,-z
-x,-y,-z
x,-y,z
1/2+x,1/2+y,z
1/2-x,1/2+y,-z
1/2-x,1/2-y,-z
1/2+x,1/2-y,z
loop_
_atom_site_type_symbol
_atom_site_label
_atom_site_fract_x
_atom_site_fract_y
_atom_site_fract_z
Si Si1 0.221785 0.208349 0.420676
Si Si2 0.421508 0.210517 0.929336
Si Si3 0.080055 0.286887 0.891407
Si Si4 0.705869 0.212309 0.755250
Si Si5 0.351452 0.704244 0.785416
Si Si6 0.000000 0.000000 0.500000
Si Si7 0.074730 0.691978 0.388919
O O1 0.250000 0.250000 0.500000
O O2 0.276527 0.264108 0.339161
O O3 0.147503 0.289920 0.418606
O O4 0.211974 0.000000 0.416523
O O5 0.501119 0.267654 0.896027
O O6 0.374476 0.271543 0.869423
O O7 0.420932 0.000000 0.928835
O O8 0.400877 0.265740 0.023461
O O9 0.079924 0.500000 0.890586
O O10 0.135601 0.224823 0.813367
O O11 0.773359 0.266545 0.788430
O O12 0.702599 0.000000 0.757019
O O13 0.351988 0.500000 0.765332
O O14 0.402990 0.789872 0.708843
O O15 0.973364 0.153614 0.568669
O O16 0.044811 0.500000 0.408584
#
# Coordination Sequence:
#
# PCOD9186561 Si02
#       7
#     8   8   8   8   8   2   8
#     4  10  19  36  57  83 116 153 200 251 301 354
#     4   9  17  30  53  78 108 144 185 236 292 350
#     4   8  15  31  50  76 107 142 190 240 285 344
#     4   8  16  31  53  74 104 145 191 239 287 342
#     4  10  19  35  54  78 110 149 188 237 286 345
#     4  12  22  44  60  90 124 146 202 248 284 358
#     4  11  22  40  63  85 118 159 193 242 303 348
#
# _framework density 20.024892999999999
#
# number of rings (size 3 to 8) (size 9 to 14) (size 15 to 20)
#    0.000    2.560    1.600    3.120    0.000    0.640 
#    2.880    1.600    0.000    9.600    0.000    0.000 
#    0.000    0.000    0.000    0.000    0.000    0.000 
#
# Total GULP energy -139240.261053 kJ/mol
# GULP energy per Si atom -5569.610442 kJ/mol
# Density = 1.997932 g / cm^3
# Si number density = 20.024893 Si / 1000 Ang^3
#
#
#
# Elastic Constant Matrix: (Units=GPa)
#
#
# Indices 1 2 3 4 5 6 
#
# 1 31.4958 -0.0007 49.1326 0.0000 0.5367 0.0000
# 2 -0.0007 91.9560 2.4137 0.0000 -11.2174 0.0000
# 3 49.1326 2.4137 110.6321 0.0000 7.6186 0.0000
# 4 0.0000 0.0000 0.0000 18.0197 0.0000 7.2834
# 5 0.5367 -11.2174 7.6186 0.0000 36.8414 0.0000
# 6 0.0000 0.0000 0.0000 7.2834 0.0000 6.1068
#
#
#
# Elastic Compliance Matrix: (Units=1/GPa)
#
#
# Indices 1 2 3 4 5 6 
#
# 1 0.106285 0.002364 -0.047878 0.000000 0.009072 0.000000
# 2 0.002364 0.011373 -0.001556 0.000000 0.003750 0.000000
# 3 -0.047878 -0.001556 0.030759 0.000000 -0.006137 0.000000
# 4 0.000000 0.000000 0.000000 0.107146 0.000000 -0.127788
# 5 0.009072 0.003750 -0.006137 0.000000 0.029422 0.000000
# 6 0.000000 0.000000 0.000000 -0.127788 0.000000 0.316159
#
#
# Mechanical properties :
#
#
# Convention : Reuss Voigt Hill
#
# Bulk Modulus (GPa) = 18.42443 37.46389 27.94416
# Shear Modulus (GPa) = 7.00892 24.36280 15.68586
#
# Velocity S-wave (km/s) = 1.87289 3.49180 2.80182
# Velocity P-wave (km/s) = 3.72796 5.91660 4.94489
#
# Compressibility (1/GPa) = 0.05427575
#
# Stress axis : x y z
#
# Youngs Moduli (GPa) = 9.40869 87.92664 32.51113
#
# Poissons Ratio (x) = -0.20788 1.55658
# Poissons Ratio (y) = -0.02224 0.05060
# Poissons Ratio (z) = 0.45047 0.13685
#
# Static dielectric constant tensor:
#      x y z
#    x 1.687500 0.000000 -0.011490 
#    y 0.000000 1.737630 0.000000 
#    z -0.011490 0.000000 1.691550 
# 
# From -- ./inp_files/230133.got.cif
#   From: 2010.05.17/outbox.cif.g08.bks.cpg/sg12_116_cif.got.tgz:230133.got - 2010.06.03 13:09:07.
