data_PCOD9186121
_publ_section_title
;
Structure prediction by ZEFSAII (Michael W. Deem and Ramdas Pophale) SiO2 
 PCOD9186121
Probable space group: C 2/M
;
_chemical_formula_sum "Si O2"
_cell_formula_units_Z 56
_cell_length_a 33.489616
_cell_length_b 7.894692
_cell_length_c 22.944101
_cell_angle_alpha 90.000000
_cell_angle_beta 153.979326
_cell_angle_gamma 90.000000
_cell_volume 2661.212255
_symmetry_space_group_name_H-M "C 2/M"
_symmetry_group_IT_number 12
_symmetry_cell_setting 'monoclinic'
loop_
_space_group_symop_operation_xyz
x,y,z
-x,y,-z
-x,-y,-z
x,-y,z
1/2+x,1/2+y,z
1/2-x,1/2+y,-z
1/2-x,1/2-y,-z
1/2+x,1/2-y,z
loop_
_atom_site_type_symbol
_atom_site_label
_atom_site_fract_x
_atom_site_fract_y
_atom_site_fract_z
Si Si1 0.861824 0.706308 0.843476
Si Si2 0.909608 0.301482 0.348669
Si Si3 0.169786 0.205731 0.640128
Si Si4 0.538137 0.793162 0.141397
Si Si5 0.646445 0.694892 0.852744
Si Si6 0.848413 0.702093 0.602536
Si Si7 0.953302 0.203608 0.625303
O O1 0.862299 0.500000 0.843488
O O2 0.762350 0.760630 0.730530
O O3 0.894155 0.759437 0.821877
O O4 0.938241 0.760570 0.990064
O O5 0.923805 0.500000 0.354983
O O6 0.835841 0.278062 0.302699
O O7 0.878874 0.215235 0.248763
O O8 0.000000 0.231846 0.500000
O O9 0.087902 0.263021 0.490555
O O10 0.168108 0.000000 0.641454
O O11 0.576328 0.733043 0.252659
O O12 0.537869 0.000000 0.142080
O O13 0.647095 0.500000 0.870266
O O14 0.556838 0.771833 0.767775
O O15 0.750000 0.750000 0.000000
O O16 0.850549 0.500000 0.604521
O O17 0.750000 0.750000 0.500000
O O18 0.881431 0.759582 0.582274
O O19 0.958497 0.000000 0.628239
#
# Coordination Sequence:
#
# PCOD9186121 Si02
#       7
#     8   8   8   8   8   8   8
#     4   8  14  27  51  79 105 137 180 233 286 343
#     4  11  23  39  61  88 120 155 198 250 303 364
#     4  10  19  34  59  87 114 147 195 245 299 362
#     4   8  15  29  48  74 108 141 179 230 284 337
#     4  11  24  43  66  91 125 165 207 256 314 377
#     4  11  22  35  55  82 116 154 196 242 295 361
#     4  10  22  39  59  85 118 155 197 248 305 366
#
# _framework density 21.043043000000001
#
# number of rings (size 3 to 8) (size 9 to 14) (size 15 to 20)
#    0.000    2.143    1.429    3.000    0.000    5.714 
#    0.000    1.429    0.000    0.857    0.000    6.000 
#    0.000    0.000    0.000    0.000    0.000    0.000 
#
# Total GULP energy -156196.921186 kJ/mol
# GULP energy per Si atom -5578.461471 kJ/mol
# Density = 2.099515 g / cm^3
# Si number density = 21.043043 Si / 1000 Ang^3
#
#
#
# Elastic Constant Matrix: (Units=GPa)
#
#
# Indices 1 2 3 4 5 6 
#
# 1 87.8155 -6.6652 39.6049 0.0000 12.2505 0.0000
# 2 -6.6652 20.3877 -2.5023 0.0000 10.1955 0.0000
# 3 39.6049 -2.5023 83.2740 0.0000 19.6447 0.0000
# 4 0.0000 0.0000 0.0000 17.5491 0.0000 1.5115
# 5 12.2505 10.1955 19.6447 0.0000 38.5408 0.0000
# 6 0.0000 0.0000 0.0000 1.5115 0.0000 23.7764
#
#
#
# Elastic Compliance Matrix: (Units=1/GPa)
#
#
# Indices 1 2 3 4 5 6 
#
# 1 0.015082 0.005718 -0.006267 0.000000 -0.003112 0.000000
# 2 0.005718 0.061404 0.003849 0.000000 -0.020023 0.000000
# 3 -0.006267 0.003849 0.016908 0.000000 -0.007645 0.000000
# 4 0.000000 0.000000 0.000000 0.057297 0.000000 -0.003642
# 5 -0.003112 -0.020023 -0.007645 0.000000 0.036129 0.000000
# 6 0.000000 0.000000 0.000000 -0.003642 0.000000 0.042290
#
#
# Mechanical properties :
#
#
# Convention : Reuss Voigt Hill
#
# Bulk Modulus (GPa) = 10.00054 28.03912 19.01983
# Shear Modulus (GPa) = 19.54335 26.70926 23.12630
#
# Velocity S-wave (km/s) = 3.05082 3.56654 3.31871
# Velocity P-wave (km/s) = 4.14400 5.50581 4.87271
#
# Compressibility (1/GPa) = 0.09999461
#
# Stress axis : x y z
#
# Youngs Moduli (GPa) = 66.30391 16.28554 59.14297
#
# Poissons Ratio (x) = -0.09312 0.37065
# Poissons Ratio (y) = -0.37911 -0.22766
# Poissons Ratio (z) = 0.41553 -0.06269
#
# Static dielectric constant tensor:
#      x y z
#    x 1.781380 0.000000 0.038550 
#    y 0.000000 1.759320 0.000000 
#    z 0.038550 0.000000 1.791000 
# 
# From -- ./inp_files/329716.got.cif
#   From: 2010.05.17/outbox.cif.g08.bks.cpg/sg12_165_cif.got.tgz:329716.got - 2010.06.03 13:09:07.
