data_PCOD9186429
_publ_section_title
;
Structure prediction by ZEFSAII (Michael W. Deem and Ramdas Pophale) SiO2 
 PCOD9186429
Probable space group: C 2/M
;
_chemical_formula_sum "Si O2"
_cell_formula_units_Z 56
_cell_length_a 28.699425
_cell_length_b 12.752923
_cell_length_c 8.300925
_cell_angle_alpha 90.000000
_cell_angle_beta 62.261702
_cell_angle_gamma 90.000000
_cell_volume 2689.015358
_symmetry_space_group_name_H-M "C 2/M"
_symmetry_group_IT_number 12
_symmetry_cell_setting 'monoclinic'
loop_
_space_group_symop_operation_xyz
x,y,z
-x,y,-z
-x,-y,-z
x,-y,z
1/2+x,1/2+y,z
1/2-x,1/2+y,-z
1/2-x,1/2-y,-z
1/2+x,1/2-y,z
loop_
_atom_site_type_symbol
_atom_site_label
_atom_site_fract_x
_atom_site_fract_y
_atom_site_fract_z
Si Si1 0.147055 0.312365 0.245325
Si Si2 0.736063 0.873860 0.316022
Si Si3 0.582534 0.796669 0.032349
Si Si4 0.114325 0.118911 0.497828
Si Si5 0.579091 0.000000 0.461672
Si Si6 0.024006 0.500000 0.195429
Si Si7 0.995174 0.122645 0.700384
Si Si8 0.171951 0.767396 0.666087
O O1 0.206760 0.337039 0.199534
O O2 0.126357 0.324468 0.098492
O O3 0.128955 0.198815 0.333732
O O4 0.114604 0.397082 0.402956
O O5 0.791968 0.817619 0.253198
O O6 0.701924 0.823675 0.518639
O O7 0.738871 0.000000 0.317809
O O8 0.544940 0.896317 0.077664
O O9 0.546350 0.700375 0.151747
O O10 0.616904 0.772479 0.822439
O O11 0.157586 0.140931 0.563784
O O12 0.055417 0.139043 0.659602
O O13 0.114616 0.000000 0.439752
O O14 0.549297 0.000000 0.336290
O O15 0.537587 0.000000 0.671078
O O16 0.000000 0.142556 0.500000
O O17 0.981186 0.000000 0.746648
#
# Coordination Sequence:
#
# PCOD9186429 Si02
#       8
#     8   8   8   8   4   4   8   8
#     4  10  19  34  63  87 116 155 199 250 291 349
#     4  10  21  42  63  80 112 159 208 249 305 359
#     4  11  22  37  58  92 126 151 198 248 302 358
#     4  10  20  37  59  85 119 159 203 236 293 361
#     4   9  16  32  53  91 115 159 195 225 292 358
#     4   9  20  30  55  85 129 155 186 239 293 351
#     4  10  20  35  59  88 120 162 198 242 295 359
#     4  10  24  39  60  87 116 159 198 254 305 359
#
# _framework density 20.825465999999999
#
# number of rings (size 3 to 8) (size 9 to 14) (size 15 to 20)
#    0.000    2.000    2.143    1.286    3.000    2.286 
#    0.000    1.429    0.000    2.571    0.000    0.000 
#    0.000    0.000    0.000    0.000    0.000    0.000 
#
# Total GULP energy -156342.625668 kJ/mol
# GULP energy per Si atom -5583.665202 kJ/mol
# Density = 2.077807 g / cm^3
# Si number density = 20.825466 Si / 1000 Ang^3
#
#
#
# Elastic Constant Matrix: (Units=GPa)
#
#
# Indices 1 2 3 4 5 6 
#
# 1 62.6604 6.1125 -18.8032 0.0000 4.4711 0.0000
# 2 6.1125 108.9298 24.5999 0.0000 -11.6519 0.0000
# 3 -18.8032 24.5999 33.3933 0.0000 -13.7511 0.0000
# 4 0.0000 0.0000 0.0000 -10.9996 0.0000 -6.4658
# 5 4.4711 -11.6519 -13.7511 0.0000 21.8341 0.0000
# 6 0.0000 0.0000 0.0000 -6.4658 0.0000 22.3124
#
#
#
# Elastic Compliance Matrix: (Units=1/GPa)
#
#
# Indices 1 2 3 4 5 6 
#
# 1 0.021209 -0.004598 0.016919 0.000000 0.003858 0.000000
# 2 -0.004598 0.012027 -0.011366 0.000000 0.000201 0.000000
# 3 0.016919 -0.011366 0.059301 0.000000 0.027818 0.000000
# 4 0.000000 0.000000 0.000000 -0.077680 0.000000 -0.022511
# 5 0.003858 0.000201 0.027818 0.000000 0.062637 0.000000
# 6 0.000000 0.000000 0.000000 -0.022511 0.000000 0.038295
#
#
# Mechanical properties :
#
#
# Convention : Reuss Voigt Hill
#
# Bulk Modulus (GPa) = 10.58803 25.42243 18.00523
# Shear Modulus (GPa) = 34.39719 19.50100 26.94910
#
# Velocity S-wave (km/s) = 4.06851 3.06339 3.60119
# Velocity P-wave (km/s) = 5.21206 4.97457 5.09470
#
# Compressibility (1/GPa) = 0.09444625
#
# Stress axis : x y z
#
# Youngs Moduli (GPa) = 47.14909 83.14906 16.86315
#
# Poissons Ratio (x) = 0.38234 -0.28531
# Poissons Ratio (y) = 0.21680 0.19166
# Poissons Ratio (z) = -0.79771 0.94506
#
# Static dielectric constant tensor:
#      x y z
#    x 1.797790 0.000000 0.023010 
#    y 0.000000 1.712350 0.000000 
#    z 0.023010 0.000000 1.714520 
# 
# From -- ./inp_files/110371.got.cif
#   From: 2010.05.17/outbox.cif.g08.bks.cpg/sg12_56_cif.got.tgz:110371.got - 2010.06.03 13:09:07.
