data_PCOD9186075
_publ_section_title
;
Structure prediction by ZEFSAII (Michael W. Deem and Ramdas Pophale) SiO2 
 PCOD9186075
Probable space group: C 2/M
;
_chemical_formula_sum "Si O2"
_cell_formula_units_Z 56
_cell_length_a 30.010846
_cell_length_b 16.156732
_cell_length_c 5.650873
_cell_angle_alpha 90.000000
_cell_angle_beta 107.431790
_cell_angle_gamma 90.000000
_cell_volume 2614.143876
_symmetry_space_group_name_H-M "C 2/M"
_symmetry_group_IT_number 12
_symmetry_cell_setting 'monoclinic'
loop_
_space_group_symop_operation_xyz
x,y,z
-x,y,-z
-x,-y,-z
x,-y,z
1/2+x,1/2+y,z
1/2-x,1/2+y,-z
1/2-x,1/2-y,-z
1/2+x,1/2-y,z
loop_
_atom_site_type_symbol
_atom_site_label
_atom_site_fract_x
_atom_site_fract_y
_atom_site_fract_z
Si Si1 0.444457 0.209778 0.397237
Si Si2 0.601835 0.818861 0.176292
Si Si3 0.248712 0.405763 0.542069
Si Si4 0.796910 0.270442 0.215794
Si Si5 0.621331 0.637126 0.679392
Si Si6 0.858015 0.129060 0.776345
Si Si7 0.676381 0.089226 0.060150
O O1 0.500000 0.209168 0.500000
O O2 0.424173 0.173218 0.613402
O O3 0.422423 0.301669 0.367804
O O4 0.428794 0.174618 0.114105
O O5 0.626967 0.727400 0.203893
O O6 0.641116 0.889204 0.214559
O O7 0.239199 0.500000 0.622509
O O8 0.221739 0.325231 0.597532
O O9 0.302746 0.386778 0.667777
O O10 0.229184 0.410188 0.244143
O O11 0.830791 0.191938 0.280403
O O12 0.750000 0.250000 0.000000
O O13 0.828067 0.336737 0.126280
O O14 0.618811 0.592587 0.423403
O O15 0.626896 0.596140 0.943256
O O16 0.665714 0.000000 0.942474
#
# Coordination Sequence:
#
# PCOD9186075 Si02
#       7
#     8   8   8   8   8   8   8
#     4  10  19  34  59  85 109 133 176 239 285 323
#     4  10  20  37  56  81 106 144 183 221 284 331
#     4  11  23  34  49  77 112 150 192 229 271 318
#     4  12  20  34  55  76 105 149 184 234 263 327
#     4  10  20  33  57  79 106 137 186 218 279 323
#     4  10  19  36  52  78 106 143 180 226 262 329
#     4  11  23  36  51  76 110 150 191 233 274 325
#
# _framework density 21.421927
#
# number of rings (size 3 to 8) (size 9 to 14) (size 15 to 20)
#    0.000    1.429    4.286    3.429    0.000    1.714 
#    0.000    0.000    0.000    2.571    0.000    0.000 
#    0.000   54.857    0.000    0.000    0.000    0.000 
#
# Total GULP energy -156047.933288 kJ/mol
# GULP energy per Si atom -5573.140475 kJ/mol
# Density = 2.137317 g / cm^3
# Si number density = 21.421927 Si / 1000 Ang^3
#
#
#
# Elastic Constant Matrix: (Units=GPa)
#
#
# Indices 1 2 3 4 5 6 
#
# 1 80.8386 4.5632 37.3855 0.0000 1.2504 0.0000
# 2 4.5632 76.1656 9.9456 0.0000 -9.6419 0.0000
# 3 37.3855 9.9456 149.0972 0.0000 -14.8858 0.0000
# 4 0.0000 0.0000 0.0000 -5.5732 0.0000 5.1131
# 5 1.2504 -9.6419 -14.8858 0.0000 45.4348 0.0000
# 6 0.0000 0.0000 0.0000 5.1131 0.0000 -1.6761
#
#
#
# Elastic Compliance Matrix: (Units=1/GPa)
#
#
# Indices 1 2 3 4 5 6 
#
# 1 0.014130 -0.000584 -0.003675 0.000000 -0.001717 0.000000
# 2 -0.000584 0.013574 -0.000486 0.000000 0.002738 0.000000
# 3 -0.003675 -0.000486 0.007920 0.000000 0.002593 0.000000
# 4 0.000000 0.000000 0.000000 0.099756 0.000000 0.304309
# 5 -0.001717 0.002738 0.002593 0.000000 0.023487 0.000000
# 6 0.000000 0.000000 0.000000 0.304309 0.000000 0.331694
#
#
# Mechanical properties :
#
#
# Convention : Reuss Voigt Hill
#
# Bulk Modulus (GPa) = 38.26493 45.54332 41.90412
# Shear Modulus (GPa) = 9.82778 24.58425 17.20601
#
# Velocity S-wave (km/s) = 2.14422 3.39133 2.83715
# Velocity P-wave (km/s) = 4.90220 6.05319 5.50784
#
# Compressibility (1/GPa) = 0.02613359
#
# Stress axis : x y z
#
# Youngs Moduli (GPa) = 70.77332 73.66888 126.26431
#
# Poissons Ratio (x) = 0.04302 0.46407
# Poissons Ratio (y) = 0.04133 0.06133
# Poissons Ratio (z) = 0.26012 0.03578
#
# Static dielectric constant tensor:
#      x y z
#    x 1.784640 0.000000 -0.051800 
#    y 0.000000 1.839390 0.000000 
#    z -0.051800 0.000000 1.887400 
# 
# From -- ./inp_files/31922.got.cif
#   From: 2010.05.17/outbox.cif.g08.bks.cpg/sg12_16_cif.got.tgz:31922.got - 2010.06.03 13:09:07.
