data_PCOD9186520
_publ_section_title
;
Structure prediction by ZEFSAII (Michael W. Deem and Ramdas Pophale) SiO2 
 PCOD9186520
Probable space group: C 2/M
;
_chemical_formula_sum "Si O2"
_cell_formula_units_Z 64
_cell_length_a 22.090603
_cell_length_b 14.364302
_cell_length_c 12.621078
_cell_angle_alpha 90.000000
_cell_angle_beta 68.502042
_cell_angle_gamma 90.000000
_cell_volume 3726.254793
_symmetry_space_group_name_H-M "C 2/M"
_symmetry_group_IT_number 12
_symmetry_cell_setting 'monoclinic'
loop_
_space_group_symop_operation_xyz
x,y,z
-x,y,-z
-x,-y,-z
x,-y,z
1/2+x,1/2+y,z
1/2-x,1/2+y,-z
1/2-x,1/2-y,-z
1/2+x,1/2-y,z
loop_
_atom_site_type_symbol
_atom_site_label
_atom_site_fract_x
_atom_site_fract_y
_atom_site_fract_z
Si Si1 0.925681 0.388622 0.770041
Si Si2 0.665125 0.805824 0.747024
Si Si3 0.565905 0.809600 0.620205
Si Si4 0.439236 0.399164 0.460298
Si Si5 0.699546 0.643428 0.416463
Si Si6 0.925235 0.611122 0.018389
Si Si7 0.710284 0.601341 0.659758
Si Si8 0.848263 0.344864 0.619555
O O1 0.924337 0.500000 0.753241
O O2 0.874971 0.342798 0.721044
O O3 0.996645 0.348760 0.698144
O O4 0.913048 0.371533 0.902074
O O5 0.619164 0.827561 0.676302
O O6 0.732405 0.863927 0.688966
O O7 0.625596 0.834897 0.875802
O O8 0.679880 0.694559 0.730954
O O9 0.561647 0.697254 0.604651
O O10 0.590905 0.860592 0.497504
O O11 0.500000 0.391574 0.500000
O O12 0.445053 0.500000 0.400158
O O13 0.369791 0.402443 0.565844
O O14 0.710816 0.619352 0.532454
O O15 0.680710 0.750042 0.410067
O O16 0.918865 0.500000 0.042103
O O17 0.000000 0.635983 0.000000
O O18 0.678411 0.500000 0.699429
O O19 0.784501 0.593891 0.650712
#
# Coordination Sequence:
#
# PCOD9186520 Si02
#       8
#     8   8   8   8   8   8   8   8
#     4  11  23  37  55  81 113 149 188 232 286 340
#     4  11  20  36  57  84 114 144 193 233 276 327
#     4  11  19  33  55  83 116 147 179 233 280 338
#     4  10  20  33  51  79 115 151 183 218 272 337
#     4  10  19  35  53  83 116 149 182 224 274 337
#     4  10  22  40  58  78 107 150 196 233 275 332
#     4  11  20  33  56  85 117 150 183 225 280 341
#     4  10  19  35  53  82 119 145 177 227 285 340
#
# _framework density 17.175422000000001
#
# number of rings (size 3 to 8) (size 9 to 14) (size 15 to 20)
#    0.000    1.500    5.000    3.375    0.000    2.500 
#    0.000    2.500    0.000    1.125    0.000    0.000 
#    0.000    0.000    0.000    0.000    0.000    0.000 
#
# Total GULP energy -178174.278785 kJ/mol
# GULP energy per Si atom -5567.946212 kJ/mol
# Density = 1.713633 g / cm^3
# Si number density = 17.175422 Si / 1000 Ang^3
#
#
#
# Elastic Constant Matrix: (Units=GPa)
#
#
# Indices 1 2 3 4 5 6 
#
# 1 119.0257 9.5666 42.0406 0.0000 -4.9403 0.0000
# 2 9.5666 27.4025 18.0495 0.0000 -4.8099 0.0000
# 3 42.0406 18.0495 95.6176 0.0000 -10.4953 0.0000
# 4 0.0000 0.0000 0.0000 61.9223 0.0000 40.9911
# 5 -4.9403 -4.8099 -10.4953 0.0000 27.4323 0.0000
# 6 0.0000 0.0000 0.0000 40.9911 0.0000 62.6045
#
#
#
# Elastic Compliance Matrix: (Units=1/GPa)
#
#
# Indices 1 2 3 4 5 6 
#
# 1 0.009957 -0.000671 -0.004246 0.000000 0.000051 0.000000
# 2 -0.000671 0.042255 -0.007183 0.000000 0.004540 0.000000
# 3 -0.004246 -0.007183 0.014049 0.000000 0.003351 0.000000
# 4 0.000000 0.000000 0.000000 0.028504 0.000000 -0.018663
# 5 0.000051 0.004540 0.003351 0.000000 0.038541 0.000000
# 6 0.000000 0.000000 0.000000 -0.018663 0.000000 0.028193
#
#
# Mechanical properties :
#
#
# Convention : Reuss Voigt Hill
#
# Bulk Modulus (GPa) = 23.77428 42.37324 33.07376
# Shear Modulus (GPa) = 25.03514 41.88442 33.45978
#
# Velocity S-wave (km/s) = 3.82201 4.94360 4.41854
# Velocity P-wave (km/s) = 5.77487 7.57034 6.73272
#
# Compressibility (1/GPa) = 0.04206226
#
# Stress axis : x y z
#
# Youngs Moduli (GPa) = 100.42997 23.66557 71.18034
#
# Poissons Ratio (x) = 0.01587 0.30221
# Poissons Ratio (y) = 0.06735 0.51131
# Poissons Ratio (z) = 0.42640 0.17000
#
# Static dielectric constant tensor:
#      x y z
#    x 1.612690 0.000000 -0.011980 
#    y 0.000000 1.659860 0.000000 
#    z -0.011980 0.000000 1.559070 
# 
# From -- ./inp_files/176097.got.cif
#   From: 2010.05.17/outbox.cif.g08.bks.cpg/sg12_89_cif.got.tgz:176097.got - 2010.06.03 13:09:07.
