data_PCOD9186393
_publ_section_title
;
Structure prediction by ZEFSAII (Michael W. Deem and Ramdas Pophale) SiO2 
 PCOD9186393
Probable space group: C 2/M
;
_chemical_formula_sum "Si O2"
_cell_formula_units_Z 60
_cell_length_a 8.559969
_cell_length_b 17.375480
_cell_length_c 20.994825
_cell_angle_alpha 90.000000
_cell_angle_beta 77.401252
_cell_angle_gamma 90.000000
_cell_volume 3047.446993
_symmetry_space_group_name_H-M "C 2/M"
_symmetry_group_IT_number 12
_symmetry_cell_setting 'monoclinic'
loop_
_space_group_symop_operation_xyz
x,y,z
-x,y,-z
-x,-y,-z
x,-y,z
1/2+x,1/2+y,z
1/2-x,1/2+y,-z
1/2-x,1/2-y,-z
1/2+x,1/2-y,z
loop_
_atom_site_type_symbol
_atom_site_label
_atom_site_fract_x
_atom_site_fract_y
_atom_site_fract_z
Si Si1 0.563117 0.213024 0.693658
Si Si2 0.945822 0.288268 0.931036
Si Si3 0.948512 0.914177 0.396588
Si Si4 0.653873 0.353567 0.261045
Si Si5 0.720819 0.642837 0.118431
Si Si6 0.190871 0.915450 0.986944
Si Si7 0.000000 0.214916 0.500000
Si Si8 0.828437 0.676984 0.606928
O O1 0.431159 0.269063 0.736951
O O2 0.665009 0.158138 0.730077
O O3 0.697076 0.270172 0.653634
O O4 0.478261 0.172392 0.641169
O O5 0.885903 0.212380 0.900953
O O6 0.799049 0.348846 0.946663
O O7 0.102563 0.323431 0.884831
O O8 0.000000 0.274344 0.000000
O O9 0.761219 0.902592 0.397224
O O10 0.055483 0.897964 0.324393
O O11 0.977903 0.844604 0.443520
O O12 0.981567 0.000000 0.417598
O O13 0.652040 0.387873 0.190645
O O14 0.733421 0.585838 0.058041
O O15 0.226459 0.000000 0.956589
O O16 0.000000 0.903218 0.000000
O O17 0.872304 0.275569 0.539726
#
# Coordination Sequence:
#
# PCOD9186393 Si02
#       8
#     8   8   8   8   8   8   4   8
#     4   9  17  35  55  83 107 144 196 237 277 337
#     4  10  20  34  55  86 118 143 187 245 288 327
#     4  11  24  39  57  88 124 153 188 248 306 347
#     4  10  20  35  57  84 114 152 190 239 289 350
#     4  11  20  33  57  84 114 148 191 236 284 346
#     4  10  21  37  56  79 111 152 193 237 293 345
#     4  12  19  38  67  86 110 156 206 240 285 356
#     4  10  19  34  62  84 111 147 199 239 286 346
#
# _framework density 19.688611999999999
#
# number of rings (size 3 to 8) (size 9 to 14) (size 15 to 20)
#    0.000    1.733    4.000    4.200    0.000    2.933 
#    0.000    2.333    0.000    0.000    0.000    0.000 
#    0.000    0.000    0.000    0.000    0.000    0.000 
#
# Total GULP energy -167205.659141 kJ/mol
# GULP energy per Si atom -5573.521971 kJ/mol
# Density = 1.964380 g / cm^3
# Si number density = 19.688612 Si / 1000 Ang^3
#
#
#
# Elastic Constant Matrix: (Units=GPa)
#
#
# Indices 1 2 3 4 5 6 
#
# 1 86.9459 13.5169 8.1641 0.0000 5.5313 0.0000
# 2 13.5169 61.7222 6.0541 0.0000 3.7004 0.0000
# 3 8.1641 6.0541 88.7579 0.0000 -0.5504 0.0000
# 4 0.0000 0.0000 0.0000 6.6523 0.0000 2.9368
# 5 5.5313 3.7004 -0.5504 0.0000 15.2865 0.0000
# 6 0.0000 0.0000 0.0000 2.9368 0.0000 6.4184
#
#
#
# Elastic Compliance Matrix: (Units=1/GPa)
#
#
# Indices 1 2 3 4 5 6 
#
# 1 0.012206 -0.002343 -0.000987 0.000000 -0.003885 0.000000
# 2 -0.002343 0.017008 -0.000965 0.000000 -0.003304 0.000000
# 3 -0.000987 -0.000965 0.011429 0.000000 0.001002 0.000000
# 4 0.000000 0.000000 0.000000 0.188375 0.000000 -0.086193
# 5 -0.003885 -0.003304 0.001002 0.000000 0.067659 0.000000
# 6 0.000000 0.000000 0.000000 -0.086193 0.000000 0.195242
#
#
# Mechanical properties :
#
#
# Convention : Reuss Voigt Hill
#
# Bulk Modulus (GPa) = 31.19926 32.54401 31.87163
# Shear Modulus (GPa) = 9.78105 19.65083 14.71594
#
# Velocity S-wave (km/s) = 2.23129 3.16267 2.73689
# Velocity P-wave (km/s) = 4.74541 5.46826 5.11961
#
# Compressibility (1/GPa) = 0.03205205
#
# Stress axis : x y z
#
# Youngs Moduli (GPa) = 81.93025 58.79752 87.49348
#
# Poissons Ratio (x) = 0.13778 0.08635
# Poissons Ratio (y) = 0.19198 0.08443
# Poissons Ratio (z) = 0.08086 0.05674
#
# Static dielectric constant tensor:
#      x y z
#    x 1.743280 0.000000 0.024660 
#    y 0.000000 1.691950 0.000000 
#    z 0.024660 0.000000 1.723420 
# 
# From -- ./inp_files/300753.got.cif
#   From: 2010.05.17/outbox.cif.g08.bks.cpg/sg12_151_cif.got.tgz:300753.got - 2010.06.03 13:09:07.
