data_PCOD9186715
_publ_section_title
;
Structure prediction by ZEFSAII (Michael W. Deem and Ramdas Pophale) SiO2 
 PCOD9186715
Probable space group: C 2/M
;
_chemical_formula_sum "Si O2"
_cell_formula_units_Z 56
_cell_length_a 14.385494
_cell_length_b 23.417886
_cell_length_c 18.668381
_cell_angle_alpha 90.000000
_cell_angle_beta 152.703890
_cell_angle_gamma 90.000000
_cell_volume 2884.051208
_symmetry_space_group_name_H-M "C 2/M"
_symmetry_group_IT_number 12
_symmetry_cell_setting 'monoclinic'
loop_
_space_group_symop_operation_xyz
x,y,z
-x,y,-z
-x,-y,-z
x,-y,z
1/2+x,1/2+y,z
1/2-x,1/2+y,-z
1/2-x,1/2-y,-z
1/2+x,1/2-y,z
loop_
_atom_site_type_symbol
_atom_site_label
_atom_site_fract_x
_atom_site_fract_y
_atom_site_fract_z
Si Si1 0.486849 0.132666 0.692397
Si Si2 0.979867 0.755881 0.099225
Si Si3 0.073662 0.931824 0.769858
Si Si4 0.344606 0.754654 0.253307
Si Si5 0.035581 0.136394 0.439181
Si Si6 0.286837 0.849053 0.018342
Si Si7 0.875848 0.432023 0.483190
O O1 0.509648 0.194526 0.670683
O O2 0.272782 0.129755 0.585213
O O3 0.664171 0.124346 0.871313
O O4 0.493556 0.086594 0.634660
O O5 0.974689 0.693180 0.129998
O O6 0.197253 0.771548 0.217670
O O7 0.814411 0.748932 0.921780
O O8 0.896359 0.804013 0.095227
O O9 0.066283 0.911204 0.682349
O O10 0.858556 0.915408 0.661359
O O11 0.099988 0.000000 0.792696
O O12 0.240004 0.895205 0.926504
O O13 0.455465 0.696751 0.352180
O O14 0.000000 0.132285 0.500000
O O15 0.870279 0.500000 0.472632
O O16 0.000000 0.408675 0.500000
#
# Coordination Sequence:
#
# PCOD9186715 Si02
#       7
#     8   8   8   8   8   8   8
#     4  10  22  35  58  89 117 151 198 246 291 355
#     4   9  19  33  58  81 117 159 184 235 299 348
#     4  10  22  40  63  86 115 158 204 247 293 349
#     4  10  19  35  55  86 117 152 194 237 293 357
#     4  11  22  39  58  84 120 158 196 248 297 348
#     4  10  19  37  58  84 119 153 196 239 293 349
#     4   9  20  39  58  81 118 159 193 241 299 346
#
# _framework density 19.417131000000001
#
# number of rings (size 3 to 8) (size 9 to 14) (size 15 to 20)
#    0.000    2.143    1.429    1.286    2.000    1.429 
#    2.571    0.000    0.000    8.571    0.000    0.000 
#    0.000    0.000    0.000    0.000    0.000    0.000 
#
# Total GULP energy -156115.354686 kJ/mol
# GULP energy per Si atom -5575.548382 kJ/mol
# Density = 1.937294 g / cm^3
# Si number density = 19.417131 Si / 1000 Ang^3
#
#
#
# Elastic Constant Matrix: (Units=GPa)
#
#
# Indices 1 2 3 4 5 6 
#
# 1 103.7319 4.6387 10.6311 -0.0003 -11.3170 -0.0004
# 2 4.6387 21.5754 15.7400 0.0027 -7.4358 -0.0002
# 3 10.6311 15.7400 40.3982 -0.0078 -14.7875 -0.0016
# 4 -0.0003 0.0027 -0.0078 23.9482 -0.0056 -8.0203
# 5 -11.3170 -7.4358 -14.7875 -0.0056 15.4825 -0.0004
# 6 -0.0004 -0.0002 -0.0016 -8.0203 -0.0004 23.4715
#
#
#
# Elastic Compliance Matrix: (Units=1/GPa)
#
#
# Indices 1 2 3 4 5 6 
#
# 1 0.010480 0.000510 -0.000097 0.000002 0.007813 0.000001
# 2 0.000510 0.065969 -0.021684 -0.000014 0.011345 -0.000006
# 3 -0.000097 -0.021684 0.045188 0.000029 0.032674 0.000013
# 4 0.000002 -0.000014 0.000029 0.047153 0.000040 0.016112
# 5 0.007813 0.011345 0.032674 0.000040 0.106956 0.000018
# 6 0.000001 -0.000006 0.000013 0.016112 0.000018 0.048111
#
#
# Mechanical properties :
#
#
# Convention : Reuss Voigt Hill
#
# Bulk Modulus (GPa) = 12.64312 25.30279 18.97296
# Shear Modulus (GPa) = 12.73032 21.56015 17.14524
#
# Velocity S-wave (km/s) = 2.56329 3.33583 2.97475
# Velocity P-wave (km/s) = 3.90974 5.28171 4.64664
#
# Compressibility (1/GPa) = 0.07909439
#
# Stress axis : x y z
#
# Youngs Moduli (GPa) = 95.42261 15.15870 22.12975
#
# Poissons Ratio (x) = -0.00773 0.00214
# Poissons Ratio (y) = -0.04867 0.47987
# Poissons Ratio (z) = 0.00923 0.32871
#
# Static dielectric constant tensor:
#      x y z
#    x 1.722450 0.000000 -0.007960 
#    y 0.000000 1.666830 0.000000 
#    z -0.007960 0.000000 1.692930 
# 
# From -- ./inp_files/272425.got.cif
#   From: 2010.05.17/outbox.cif.g08.bks.cpg/sg12_137_cif.got.tgz:272425.got - 2010.06.03 13:09:07.
