data_PCOD9186591
_publ_section_title
;
Structure prediction by ZEFSAII (Michael W. Deem and Ramdas Pophale) SiO2 
 PCOD9186591
Probable space group: C 2/M
;
_chemical_formula_sum "Si O2"
_cell_formula_units_Z 52
_cell_length_a 20.207068
_cell_length_b 18.417653
_cell_length_c 9.884432
_cell_angle_alpha 90.000000
_cell_angle_beta 40.964439
_cell_angle_gamma 90.000000
_cell_volume 2411.692598
_symmetry_space_group_name_H-M "C 2/M"
_symmetry_group_IT_number 12
_symmetry_cell_setting 'monoclinic'
loop_
_space_group_symop_operation_xyz
x,y,z
-x,y,-z
-x,-y,-z
x,-y,z
1/2+x,1/2+y,z
1/2-x,1/2+y,-z
1/2-x,1/2-y,-z
1/2+x,1/2-y,z
loop_
_atom_site_type_symbol
_atom_site_label
_atom_site_fract_x
_atom_site_fract_y
_atom_site_fract_z
Si Si1 0.588840 0.874319 0.204222
Si Si2 0.235329 0.149743 0.261898
Si Si3 0.704532 0.299247 0.755918
Si Si4 0.637753 0.081667 0.430220
Si Si5 0.461730 0.420622 0.349564
Si Si6 0.389932 0.295141 0.801535
Si Si7 0.500000 0.630951 0.000000
O O1 0.479230 0.907980 0.349464
O O2 0.635934 0.906453 0.269665
O O3 0.574321 0.788031 0.254489
O O4 0.664087 0.882397 0.961588
O O5 0.261141 0.216737 0.320832
O O6 0.156951 0.094274 0.448120
O O7 0.176986 0.185640 0.223938
O O8 0.792274 0.358472 0.606907
O O9 0.674140 0.302635 0.962279
O O10 0.600952 0.320428 0.842815
O O11 0.672459 0.000000 0.405833
O O12 0.489000 0.500000 0.361088
O O13 0.521199 0.353540 0.323567
O O14 0.494633 0.415898 0.143044
#
# Coordination Sequence:
#
# PCOD9186591 Si02
#       7
#     8   8   8   8   8   8   4
#     4  10  19  35  54  86 124 157 190 233 296 363
#     4  11  20  37  62  88 121 154 194 251 309 359
#     4  10  20  40  64  89 115 159 205 248 297 352
#     4  11  21  32  54  87 121 161 193 229 290 359
#     4  11  25  39  58  88 122 165 204 248 305 357
#     4  10  19  36  61  87 120 158 191 245 308 361
#     4  10  25  46  64  82 115 156 216 262 293 348
#
# _framework density 21.561620000000001
#
# number of rings (size 3 to 8) (size 9 to 14) (size 15 to 20)
#    0.000    1.538    3.077    3.462    2.154    6.154 
#    0.000    0.000    0.000    0.000    0.000    2.692 
#    0.000    0.000    0.000    0.000    0.000    0.000 
#
# Total GULP energy -145360.215863 kJ/mol
# GULP energy per Si atom -5590.777533 kJ/mol
# Density = 2.151255 g / cm^3
# Si number density = 21.561620 Si / 1000 Ang^3
#
#
#
# Elastic Constant Matrix: (Units=GPa)
#
#
# Indices 1 2 3 4 5 6 
#
# 1 48.9462 2.9104 -0.1094 0.0000 -12.4829 0.0000
# 2 2.9104 80.4580 22.8558 0.0000 -2.4789 0.0000
# 3 -0.1094 22.8558 87.6916 0.0000 -8.2065 0.0000
# 4 0.0000 0.0000 0.0000 3.3245 0.0000 21.1348
# 5 -12.4829 -2.4789 -8.2065 0.0000 32.7234 0.0000
# 6 0.0000 0.0000 0.0000 21.1348 0.0000 -25.4861
#
#
#
# Elastic Compliance Matrix: (Units=1/GPa)
#
#
# Indices 1 2 3 4 5 6 
#
# 1 0.022750 -0.000857 0.001083 0.000000 0.008885 0.000000
# 2 -0.000857 0.013456 -0.003526 0.000000 -0.000192 0.000000
# 3 0.001083 -0.003526 0.012634 0.000000 0.003315 0.000000
# 4 0.000000 0.000000 0.000000 0.047960 0.000000 0.039771
# 5 0.008885 -0.000192 0.003315 0.000000 0.034765 0.000000
# 6 0.000000 0.000000 0.000000 0.039771 0.000000 -0.006256
#
#
# Mechanical properties :
#
#
# Convention : Reuss Voigt Hill
#
# Bulk Modulus (GPa) = 23.67410 29.82326 26.74868
# Shear Modulus (GPa) = 34.24933 14.87495 24.56214
#
# Velocity S-wave (km/s) = 3.98985 2.62941 3.37881
# Velocity P-wave (km/s) = 5.67704 4.80417 5.25874
#
# Compressibility (1/GPa) = 0.04224025
#
# Stress axis : x y z
#
# Youngs Moduli (GPa) = 43.95609 74.31857 79.15046
#
# Poissons Ratio (x) = 0.06368 -0.08574
# Poissons Ratio (y) = 0.03767 0.27909
# Poissons Ratio (z) = -0.04761 0.26205
#
# Static dielectric constant tensor:
#      x y z
#    x 1.788180 0.000000 0.001810 
#    y 0.000000 1.792910 0.000000 
#    z 0.001810 0.000000 1.810720 
# 
# From -- ./inp_files/168725.got.cif
#   From: 2010.05.17/outbox.cif.g08.bks.cpg/sg12_85_cif.got.tgz:168725.got - 2010.06.03 13:09:07.
