data_PCOD9186338
_publ_section_title
;
Structure prediction by ZEFSAII (Michael W. Deem and Ramdas Pophale) SiO2 
 PCOD9186338
Probable space group: C 2/M
;
_chemical_formula_sum "Si O2"
_cell_formula_units_Z 64
_cell_length_a 32.146401
_cell_length_b 19.646376
_cell_length_c 10.236715
_cell_angle_alpha 90.000000
_cell_angle_beta 35.831941
_cell_angle_gamma 90.000000
_cell_volume 3784.733984
_symmetry_space_group_name_H-M "C 2/M"
_symmetry_group_IT_number 12
_symmetry_cell_setting 'monoclinic'
loop_
_space_group_symop_operation_xyz
x,y,z
-x,y,-z
-x,-y,-z
x,-y,z
1/2+x,1/2+y,z
1/2-x,1/2+y,-z
1/2-x,1/2-y,-z
1/2+x,1/2-y,z
loop_
_atom_site_type_symbol
_atom_site_label
_atom_site_fract_x
_atom_site_fract_y
_atom_site_fract_z
Si Si1 0.160059 0.921866 0.111096
Si Si2 0.179623 0.073827 0.566024
Si Si3 0.420201 0.392943 0.416697
Si Si4 0.721948 0.794929 0.693334
Si Si5 0.416688 0.233098 0.361427
Si Si6 0.418089 0.613319 0.951650
Si Si7 0.763443 0.705215 0.836619
Si Si8 0.075205 0.730144 0.973693
O O1 0.120976 0.915262 0.349320
O O2 0.104866 0.902079 0.137053
O O3 0.183240 0.000000 0.033131
O O4 0.222901 0.866429 0.946989
O O5 0.118736 0.078665 0.611231
O O6 0.232254 0.136838 0.412944
O O7 0.214884 0.000000 0.467167
O O8 0.140432 0.081643 0.804013
O O9 0.415390 0.311049 0.414046
O O10 0.502809 0.411962 0.217269
O O11 0.750000 0.750000 0.500000
O O12 0.733025 0.749103 0.792973
O O13 0.639552 0.810349 0.874703
O O14 0.347547 0.197278 0.595754
O O15 0.494653 0.205092 0.199258
O O16 0.412792 0.234628 0.213315
O O17 0.418812 0.693809 0.982593
O O18 0.750000 0.750000 0.000000
#
# Coordination Sequence:
#
# PCOD9186338 Si02
#       8
#     8   8   8   8   8   8   8   8
#     4  12  25  37  51  79 115 151 179 218 274 324
#     4  12  23  35  55  83 110 145 186 226 269 318
#     4  11  21  37  54  76 113 151 183 214 260 327
#     4  12  19  37  58  78 106 147 183 229 271 315
#     4  10  19  35  59  86 106 138 188 233 271 316
#     4  11  21  35  54  80 111 148 184 215 262 327
#     4  12  21  37  58  81 108 145 186 230 266 320
#     4  10  19  34  61  84 107 139 186 233 273 317
#
# _framework density 16.910039000000001
#
# number of rings (size 3 to 8) (size 9 to 14) (size 15 to 20)
#    0.000    0.750    7.500    1.500    0.000    3.000 
#    0.000    0.625    0.000    0.750    0.000    1.750 
#    0.000    4.000    0.000    0.000    0.000    0.000 
#
# Total GULP energy -178743.432579 kJ/mol
# GULP energy per Si atom -5585.732268 kJ/mol
# Density = 1.687155 g / cm^3
# Si number density = 16.910039 Si / 1000 Ang^3
#
#
#
# Elastic Constant Matrix: (Units=GPa)
#
#
# Indices 1 2 3 4 5 6 
#
# 1 81.8426 13.9717 26.4050 0.0000 -13.2827 0.0000
# 2 13.9717 81.4134 20.7716 0.0000 -19.7678 0.0000
# 3 26.4050 20.7716 71.3714 0.0000 -15.6091 0.0000
# 4 0.0000 0.0000 0.0000 11.8472 0.0000 -0.4434
# 5 -13.2827 -19.7678 -15.6091 0.0000 41.0516 0.0000
# 6 0.0000 0.0000 0.0000 -0.4434 0.0000 -8.8378
#
#
#
# Elastic Compliance Matrix: (Units=1/GPa)
#
#
# Indices 1 2 3 4 5 6 
#
# 1 0.014200 -0.000667 -0.004499 0.000000 0.002563 0.000000
# 2 -0.000667 0.014480 -0.002716 0.000000 0.005724 0.000000
# 3 -0.004499 -0.002716 0.017300 0.000000 0.003815 0.000000
# 4 0.000000 0.000000 0.000000 0.084250 0.000000 -0.004226
# 5 0.002563 0.005724 0.003815 0.000000 0.029396 0.000000
# 6 0.000000 0.000000 0.000000 -0.004226 0.000000 -0.112938
#
#
# Mechanical properties :
#
#
# Convention : Reuss Voigt Hill
#
# Bulk Modulus (GPa) = 33.09318 39.65823 36.37570
# Shear Modulus (GPa) = 68.94299 20.37745 44.66022
#
# Velocity S-wave (km/s) = 6.39210 3.47515 5.14469
# Velocity P-wave (km/s) = 8.60763 6.29330 7.53979
#
# Compressibility (1/GPa) = 0.03021771
#
# Stress axis : x y z
#
# Youngs Moduli (GPa) = 70.42339 69.05983 57.80243
#
# Poissons Ratio (x) = 0.04605 0.26005
# Poissons Ratio (y) = 0.04696 0.15697
# Poissons Ratio (z) = 0.31683 0.18754
#
# Static dielectric constant tensor:
#      x y z
#    x 1.578780 0.000000 -0.015390 
#    y 0.000000 1.535820 0.000000 
#    z -0.015390 0.000000 1.574710 
# 
# From -- ./inp_files/112822.got.cif
#   From: 2010.05.17/outbox.cif.g08.bks.cpg/sg12_57_cif.got.tgz:112822.got - 2010.06.03 13:09:07.
