data_PCOD9186918
_publ_section_title
;
Structure prediction by ZEFSAII (Michael W. Deem and Ramdas Pophale) SiO2 
 PCOD9186918
Probable space group: C 2/M
;
_chemical_formula_sum "Si O2"
_cell_formula_units_Z 56
_cell_length_a 19.594260
_cell_length_b 8.967770
_cell_length_c 26.505060
_cell_angle_alpha 90.000000
_cell_angle_beta 141.752778
_cell_angle_gamma 90.000000
_cell_volume 2883.181396
_symmetry_space_group_name_H-M "C 2/M"
_symmetry_group_IT_number 12
_symmetry_cell_setting 'monoclinic'
loop_
_space_group_symop_operation_xyz
x,y,z
-x,y,-z
-x,-y,-z
x,-y,z
1/2+x,1/2+y,z
1/2-x,1/2+y,-z
1/2-x,1/2-y,-z
1/2+x,1/2-y,z
loop_
_atom_site_type_symbol
_atom_site_label
_atom_site_fract_x
_atom_site_fract_y
_atom_site_fract_z
Si Si1 0.314496 0.323000 0.807015
Si Si2 0.744295 0.179813 0.880282
Si Si3 0.963634 0.669198 0.037762
Si Si4 0.289757 0.177819 0.690517
Si Si5 0.503942 0.181349 0.251943
Si Si6 0.870717 0.321286 0.574374
Si Si7 0.402087 0.177864 0.480831
O O1 0.310353 0.500000 0.799348
O O2 0.261263 0.285138 0.830442
O O3 0.440524 0.265545 0.881385
O O4 0.259848 0.247771 0.726894
O O5 0.622517 0.229181 0.825973
O O6 0.754298 0.000000 0.890934
O O7 0.843412 0.257397 0.967914
O O8 0.962852 0.500000 0.057124
O O9 0.000000 0.663567 0.000000
O O10 0.412125 0.224751 0.743509
O O11 0.205743 0.234805 0.599446
O O12 0.286542 0.000000 0.691746
O O13 0.558980 0.230663 0.336800
O O14 0.501215 0.000000 0.251640
O O15 0.857519 0.500000 0.571668
O O16 0.750000 0.250000 0.500000
O O17 0.929074 0.291352 0.554745
O O18 0.500000 0.217990 0.500000
O O19 0.381626 0.000000 0.464300
#
# Coordination Sequence:
#
# PCOD9186918 Si02
#       7
#     8   8   8   8   8   8   8
#     4  10  20  34  57  83 109 141 181 221 264 318
#     4   9  18  34  58  82 105 138 182 224 262 314
#     4   9  17  32  54  81 114 142 172 217 270 319
#     4  11  22  37  55  77 111 145 177 219 274 324
#     4   9  19  35  55  78 106 142 180 220 266 317
#     4  10  19  35  57  78 105 141 181 220 266 317
#     4  10  22  37  57  81 107 140 182 227 268 315
#
# _framework density 19.422989000000001
#
# number of rings (size 3 to 8) (size 9 to 14) (size 15 to 20)
#    0.000    2.286    1.429    1.286    2.000    2.571 
#    0.000    2.857    0.000    0.000    0.000    0.000 
#    0.000    0.000    0.000    0.000    0.000    0.000 
#
# Total GULP energy -156252.179847 kJ/mol
# GULP energy per Si atom -5580.434995 kJ/mol
# Density = 1.937878 g / cm^3
# Si number density = 19.422989 Si / 1000 Ang^3
#
#
#
# Elastic Constant Matrix: (Units=GPa)
#
#
# Indices 1 2 3 4 5 6 
#
# 1 58.1140 18.2158 -6.4194 0.0000 12.5454 0.0000
# 2 18.2158 21.4510 0.5315 0.0000 3.8437 0.0000
# 3 -6.4194 0.5315 21.3909 0.0000 12.9199 0.0000
# 4 0.0000 0.0000 0.0000 28.9898 0.0000 2.3050
# 5 12.5454 3.8437 12.9199 0.0000 35.2973 0.0000
# 6 0.0000 0.0000 0.0000 2.3050 0.0000 16.2240
#
#
#
# Elastic Compliance Matrix: (Units=1/GPa)
#
#
# Indices 1 2 3 4 5 6 
#
# 1 0.029619 -0.022964 0.018368 0.000000 -0.014750 0.000000
# 2 -0.022964 0.065454 -0.011737 0.000000 0.005330 0.000000
# 3 0.018368 -0.011737 0.071540 0.000000 -0.031436 0.000000
# 4 0.000000 0.000000 0.000000 0.034889 0.000000 -0.004957
# 5 -0.014750 0.005330 -0.031436 0.000000 0.044499 0.000000
# 6 0.000000 0.000000 0.000000 -0.004957 0.000000 0.062341
#
#
# Mechanical properties :
#
#
# Convention : Reuss Voigt Hill
#
# Bulk Modulus (GPa) = 7.46568 13.95684 10.71126
# Shear Modulus (GPa) = 12.96491 22.01076 17.48784
#
# Velocity S-wave (km/s) = 2.58641 3.37000 3.00387
# Velocity P-wave (km/s) = 3.57372 4.72693 4.19019
#
# Compressibility (1/GPa) = 0.13394622
#
# Stress axis : x y z
#
# Youngs Moduli (GPa) = 33.76262 15.27797 13.97822
#
# Poissons Ratio (x) = 0.35084 -0.25675
# Poissons Ratio (y) = 0.77531 0.16406
# Poissons Ratio (z) = -0.62014 0.17932
#
# Static dielectric constant tensor:
#      x y z
#    x 1.693020 0.000000 -0.002530 
#    y 0.000000 1.650270 0.000000 
#    z -0.002530 0.000000 1.665820 
# 
# From -- ./inp_files/363093.got.cif
#   From: 2010.05.17/outbox.cif.g08.bks.cpg/sg12_182_cif.got.tgz:363093.got - 2010.06.03 13:09:07.
