data_PCOD9186887
_publ_section_title
;
Structure prediction by ZEFSAII (Michael W. Deem and Ramdas Pophale) SiO2 
 PCOD9186887
Probable space group: C 2/M
;
_chemical_formula_sum "Si O2"
_cell_formula_units_Z 44
_cell_length_a 19.630106
_cell_length_b 12.536589
_cell_length_c 25.470224
_cell_angle_alpha 90.000000
_cell_angle_beta 21.782046
_cell_angle_gamma 90.000000
_cell_volume 2325.940937
_symmetry_space_group_name_H-M "C 2/M"
_symmetry_group_IT_number 12
_symmetry_cell_setting 'monoclinic'
loop_
_space_group_symop_operation_xyz
x,y,z
-x,y,-z
-x,-y,-z
x,-y,z
1/2+x,1/2+y,z
1/2-x,1/2+y,-z
1/2-x,1/2-y,-z
1/2+x,1/2-y,z
loop_
_atom_site_type_symbol
_atom_site_label
_atom_site_fract_x
_atom_site_fract_y
_atom_site_fract_z
Si Si1 0.951362 0.780695 0.196173
Si Si2 0.197343 0.734152 0.115103
Si Si3 0.946360 0.500000 0.655778
Si Si4 0.742828 0.500000 0.908977
Si Si5 0.864307 0.122443 0.547671
Si Si6 0.439169 0.232857 0.396300
Si Si7 0.828027 0.000000 0.242380
O O1 0.817036 0.684971 0.305386
O O2 0.839635 0.889392 0.265874
O O3 0.084186 0.794977 0.151372
O O4 0.086583 0.751381 0.050884
O O5 0.175870 0.606149 0.123382
O O6 0.108179 0.754478 0.235458
O O7 0.795627 0.500000 0.810320
O O8 0.842713 0.500000 0.674619
O O9 0.053143 0.610629 0.588747
O O10 0.524074 0.500000 0.071777
O O11 0.944747 0.187379 0.441040
O O12 0.000000 0.124558 0.500000
O O13 0.827856 0.000000 0.559103
O O14 0.250000 0.250000 0.500000
#
# Coordination Sequence:
#
# PCOD9186887 Si02
#       7
#     8   8   4   4   8   8   4
#     4  10  20  37  61  88 126 156 198 248 304 367
#     4   9  19  36  59  95 117 158 200 247 303 355
#     4  10  21  35  60  87 121 158 193 242 311 361
#     4   8  17  32  60  86 120 153 196 242 295 363
#     4  11  25  43  62  84 119 167 209 250 307 369
#     4  11  22  39  63  91 122 157 203 252 301 362
#     4  10  19  35  56  91 125 153 189 248 307 367
#
# _framework density 18.917076000000002
#
# number of rings (size 3 to 8) (size 9 to 14) (size 15 to 20)
#    0.000    2.000    1.818    1.364    2.545    0.727 
#    3.273    4.545    0.000    2.182    0.000    0.000 
#    0.000    0.000    0.000    0.000    0.000    0.000 
#
# Total GULP energy -122735.559181 kJ/mol
# GULP energy per Si atom -5578.889054 kJ/mol
# Density = 1.887402 g / cm^3
# Si number density = 18.917076 Si / 1000 Ang^3
#
#
#
# Elastic Constant Matrix: (Units=GPa)
#
#
# Indices 1 2 3 4 5 6 
#
# 1 87.9635 59.8461 28.0814 -0.0116 4.4441 0.0001
# 2 59.8461 140.8072 51.9497 -0.0284 13.9862 0.0108
# 3 28.0814 51.9497 94.1079 -0.0168 29.1473 0.0083
# 4 -0.0116 -0.0284 -0.0168 20.1214 0.0164 -1.8041
# 5 4.4441 13.9862 29.1473 0.0164 31.7362 0.0013
# 6 0.0001 0.0108 0.0083 -1.8041 0.0013 36.2553
#
#
#
# Elastic Compliance Matrix: (Units=1/GPa)
#
#
# Indices 1 2 3 4 5 6 
#
# 1 0.016252 -0.006381 -0.002087 -0.000003 0.002453 0.000002
# 2 -0.006381 0.011439 -0.004369 0.000009 -0.000135 -0.000002
# 3 -0.002087 -0.004369 0.018131 0.000019 -0.014435 -0.000001
# 4 -0.000003 0.000009 0.000019 0.049921 -0.000047 0.002484
# 5 0.002453 -0.000135 -0.014435 -0.000047 0.044483 -0.000001
# 6 0.000002 -0.000002 -0.000001 0.002484 -0.000001 0.027706
#
#
# Mechanical properties :
#
#
# Convention : Reuss Voigt Hill
#
# Bulk Modulus (GPa) = 49.62949 66.95922 58.29435
# Shear Modulus (GPa) = 24.95982 29.82268 27.39125
#
# Velocity S-wave (km/s) = 3.63634 3.97482 3.80934
# Velocity P-wave (km/s) = 6.62743 7.51921 7.08736
#
# Compressibility (1/GPa) = 0.02014931
#
# Stress axis : x y z
#
# Youngs Moduli (GPa) = 61.53058 87.41769 55.15394
#
# Poissons Ratio (x) = 0.55784 0.11509
# Poissons Ratio (y) = 0.39264 0.24095
# Poissons Ratio (z) = 0.12839 0.38190
#
# Static dielectric constant tensor:
#      x y z
#    x 1.647640 0.000000 0.016740 
#    y 0.000000 1.633510 0.000000 
#    z 0.016740 0.000000 1.697460 
# 
# From -- ./inp_files/365971.got.cif
#   From: 2010.05.17/outbox.cif.g08.bks.cpg/sg12_183_cif.got.tgz:365971.got - 2010.06.03 13:09:07.
