data_PCOD9186621
_publ_section_title
;
Structure prediction by ZEFSAII (Michael W. Deem and Ramdas Pophale) SiO2 
 PCOD9186621
Probable space group: C 2/M
;
_chemical_formula_sum "Si O2"
_cell_formula_units_Z 56
_cell_length_a 10.097528
_cell_length_b 18.194259
_cell_length_c 19.049985
_cell_angle_alpha 90.000000
_cell_angle_beta 67.912082
_cell_angle_gamma 90.000000
_cell_volume 3242.948833
_symmetry_space_group_name_H-M "C 2/M"
_symmetry_group_IT_number 12
_symmetry_cell_setting 'monoclinic'
loop_
_space_group_symop_operation_xyz
x,y,z
-x,y,-z
-x,-y,-z
x,-y,z
1/2+x,1/2+y,z
1/2-x,1/2+y,-z
1/2-x,1/2-y,-z
1/2+x,1/2-y,z
loop_
_atom_site_type_symbol
_atom_site_label
_atom_site_fract_x
_atom_site_fract_y
_atom_site_fract_z
Si Si1 0.065957 0.414823 0.199843
Si Si2 0.380790 0.414014 0.199859
Si Si3 0.087727 0.167681 0.054726
Si Si4 0.657997 0.083699 0.502900
Si Si5 0.545206 0.820032 0.649677
Si Si6 0.230132 0.823550 0.646140
Si Si7 0.596028 0.159725 0.049471
O O1 0.026018 0.500000 0.216611
O O2 0.235315 0.408453 0.182985
O O3 0.042803 0.387012 0.125755
O O4 0.987630 0.364651 0.272704
O O5 0.408936 0.500000 0.206562
O O6 0.506951 0.375835 0.131546
O O7 0.345774 0.372081 0.278797
O O8 0.099076 0.254213 0.071237
O O9 0.244692 0.138782 0.005755
O O10 0.000000 0.162725 0.000000
O O11 0.500000 0.079260 0.500000
O O12 0.635224 0.128768 0.578700
O O13 0.750423 0.128455 0.428119
O O14 0.707957 0.000000 0.503901
O O15 0.390251 0.805006 0.643675
O O16 0.635302 0.747525 0.648628
O O17 0.500000 0.153110 0.000000
#
# Coordination Sequence:
#
# PCOD9186621 Si02
#       7
#     8   8   8   8   8   8   8
#     4  10  20  35  54  77 106 139 178 221 266 314
#     4  10  20  34  55  79 103 137 182 225 262 306
#     4  10  19  35  55  77 102 136 179 217 262 318
#     4   9  17  32  57  86 112 140 179 221 260 306
#     4  10  20  35  57  82 108 142 180 219 262 313
#     4  10  20  35  56  82 111 141 178 220 263 311
#     4  10  21  35  54  78 107 137 172 219 269 322
#
# _framework density 17.268234
#
# number of rings (size 3 to 8) (size 9 to 14) (size 15 to 20)
#    0.000    2.143    1.429    2.143    0.000    4.571 
#    2.571    0.000    0.000    3.429    0.000    0.000 
#    0.000    0.000    0.000    0.000    0.000    0.000 
#
# Total GULP energy -156230.345893 kJ/mol
# GULP energy per Si atom -5579.655210 kJ/mol
# Density = 1.722893 g / cm^3
# Si number density = 17.268234 Si / 1000 Ang^3
#
#
#
# Elastic Constant Matrix: (Units=GPa)
#
#
# Indices 1 2 3 4 5 6 
#
# 1 38.3765 44.3925 40.2685 0.0000 -7.4230 0.0000
# 2 44.3925 140.0189 88.9202 0.0000 -10.8063 0.0000
# 3 40.2685 88.9202 147.4203 0.0000 -12.6247 0.0000
# 4 0.0000 0.0000 0.0000 3.5353 0.0000 7.1150
# 5 -7.4230 -10.8063 -12.6247 0.0000 17.5776 0.0000
# 6 0.0000 0.0000 0.0000 7.1150 0.0000 1.3358
#
#
#
# Elastic Compliance Matrix: (Units=1/GPa)
#
#
# Indices 1 2 3 4 5 6 
#
# 1 0.045329 -0.010219 -0.005452 0.000000 0.008944 0.000000
# 2 -0.010219 0.013963 -0.005610 0.000000 0.000239 0.000000
# 3 -0.005452 -0.005610 0.011896 0.000000 0.002792 0.000000
# 4 0.000000 0.000000 0.000000 -0.029102 0.000000 0.155008
# 5 0.008944 0.000239 0.002792 0.000000 0.062820 0.000000
# 6 0.000000 0.000000 0.000000 0.155008 0.000000 -0.077020
#
#
# Mechanical properties :
#
#
# Convention : Reuss Voigt Hill
#
# Bulk Modulus (GPa) = 34.93386 74.77534 54.85460
# Shear Modulus (GPa) = 62.50675 14.63871 38.57273
#
# Velocity S-wave (km/s) = 6.02297 2.91473 4.73137
# Velocity P-wave (km/s) = 8.28506 7.39755 7.85385
#
# Compressibility (1/GPa) = 0.02862553
#
# Stress axis : x y z
#
# Youngs Moduli (GPa) = 22.06075 71.61737 84.06309
#
# Poissons Ratio (x) = 0.73183 0.45834
# Poissons Ratio (y) = 0.22543 0.47163
# Poissons Ratio (z) = 0.12028 0.40180
#
# Static dielectric constant tensor:
#      x y z
#    x 1.580040 0.000000 0.004360 
#    y 0.000000 1.576310 0.000000 
#    z 0.004360 0.000000 1.566880 
# 
# From -- ./inp_files/257046.got.cif
#   From: 2010.05.17/outbox.cif.g08.bks.cpg/sg12_129_cif.got.tgz:257046.got - 2010.06.03 13:09:07.
