data_PCOD9186914
_publ_section_title
;
Structure prediction by ZEFSAII (Michael W. Deem and Ramdas Pophale) SiO2 
 PCOD9186914
Probable space group: C 2/M
;
_chemical_formula_sum "Si O2"
_cell_formula_units_Z 64
_cell_length_a 14.550618
_cell_length_b 14.201873
_cell_length_c 17.472411
_cell_angle_alpha 90.000000
_cell_angle_beta 52.907678
_cell_angle_gamma 90.000000
_cell_volume 2880.051835
_symmetry_space_group_name_H-M "C 2/M"
_symmetry_group_IT_number 12
_symmetry_cell_setting 'monoclinic'
loop_
_space_group_symop_operation_xyz
x,y,z
-x,y,-z
-x,-y,-z
x,-y,z
1/2+x,1/2+y,z
1/2-x,1/2+y,-z
1/2-x,1/2-y,-z
1/2+x,1/2-y,z
loop_
_atom_site_type_symbol
_atom_site_label
_atom_site_fract_x
_atom_site_fract_y
_atom_site_fract_z
Si Si1 0.666200 0.602678 0.122372
Si Si2 0.709187 0.205131 0.164214
Si Si3 0.553903 0.610523 0.388133
Si Si4 0.748902 0.733557 0.687166
Si Si5 0.560385 0.701310 0.044830
Si Si6 0.110173 0.601823 0.497186
Si Si7 0.377329 0.747342 0.394319
Si Si8 0.409398 0.895388 0.906374
O O1 0.648014 0.500000 0.164158
O O2 0.662160 0.688278 0.183330
O O3 0.568687 0.629353 0.109722
O O4 0.789815 0.599449 0.015969
O O5 0.758696 0.189381 0.223969
O O6 0.810477 0.210723 0.051370
O O7 0.623238 0.133224 0.164722
O O8 0.500000 0.613204 0.500000
O O9 0.574817 0.500000 0.360069
O O10 0.667469 0.676421 0.342679
O O11 0.456463 0.660630 0.382907
O O12 0.805851 0.657259 0.602018
O O13 0.639676 0.758175 0.688144
O O14 0.500000 0.665251 0.000000
O O15 0.523759 0.806261 0.090026
O O16 0.158084 0.500000 0.495376
O O17 0.070907 0.660751 0.590760
O O18 0.000000 0.591725 0.500000
O O19 0.250000 0.750000 0.500000
O O20 0.462040 0.000000 0.884162
#
# Coordination Sequence:
#
# PCOD9186914 Si02
#       8
#     8   8   8   8   8   8   8   8
#     4   8  15  31  53  71  96 135 176 212 251 315
#     4   9  19  33  52  75 106 138 176 219 278 328
#     4  11  21  38  61  84 111 150 197 235 278 342
#     4  11  21  37  56  82 114 149 183 239 295 336
#     4   9  17  31  50  80 104 138 177 219 267 322
#     4  10  19  35  57  78 103 140 186 228 274 335
#     4  10  19  36  56  83 110 144 189 231 278 332
#     4   8  15  31  53  72  94 132 177 212 251 316
#
# _framework density 22.221820999999998
#
# number of rings (size 3 to 8) (size 9 to 14) (size 15 to 20)
#    0.000    2.500    3.750    1.500    0.000    4.000 
#    4.500    0.000    0.000    0.000    0.000    0.000 
#    0.000    0.000    0.000    0.000    0.000    0.000 
#
# Total GULP energy -178139.969258 kJ/mol
# GULP energy per Si atom -5566.874039 kJ/mol
# Density = 2.217124 g / cm^3
# Si number density = 22.221821 Si / 1000 Ang^3
#
#
#
# Elastic Constant Matrix: (Units=GPa)
#
#
# Indices 1 2 3 4 5 6 
#
# 1 69.3883 -10.6964 11.6780 0.0000 25.9935 0.0000
# 2 -10.6964 70.7017 7.8797 0.0000 -5.7971 0.0000
# 3 11.6780 7.8797 80.4362 0.0000 29.2864 0.0000
# 4 0.0000 0.0000 0.0000 -0.1741 0.0000 -4.3506
# 5 25.9935 -5.7971 29.2864 0.0000 41.7472 0.0000
# 6 0.0000 0.0000 0.0000 -4.3506 0.0000 3.0906
#
#
#
# Elastic Compliance Matrix: (Units=1/GPa)
#
#
# Indices 1 2 3 4 5 6 
#
# 1 0.019234 0.001646 0.001777 0.000000 -0.012994 0.000000
# 2 0.001646 0.014953 -0.002802 0.000000 0.003017 0.000000
# 3 0.001777 -0.002802 0.017450 0.000000 -0.013738 0.000000
# 4 0.000000 0.000000 0.000000 -0.158770 0.000000 -0.223499
# 5 -0.012994 0.003017 -0.013738 0.000000 0.042100 0.000000
# 6 0.000000 0.000000 0.000000 -0.223499 0.000000 0.008943
#
#
# Mechanical properties :
#
#
# Convention : Reuss Voigt Hill
#
# Bulk Modulus (GPa) = 18.91076 26.47209 22.69142
# Shear Modulus (GPa) = -125.92733 23.04376 -51.44178
#
# Velocity S-wave (km/s) = -7.53600 3.22372 -4.81658
# Velocity P-wave (km/s) = 8.19715 5.07888 4.54963
#
# Compressibility (1/GPa) = 0.05287996
#
# Stress axis : x y z
#
# Youngs Moduli (GPa) = 51.99123 66.87753 57.30498
#
# Poissons Ratio (x) = -0.11011 -0.10185
# Poissons Ratio (y) = -0.08560 0.16059
# Poissons Ratio (z) = -0.09241 0.18741
#
# Static dielectric constant tensor:
#      x y z
#    x 1.565810 0.000000 -0.085130 
#    y 0.000000 1.904770 0.000000 
#    z -0.085130 0.000000 1.854780 
# 
# From -- ./inp_files/270301.got.cif
#   From: 2010.05.17/outbox.cif.g08.bks.cpg/sg12_136_cif.got.tgz:270301.got - 2010.06.03 13:09:07.
