data_PCOD9186878
_publ_section_title
;
Structure prediction by ZEFSAII (Michael W. Deem and Ramdas Pophale) SiO2 
 PCOD9186878
Probable space group: C 2/M
;
_chemical_formula_sum "Si O2"
_cell_formula_units_Z 56
_cell_length_a 11.279990
_cell_length_b 24.167110
_cell_length_c 11.572548
_cell_angle_alpha 90.000000
_cell_angle_beta 74.928421
_cell_angle_gamma 90.000000
_cell_volume 3046.214357
_symmetry_space_group_name_H-M "C 2/M"
_symmetry_group_IT_number 12
_symmetry_cell_setting 'monoclinic'
loop_
_space_group_symop_operation_xyz
x,y,z
-x,y,-z
-x,-y,-z
x,-y,z
1/2+x,1/2+y,z
1/2-x,1/2+y,-z
1/2-x,1/2-y,-z
1/2+x,1/2-y,z
loop_
_atom_site_type_symbol
_atom_site_label
_atom_site_fract_x
_atom_site_fract_y
_atom_site_fract_z
Si Si1 0.714932 0.000000 0.453054
Si Si2 0.141143 0.890806 0.502920
Si Si3 0.482158 0.901656 0.871090
Si Si4 0.511636 0.000000 0.310324
Si Si5 0.384775 0.290066 0.879288
Si Si6 0.798860 0.672405 0.276131
Si Si7 0.146031 0.205094 0.691529
Si Si8 0.730062 0.825369 0.112594
O O1 0.797363 0.944872 0.453256
O O2 0.638497 0.000000 0.352059
O O3 0.604511 0.000000 0.574544
O O4 0.226211 0.871084 0.374381
O O5 0.140366 0.837309 0.587558
O O6 0.000000 0.901673 0.500000
O O7 0.578897 0.854199 0.808696
O O8 0.344276 0.879752 0.894360
O O9 0.497824 0.948372 0.772202
O O10 0.500000 0.918035 0.000000
O O11 0.287603 0.310771 0.808633
O O12 0.517138 0.296735 0.791411
O O13 0.354811 0.225672 0.907758
O O14 0.352954 0.320797 0.005960
O O15 0.827313 0.729824 0.337371
O O16 0.245342 0.183578 0.758932
#
# Coordination Sequence:
#
# PCOD9186878 Si02
#       8
#     4   8   8   4   8   8   8   8
#     4  11  25  46  66  89 113 167 211 265 313 372
#     4  12  24  43  65  86 120 165 213 262 307 365
#     4  12  22  40  65  93 125 164 201 259 307 374
#     4  11  25  44  66  89 125 155 209 261 323 368
#     4  10  19  35  56  87 126 165 196 244 297 360
#     4  11  22  38  59  94 128 158 208 249 310 370
#     4  11  22  37  59  92 129 165 202 253 300 370
#     4  10  21  33  59  89 123 163 200 240 299 366
#
# _framework density 18.383472999999999
#
# number of rings (size 3 to 8) (size 9 to 14) (size 15 to 20)
#    0.000    1.000    5.714    2.143    0.000    0.000 
#    0.000    0.000    0.000    0.000    0.000    4.000 
#    0.000    0.000    0.000    0.000    0.000    0.000 
#
# Total GULP energy -156267.239366 kJ/mol
# GULP energy per Si atom -5580.972835 kJ/mol
# Density = 1.834163 g / cm^3
# Si number density = 18.383473 Si / 1000 Ang^3
#
#
#
# Elastic Constant Matrix: (Units=GPa)
#
#
# Indices 1 2 3 4 5 6 
#
# 1 91.0548 40.0913 24.9887 0.0000 2.3660 0.0000
# 2 40.0913 86.9380 25.7345 0.0000 12.5663 0.0000
# 3 24.9887 25.7345 76.0755 0.0000 -2.7451 0.0000
# 4 0.0000 0.0000 0.0000 -384.0238 0.0000 -118.2179
# 5 2.3660 12.5663 -2.7451 0.0000 29.0483 0.0000
# 6 0.0000 0.0000 0.0000 -118.2179 0.0000 -7.4649
#
#
#
# Elastic Compliance Matrix: (Units=1/GPa)
#
#
# Indices 1 2 3 4 5 6 
#
# 1 0.014312 -0.005991 -0.002632 0.000000 0.001177 0.000000
# 2 -0.005991 0.016408 -0.003834 0.000000 -0.006972 0.000000
# 3 -0.002632 -0.003834 0.015427 0.000000 0.003331 0.000000
# 4 0.000000 0.000000 0.000000 0.000672 0.000000 -0.010642
# 5 0.001177 -0.006972 0.003331 0.000000 0.037661 0.000000
# 6 0.000000 0.000000 0.000000 -0.010642 0.000000 0.034569
#
#
# Mechanical properties :
#
#
# Convention : Reuss Voigt Hill
#
# Bulk Modulus (GPa) = 47.09825 48.41082 47.75454
# Shear Modulus (GPa) = 33.10382 -61.60449 -14.25034
#
# Velocity S-wave (km/s) = 4.24811 -5.79513 -2.78721
# Velocity P-wave (km/s) = 7.05248 4.28801 3.95920
#
# Compressibility (1/GPa) = 0.02123221
#
# Stress axis : x y z
#
# Youngs Moduli (GPa) = 69.87173 60.94611 64.82333
#
# Poissons Ratio (x) = 0.36513 0.17061
# Poissons Ratio (y) = 0.41860 0.24854
# Poissons Ratio (z) = 0.18390 0.23368
#
# Static dielectric constant tensor:
#      x y z
#    x 1.636370 0.000000 0.004360 
#    y 0.000000 1.672590 0.000000 
#    z 0.004360 0.000000 1.629090 
# 
# From -- ./inp_files/133903.got.cif
#   From: 2010.05.17/outbox.cif.g08.bks.cpg/sg12_67_cif.got.tgz:133903.got - 2010.06.03 13:09:07.
