data_PCOD9186922
_publ_section_title
;
Structure prediction by ZEFSAII (Michael W. Deem and Ramdas Pophale) SiO2 
 PCOD9186922
Probable space group: C 2/M
;
_chemical_formula_sum "Si O2"
_cell_formula_units_Z 64
_cell_length_a 20.483472
_cell_length_b 8.269415
_cell_length_c 23.858363
_cell_angle_alpha 90.000000
_cell_angle_beta 57.787179
_cell_angle_gamma 90.000000
_cell_volume 3419.222023
_symmetry_space_group_name_H-M "C 2/M"
_symmetry_group_IT_number 12
_symmetry_cell_setting 'monoclinic'
loop_
_space_group_symop_operation_xyz
x,y,z
-x,y,-z
-x,-y,-z
x,-y,z
1/2+x,1/2+y,z
1/2-x,1/2+y,-z
1/2-x,1/2-y,-z
1/2+x,1/2-y,z
loop_
_atom_site_type_symbol
_atom_site_label
_atom_site_fract_x
_atom_site_fract_y
_atom_site_fract_z
Si Si1 0.173467 0.304807 0.798906
Si Si2 0.222540 0.195025 0.452045
Si Si3 0.047425 0.804237 0.532368
Si Si4 0.763696 0.193687 0.056889
Si Si5 0.862056 0.697884 0.309981
Si Si6 0.505530 0.193303 0.320703
Si Si7 0.585401 0.695295 0.946857
Si Si8 0.174310 0.193544 0.205913
O O1 0.176004 0.500000 0.796402
O O2 0.147538 0.247857 0.749602
O O3 0.113184 0.250408 0.873331
O O4 0.257989 0.249599 0.782166
O O5 0.250000 0.250000 0.500000
O O6 0.135328 0.252757 0.484613
O O7 0.285660 0.250148 0.378383
O O8 0.221486 0.000000 0.450311
O O9 0.000000 0.748511 0.500000
O O10 0.013640 0.751636 0.607677
O O11 0.047145 0.000000 0.532441
O O12 0.847719 0.249723 0.040826
O O13 0.701955 0.254353 0.131187
O O14 0.762223 0.000000 0.058790
O O15 0.750000 0.250000 0.000000
O O16 0.863655 0.500000 0.309067
O O17 0.938302 0.751877 0.308727
O O18 0.590266 0.245009 0.261716
O O19 0.502233 0.000000 0.322497
O O20 0.584327 0.500000 0.948702
O O21 0.500000 0.754785 0.000000
O O22 0.172934 0.000000 0.208371
#
# Coordination Sequence:
#
# PCOD9186922 Si02
#       8
#     8   8   8   8   8   8   8   8
#     4   9  19  36  58  80 104 140 183 222 263 317
#     4  10  19  35  57  78 107 141 178 223 272 324
#     4  10  22  37  57  82 107 141 185 228 272 324
#     4  10  20  36  58  83 114 148 185 223 269 322
#     4   9  19  35  55  79 107 141 178 220 271 322
#     4  11  22  37  56  79 112 145 179 226 277 327
#     4   9  19  36  56  80 112 144 175 220 271 315
#     4  10  21  37  58  81 110 145 185 227 270 321
#
# _framework density 18.717707999999998
#
# number of rings (size 3 to 8) (size 9 to 14) (size 15 to 20)
#    0.000    2.250    1.250    1.125    1.750    2.500 
#    0.000    4.375    0.000    0.000    0.000    0.000 
#    0.000    0.000    0.000    0.000    0.000    0.000 
#
# Total GULP energy -178568.449219 kJ/mol
# GULP energy per Si atom -5580.264038 kJ/mol
# Density = 1.867511 g / cm^3
# Si number density = 18.717708 Si / 1000 Ang^3
#
#
#
# Elastic Constant Matrix: (Units=GPa)
#
#
# Indices 1 2 3 4 5 6 
#
# 1 190.4608 21.1586 146.4295 -0.0002 -3.4185 0.0000
# 2 21.1586 13.4303 15.6008 -0.0004 -0.9097 -0.0002
# 3 146.4295 15.6008 185.4025 0.0000 3.1001 -0.0001
# 4 -0.0002 -0.0004 0.0000 31.7841 -0.0001 -0.0231
# 5 -3.4185 -0.9097 3.1001 -0.0001 43.3007 -0.0001
# 6 0.0000 -0.0002 -0.0001 -0.0231 -0.0001 19.8012
#
#
#
# Elastic Compliance Matrix: (Units=1/GPa)
#
#
# Indices 1 2 3 4 5 6 
#
# 1 0.014753 -0.010593 -0.010789 0.000000 0.001715 0.000000
# 2 -0.010593 0.090348 0.000747 0.000001 0.001008 0.000001
# 3 -0.010789 0.000747 0.013882 0.000000 -0.001830 0.000000
# 4 0.000000 0.000001 0.000000 0.031462 0.000000 0.000037
# 5 0.001715 0.001008 -0.001830 0.000000 0.023382 0.000000
# 6 0.000000 0.000001 0.000000 0.000037 0.000000 0.050502
#
#
# Mechanical properties :
#
#
# Convention : Reuss Voigt Hill
#
# Bulk Modulus (GPa) = 12.86784 83.96349 48.41567
# Shear Modulus (GPa) = 17.15248 32.71751 24.93499
#
# Velocity S-wave (km/s) = 3.03046 4.18538 3.65384
# Velocity P-wave (km/s) = 4.37430 8.26509 6.61234
#
# Compressibility (1/GPa) = 0.07771309
#
# Stress axis : x y z
#
# Youngs Moduli (GPa) = 67.78434 11.06833 72.03411
#
# Poissons Ratio (x) = 0.11725 0.77716
# Poissons Ratio (y) = 0.71807 -0.05383
# Poissons Ratio (z) = 0.73131 -0.00827
#
# Static dielectric constant tensor:
#      x y z
#    x 1.648900 0.000000 0.004990 
#    y 0.000000 1.659430 0.000000 
#    z 0.004990 0.000000 1.603940 
# 
# From -- ./inp_files/319980.got.cif
#   From: 2010.05.17/outbox.cif.g08.bks.cpg/sg12_160_cif.got.tgz:319980.got - 2010.06.03 13:09:07.
