data_PCOD9186646
_publ_section_title
;
Structure prediction by ZEFSAII (Michael W. Deem and Ramdas Pophale) SiO2 
 PCOD9186646
Probable space group: C 2/M
;
_chemical_formula_sum "Si O2"
_cell_formula_units_Z 56
_cell_length_a 31.913479
_cell_length_b 8.764046
_cell_length_c 12.113135
_cell_angle_alpha 90.000000
_cell_angle_beta 63.658528
_cell_angle_gamma 90.000000
_cell_volume 3036.152438
_symmetry_space_group_name_H-M "C 2/M"
_symmetry_group_IT_number 12
_symmetry_cell_setting 'monoclinic'
loop_
_space_group_symop_operation_xyz
x,y,z
-x,y,-z
-x,-y,-z
x,-y,z
1/2+x,1/2+y,z
1/2-x,1/2+y,-z
1/2-x,1/2-y,-z
1/2+x,1/2-y,z
loop_
_atom_site_type_symbol
_atom_site_label
_atom_site_fract_x
_atom_site_fract_y
_atom_site_fract_z
Si Si1 0.087302 0.182667 0.712538
Si Si2 0.867507 0.816128 0.570047
Si Si3 0.787330 0.682529 0.804135
Si Si4 0.953626 0.818338 0.627788
Si Si5 0.016172 0.318243 0.180586
Si Si6 0.311385 0.815978 0.023680
Si Si7 0.399148 0.184177 0.068607
O O1 0.116177 0.232822 0.570755
O O2 0.107024 0.247648 0.803391
O O3 0.033933 0.238596 0.763938
O O4 0.087555 0.000000 0.714428
O O5 0.819663 0.745631 0.669507
O O6 0.908795 0.774776 0.607658
O O7 0.863957 0.000000 0.574502
O O8 0.785707 0.500000 0.802265
O O9 0.735051 0.748238 0.866557
O O10 0.809800 0.729468 0.896532
O O11 0.958713 0.725929 0.734395
O O12 0.000000 0.793881 0.500000
O O13 0.951279 0.000000 0.654974
O O14 0.009477 0.500000 0.182011
O O15 0.050787 0.270966 0.041363
O O16 0.357980 0.768264 0.033280
O O17 0.308801 0.000000 0.030253
O O18 0.398673 0.000000 0.075800
#
# Coordination Sequence:
#
# PCOD9186646 Si02
#       7
#     8   8   8   8   8   8   8
#     4  11  23  39  56  78 111 151 194 232 270 327
#     4  10  21  37  56  79 113 151 183 224 280 329
#     4  10  20  35  60  90 114 139 180 226 273 335
#     4  10  19  35  55  78 112 147 183 226 272 325
#     4  11  22  36  56  83 114 147 186 232 282 330
#     4   9  19  38  60  83 115 145 175 224 282 331
#     4  10  22  39  57  80 111 147 187 232 280 328
#
# _framework density 18.444398
#
# number of rings (size 3 to 8) (size 9 to 14) (size 15 to 20)
#    0.000    1.857    1.429    2.571    0.000    7.143 
#    0.000    0.714    0.000    0.000    0.000    0.000 
#    0.000    0.000    0.000    0.000    0.000    0.000 
#
# Total GULP energy -156428.943414 kJ/mol
# GULP energy per Si atom -5586.747979 kJ/mol
# Density = 1.840242 g / cm^3
# Si number density = 18.444398 Si / 1000 Ang^3
#
#
#
# Elastic Constant Matrix: (Units=GPa)
#
#
# Indices 1 2 3 4 5 6 
#
# 1 58.2394 15.7246 56.7767 0.0000 -6.1654 0.0000
# 2 15.7246 10.0935 24.0742 0.0000 -4.1444 0.0000
# 3 56.7767 24.0742 125.3428 0.0000 -16.4487 0.0000
# 4 0.0000 0.0000 0.0000 28.3932 0.0000 3.8196
# 5 -6.1654 -4.1444 -16.4487 0.0000 26.0859 0.0000
# 6 0.0000 0.0000 0.0000 3.8196 0.0000 28.8418
#
#
#
# Elastic Compliance Matrix: (Units=1/GPa)
#
#
# Indices 1 2 3 4 5 6 
#
# 1 0.035614 -0.031963 -0.010417 0.000000 -0.003229 0.000000
# 2 -0.031963 0.212880 -0.025033 0.000000 0.010482 0.000000
# 3 -0.010417 -0.025033 0.018163 0.000000 0.005013 0.000000
# 4 0.000000 0.000000 0.000000 0.035859 0.000000 -0.004749
# 5 -0.003229 0.010482 0.005013 0.000000 0.042398 0.000000
# 6 0.000000 0.000000 0.000000 -0.004749 0.000000 0.035301
#
#
# Mechanical properties :
#
#
# Convention : Reuss Voigt Hill
#
# Bulk Modulus (GPa) = 7.58555 42.98077 25.28316
# Shear Modulus (GPa) = 8.94481 23.13754 16.04117
#
# Velocity S-wave (km/s) = 2.20457 3.54566 2.95227
# Velocity P-wave (km/s) = 3.25604 6.33370 5.03575
#
# Compressibility (1/GPa) = 0.13182961
#
# Stress axis : x y z
#
# Youngs Moduli (GPa) = 28.07892 4.69749 55.05832
#
# Poissons Ratio (x) = 0.15015 0.57353
# Poissons Ratio (y) = 0.89750 1.37828
# Poissons Ratio (z) = 0.29249 0.11759
#
# Static dielectric constant tensor:
#      x y z
#    x 1.622180 0.000000 0.007330 
#    y 0.000000 1.616680 0.000000 
#    z 0.007330 0.000000 1.622160 
# 
# From -- ./inp_files/181140.got.cif
#   From: 2010.05.17/outbox.cif.g08.bks.cpg/sg12_91_cif.got.tgz:181140.got - 2010.06.03 13:09:07.
