data_PCOD9186859
_publ_section_title
;
Structure prediction by ZEFSAII (Michael W. Deem and Ramdas Pophale) SiO2 
 PCOD9186859
Probable space group: C 2/M
;
_chemical_formula_sum "Si O2"
_cell_formula_units_Z 64
_cell_length_a 21.263540
_cell_length_b 30.018796
_cell_length_c 5.256299
_cell_angle_alpha 90.000000
_cell_angle_beta 70.801727
_cell_angle_gamma 90.000000
_cell_volume 3168.535446
_symmetry_space_group_name_H-M "C 2/M"
_symmetry_group_IT_number 12
_symmetry_cell_setting 'monoclinic'
loop_
_space_group_symop_operation_xyz
x,y,z
-x,y,-z
-x,-y,-z
x,-y,z
1/2+x,1/2+y,z
1/2-x,1/2+y,-z
1/2-x,1/2-y,-z
1/2+x,1/2-y,z
loop_
_atom_site_type_symbol
_atom_site_label
_atom_site_fract_x
_atom_site_fract_y
_atom_site_fract_z
Si Si1 0.902022 0.247802 0.246472
Si Si2 0.841607 0.920233 0.596887
Si Si3 0.687999 0.134056 0.364924
Si Si4 0.787753 0.049014 0.167481
Si Si5 0.958425 0.655705 0.294666
Si Si6 0.676779 0.266390 0.160146
Si Si7 0.957517 0.149379 0.299774
Si Si8 0.754039 0.344935 0.209822
O O1 0.943157 0.292549 0.243050
O O2 0.845998 0.250398 0.537526
O O3 0.935546 0.199986 0.259462
O O4 0.872961 0.245107 0.000694
O O5 0.828255 0.951258 0.376534
O O6 0.897718 0.884816 0.439995
O O7 0.771764 0.894297 0.720964
O O8 0.842722 0.941594 0.873571
O O9 0.731504 0.088504 0.270830
O O10 0.612389 0.131266 0.562640
O O11 0.723560 0.165221 0.533179
O O12 0.690182 0.156645 0.082184
O O13 0.757741 0.000000 0.159814
O O14 0.000000 0.654372 0.500000
O O15 0.000000 0.637122 0.000000
O O16 0.690841 0.318751 0.180954
O O17 0.750000 0.250000 0.000000
O O18 0.000000 0.152200 0.500000
O O19 0.000000 0.133487 0.000000
#
# Coordination Sequence:
#
# PCOD9186859 Si02
#       8
#     8   8   8   8   8   8   8   8
#     4  12  24  38  55  82 118 162 219 252 282 343
#     4  10  21  37  61  88 123 150 191 240 303 361
#     4  10  21  37  61  88 118 153 195 242 302 360
#     4  10  21  39  68  95 119 147 184 245 312 376
#     4  12  24  41  58  80 120 167 213 245 287 339
#     4  12  22  34  55  81 117 152 195 255 316 343
#     4  12  24  39  59  84 120 165 213 249 287 335
#     4  10  19  35  56  84 115 144 191 244 304 351
#
# _framework density 20.198606999999999
#
# number of rings (size 3 to 8) (size 9 to 14) (size 15 to 20)
#    0.000    1.000    1.250    6.750    3.500    0.000 
#    0.000    0.000    0.000    8.250    0.000    0.000 
#    0.000    0.000    0.000    0.000    0.000    0.000 
#
# Total GULP energy -178388.304047 kJ/mol
# GULP energy per Si atom -5574.634501 kJ/mol
# Density = 2.015263 g / cm^3
# Si number density = 20.198607 Si / 1000 Ang^3
#
#
#
# Elastic Constant Matrix: (Units=GPa)
#
#
# Indices 1 2 3 4 5 6 
#
# 1 67.0444 27.8986 36.4654 0.0000 4.5364 0.0000
# 2 27.8986 73.8600 57.4060 0.0000 0.0605 0.0000
# 3 36.4654 57.4060 154.5915 0.0000 -6.6846 0.0000
# 4 0.0000 0.0000 0.0000 -5.7614 0.0000 2.8778
# 5 4.5364 0.0605 -6.6846 0.0000 45.8089 0.0000
# 6 0.0000 0.0000 0.0000 2.8778 0.0000 4.7089
#
#
#
# Elastic Compliance Matrix: (Units=1/GPa)
#
#
# Indices 1 2 3 4 5 6 
#
# 1 0.018562 -0.004965 -0.002631 0.000000 -0.002215 0.000000
# 2 -0.004965 0.020412 -0.006429 0.000000 -0.000473 0.000000
# 3 -0.002631 -0.006429 0.009548 0.000000 0.001662 0.000000
# 4 0.000000 0.000000 0.000000 -0.132977 0.000000 0.081267
# 5 -0.002215 -0.000473 0.001662 0.000000 0.022292 0.000000
# 6 0.000000 0.000000 0.000000 0.081267 0.000000 0.162698
#
#
# Mechanical properties :
#
#
# Convention : Reuss Voigt Hill
#
# Bulk Modulus (GPa) = 48.84448 59.89290 54.36869
# Shear Modulus (GPa) = 36.92515 20.53302 28.72908
#
# Velocity S-wave (km/s) = 4.28027 3.19181 3.77547
# Velocity P-wave (km/s) = 6.97583 6.58026 6.78093
#
# Compressibility (1/GPa) = 0.02047314
#
# Stress axis : x y z
#
# Youngs Moduli (GPa) = 53.87292 48.99152 104.72958
#
# Poissons Ratio (x) = 0.24324 0.27550
# Poissons Ratio (y) = 0.26748 0.67331
# Poissons Ratio (z) = 0.14172 0.31497
#
# Static dielectric constant tensor:
#      x y z
#    x 1.741700 0.000000 -0.001620 
#    y 0.000000 1.770980 0.000000 
#    z -0.001620 0.000000 1.804980 
# 
# From -- ./inp_files/22779.got.cif
#   From: 2010.05.17/outbox.cif.g08.bks.cpg/sg12_12_cif.got.tgz:22779.got - 2010.06.03 13:09:07.
