data_PCOD9186420
_publ_section_title
;
Structure prediction by ZEFSAII (Michael W. Deem and Ramdas Pophale) SiO2 
 PCOD9186420
Probable space group: C 2/M
;
_chemical_formula_sum "Si O2"
_cell_formula_units_Z 56
_cell_length_a 9.451171
_cell_length_b 21.709476
_cell_length_c 17.400082
_cell_angle_alpha 90.000000
_cell_angle_beta 49.004742
_cell_angle_gamma 90.000000
_cell_volume 2694.618969
_symmetry_space_group_name_H-M "C 2/M"
_symmetry_group_IT_number 12
_symmetry_cell_setting 'monoclinic'
loop_
_space_group_symop_operation_xyz
x,y,z
-x,y,-z
-x,-y,-z
x,-y,z
1/2+x,1/2+y,z
1/2-x,1/2+y,-z
1/2-x,1/2-y,-z
1/2+x,1/2-y,z
loop_
_atom_site_type_symbol
_atom_site_label
_atom_site_fract_x
_atom_site_fract_y
_atom_site_fract_z
Si Si1 0.834627 0.571270 0.608931
Si Si2 0.191015 0.165103 0.105851
Si Si3 0.600163 0.874301 0.254681
Si Si4 0.287060 0.429792 0.041451
Si Si5 0.926548 0.068167 0.727527
Si Si6 0.206593 0.928018 0.394097
Si Si7 0.110320 0.773133 0.886984
O O1 0.883214 0.500000 0.607590
O O2 0.802388 0.601778 0.702473
O O3 0.645223 0.572150 0.627913
O O4 0.000000 0.599738 0.500000
O O5 0.110090 0.118538 0.196452
O O6 0.337868 0.205188 0.102914
O O7 0.039199 0.214320 0.127013
O O8 0.245561 0.121137 0.013974
O O9 0.654487 0.915323 0.161499
O O10 0.380336 0.883587 0.351268
O O11 0.698821 0.809357 0.200651
O O12 0.254808 0.500000 0.025207
O O13 0.500000 0.428392 0.000000
O O14 0.809543 0.074387 0.692303
O O15 0.896292 0.000000 0.771593
O O16 0.000000 0.912054 0.500000
O O17 0.244607 0.000000 0.402825
O O18 0.000000 0.800080 0.000000
#
# Coordination Sequence:
#
# PCOD9186420 Si02
#       7
#     8   8   8   8   8   8   8
#     4  10  19  34  62  95 124 160 211 271 325 379
#     4  12  24  43  64  95 132 172 220 265 320 384
#     4  12  21  39  63  94 128 172 217 258 315 385
#     4  11  21  37  63  98 136 165 205 267 326 383
#     4  10  21  39  63  93 131 167 208 269 332 385
#     4  10  22  39  61  95 134 170 210 264 331 393
#     4  12  26  43  65  93 128 173 224 265 311 382
#
# _framework density 20.782157999999999
#
# number of rings (size 3 to 8) (size 9 to 14) (size 15 to 20)
#    0.000    1.000    4.286    3.000    2.000    4.571 
#    0.000    0.000    0.000    8.571    0.000    0.000 
#    0.000    0.000    0.000    0.000    0.000    0.000 
#
# Total GULP energy -156204.905142 kJ/mol
# GULP energy per Si atom -5578.746612 kJ/mol
# Density = 2.073486 g / cm^3
# Si number density = 20.782158 Si / 1000 Ang^3
#
#
#
# Elastic Constant Matrix: (Units=GPa)
#
#
# Indices 1 2 3 4 5 6 
#
# 1 53.9913 25.7283 7.4504 0.0000 1.2880 0.0000
# 2 25.7283 85.9405 28.9901 0.0000 7.9460 0.0000
# 3 7.4504 28.9901 86.3409 0.0000 -5.4053 0.0000
# 4 0.0000 0.0000 0.0000 16.6151 0.0000 -0.5277
# 5 1.2880 7.9460 -5.4053 0.0000 29.5002 0.0000
# 6 0.0000 0.0000 0.0000 -0.5277 0.0000 35.0609
#
#
#
# Elastic Compliance Matrix: (Units=1/GPa)
#
#
# Indices 1 2 3 4 5 6 
#
# 1 0.021638 -0.006716 0.000447 0.000000 0.000946 0.000000
# 2 -0.006716 0.015795 -0.005029 0.000000 -0.004883 0.000000
# 3 0.000447 -0.005029 0.013470 0.000000 0.003803 0.000000
# 4 0.000000 0.000000 0.000000 0.060215 0.000000 0.000906
# 5 0.000946 -0.004883 0.003803 0.000000 0.035869 0.000000
# 6 0.000000 0.000000 0.000000 0.000906 0.000000 0.028535
#
#
# Mechanical properties :
#
#
# Convention : Reuss Voigt Hill
#
# Bulk Modulus (GPa) = 35.32849 38.95669 37.14259
# Shear Modulus (GPa) = 24.09020 27.17549 25.63285
#
# Velocity S-wave (km/s) = 3.40836 3.62005 3.51580
# Velocity P-wave (km/s) = 5.70312 6.02154 5.86449
#
# Compressibility (1/GPa) = 0.02830577
#
# Stress axis : x y z
#
# Youngs Moduli (GPa) = 46.21584 63.31298 74.23798
#
# Poissons Ratio (x) = 0.42521 -0.03319
# Poissons Ratio (y) = 0.31039 0.37337
# Poissons Ratio (z) = -0.02066 0.31842
#
# Static dielectric constant tensor:
#      x y z
#    x 1.775290 0.000000 -0.046110 
#    y 0.000000 1.758090 0.000000 
#    z -0.046110 0.000000 1.783060 
# 
# From -- ./inp_files/259127.got.cif
#   From: 2010.05.17/outbox.cif.g08.bks.cpg/sg12_130_cif.got.tgz:259127.got - 2010.06.03 13:09:07.
