data_PCOD9186000
_publ_section_title
;
Structure prediction by ZEFSAII (Michael W. Deem and Ramdas Pophale) SiO2 
 PCOD9186000
Probable space group: C 2/M
;
_chemical_formula_sum "Si O2"
_cell_formula_units_Z 48
_cell_length_a 19.850863
_cell_length_b 8.928212
_cell_length_c 32.883866
_cell_angle_alpha 90.000000
_cell_angle_beta 154.408369
_cell_angle_gamma 90.000000
_cell_volume 2517.469819
_symmetry_space_group_name_H-M "C 2/M"
_symmetry_group_IT_number 12
_symmetry_cell_setting 'monoclinic'
loop_
_space_group_symop_operation_xyz
x,y,z
-x,y,-z
-x,-y,-z
x,-y,z
1/2+x,1/2+y,z
1/2-x,1/2+y,-z
1/2-x,1/2-y,-z
1/2+x,1/2-y,z
loop_
_atom_site_type_symbol
_atom_site_label
_atom_site_fract_x
_atom_site_fract_y
_atom_site_fract_z
Si Si1 0.188355 0.321058 0.405527
Si Si2 0.960715 0.321720 0.207781
Si Si3 0.199507 0.325117 0.207393
Si Si4 0.516990 0.178103 0.397657
Si Si5 0.181401 0.675376 0.101922
Si Si6 0.580775 0.321878 0.900529
O O1 0.215461 0.500000 0.420393
O O2 0.351453 0.236931 0.499961
O O3 0.085301 0.287051 0.389649
O O4 0.091201 0.282253 0.312448
O O5 0.965515 0.500000 0.203420
O O6 0.794919 0.274851 0.136747
O O7 0.979014 0.234225 0.175842
O O8 0.179452 0.500000 0.206339
O O9 0.351392 0.258149 0.311804
O O10 0.225791 0.312043 0.173368
O O11 0.044149 0.237520 0.135050
O O12 0.498471 0.000000 0.390617
O O13 0.196398 0.500000 0.097712
O O14 0.000000 0.716438 0.000000
O O15 0.593078 0.500000 0.908587
O O16 0.750000 0.250000 0.000000
#
# Coordination Sequence:
#
# PCOD9186000 Si02
#       6
#     8   8   8   8   8   8
#     4   9  19  35  57  88 123 158 197 244 301 359
#     4  11  22  39  62  89 121 157 199 247 301 359
#     4  11  22  38  61  89 123 160 200 248 303 358
#     4  10  19  34  58  89 123 159 200 246 299 357
#     4  10  21  36  57  86 118 152 196 249 298 353
#     4  12  26  44  64  87 120 161 205 248 300 361
#
# _framework density 19.066762000000001
#
# number of rings (size 3 to 8) (size 9 to 14) (size 15 to 20)
#    0.000    1.500    1.667    4.000    0.000    4.333 
#    0.000    0.833    0.000    5.000    0.000    0.000 
#    0.000    0.000    0.000    0.000    0.000    0.000 
#
# Total GULP energy -134160.160371 kJ/mol
# GULP energy per Si atom -5590.006682 kJ/mol
# Density = 1.902337 g / cm^3
# Si number density = 19.066762 Si / 1000 Ang^3
#
#
#
# Elastic Constant Matrix: (Units=GPa)
#
#
# Indices 1 2 3 4 5 6 
#
# 1 18.5619 14.8503 -17.2180 0.0000 1.8883 0.0000
# 2 14.8503 75.8083 26.6756 0.0000 6.9857 0.0000
# 3 -17.2180 26.6756 80.9135 0.0001 6.2138 0.0000
# 4 0.0000 0.0000 0.0001 34.1800 0.0000 3.7758
# 5 1.8883 6.9857 6.2138 0.0000 28.6485 0.0000
# 6 0.0000 0.0000 0.0000 3.7758 0.0000 31.1663
#
#
#
# Elastic Compliance Matrix: (Units=1/GPa)
#
#
# Indices 1 2 3 4 5 6 
#
# 1 0.117553 -0.035478 0.037263 0.000000 -0.007179 0.000000
# 2 -0.035478 0.025825 -0.016027 0.000000 -0.000483 0.000000
# 3 0.037263 -0.016027 0.025892 0.000000 -0.004164 0.000000
# 4 0.000000 0.000000 0.000000 0.029654 0.000000 -0.003593
# 5 -0.007179 -0.000483 -0.004164 0.000000 0.036400 0.000000
# 6 0.000000 0.000000 0.000000 -0.003593 0.000000 0.032521
#
#
# Mechanical properties :
#
#
# Convention : Reuss Voigt Hill
#
# Bulk Modulus (GPa) = 7.10301 24.87773 15.99037
# Shear Modulus (GPa) = 14.56631 28.86403 21.71517
#
# Velocity S-wave (km/s) = 2.76699 3.89503 3.37842
# Velocity P-wave (km/s) = 3.73386 5.77099 4.86035
#
# Compressibility (1/GPa) = 0.14078543
#
# Stress axis : x y z
#
# Youngs Moduli (GPa) = 8.50678 38.72206 38.62248
#
# Poissons Ratio (x) = 1.37379 -1.43918
# Poissons Ratio (y) = 0.30181 0.61899
# Poissons Ratio (z) = -0.31699 0.62058
#
# Static dielectric constant tensor:
#      x y z
#    x 1.653330 0.000000 -0.016710 
#    y 0.000000 1.635120 0.000000 
#    z -0.016710 0.000000 1.656180 
# 
# From -- ./inp_files/244905.got.cif
#   From: 2010.05.17/outbox.cif.g08.bks.cpg/sg12_123_cif.got.tgz:244905.got - 2010.06.03 13:09:07.
