data_PCOD9186083
_publ_section_title
;
Structure prediction by ZEFSAII (Michael W. Deem and Ramdas Pophale) SiO2 
 PCOD9186083
Probable space group: C 2/M
;
_chemical_formula_sum "Si O2"
_cell_formula_units_Z 64
_cell_length_a 25.589068
_cell_length_b 9.394796
_cell_length_c 14.582756
_cell_angle_alpha 90.000000
_cell_angle_beta 101.467924
_cell_angle_gamma 90.000000
_cell_volume 3435.765650
_symmetry_space_group_name_H-M "C 2/M"
_symmetry_group_IT_number 12
_symmetry_cell_setting 'monoclinic'
loop_
_space_group_symop_operation_xyz
x,y,z
-x,y,-z
-x,-y,-z
x,-y,z
1/2+x,1/2+y,z
1/2-x,1/2+y,-z
1/2-x,1/2-y,-z
1/2+x,1/2-y,z
loop_
_atom_site_type_symbol
_atom_site_label
_atom_site_fract_x
_atom_site_fract_y
_atom_site_fract_z
Si Si1 0.518270 0.667460 0.106704
Si Si2 0.113986 0.667627 0.424307
Si Si3 0.704549 0.668789 0.706541
Si Si4 0.294681 0.664398 0.637310
Si Si5 0.902124 0.667097 0.366299
Si Si6 0.230789 0.332994 0.082319
Si Si7 0.005558 0.329407 0.284154
Si Si8 0.144756 0.840437 0.146637
O O1 0.504410 0.500000 0.110826
O O2 0.495492 0.754094 0.184030
O O3 0.582085 0.680792 0.132458
O O4 0.500000 0.716294 0.000000
O O5 0.124823 0.500000 0.409796
O O6 0.166721 0.757674 0.420927
O O7 0.096365 0.681557 0.523429
O O8 0.063445 0.712805 0.344661
O O9 0.703974 0.500000 0.688134
O O10 0.741363 0.749708 0.644628
O O11 0.646098 0.736053 0.685209
O O12 0.731265 0.691495 0.815895
O O13 0.283363 0.500000 0.609033
O O14 0.328778 0.665723 0.743812
O O15 0.890899 0.500000 0.342317
O O16 0.958225 0.703732 0.338755
O O17 0.229183 0.500000 0.063487
O O18 0.173560 0.273865 0.093576
O O19 0.250000 0.250000 0.000000
O O20 0.006829 0.500000 0.273236
O O21 0.154810 0.000000 0.113219
#
# Coordination Sequence:
#
# PCOD9186083 Si02
#       8
#     8   8   8   8   8   8   8   8
#     4  10  21  37  57  83 115 150 187 232 289 343
#     4  10  20  36  60  86 114 151 193 237 287 343
#     4  10  22  39  57  82 115 150 190 236 289 342
#     4  10  19  34  59  85 111 146 189 237 283 335
#     4  10  22  39  58  84 118 155 192 234 289 345
#     4  10  21  36  57  82 108 143 187 232 281 339
#     4  10  21  38  60  84 115 152 194 240 284 338
#     4   9  18  34  54  78 109 144 183 229 280 333
#
# _framework density 18.627579999999998
#
# number of rings (size 3 to 8) (size 9 to 14) (size 15 to 20)
#    0.000    2.125    1.250    1.500    0.000    6.750 
#    0.000    3.750    0.000    2.250    0.000    0.000 
#    0.000    0.000    0.000    0.000    0.000    0.000 
#
# Total GULP energy -178674.516478 kJ/mol
# GULP energy per Si atom -5583.578640 kJ/mol
# Density = 1.858518 g / cm^3
# Si number density = 18.627580 Si / 1000 Ang^3
#
#
#
# Elastic Constant Matrix: (Units=GPa)
#
#
# Indices 1 2 3 4 5 6 
#
# 1 54.8403 46.4004 24.5905 0.0000 -11.0459 0.0000
# 2 46.4004 76.9336 54.0906 0.0000 -13.6148 0.0000
# 3 24.5905 54.0906 72.8775 0.0000 -19.8155 0.0000
# 4 0.0000 0.0000 0.0000 28.4968 0.0000 -4.4680
# 5 -11.0459 -13.6148 -19.8155 0.0000 29.0277 0.0000
# 6 0.0000 0.0000 0.0000 -4.4680 0.0000 31.8626
#
#
#
# Elastic Compliance Matrix: (Units=1/GPa)
#
#
# Indices 1 2 3 4 5 6 
#
# 1 0.041911 -0.032344 0.012372 0.000000 0.009224 0.000000
# 2 -0.032344 0.052182 -0.030094 0.000000 -0.008377 0.000000
# 3 0.012372 -0.030094 0.036009 0.000000 0.015174 0.000000
# 4 0.000000 0.000000 0.000000 0.035881 0.000000 0.005031
# 5 0.009224 -0.008377 0.015174 0.000000 0.044390 0.000000
# 6 0.000000 0.000000 0.000000 0.005031 0.000000 0.032090
#
#
# Mechanical properties :
#
#
# Convention : Reuss Voigt Hill
#
# Bulk Modulus (GPa) = 33.36583 50.53494 41.95038
# Shear Modulus (GPa) = 14.18102 23.18207 18.68154
#
# Velocity S-wave (km/s) = 2.76214 3.53158 3.17029
# Velocity P-wave (km/s) = 5.30316 6.61947 5.99754
#
# Compressibility (1/GPa) = 0.02997079
#
# Stress axis : x y z
#
# Youngs Moduli (GPa) = 23.86006 19.16378 27.77077
#
# Poissons Ratio (x) = 0.61983 -0.34359
# Poissons Ratio (y) = 0.77173 0.83573
# Poissons Ratio (z) = -0.29521 0.57672
#
# Static dielectric constant tensor:
#      x y z
#    x 1.620240 0.000000 0.011560 
#    y 0.000000 1.637280 0.000000 
#    z 0.011560 0.000000 1.639140 
# 
# From -- ./inp_files/238569.got.cif
#   From: 2010.05.17/outbox.cif.g08.bks.cpg/sg12_120_cif.got.tgz:238569.got - 2010.06.03 13:09:07.
