data_PCOD9186799
_publ_section_title
;
Structure prediction by ZEFSAII (Michael W. Deem and Ramdas Pophale) SiO2 
 PCOD9186799
Probable space group: C 2/M
;
_chemical_formula_sum "Si O2"
_cell_formula_units_Z 24
_cell_length_a 15.130766
_cell_length_b 13.840245
_cell_length_c 4.970685
_cell_angle_alpha 90.000000
_cell_angle_beta 116.781502
_cell_angle_gamma 90.000000
_cell_volume 929.269569
_symmetry_space_group_name_H-M "C 2/M"
_symmetry_group_IT_number 12
_symmetry_cell_setting 'monoclinic'
loop_
_space_group_symop_operation_xyz
x,y,z
-x,y,-z
-x,-y,-z
x,-y,z
1/2+x,1/2+y,z
1/2-x,1/2+y,-z
1/2-x,1/2-y,-z
1/2+x,1/2-y,z
loop_
_atom_site_type_symbol
_atom_site_label
_atom_site_fract_x
_atom_site_fract_y
_atom_site_fract_z
Si Si1 0.605164 0.828850 0.794174
Si Si2 0.614970 0.397416 0.734126
Si Si3 0.280829 0.138892 0.552509
O O1 0.500000 0.837190 0.500000
O O2 0.627281 0.712998 0.857237
O O3 0.682453 0.880533 0.697309
O O4 0.626420 0.872156 0.115908
O O5 0.500000 0.397782 0.500000
O O6 0.630189 0.500000 0.908755
O O7 0.685857 0.403010 0.571611
O O8 0.250000 0.250000 0.500000
#
# Coordination Sequence:
#
# PCOD9186799 Si02
#       3
#     8   8   8
#     4  10  20  36  58  81 107 142 183 223 264 317
#     4   9  18  33  54  82 112 139 172 221 277 323
#     4  10  19  35  56  80 109 143 182 219 263 321
#
# _framework density 25.826739
#
# number of rings (size 3 to 8) (size 9 to 14) (size 15 to 20)
#    0.000    2.333    0.000    5.000    0.000    0.000 
#    0.000   20.000    0.000   52.000    0.000    0.000 
#    0.000    0.000    0.000    0.000    0.000    0.000 
#
# Total GULP energy -66898.769100 kJ/mol
# GULP energy per Si atom -5574.897425 kJ/mol
# Density = 2.576796 g / cm^3
# Si number density = 25.826739 Si / 1000 Ang^3
#
#
#
# Elastic Constant Matrix: (Units=GPa)
#
#
# Indices 1 2 3 4 5 6 
#
# 1 83.4127 17.0512 41.5335 0.0000 31.5221 0.0000
# 2 17.0512 105.3090 8.8957 0.0000 10.3212 0.0000
# 3 41.5335 8.8957 145.9645 0.0000 7.0721 0.0000
# 4 0.0000 0.0000 0.0000 20.7982 0.0000 31.0565
# 5 31.5221 10.3212 7.0721 0.0000 48.0192 0.0000
# 6 0.0000 0.0000 0.0000 31.0565 0.0000 89.4259
#
#
#
# Elastic Compliance Matrix: (Units=1/GPa)
#
#
# Indices 1 2 3 4 5 6 
#
# 1 0.018996 -0.001553 -0.004757 0.000000 -0.011436 0.000000
# 2 -0.001553 0.009863 -0.000107 0.000000 -0.001085 0.000000
# 3 -0.004757 -0.000107 0.008116 0.000000 0.001950 0.000000
# 4 0.000000 0.000000 0.000000 0.099873 0.000000 -0.034685
# 5 -0.011436 -0.001085 0.001950 0.000000 0.028278 0.000000
# 6 0.000000 0.000000 0.000000 -0.034685 0.000000 0.023228
#
#
# Mechanical properties :
#
#
# Convention : Reuss Voigt Hill
#
# Bulk Modulus (GPa) = 41.42056 52.18299 46.80178
# Shear Modulus (GPa) = 23.89665 49.46239 36.67952
#
# Velocity S-wave (km/s) = 3.04512 4.38100 3.77266
# Velocity P-wave (km/s) = 5.33258 6.77051 6.09410
#
# Compressibility (1/GPa) = 0.02414260
#
# Stress axis : x y z
#
# Youngs Moduli (GPa) = 52.64256 101.39256 123.20677
#
# Poissons Ratio (x) = 0.15748 0.58603
# Poissons Ratio (y) = 0.08176 0.01313
# Poissons Ratio (z) = 0.25039 0.01081
#
# Static dielectric constant tensor:
#      x y z
#    x 2.006810 0.000000 0.041820 
#    y 0.000000 2.092830 0.000000 
#    z 0.041820 0.000000 2.034670 
# 
# From -- ./inp_files/9223.got.cif
#   From: 2010.05.17/outbox.cif.g08.bks.cpg/sg12_5_cif.got.tgz:9223.got - 2010.06.03 13:09:07.
