data_PCOD9186805
_publ_section_title
;
Structure prediction by ZEFSAII (Michael W. Deem and Ramdas Pophale) SiO2 
 PCOD9186805
Probable space group: C 2/M
;
_chemical_formula_sum "Si O2"
_cell_formula_units_Z 40
_cell_length_a 15.198857
_cell_length_b 24.621304
_cell_length_c 8.073011
_cell_angle_alpha 90.000000
_cell_angle_beta 145.846497
_cell_angle_gamma 90.000000
_cell_volume 1696.052188
_symmetry_space_group_name_H-M "C 2/M"
_symmetry_group_IT_number 12
_symmetry_cell_setting 'monoclinic'
loop_
_space_group_symop_operation_xyz
x,y,z
-x,y,-z
-x,-y,-z
x,-y,z
1/2+x,1/2+y,z
1/2-x,1/2+y,-z
1/2-x,1/2-y,-z
1/2+x,1/2-y,z
loop_
_atom_site_type_symbol
_atom_site_label
_atom_site_fract_x
_atom_site_fract_y
_atom_site_fract_z
Si Si1 0.770154 0.380144 0.968546
Si Si2 0.607870 0.295205 0.508564
Si Si3 0.112046 0.500000 0.407559
Si Si4 0.181331 0.808962 0.151211
Si Si5 0.768294 0.500000 0.036079
Si Si6 0.905408 0.381648 0.694953
O O1 0.684763 0.352087 0.680599
O O2 0.737806 0.341157 0.073072
O O3 0.702836 0.440563 0.891514
O O4 0.957343 0.381832 0.230642
O O5 0.500000 0.279409 0.500000
O O6 0.737514 0.249021 0.700254
O O7 0.499230 0.298867 0.177862
O O8 0.206555 0.500000 0.726866
O O9 0.932724 0.500000 0.191619
O O10 0.141270 0.444666 0.354332
O O11 0.257488 0.847051 0.409722
O O12 0.000000 0.360547 0.000000
#
# Coordination Sequence:
#
# PCOD9186805 Si02
#       6
#     8   8   4   8   4   8
#     4  10  19  35  56  80 111 140 177 223 269 316
#     4  10  20  34  57  83 106 141 180 224 272 321
#     4   9  17  32  53  81 110 140 178 219 265 315
#     4  11  20  36  56  80 108 140 183 223 271 317
#     4   9  16  30  56  84 106 138 175 223 268 314
#     4  11  21  34  55  82 110 145 182 220 263 316
#
# _framework density 23.584178999999999
#
# number of rings (size 3 to 8) (size 9 to 14) (size 15 to 20)
#    0.000    1.800    2.000    5.700    0.000    0.000 
#    0.000   10.500    0.000    0.000    0.000    5.600 
#    0.000    0.000    0.000    0.000    0.000    0.000 
#
# Total GULP energy -111836.893700 kJ/mol
# GULP energy per Si atom -5591.844685 kJ/mol
# Density = 2.353050 g / cm^3
# Si number density = 23.584179 Si / 1000 Ang^3
#
#
#
# Elastic Constant Matrix: (Units=GPa)
#
#
# Indices 1 2 3 4 5 6 
#
# 1 34.9774 4.1568 18.6143 0.0000 5.3772 0.0000
# 2 4.1568 170.3402 97.2082 0.0000 10.7193 0.0000
# 3 18.6143 97.2082 213.4818 0.0000 -7.0108 0.0000
# 4 0.0000 0.0000 0.0000 71.3268 0.0000 -18.3175
# 5 5.3772 10.7193 -7.0108 0.0000 38.8372 0.0000
# 6 0.0000 0.0000 0.0000 -18.3175 0.0000 26.5079
#
#
#
# Elastic Compliance Matrix: (Units=1/GPa)
#
#
# Indices 1 2 3 4 5 6 
#
# 1 0.031173 0.001668 -0.003656 0.000000 -0.005436 0.000000
# 2 0.001668 0.008349 -0.004055 0.000000 -0.003267 0.000000
# 3 -0.003656 -0.004055 0.006944 0.000000 0.002879 0.000000
# 4 0.000000 0.000000 0.000000 0.017045 0.000000 0.011778
# 5 -0.005436 -0.003267 0.002879 0.000000 0.027923 0.000000
# 6 0.000000 0.000000 0.000000 0.011778 0.000000 0.045864
#
#
# Mechanical properties :
#
#
# Convention : Reuss Voigt Hill
#
# Bulk Modulus (GPa) = 29.08612 73.19533 51.14073
# Shear Modulus (GPa) = 31.08612 47.25570 39.17091
#
# Velocity S-wave (km/s) = 3.63449 4.48113 4.07983
# Velocity P-wave (km/s) = 5.47470 7.60771 6.62758
#
# Compressibility (1/GPa) = 0.03438066
#
# Stress axis : x y z
#
# Youngs Moduli (GPa) = 32.07886 119.77003 144.01339
#
# Poissons Ratio (x) = -0.19975 0.52652
# Poissons Ratio (y) = -0.05350 0.58391
# Poissons Ratio (z) = 0.11728 0.48562
#
# Static dielectric constant tensor:
#      x y z
#    x 1.985370 0.000000 -0.026070 
#    y 0.000000 1.865060 0.000000 
#    z -0.026070 0.000000 1.880450 
# 
# From -- ./inp_files/90773.got.cif
#   From: 2010.05.17/outbox.cif.g08.bks.cpg/sg12_46_cif.got.tgz:90773.got - 2010.06.03 13:09:07.
