data_PCOD9186782
_publ_section_title
;
Structure prediction by ZEFSAII (Michael W. Deem and Ramdas Pophale) SiO2 
 PCOD9186782
Probable space group: C 2/M
;
_chemical_formula_sum "Si O2"
_cell_formula_units_Z 44
_cell_length_a 8.656592
_cell_length_b 23.477569
_cell_length_c 13.549280
_cell_angle_alpha 90.000000
_cell_angle_beta 124.311914
_cell_angle_gamma 90.000000
_cell_volume 2274.502409
_symmetry_space_group_name_H-M "C 2/M"
_symmetry_group_IT_number 12
_symmetry_cell_setting 'monoclinic'
loop_
_space_group_symop_operation_xyz
x,y,z
-x,y,-z
-x,-y,-z
x,-y,z
1/2+x,1/2+y,z
1/2-x,1/2+y,-z
1/2-x,1/2-y,-z
1/2+x,1/2-y,z
loop_
_atom_site_type_symbol
_atom_site_label
_atom_site_fract_x
_atom_site_fract_y
_atom_site_fract_z
Si Si1 0.211065 0.287552 0.885321
Si Si2 0.293787 0.881702 0.969360
Si Si3 0.543006 0.694772 0.216478
Si Si4 0.594667 0.000000 0.723411
Si Si5 0.709314 0.904115 0.615901
Si Si6 0.175256 0.000000 0.490690
Si Si7 0.810218 0.000000 0.994088
O O1 0.370393 0.291686 0.860448
O O2 0.032296 0.255813 0.773653
O O3 0.250000 0.250000 0.000000
O O4 0.185346 0.350700 0.917308
O O5 0.143331 0.844160 0.856225
O O6 0.500000 0.882393 0.000000
O O7 0.208058 0.943665 0.948926
O O8 0.691302 0.655530 0.326007
O O9 0.685415 0.944368 0.703893
O O10 0.374744 0.000000 0.619488
O O11 0.641547 0.000000 0.854695
O O12 0.500000 0.895427 0.500000
O O13 0.818035 0.944090 0.576735
O O14 0.000000 0.000000 0.500000
O O15 0.000000 0.000000 0.000000
#
# Coordination Sequence:
#
# PCOD9186782 Si02
#       7
#     8   8   8   4   8   4   4
#     4  10  19  35  56  79 108 149 191 225 275 342
#     4  11  22  35  52  81 115 147 184 228 278 345
#     4  11  21  37  59  80 110 152 191 237 282 334
#     4   9  18  34  55  79 109 147 181 217 278 352
#     4   9  19  37  58  81 109 146 189 230 283 344
#     4   9  19  36  60  85 111 145 190 237 284 342
#     4  12  22  34  54  84 115 146 181 230 290 342
#
# _framework density 19.344892000000002
#
# number of rings (size 3 to 8) (size 9 to 14) (size 15 to 20)
#    0.000    1.818    0.000    9.000    0.000    2.182 
#    0.000    4.545    0.000    0.000    0.000    0.000 
#    0.000    0.000    0.000    0.000    0.000    0.000 
#
# Total GULP energy -122679.724367 kJ/mol
# GULP energy per Si atom -5576.351108 kJ/mol
# Density = 1.930086 g / cm^3
# Si number density = 19.344892 Si / 1000 Ang^3
#
#
#
# Elastic Constant Matrix: (Units=GPa)
#
#
# Indices 1 2 3 4 5 6 
#
# 1 139.8991 16.8679 -5.4555 0.0000 5.9239 0.0000
# 2 16.8679 83.6550 2.0581 0.0000 13.3325 0.0000
# 3 -5.4555 2.0581 30.8752 0.0000 5.1055 0.0000
# 4 0.0000 0.0000 0.0000 32.0687 0.0000 8.6103
# 5 5.9239 13.3325 5.1055 0.0000 15.5860 0.0000
# 6 0.0000 0.0000 0.0000 8.6103 0.0000 25.5319
#
#
#
# Elastic Compliance Matrix: (Units=1/GPa)
#
#
# Indices 1 2 3 4 5 6 
#
# 1 0.007461 -0.001161 0.001798 0.000000 -0.002431 0.000000
# 2 -0.001161 0.014057 0.000817 0.000000 -0.011851 0.000000
# 3 0.001798 0.000817 0.034763 0.000000 -0.012770 0.000000
# 4 0.000000 0.000000 0.000000 0.034288 0.000000 -0.011563
# 5 -0.002431 -0.011851 -0.012770 0.000000 0.079404 0.000000
# 6 0.000000 0.000000 0.000000 -0.011563 0.000000 0.043066
#
#
# Mechanical properties :
#
#
# Convention : Reuss Voigt Hill
#
# Bulk Modulus (GPa) = 16.89501 31.26336 24.07919
# Shear Modulus (GPa) = 21.75231 30.70124 26.22678
#
# Velocity S-wave (km/s) = 3.35692 3.98810 3.68604
# Velocity P-wave (km/s) = 4.87624 6.11577 5.53084
#
# Compressibility (1/GPa) = 0.05918907
#
# Stress axis : x y z
#
# Youngs Moduli (GPa) = 134.02888 71.14111 28.76606
#
# Poissons Ratio (x) = 0.08261 -0.05172
# Poissons Ratio (y) = 0.15563 -0.02352
# Poissons Ratio (z) = -0.24096 -0.05815
#
# Static dielectric constant tensor:
#      x y z
#    x 1.664320 0.000000 0.022720 
#    y 0.000000 1.647040 0.000000 
#    z 0.022720 0.000000 1.723960 
# 
# From -- ./inp_files/120882.got.cif
#   From: 2010.05.17/outbox.cif.g08.bks.cpg/sg12_61_cif.got.tgz:120882.got - 2010.06.03 13:09:07.
