data_PCOD9186109
_publ_section_title
;
Structure prediction by ZEFSAII (Michael W. Deem and Ramdas Pophale) SiO2 
 PCOD9186109
Probable space group: C 2/M
;
_chemical_formula_sum "Si O2"
_cell_formula_units_Z 56
_cell_length_a 15.755701
_cell_length_b 8.799276
_cell_length_c 22.986398
_cell_angle_alpha 90.000000
_cell_angle_beta 60.834983
_cell_angle_gamma 90.000000
_cell_volume 2782.781840
_symmetry_space_group_name_H-M "C 2/M"
_symmetry_group_IT_number 12
_symmetry_cell_setting 'monoclinic'
loop_
_space_group_symop_operation_xyz
x,y,z
-x,y,-z
-x,-y,-z
x,-y,z
1/2+x,1/2+y,z
1/2-x,1/2+y,-z
1/2-x,1/2-y,-z
1/2+x,1/2-y,z
loop_
_atom_site_type_symbol
_atom_site_label
_atom_site_fract_x
_atom_site_fract_y
_atom_site_fract_z
Si Si1 0.568580 0.178265 0.921015
Si Si2 0.459158 0.319609 0.847889
Si Si3 0.776991 0.672746 0.430531
Si Si4 0.867225 0.180494 0.294218
Si Si5 0.220176 0.319278 0.147935
Si Si6 0.926583 0.174447 0.570597
Si Si7 0.314131 0.683762 0.715116
O O1 0.517951 0.262250 0.884074
O O2 0.673583 0.249942 0.897869
O O3 0.580670 0.000000 0.902697
O O4 0.500000 0.191742 0.000000
O O5 0.442982 0.500000 0.856891
O O6 0.528416 0.289762 0.769020
O O7 0.357918 0.234170 0.873361
O O8 0.809571 0.500000 0.428877
O O9 0.750000 0.750000 0.500000
O O10 0.852629 0.762327 0.364797
O O11 0.677083 0.669026 0.426977
O O12 0.786640 0.264133 0.281385
O O13 0.849063 0.000000 0.297660
O O14 0.226189 0.500000 0.148613
O O15 0.183943 0.253517 0.221897
O O16 0.900731 0.237203 0.642863
O O17 0.000000 0.249112 0.500000
O O18 0.961583 0.000000 0.568249
O O19 0.316843 0.500000 0.716736
#
# Coordination Sequence:
#
# PCOD9186109 Si02
#       7
#     8   8   8   8   8   8   8
#     4  11  25  46  72 100 133 171 210 262 326 388
#     4  11  24  42  67  98 130 170 218 266 318 381
#     4  10  20  33  52  78 111 155 202 256 317 377
#     4  10  20  36  59  85 116 159 209 262 322 384
#     4  12  25  41  65  97 132 172 216 264 317 382
#     4   8  16  31  51  76 107 148 197 248 307 369
#     4  10  19  34  59  86 118 161 208 263 321 378
#
# _framework density 20.123747000000002
#
# number of rings (size 3 to 8) (size 9 to 14) (size 15 to 20)
#    0.000    1.714    1.429    4.286    0.000    4.571 
#    0.000    2.857    0.000   14.571    0.000    0.000 
#    0.000    0.000    0.000    0.000    0.000    0.000 
#
# Total GULP energy -156421.225634 kJ/mol
# GULP energy per Si atom -5586.472344 kJ/mol
# Density = 2.007794 g / cm^3
# Si number density = 20.123747 Si / 1000 Ang^3
#
#
#
# Elastic Constant Matrix: (Units=GPa)
#
#
# Indices 1 2 3 4 5 6 
#
# 1 65.4438 18.2911 20.9620 0.0000 -19.1238 0.0000
# 2 18.2911 75.1006 39.3522 0.0000 -10.5308 0.0000
# 3 20.9620 39.3522 77.5820 0.0000 -16.1381 0.0000
# 4 0.0000 0.0000 0.0000 26.5995 0.0000 2.5069
# 5 -19.1238 -10.5308 -16.1381 0.0000 21.1881 0.0000
# 6 0.0000 0.0000 0.0000 2.5069 0.0000 26.7177
#
#
#
# Elastic Compliance Matrix: (Units=1/GPa)
#
#
# Indices 1 2 3 4 5 6 
#
# 1 0.021294 -0.002220 -0.001021 0.000000 0.017339 0.000000
# 2 -0.002220 0.018469 -0.008645 0.000000 0.000591 0.000000
# 3 -0.001021 -0.008645 0.019565 0.000000 0.009684 0.000000
# 4 0.000000 0.000000 0.000000 0.037930 0.000000 -0.003559
# 5 0.017339 0.000591 0.009684 0.000000 0.070515 0.000000
# 6 0.000000 0.000000 0.000000 -0.003559 0.000000 0.037762
#
#
# Mechanical properties :
#
#
# Convention : Reuss Voigt Hill
#
# Bulk Modulus (GPa) = 28.12474 41.70411 34.91443
# Shear Modulus (GPa) = 20.73307 24.20248 22.46777
#
# Velocity S-wave (km/s) = 3.21328 3.47173 3.34500
# Velocity P-wave (km/s) = 5.27002 6.06955 5.68386
#
# Compressibility (1/GPa) = 0.03555588
#
# Stress axis : x y z
#
# Youngs Moduli (GPa) = 46.96053 54.14419 51.11178
#
# Poissons Ratio (x) = 0.12021 0.05217
# Poissons Ratio (y) = 0.10426 0.44188
# Poissons Ratio (z) = 0.04793 0.46810
#
# Static dielectric constant tensor:
#      x y z
#    x 1.707570 0.000000 0.001230 
#    y 0.000000 1.683540 0.000000 
#    z 0.001230 0.000000 1.732870 
# 
# From -- ./inp_files/338443.got.cif
#   From: 2010.05.17/outbox.cif.g08.bks.cpg/sg12_170_cif.got.tgz:338443.got - 2010.06.03 13:09:07.
