data_PCOD9186345
_publ_section_title
;
Structure prediction by ZEFSAII (Michael W. Deem and Ramdas Pophale) SiO2 
 PCOD9186345
Probable space group: C 2/M
;
_chemical_formula_sum "Si O2"
_cell_formula_units_Z 58
_cell_length_a 16.932280
_cell_length_b 20.369301
_cell_length_c 9.432639
_cell_angle_alpha 90.000000
_cell_angle_beta 129.320575
_cell_angle_gamma 90.000000
_cell_volume 2516.798106
_symmetry_space_group_name_H-M "C 2/M"
_symmetry_group_IT_number 12
_symmetry_cell_setting 'monoclinic'
loop_
_space_group_symop_operation_xyz
x,y,z
-x,y,-z
-x,-y,-z
x,-y,z
1/2+x,1/2+y,z
1/2-x,1/2+y,-z
1/2-x,1/2-y,-z
1/2+x,1/2-y,z
loop_
_atom_site_type_symbol
_atom_site_label
_atom_site_fract_x
_atom_site_fract_y
_atom_site_fract_z
Si Si1 0.532068 0.374883 0.824507
Si Si2 0.652209 0.076285 0.839948
Si Si3 0.228798 0.837966 0.230177
Si Si4 0.454888 0.889639 0.789794
Si Si5 0.500000 0.500000 0.000000
Si Si6 0.768922 0.072947 0.495120
Si Si7 0.660455 0.577579 0.726425
Si Si8 0.089628 0.246484 0.219244
O O1 0.569105 0.390728 0.709589
O O2 0.448642 0.317496 0.740477
O O3 0.633013 0.346842 0.016990
O O4 0.508924 0.441015 0.886650
O O5 0.676653 0.133441 0.752862
O O6 0.541177 0.086083 0.780795
O O7 0.663666 0.000000 0.799779
O O8 0.736433 0.084620 0.060864
O O9 0.218450 0.888603 0.346350
O O10 0.199832 0.768292 0.271430
O O11 0.351560 0.929967 0.670378
O O12 0.417205 0.815554 0.709778
O O13 0.500000 0.892101 0.000000
O O14 0.818249 0.100887 0.408145
O O15 0.808890 0.000000 0.564142
O O16 0.641129 0.500000 0.695524
O O17 0.000000 0.253170 0.000000
#
# Coordination Sequence:
#
# PCOD9186345 Si02
#       8
#     8   8   8   8   2   8   8   8
#     4  10  19  34  61  87 112 152 197 242 290 345
#     4  10  20  35  63  89 115 150 199 253 290 344
#     4  10  21  38  58  88 117 147 192 250 296 350
#     4  11  22  40  59  84 117 162 199 237 287 354
#     4  12  16  28  68  90 108 156 192 260 296 332
#     4  11  23  36  59  87 121 153 185 245 305 346
#     4   9  18  33  52  88 116 144 191 234 286 351
#     4   9  20  40  60  84 116 156 203 234 286 353
#
# _framework density 23.045152999999999
#
# number of rings (size 3 to 8) (size 9 to 14) (size 15 to 20)
#    0.000    1.931    4.138    0.828    1.931    1.655 
#    2.483    4.828    3.034    2.483    0.000    0.000 
#    0.000    0.000    0.000    0.000    0.000    0.000 
#
# Total GULP energy -161648.046058 kJ/mol
# GULP energy per Si atom -5574.070554 kJ/mol
# Density = 2.299270 g / cm^3
# Si number density = 23.045153 Si / 1000 Ang^3
#
#
#
# Elastic Constant Matrix: (Units=GPa)
#
#
# Indices 1 2 3 4 5 6 
#
# 1 141.0103 23.1174 28.2175 0.0000 -12.4932 0.0000
# 2 23.1174 79.0229 -2.2888 0.0000 -4.0304 0.0000
# 3 28.2175 -2.2888 45.5554 0.0000 -17.9756 0.0000
# 4 0.0000 0.0000 0.0000 10.2372 0.0000 4.5147
# 5 -12.4932 -4.0304 -17.9756 0.0000 35.2257 0.0000
# 6 0.0000 0.0000 0.0000 4.5147 0.0000 28.6262
#
#
#
# Elastic Compliance Matrix: (Units=1/GPa)
#
#
# Indices 1 2 3 4 5 6 
#
# 1 0.008628 -0.002686 -0.005501 0.000000 -0.000054 0.000000
# 2 -0.002686 0.013650 0.003243 0.000000 0.002264 0.000000
# 3 -0.005501 0.003243 0.031175 0.000000 0.014329 0.000000
# 4 0.000000 0.000000 0.000000 0.104985 0.000000 -0.016557
# 5 -0.000054 0.002264 0.014329 0.000000 0.035940 0.000000
# 6 0.000000 0.000000 0.000000 -0.016557 0.000000 0.037544
#
#
# Mechanical properties :
#
#
# Convention : Reuss Voigt Hill
#
# Bulk Modulus (GPa) = 22.95397 40.40899 31.68148
# Shear Modulus (GPa) = 19.50596 29.25398 24.37997
#
# Velocity S-wave (km/s) = 2.91249 3.56676 3.25610
# Velocity P-wave (km/s) = 4.61435 5.87666 5.28334
#
# Compressibility (1/GPa) = 0.04356544
#
# Stress axis : x y z
#
# Youngs Moduli (GPa) = 115.90226 73.26137 32.07664
#
# Poissons Ratio (x) = 0.19679 0.17644
# Poissons Ratio (y) = 0.31133 -0.10402
# Poissons Ratio (z) = 0.63753 -0.23758
#
# Static dielectric constant tensor:
#      x y z
#    x 1.882300 0.000000 0.032390 
#    y 0.000000 1.893310 0.000000 
#    z 0.032390 0.000000 1.893760 
# 
# From -- ./inp_files/78042.got.cif
#   From: 2010.05.17/outbox.cif.g08.bks.cpg/sg12_40_cif.got.tgz:78042.got - 2010.06.03 13:09:07.
