data_PCOD9186812
_publ_section_title
;
Structure prediction by ZEFSAII (Michael W. Deem and Ramdas Pophale) SiO2 
 PCOD9186812
Probable space group: C 2/M
;
_chemical_formula_sum "Si O2"
_cell_formula_units_Z 52
_cell_length_a 19.099189
_cell_length_b 14.645608
_cell_length_c 16.902720
_cell_angle_alpha 90.000000
_cell_angle_beta 34.859322
_cell_angle_gamma 90.000000
_cell_volume 2702.361087
_symmetry_space_group_name_H-M "C 2/M"
_symmetry_group_IT_number 12
_symmetry_cell_setting 'monoclinic'
loop_
_space_group_symop_operation_xyz
x,y,z
-x,y,-z
-x,-y,-z
x,-y,z
1/2+x,1/2+y,z
1/2-x,1/2+y,-z
1/2-x,1/2-y,-z
1/2+x,1/2-y,z
loop_
_atom_site_type_symbol
_atom_site_label
_atom_site_fract_x
_atom_site_fract_y
_atom_site_fract_z
Si Si1 0.252304 0.298796 0.788463
Si Si2 0.676709 0.500000 0.264412
Si Si3 0.293045 0.309128 0.570304
Si Si4 0.695076 0.179868 0.114724
Si Si5 0.000000 0.807355 0.000000
Si Si6 0.555217 0.780341 0.700815
Si Si7 0.954444 0.102343 0.878615
Si Si8 0.403103 0.500000 0.476275
O O1 0.253997 0.404699 0.813663
O O2 0.310812 0.294595 0.647042
O O3 0.320669 0.236882 0.789538
O O4 0.117286 0.256601 0.905916
O O5 0.549448 0.500000 0.334968
O O6 0.636162 0.500000 0.394249
O O7 0.362707 0.234324 0.453285
O O8 0.149467 0.309022 0.681702
O O9 0.346597 0.407188 0.496744
O O10 0.560614 0.154684 0.208047
O O11 0.750000 0.250000 0.000000
O O12 0.805856 0.108999 0.022475
O O13 0.991139 0.869860 0.086189
O O14 0.500479 0.682052 0.777752
O O15 0.990347 0.000000 0.822855
#
# Coordination Sequence:
#
# PCOD9186812 Si02
#       8
#     8   4   8   8   4   8   8   4
#     4  10  19  35  56  80 114 152 184 226 281 329
#     4   9  18  31  52  84 108 142 186 226 261 334
#     4  10  20  34  57  82 111 152 180 225 282 333
#     4   9  20  37  54  79 112 141 183 229 278 329
#     4  10  19  35  58  80 112 144 194 237 279 332
#     4  10  20  36  55  83 116 142 187 231 284 334
#     4  10  20  36  59  82 105 146 192 240 276 327
#     4   9  18  32  50  80 116 137 187 220 265 338
#
# _framework density 19.242432000000001
#
# number of rings (size 3 to 8) (size 9 to 14) (size 15 to 20)
#    0.000    2.308    1.538    1.154    1.077    2.154 
#    6.923    0.000    0.000    0.000    0.000    2.154 
#    0.000    0.000    0.000    0.000    0.000    0.000 
#
# Total GULP energy -144969.648957 kJ/mol
# GULP energy per Si atom -5575.755729 kJ/mol
# Density = 1.919864 g / cm^3
# Si number density = 19.242432 Si / 1000 Ang^3
#
#
#
# Elastic Constant Matrix: (Units=GPa)
#
#
# Indices 1 2 3 4 5 6 
#
# 1 80.2872 17.3282 30.6302 0.0000 -14.0381 0.0000
# 2 17.3282 58.8592 -3.4881 0.0000 -7.3939 0.0000
# 3 30.6302 -3.4881 34.8810 0.0000 -4.2788 0.0000
# 4 0.0000 0.0000 0.0000 19.9905 0.0000 3.2002
# 5 -14.0381 -7.3939 -4.2788 0.0000 41.3078 0.0000
# 6 0.0000 0.0000 0.0000 3.2002 0.0000 8.4715
#
#
#
# Elastic Compliance Matrix: (Units=1/GPa)
#
#
# Indices 1 2 3 4 5 6 
#
# 1 0.022298 -0.007204 -0.019781 0.000000 0.004239 0.000000
# 2 -0.007204 0.019868 0.008558 0.000000 0.001994 0.000000
# 3 -0.019781 0.008558 0.046854 0.000000 -0.000337 0.000000
# 4 0.000000 0.000000 0.000000 0.053244 0.000000 -0.020113
# 5 0.004239 0.001994 -0.000337 0.000000 0.025971 0.000000
# 6 0.000000 0.000000 0.000000 -0.020113 0.000000 0.125640
#
#
# Mechanical properties :
#
#
# Convention : Reuss Voigt Hill
#
# Bulk Modulus (GPa) = 19.16995 29.21867 24.19431
# Shear Modulus (GPa) = 14.36291 22.59110 18.47701
#
# Velocity S-wave (km/s) = 2.73503 3.43012 3.10211
# Velocity P-wave (km/s) = 4.46742 5.55924 5.04296
#
# Compressibility (1/GPa) = 0.05216499
#
# Stress axis : x y z
#
# Youngs Moduli (GPa) = 44.84705 50.33141 21.34302
#
# Poissons Ratio (x) = 0.36260 0.42219
# Poissons Ratio (y) = 0.32309 -0.18265
# Poissons Ratio (z) = 0.88712 -0.43073
#
# Static dielectric constant tensor:
#      x y z
#    x 1.699090 0.000000 0.004180 
#    y 0.000000 1.647840 0.000000 
#    z 0.004180 0.000000 1.693440 
# 
# From -- ./inp_files/284285.got.cif
#   From: 2010.05.17/outbox.cif.g08.bks.cpg/sg12_143_cif.got.tgz:284285.got - 2010.06.03 13:09:07.
