data_PCOD9186985
_publ_section_title
;
Structure prediction by ZEFSAII (Michael W. Deem and Ramdas Pophale) SiO2 
 PCOD9186985
Probable space group: C 2/M
;
_chemical_formula_sum "Si O2"
_cell_formula_units_Z 48
_cell_length_a 8.871218
_cell_length_b 16.878614
_cell_length_c 29.583822
_cell_angle_alpha 90.000000
_cell_angle_beta 145.485540
_cell_angle_gamma 90.000000
_cell_volume 2509.930949
_symmetry_space_group_name_H-M "C 2/M"
_symmetry_group_IT_number 12
_symmetry_cell_setting 'monoclinic'
loop_
_space_group_symop_operation_xyz
x,y,z
-x,y,-z
-x,-y,-z
x,-y,z
1/2+x,1/2+y,z
1/2-x,1/2+y,-z
1/2-x,1/2-y,-z
1/2+x,1/2-y,z
loop_
_atom_site_type_symbol
_atom_site_label
_atom_site_fract_x
_atom_site_fract_y
_atom_site_fract_z
Si Si1 0.234302 0.637218 0.916178
Si Si2 0.720222 0.641217 0.588556
Si Si3 0.054234 0.500000 0.707436
Si Si4 0.914826 0.500000 0.050730
Si Si5 0.668936 0.332178 0.753904
Si Si6 0.435592 0.500000 0.226125
Si Si7 0.350169 0.257463 0.345786
Si Si8 0.376326 0.500000 0.879887
O O1 0.163872 0.576522 0.939084
O O2 0.292897 0.578145 0.888394
O O3 0.973565 0.688276 0.841881
O O4 0.500000 0.679773 0.000000
O O5 0.500000 0.608588 0.500000
O O6 0.588659 0.701884 0.591474
O O7 0.869856 0.576071 0.655192
O O8 0.944196 0.688456 0.615864
O O9 0.269205 0.500000 0.720159
O O10 0.215953 0.500000 0.793945
O O11 0.233219 0.500000 0.133080
O O12 0.700579 0.500000 0.957363
O O13 0.621833 0.422059 0.758447
O O14 0.637865 0.318556 0.692866
O O15 0.447234 0.278217 0.723170
#
# Coordination Sequence:
#
# PCOD9186985 Si02
#       8
#     8   8   4   4   8   4   8   4
#     4   8  14  28  51  78 110 149 185 221 267 319
#     4  11  23  41  60  84 113 143 182 229 283 337
#     4  12  22  34  57  87 115 140 178 240 287 313
#     4   7  14  27  49  76 109 145 185 226 260 314
#     4  10  19  36  57  83 111 144 193 226 270 330
#     4  10  19  35  57  81 112 148 187 233 270 312
#     4  10  22  38  61  82 107 151 186 220 275 342
#     4   9  16  28  49  84 113 143 186 221 272 331
#
# _framework density 19.124032
#
# number of rings (size 3 to 8) (size 9 to 14) (size 15 to 20)
#    0.000    2.333    1.667    3.250    0.000    1.000 
#    0.000    0.833    0.000    3.000    0.000    0.000 
#    0.000    0.000    0.000    0.000    0.000    0.000 
#
# Total GULP energy -133759.882642 kJ/mol
# GULP energy per Si atom -5573.328443 kJ/mol
# Density = 1.908050 g / cm^3
# Si number density = 19.124032 Si / 1000 Ang^3
#
#
#
# Elastic Constant Matrix: (Units=GPa)
#
#
# Indices 1 2 3 4 5 6 
#
# 1 68.0409 17.1671 19.2687 -0.0005 0.0306 -0.0001
# 2 17.1671 43.2935 18.9560 -0.0004 -7.2709 -0.0002
# 3 19.2687 18.9560 112.5252 -0.0021 -7.6907 -0.0011
# 4 -0.0005 -0.0004 -0.0021 13.2074 -0.0007 -4.9343
# 5 0.0306 -7.2709 -7.6907 -0.0007 21.0815 0.0000
# 6 -0.0001 -0.0002 -0.0011 -4.9343 0.0000 16.6408
#
#
#
# Elastic Compliance Matrix: (Units=1/GPa)
#
#
# Indices 1 2 3 4 5 6 
#
# 1 0.016860 -0.006290 -0.002028 0.000000 -0.002934 0.000000
# 2 -0.006290 0.028413 -0.003117 0.000001 0.008672 0.000000
# 3 -0.002028 -0.003117 0.009934 0.000002 0.002552 0.000001
# 4 0.000000 0.000001 0.000002 0.085148 0.000004 0.025248
# 5 -0.002934 0.008672 0.002552 0.000004 0.051361 0.000001
# 6 0.000000 0.000000 0.000001 0.025248 0.000001 0.067580
#
#
# Mechanical properties :
#
#
# Convention : Reuss Voigt Hill
#
# Bulk Modulus (GPa) = 30.92418 37.18259 34.05338
# Shear Modulus (GPa) = 17.06811 21.41712 19.24261
#
# Velocity S-wave (km/s) = 2.99071 3.35013 3.17551
# Velocity P-wave (km/s) = 5.30389 5.86937 5.59378
#
# Compressibility (1/GPa) = 0.03233715
#
# Stress axis : x y z
#
# Youngs Moduli (GPa) = 59.31303 35.19468 100.66838
#
# Poissons Ratio (x) = 0.22138 0.20415
# Poissons Ratio (y) = 0.37309 0.31375
# Poissons Ratio (z) = 0.12028 0.10969
#
# Static dielectric constant tensor:
#      x y z
#    x 1.664430 0.000020 0.022770 
#    y 0.000020 2.505480 0.000030 
#    z 0.022770 0.000030 1.694840 
# 
# From -- ./inp_files/196974.got.cif
#   From: 2010.05.17/outbox.cif.g08.bks.cpg/sg12_99_cif.got.tgz:196974.got - 2010.06.03 13:09:07.
