data_PCOD9186237
_publ_section_title
;
Structure prediction by ZEFSAII (Michael W. Deem and Ramdas Pophale) SiO2 
 PCOD9186237
Probable space group: C 2/M
;
_chemical_formula_sum "Si O2"
_cell_formula_units_Z 52
_cell_length_a 20.742540
_cell_length_b 24.631267
_cell_length_c 5.446100
_cell_angle_alpha 90.000000
_cell_angle_beta 47.820901
_cell_angle_gamma 90.000000
_cell_volume 2061.966323
_symmetry_space_group_name_H-M "C 2/M"
_symmetry_group_IT_number 12
_symmetry_cell_setting 'monoclinic'
loop_
_space_group_symop_operation_xyz
x,y,z
-x,y,-z
-x,-y,-z
x,-y,z
1/2+x,1/2+y,z
1/2-x,1/2+y,-z
1/2-x,1/2-y,-z
1/2+x,1/2-y,z
loop_
_atom_site_type_symbol
_atom_site_label
_atom_site_fract_x
_atom_site_fract_y
_atom_site_fract_z
Si Si1 0.404734 0.158852 0.374446
Si Si2 0.081014 0.179054 0.057791
Si Si3 0.500000 0.094730 0.500000
Si Si4 0.093729 0.062279 0.999178
Si Si5 0.849648 0.562512 0.186446
Si Si6 0.109625 0.778791 0.491360
Si Si7 0.801503 0.938206 0.774607
O O1 0.429726 0.135028 0.570729
O O2 0.352133 0.110620 0.377978
O O3 0.363566 0.217592 0.517698
O O4 0.500000 0.164974 0.000000
O O5 0.133793 0.196125 0.165869
O O6 0.996342 0.217647 0.257216
O O7 0.040953 0.118216 0.156371
O O8 0.133463 0.186508 0.670864
O O9 0.448083 0.060461 0.831562
O O10 0.129584 0.062237 0.628526
O O11 0.061187 0.000000 0.123457
O O12 0.160923 0.075201 0.052519
O O13 0.825685 0.500000 0.323680
O O14 0.783693 0.582914 0.144344
O O15 0.775613 0.000000 0.882756
#
# Coordination Sequence:
#
# PCOD9186237 Si02
#       7
#     8   8   4   8   8   8   8
#     4  10  20  35  55  81 112 150 190 229 283 343
#     4  10  19  34  60  85 114 147 194 236 277 345
#     4  10  21  32  56  84 112 150 177 240 294 342
#     4  10  20  37  60  87 114 151 193 234 283 338
#     4  10  22  36  55  85 117 150 187 239 292 342
#     4  10  20  35  57  87 112 153 193 228 290 339
#     4   9  20  37  58  81 115 156 194 227 278 345
#
# _framework density 25.218647000000001
#
# number of rings (size 3 to 8) (size 9 to 14) (size 15 to 20)
#    0.000    2.154    1.538    2.077    4.308    3.385 
#    0.000    3.077    0.000    5.538    0.000    0.000 
#    0.000    0.000    0.000    0.000    0.000    0.000 
#
# Total GULP energy -144844.817167 kJ/mol
# GULP energy per Si atom -5570.954506 kJ/mol
# Density = 2.516125 g / cm^3
# Si number density = 25.218647 Si / 1000 Ang^3
#
#
#
# Elastic Constant Matrix: (Units=GPa)
#
#
# Indices 1 2 3 4 5 6 
#
# 1 87.9475 40.0187 30.1115 0.0000 39.2945 0.0000
# 2 40.0187 187.0268 29.6291 0.0000 22.3456 0.0000
# 3 30.1115 29.6291 92.3670 0.0000 36.1844 0.0000
# 4 0.0000 0.0000 0.0000 7.6240 0.0000 3.9245
# 5 39.2945 22.3456 36.1844 0.0000 44.4890 0.0000
# 6 0.0000 0.0000 0.0000 3.9245 0.0000 6.1559
#
#
#
# Elastic Compliance Matrix: (Units=1/GPa)
#
#
# Indices 1 2 3 4 5 6 
#
# 1 0.019709 -0.002339 0.001004 0.000000 -0.017049 0.000000
# 2 -0.002339 0.006034 -0.001167 0.000000 -0.000016 0.000000
# 3 0.001004 -0.001167 0.016131 0.000000 -0.013421 0.000000
# 4 0.000000 0.000000 0.000000 0.195232 0.000000 -0.124464
# 5 -0.017049 -0.000016 -0.013421 0.000000 0.048460 0.000000
# 6 0.000000 0.000000 0.000000 -0.124464 0.000000 0.241793
#
#
# Mechanical properties :
#
#
# Convention : Reuss Voigt Hill
#
# Bulk Modulus (GPa) = 27.12225 62.98444 45.05334
# Shear Modulus (GPa) = 9.18017 29.49258 19.33637
#
# Velocity S-wave (km/s) = 1.91001 3.42347 2.77203
# Velocity P-wave (km/s) = 3.95504 6.37624 5.30560
#
# Compressibility (1/GPa) = 0.03687010
#
# Stress axis : x y z
#
# Youngs Moduli (GPa) = 50.73949 165.72534 61.99330
#
# Poissons Ratio (x) = 0.38766 -0.06227
# Poissons Ratio (y) = 0.11869 0.07234
# Poissons Ratio (z) = -0.05097 0.19339
#
# Static dielectric constant tensor:
#      x y z
#    x 2.081250 0.000000 0.049230 
#    y 0.000000 1.981420 0.000000 
#    z 0.049230 0.000000 2.059830 
# 
# From -- ./inp_files/25571.got.cif
#   From: 2010.05.17/outbox.cif.g08.bks.cpg/sg12_13_cif.got.tgz:25571.got - 2010.06.03 13:09:07.
