data_PCOD9186387
_publ_section_title
;
Structure prediction by ZEFSAII (Michael W. Deem and Ramdas Pophale) SiO2 
 PCOD9186387
Probable space group: C 2/M
;
_chemical_formula_sum "Si O2"
_cell_formula_units_Z 50
_cell_length_a 31.487233
_cell_length_b 13.395429
_cell_length_c 7.056456
_cell_angle_alpha 90.000000
_cell_angle_beta 36.294313
_cell_angle_gamma 90.000000
_cell_volume 1761.775022
_symmetry_space_group_name_H-M "C 2/M"
_symmetry_group_IT_number 12
_symmetry_cell_setting 'monoclinic'
loop_
_space_group_symop_operation_xyz
x,y,z
-x,y,-z
-x,-y,-z
x,-y,z
1/2+x,1/2+y,z
1/2-x,1/2+y,-z
1/2-x,1/2-y,-z
1/2+x,1/2-y,z
loop_
_atom_site_type_symbol
_atom_site_label
_atom_site_fract_x
_atom_site_fract_y
_atom_site_fract_z
Si Si1 0.337561 0.611218 0.403470
Si Si2 0.562182 0.830001 0.570259
Si Si3 0.000000 0.500000 0.500000
Si Si4 0.819863 0.389860 0.096253
Si Si5 0.948357 0.888959 0.505728
Si Si6 0.711808 0.388617 0.978081
Si Si7 0.865506 0.676044 0.317573
O O1 0.366246 0.500000 0.263428
O O2 0.262704 0.626212 0.562084
O O3 0.314333 0.614996 0.709164
O O4 0.382929 0.709272 0.206582
O O5 0.524288 0.910380 0.570165
O O6 0.537270 0.714892 0.654594
O O7 0.579831 0.861685 0.721157
O O8 0.642793 0.820825 0.189052
O O9 0.823468 0.500000 0.998746
O O10 0.864200 0.385325 0.129562
O O11 0.863385 0.883557 0.864249
O O12 0.000000 0.888823 0.500000
O O13 0.956143 0.000000 0.384032
O O14 0.741247 0.500000 0.837816
O O15 0.782367 0.323668 0.686773
#
# Coordination Sequence:
#
# PCOD9186387 Si02
#       7
#     8   8   2   8   8   8   8
#     4  10  20  36  58  92 135 170 210 275 332 389
#     4  12  24  45  68  96 132 174 221 273 327 389
#     4  12  28  44  72  96 132 190 218 268 334 384
#     4  11  24  39  61  98 138 168 216 277 328 395
#     4  10  21  39  67  97 126 171 224 268 322 396
#     4  10  19  34  61  95 126 164 213 262 328 388
#     4  12  23  39  67  97 130 176 215 270 338 394
#
# _framework density 28.380469000000002
#
# number of rings (size 3 to 8) (size 9 to 14) (size 15 to 20)
#    0.000    1.120    4.800    2.400    2.240    0.000 
#    0.000    4.000    0.000    0.000    0.000    2.240 
#    0.000    0.000    0.000    0.000    0.000    0.000 
#
# Total GULP energy -139809.880645 kJ/mol
# GULP energy per Si atom -5592.395226 kJ/mol
# Density = 2.831587 g / cm^3
# Si number density = 28.380469 Si / 1000 Ang^3
#
#
#
# Elastic Constant Matrix: (Units=GPa)
#
#
# Indices 1 2 3 4 5 6 
#
# 1 219.7475 34.0078 36.1190 0.0000 -17.3359 0.0000
# 2 34.0078 213.4622 9.7531 0.0000 -2.3714 0.0000
# 3 36.1190 9.7531 100.6492 0.0000 -31.8730 0.0000
# 4 0.0000 0.0000 0.0000 -5.0167 0.0000 -5.2538
# 5 -17.3359 -2.3714 -31.8730 0.0000 48.3502 0.0000
# 6 0.0000 0.0000 0.0000 -5.2538 0.0000 41.2241
#
#
#
# Elastic Compliance Matrix: (Units=1/GPa)
#
#
# Indices 1 2 3 4 5 6 
#
# 1 0.004964 -0.000715 -0.001465 0.000000 0.000779 0.000000
# 2 -0.000715 0.004809 -0.000273 0.000000 -0.000200 0.000000
# 3 -0.001465 -0.000273 0.013039 0.000000 0.008057 0.000000
# 4 0.000000 0.000000 0.000000 -0.175862 0.000000 -0.022413
# 5 0.000779 -0.000200 0.008057 0.000000 0.026263 0.000000
# 6 0.000000 0.000000 0.000000 -0.022413 0.000000 0.021401
#
#
# Mechanical properties :
#
#
# Convention : Reuss Voigt Hill
#
# Bulk Modulus (GPa) = 55.85048 77.06873 66.45961
# Shear Modulus (GPa) = -52.90373 47.17677 -2.86348
#
# Velocity S-wave (km/s) = -4.32219 4.08155 -1.00556
# Velocity P-wave (km/s) = 2.27740 7.03040 4.70319
#
# Compressibility (1/GPa) = 0.01790495
#
# Stress axis : x y z
#
# Youngs Moduli (GPa) = 201.46494 207.95001 76.69198
#
# Poissons Ratio (x) = 0.14872 0.11238
# Poissons Ratio (y) = 0.14408 0.02092
# Poissons Ratio (z) = 0.29522 0.05673
#
# Static dielectric constant tensor:
#      x y z
#    x 2.213360 0.000000 -0.040710 
#    y 0.000000 2.125220 0.000000 
#    z -0.040710 0.000000 2.273250 
# 
# From -- ./inp_files/111058.got.cif
#   From: 2010.05.17/outbox.cif.g08.bks.cpg/sg12_56_cif.got.tgz:111058.got - 2010.06.03 13:09:07.
