data_PCOD9186413
_publ_section_title
;
Structure prediction by ZEFSAII (Michael W. Deem and Ramdas Pophale) SiO2 
 PCOD9186413
Probable space group: C 2/M
;
_chemical_formula_sum "Si O2"
_cell_formula_units_Z 48
_cell_length_a 16.819684
_cell_length_b 12.348287
_cell_length_c 9.962722
_cell_angle_alpha 90.000000
_cell_angle_beta 77.924043
_cell_angle_gamma 90.000000
_cell_volume 2023.411322
_symmetry_space_group_name_H-M "C 2/M"
_symmetry_group_IT_number 12
_symmetry_cell_setting 'monoclinic'
loop_
_space_group_symop_operation_xyz
x,y,z
-x,y,-z
-x,-y,-z
x,-y,z
1/2+x,1/2+y,z
1/2-x,1/2+y,-z
1/2-x,1/2-y,-z
1/2+x,1/2-y,z
loop_
_atom_site_type_symbol
_atom_site_label
_atom_site_fract_x
_atom_site_fract_y
_atom_site_fract_z
Si Si1 0.582785 0.618310 0.895935
Si Si2 0.831309 0.165481 0.866391
Si Si3 0.297162 0.871454 0.507345
Si Si4 0.338213 0.113634 0.008923
Si Si5 0.934646 0.274471 0.641061
Si Si6 0.921071 0.668004 0.234891
O O1 0.571877 0.500000 0.842017
O O2 0.602183 0.705408 0.777958
O O3 0.500000 0.652164 0.000000
O O4 0.643618 0.615053 0.999860
O O5 0.742239 0.123646 0.868472
O O6 0.896693 0.166817 0.724884
O O7 0.828879 0.291245 0.907628
O O8 0.250000 0.750000 0.500000
O O9 0.359786 0.842144 0.606070
O O10 0.356442 0.880494 0.358588
O O11 0.263578 0.000000 0.537641
O O12 0.410839 0.124748 0.088387
O O13 0.339587 0.000000 0.938450
O O14 0.000000 0.250654 0.500000
O O15 0.989736 0.335639 0.732774
#
# Coordination Sequence:
#
# PCOD9186413 Si02
#       6
#     8   8   8   8   8   8
#     4  10  19  34  62  92 127 172 212 266 333 397
#     4  10  20  38  59  89 127 163 212 270 325 393
#     4  11  25  45  69  95 130 178 225 275 330 394
#     4  10  21  35  59  88 118 160 203 260 328 386
#     4  10  22  40  64  91 127 170 217 273 326 393
#     4  10  21  39  62  92 130 161 215 272 329 391
#
# _framework density 23.722315999999999
#
# number of rings (size 3 to 8) (size 9 to 14) (size 15 to 20)
#    0.000    1.833    1.667    2.000    0.000    5.000 
#    0.000    2.500    0.000    7.000    0.000    0.000 
#    0.000    0.000    0.000    0.000    0.000    0.000 
#
# Total GULP energy -133668.942215 kJ/mol
# GULP energy per Si atom -5569.539259 kJ/mol
# Density = 2.366832 g / cm^3
# Si number density = 23.722316 Si / 1000 Ang^3
#
#
#
# Elastic Constant Matrix: (Units=GPa)
#
#
# Indices 1 2 3 4 5 6 
#
# 1 124.2164 23.2950 30.7006 0.0000 20.8565 0.0000
# 2 23.2950 163.5783 27.5142 0.0000 1.7936 0.0000
# 3 30.7006 27.5142 65.2002 0.0000 9.4274 0.0000
# 4 0.0000 0.0000 0.0000 -4.2853 0.0000 -9.8017
# 5 20.8565 1.7936 9.4274 0.0000 44.4696 0.0000
# 6 0.0000 0.0000 0.0000 -9.8017 0.0000 49.6105
#
#
#
# Elastic Compliance Matrix: (Units=1/GPa)
#
#
# Indices 1 2 3 4 5 6 
#
# 1 0.009738 -0.000716 -0.003742 0.000000 -0.003745 0.000000
# 2 -0.000716 0.006638 -0.002552 0.000000 0.000609 0.000000
# 3 -0.003742 -0.002552 0.018474 0.000000 -0.002059 0.000000
# 4 0.000000 0.000000 0.000000 -0.160723 0.000000 -0.031755
# 5 -0.003745 0.000609 -0.002059 0.000000 0.024656 0.000000
# 6 0.000000 0.000000 0.000000 -0.031755 0.000000 0.013883
#
#
# Mechanical properties :
#
#
# Convention : Reuss Voigt Hill
#
# Bulk Modulus (GPa) = 48.00745 57.33493 52.67119
# Shear Modulus (GPa) = -75.33391 36.05798 -19.63797
#
# Velocity S-wave (km/s) = -5.64141 3.90295 -2.88032
# Velocity P-wave (km/s) = 4.70668 6.67326 3.34511
#
# Compressibility (1/GPa) = 0.02083010
#
# Stress axis : x y z
#
# Youngs Moduli (GPa) = 102.68598 150.65104 54.13090
#
# Poissons Ratio (x) = 0.10793 0.20254
# Poissons Ratio (y) = 0.07357 0.13814
# Poissons Ratio (z) = 0.38421 0.38445
#
# Static dielectric constant tensor:
#      x y z
#    x 1.984750 0.000000 -0.008000 
#    y 0.000000 1.976570 0.000000 
#    z -0.008000 0.000000 1.959190 
# 
# From -- ./inp_files/153565.got.cif
#   From: 2010.05.17/outbox.cif.g08.bks.cpg/sg12_77_cif.got.tgz:153565.got - 2010.06.03 13:09:07.
