data_PCOD9186043
_publ_section_title
;
Structure prediction by ZEFSAII (Michael W. Deem and Ramdas Pophale) SiO2 
 PCOD9186043
Probable space group: C 2/M
;
_chemical_formula_sum "Si O2"
_cell_formula_units_Z 48
_cell_length_a 21.543229
_cell_length_b 11.571339
_cell_length_c 20.945782
_cell_angle_alpha 90.000000
_cell_angle_beta 31.252196
_cell_angle_gamma 90.000000
_cell_volume 2708.918909
_symmetry_space_group_name_H-M "C 2/M"
_symmetry_group_IT_number 12
_symmetry_cell_setting 'monoclinic'
loop_
_space_group_symop_operation_xyz
x,y,z
-x,y,-z
-x,-y,-z
x,-y,z
1/2+x,1/2+y,z
1/2-x,1/2+y,-z
1/2-x,1/2-y,-z
1/2+x,1/2-y,z
loop_
_atom_site_type_symbol
_atom_site_label
_atom_site_fract_x
_atom_site_fract_y
_atom_site_fract_z
Si Si1 0.352632 0.500000 0.626633
Si Si2 0.559817 0.634587 0.877679
Si Si3 0.521628 0.865706 0.389362
Si Si4 0.855083 0.632640 0.848085
Si Si5 0.629426 0.000000 0.923717
Si Si6 0.625797 0.209059 0.027309
Si Si7 0.181013 0.741230 0.357605
O O1 0.500000 0.500000 0.500000
O O2 0.252376 0.500000 0.773073
O O3 0.325006 0.376054 0.619937
O O4 0.575000 0.500000 0.848717
O O5 0.474874 0.699557 0.903094
O O6 0.686009 0.698009 0.768445
O O7 0.500000 0.642264 0.000000
O O8 0.545736 0.850894 0.293606
O O9 0.389585 0.832453 0.527586
O O10 0.608577 0.785101 0.355568
O O11 0.547580 0.000000 0.382675
O O12 0.811413 0.500000 0.881144
O O13 0.897153 0.654038 0.883110
O O14 0.749639 0.721299 0.924326
O O15 0.500000 0.000000 0.000000
O O16 0.631394 0.887906 0.967678
#
# Coordination Sequence:
#
# PCOD9186043 Si02
#       7
#     4   8   8   8   4   8   8
#     4  12  22  34  56  88 130 160 199 243 306 372
#     4  11  22  37  60  87 117 150 194 253 309 367
#     4  10  19  34  59  82 114 151 197 245 297 348
#     4  10  21  39  58  85 115 159 204 251 295 360
#     4  12  24  40  62  94 132 165 200 259 318 372
#     4  11  22  37  60  86 119 158 202 246 304 367
#     4  11  21  36  56  88 119 153 193 248 304 362
#
# _framework density 17.719245999999998
#
# number of rings (size 3 to 8) (size 9 to 14) (size 15 to 20)
#    0.000    1.167    2.500    7.000    0.000    2.667 
#    0.000    0.833    0.000    0.000    0.000    0.000 
#    0.000    0.000    0.000    0.000    0.000    0.000 
#
# Total GULP energy -133907.466418 kJ/mol
# GULP energy per Si atom -5579.477767 kJ/mol
# Density = 1.767892 g / cm^3
# Si number density = 17.719246 Si / 1000 Ang^3
#
#
#
# Elastic Constant Matrix: (Units=GPa)
#
#
# Indices 1 2 3 4 5 6 
#
# 1 68.6813 29.2739 39.0818 0.0000 6.2029 0.0000
# 2 29.2739 109.8470 24.4787 0.0000 -1.8916 0.0000
# 3 39.0818 24.4787 106.2345 0.0000 1.5764 0.0000
# 4 0.0000 0.0000 0.0000 29.2792 0.0000 -5.6473
# 5 6.2029 -1.8916 1.5764 0.0000 32.0222 0.0000
# 6 0.0000 0.0000 0.0000 -5.6473 0.0000 24.6498
#
#
#
# Elastic Compliance Matrix: (Units=1/GPa)
#
#
# Indices 1 2 3 4 5 6 
#
# 1 0.020320 -0.004036 -0.006488 0.000000 -0.003855 0.000000
# 2 -0.004036 0.010413 -0.000936 0.000000 0.001443 0.000000
# 3 -0.006488 -0.000936 0.012007 0.000000 0.000610 0.000000
# 4 0.000000 0.000000 0.000000 0.035733 0.000000 0.008186
# 5 -0.003855 0.001443 0.000610 0.000000 0.032030 0.000000
# 6 0.000000 0.000000 0.000000 0.008186 0.000000 0.042444
#
#
# Mechanical properties :
#
#
# Convention : Reuss Voigt Hill
#
# Bulk Modulus (GPa) = 50.45583 52.27018 51.36300
# Shear Modulus (GPa) = 27.40123 29.98548 28.69336
#
# Velocity S-wave (km/s) = 3.93671 4.11817 4.02846
# Velocity P-wave (km/s) = 7.01431 7.22326 7.11955
#
# Compressibility (1/GPa) = 0.01981932
#
# Stress axis : x y z
#
# Youngs Moduli (GPa) = 49.21142 96.03809 83.28668
#
# Poissons Ratio (x) = 0.38760 0.54040
# Poissons Ratio (y) = 0.19861 0.07795
# Poissons Ratio (z) = 0.31930 0.08989
#
# Static dielectric constant tensor:
#      x y z
#    x 1.592350 0.000000 0.001010 
#    y 0.000000 1.614370 0.000000 
#    z 0.001010 0.000000 1.616410 
# 
# From -- ./inp_files/321198.got.cif
#   From: 2010.05.17/outbox.cif.g08.bks.cpg/sg12_161_cif.got.tgz:321198.got - 2010.06.03 13:09:07.
