data_PCOD9186943
_publ_section_title
;
Structure prediction by ZEFSAII (Michael W. Deem and Ramdas Pophale) SiO2 
 PCOD9186943
Probable space group: C 2/M
;
_chemical_formula_sum "Si O2"
_cell_formula_units_Z 56
_cell_length_a 29.757746
_cell_length_b 9.048925
_cell_length_c 22.049071
_cell_angle_alpha 90.000000
_cell_angle_beta 30.609131
_cell_angle_gamma 90.000000
_cell_volume 3023.134327
_symmetry_space_group_name_H-M "C 2/M"
_symmetry_group_IT_number 12
_symmetry_cell_setting 'monoclinic'
loop_
_space_group_symop_operation_xyz
x,y,z
-x,y,-z
-x,-y,-z
x,-y,z
1/2+x,1/2+y,z
1/2-x,1/2+y,-z
1/2-x,1/2-y,-z
1/2+x,1/2-y,z
loop_
_atom_site_type_symbol
_atom_site_label
_atom_site_fract_x
_atom_site_fract_y
_atom_site_fract_z
Si Si1 0.777427 0.675849 0.873057
Si Si2 0.876171 0.175686 0.289241
Si Si3 0.953510 0.172891 0.988628
Si Si4 0.076941 0.675445 0.645504
Si Si5 0.281368 0.176209 0.620168
Si Si6 0.234450 0.324522 0.799030
Si Si7 0.388644 0.324198 0.849219
O O1 0.790762 0.500000 0.853983
O O2 0.778701 0.749361 0.805998
O O3 0.847166 0.747811 0.838078
O O4 0.681213 0.702420 0.015344
O O5 0.869334 0.266004 0.358873
O O6 0.802453 0.213451 0.325086
O O7 0.972079 0.202278 0.148026
O O8 0.868426 0.000000 0.310569
O O9 0.926400 0.000000 0.015065
O O10 0.867740 0.272699 0.082790
O O11 0.000000 0.190834 0.000000
O O12 0.064529 0.500000 0.664933
O O13 0.132325 0.705333 0.520299
O O14 0.983487 0.756887 0.753069
O O15 0.276097 0.264417 0.688456
O O16 0.276056 0.000000 0.638983
O O17 0.240454 0.500000 0.795867
O O18 0.394729 0.500000 0.833568
#
# Coordination Sequence:
#
# PCOD9186943 Si02
#       7
#     8   8   8   8   8   8   8
#     4  10  21  39  64  89 116 151 187 228 285 347
#     4  10  20  36  59  82 110 153 198 239 285 336
#     4  10  19  35  57  79 111 154 192 229 279 340
#     4  11  23  37  58  85 115 151 193 240 286 338
#     4  10  22  41  58  77 112 159 201 235 280 342
#     4  12  24  36  56  87 120 151 189 240 291 337
#     4  10  21  39  63  90 118 147 185 234 286 338
#
# _framework density 18.523821999999999
#
# number of rings (size 3 to 8) (size 9 to 14) (size 15 to 20)
#    0.000    1.571    1.429    3.857    0.000    7.714 
#    0.000    0.714    0.000    4.286    0.000    0.000 
#    0.000    0.000    0.000    0.000    0.000    0.000 
#
# Total GULP energy -156551.820406 kJ/mol
# GULP energy per Si atom -5591.136443 kJ/mol
# Density = 1.848166 g / cm^3
# Si number density = 18.523822 Si / 1000 Ang^3
#
#
#
# Elastic Constant Matrix: (Units=GPa)
#
#
# Indices 1 2 3 4 5 6 
#
# 1 104.4450 61.3131 43.9668 0.0010 26.3537 -0.0007
# 2 61.3131 82.3786 46.1146 0.0006 20.3810 -0.0006
# 3 43.9668 46.1146 51.6821 0.0021 12.5284 -0.0013
# 4 0.0010 0.0006 0.0021 19.9151 0.0001 6.4426
# 5 26.3537 20.3810 12.5284 0.0001 23.5641 0.0004
# 6 -0.0007 -0.0006 -0.0013 6.4426 0.0004 31.9161
#
#
#
# Elastic Compliance Matrix: (Units=1/GPa)
#
#
# Indices 1 2 3 4 5 6 
#
# 1 0.020434 -0.008286 -0.007103 0.000000 -0.011910 0.000000
# 2 -0.008286 0.030309 -0.018238 0.000002 -0.007252 -0.000001
# 3 -0.007103 -0.018238 0.041229 -0.000004 0.001797 0.000002
# 4 0.000000 0.000002 -0.000004 0.053721 0.000001 -0.010844
# 5 -0.011910 -0.007252 0.001797 0.000001 0.061074 -0.000001
# 6 0.000000 -0.000001 0.000002 -0.010844 -0.000001 0.033521
#
#
# Mechanical properties :
#
#
# Convention : Reuss Voigt Hill
#
# Bulk Modulus (GPa) = 40.45406 60.14385 50.29895
# Shear Modulus (GPa) = 15.83379 20.88646 18.36012
#
# Velocity S-wave (km/s) = 2.92683 3.36154 3.15169
# Velocity P-wave (km/s) = 5.77132 6.89967 6.36057
#
# Compressibility (1/GPa) = 0.02471940
#
# Stress axis : x y z
#
# Youngs Moduli (GPa) = 48.93922 32.99311 24.25485
#
# Poissons Ratio (x) = 0.27337 0.17228
# Poissons Ratio (y) = 0.40549 0.44235
# Poissons Ratio (z) = 0.34761 0.60171
#
# Static dielectric constant tensor:
#      x y z
#    x 1.622920 0.000000 0.003560 
#    y 0.000000 1.611740 0.000000 
#    z 0.003560 0.000000 1.631440 
# 
# From -- ./inp_files/238943.got.cif
#   From: 2010.05.17/outbox.cif.g08.bks.cpg/sg12_120_cif.got.tgz:238943.got - 2010.06.03 13:09:07.
