data_PCOD9186598
_publ_section_title
;
Structure prediction by ZEFSAII (Michael W. Deem and Ramdas Pophale) SiO2 
 PCOD9186598
Probable space group: C 2/M
;
_chemical_formula_sum "Si O2"
_cell_formula_units_Z 56
_cell_length_a 13.969782
_cell_length_b 30.310320
_cell_length_c 9.633489
_cell_angle_alpha 90.000000
_cell_angle_beta 45.357591
_cell_angle_gamma 90.000000
_cell_volume 2902.300687
_symmetry_space_group_name_H-M "C 2/M"
_symmetry_group_IT_number 12
_symmetry_cell_setting 'monoclinic'
loop_
_space_group_symop_operation_xyz
x,y,z
-x,y,-z
-x,-y,-z
x,-y,z
1/2+x,1/2+y,z
1/2-x,1/2+y,-z
1/2-x,1/2-y,-z
1/2+x,1/2-y,z
loop_
_atom_site_type_symbol
_atom_site_label
_atom_site_fract_x
_atom_site_fract_y
_atom_site_fract_z
Si Si1 0.272261 0.750421 0.280502
Si Si2 0.292850 0.108824 0.391893
Si Si3 0.061709 0.677916 0.575845
Si Si4 0.985848 0.552342 0.352865
Si Si5 0.067942 0.170396 0.569915
Si Si6 0.943549 0.245752 0.846717
Si Si7 0.355423 0.050609 0.072901
O O1 0.195011 0.705788 0.400621
O O2 0.176083 0.791469 0.415194
O O3 0.413160 0.752088 0.219045
O O4 0.319901 0.751535 0.074253
O O5 0.401799 0.146220 0.331950
O O6 0.344192 0.069965 0.438313
O O7 0.150648 0.132212 0.560743
O O8 0.291011 0.088328 0.237788
O O9 0.953735 0.715290 0.725719
O O10 0.000000 0.656150 0.500000
O O11 0.985894 0.500000 0.339709
O O12 0.000000 0.562852 0.500000
O O13 0.105682 0.566044 0.123116
O O14 0.957768 0.197143 0.769325
O O15 0.000000 0.153159 0.500000
O O16 0.296884 0.000000 0.132372
O O17 0.500000 0.046181 0.000000
#
# Coordination Sequence:
#
# PCOD9186598 Si02
#       7
#     8   8   8   8   8   8   8
#     4  10  19  35  55  71  97 147 188 235 277 324
#     4  11  19  33  50  76 112 140 172 221 268 315
#     4  11  21  33  51  77 108 140 181 231 277 327
#     4   9  18  34  57  85 113 141 171 212 272 329
#     4  11  22  36  52  73 105 145 187 231 272 321
#     4  10  19  35  55  71 100 140 192 233 279 325
#     4   8  16  31  54  80 107 139 171 207 260 322
#
# _framework density 19.295038000000002
#
# number of rings (size 3 to 8) (size 9 to 14) (size 15 to 20)
#    0.000    2.000    2.857    4.286    0.000    5.714 
#    0.000    1.429    0.000    1.714    0.000    0.000 
#    0.000   12.571    0.000    0.000    0.000    0.000 
#
# Total GULP energy -155892.098179 kJ/mol
# GULP energy per Si atom -5567.574935 kJ/mol
# Density = 1.925112 g / cm^3
# Si number density = 19.295038 Si / 1000 Ang^3
#
#
#
# Elastic Constant Matrix: (Units=GPa)
#
#
# Indices 1 2 3 4 5 6 
#
# 1 65.2742 11.5084 12.8084 0.0000 17.7227 0.0000
# 2 11.5084 73.5993 32.8534 0.0000 5.2267 0.0000
# 3 12.8084 32.8534 101.9133 0.0000 19.3772 0.0000
# 4 0.0000 0.0000 0.0000 16.5619 0.0000 -1.7815
# 5 17.7227 5.2267 19.3772 0.0000 31.8853 0.0000
# 6 0.0000 0.0000 0.0000 -1.7815 0.0000 6.0182
#
#
#
# Elastic Compliance Matrix: (Units=1/GPa)
#
#
# Indices 1 2 3 4 5 6 
#
# 1 0.018390 -0.002316 0.000347 0.000000 -0.010053 0.000000
# 2 -0.002316 0.016172 -0.005272 0.000000 0.001841 0.000000
# 3 0.000347 -0.005272 0.012822 0.000000 -0.007121 0.000000
# 4 0.000000 0.000000 0.000000 0.062366 0.000000 0.018462
# 5 -0.010053 0.001841 -0.007121 0.000000 0.040976 0.000000
# 6 0.000000 0.000000 0.000000 0.018462 0.000000 0.171627
#
#
# Mechanical properties :
#
#
# Convention : Reuss Voigt Hill
#
# Bulk Modulus (GPa) = 30.39478 39.45858 34.92668
# Shear Modulus (GPa) = 14.37600 23.13420 18.75510
#
# Velocity S-wave (km/s) = 2.73254 3.46637 3.12110
# Velocity P-wave (km/s) = 5.07371 6.04281 5.57934
#
# Compressibility (1/GPa) = 0.03290038
#
# Stress axis : x y z
#
# Youngs Moduli (GPa) = 54.37828 61.83544 77.99032
#
# Poissons Ratio (x) = 0.14324 -0.02705
# Poissons Ratio (y) = 0.12597 0.41117
# Poissons Ratio (z) = -0.01886 0.32600
#
# Static dielectric constant tensor:
#      x y z
#    x 1.737780 0.000000 0.063590 
#    y 0.000000 1.717960 0.000000 
#    z 0.063590 0.000000 1.733130 
# 
# From -- ./inp_files/68152.got.cif
#   From: 2010.05.17/outbox.cif.g08.bks.cpg/sg12_35_cif.got.tgz:68152.got - 2010.06.03 13:09:07.
