data_PCOD9186392
_publ_section_title
;
Structure prediction by ZEFSAII (Michael W. Deem and Ramdas Pophale) SiO2 
 PCOD9186392
Probable space group: C 2/M
;
_chemical_formula_sum "Si O2"
_cell_formula_units_Z 28
_cell_length_a 8.002860
_cell_length_b 22.233518
_cell_length_c 8.527882
_cell_angle_alpha 90.000000
_cell_angle_beta 90.796780
_cell_angle_gamma 90.000000
_cell_volume 1517.234093
_symmetry_space_group_name_H-M "C 2/M"
_symmetry_group_IT_number 12
_symmetry_cell_setting 'monoclinic'
loop_
_space_group_symop_operation_xyz
x,y,z
-x,y,-z
-x,-y,-z
x,-y,z
1/2+x,1/2+y,z
1/2-x,1/2+y,-z
1/2-x,1/2-y,-z
1/2+x,1/2-y,z
loop_
_atom_site_type_symbol
_atom_site_label
_atom_site_fract_x
_atom_site_fract_y
_atom_site_fract_z
Si Si1 0.663458 0.242708 0.169948
Si Si2 0.675438 0.430073 0.909673
Si Si3 0.500000 0.858635 0.000000
Si Si4 0.567991 0.331908 0.674425
O O1 0.531517 0.188033 0.143128
O O2 0.577306 0.304220 0.217658
O O3 0.789248 0.218640 0.302657
O O4 0.750000 0.250000 0.000000
O O5 0.713508 0.500000 0.882339
O O6 0.832560 0.398787 0.999594
O O7 0.641687 0.392076 0.751748
O O8 0.500000 0.426607 0.000000
O O9 0.500000 0.339183 0.500000
#
# Coordination Sequence:
#
# PCOD9186392 Si02
#       4
#     8   8   4   8
#     4  11  19  35  57  84 113 150 187 233 288 349
#     4  10  22  38  59  82 109 154 204 241 278 338
#     4  10  19  34  62  84 111 142 192 246 280 332
#     4  11  22  34  54  86 117 147 183 237 301 347
#
# _framework density 18.454633999999999
#
# number of rings (size 3 to 8) (size 9 to 14) (size 15 to 20)
#    0.000    1.429    2.857    4.714    0.000    0.571 
#    0.000    0.000    0.000    0.000    0.000   12.000 
#    0.000    0.000    0.000    0.000    0.000    0.000 
#
# Total GULP energy -78038.612002 kJ/mol
# GULP energy per Si atom -5574.186572 kJ/mol
# Density = 1.841263 g / cm^3
# Si number density = 18.454634 Si / 1000 Ang^3
#
#
#
# Elastic Constant Matrix: (Units=GPa)
#
#
# Indices 1 2 3 4 5 6 
#
# 1 110.9988 51.3988 47.3478 0.0000 24.8899 0.0000
# 2 51.3988 134.5625 39.4803 0.0000 7.9526 0.0000
# 3 47.3478 39.4803 84.7313 0.0000 24.4622 0.0000
# 4 0.0000 0.0000 0.0000 13.9258 0.0000 1.7466
# 5 24.8899 7.9526 24.4622 0.0000 30.7592 0.0000
# 6 0.0000 0.0000 0.0000 1.7466 0.0000 41.1195
#
#
#
# Elastic Compliance Matrix: (Units=1/GPa)
#
#
# Indices 1 2 3 4 5 6 
#
# 1 0.014097 -0.003774 -0.004033 0.000000 -0.007224 0.000000
# 2 -0.003774 0.009656 -0.003311 0.000000 0.003191 0.000000
# 3 -0.004033 -0.003311 0.018704 0.000000 -0.010755 0.000000
# 4 0.000000 0.000000 0.000000 0.072194 0.000000 -0.003066
# 5 -0.007224 0.003191 -0.010755 0.000000 0.046084 0.000000
# 6 0.000000 0.000000 0.000000 -0.003066 0.000000 0.024450
#
#
# Mechanical properties :
#
#
# Convention : Reuss Voigt Hill
#
# Bulk Modulus (GPa) = 49.45884 67.41628 58.43756
# Shear Modulus (GPa) = 23.34679 29.96527 26.65603
#
# Velocity S-wave (km/s) = 3.56067 4.03392 3.80466
# Velocity P-wave (km/s) = 6.61535 7.63589 7.14387
#
# Compressibility (1/GPa) = 0.02021883
#
# Stress axis : x y z
#
# Youngs Moduli (GPa) = 70.93632 103.56073 53.46523
#
# Poissons Ratio (x) = 0.39088 0.21564
# Poissons Ratio (y) = 0.26774 0.17705
# Poissons Ratio (z) = 0.28611 0.34293
#
# Static dielectric constant tensor:
#      x y z
#    x 1.743960 0.000000 -0.007720 
#    y 0.000000 1.640040 0.000000 
#    z -0.007720 0.000000 1.610640 
# 
# From -- ./inp_files/37247.got.cif
#   From: 2010.05.17/outbox.cif.g08.bks.cpg/sg12_19_cif.got.tgz:37247.got - 2010.06.03 13:09:07.
