data_PCOD9186471
_publ_section_title
;
Structure prediction by ZEFSAII (Michael W. Deem and Ramdas Pophale) SiO2 
 PCOD9186471
Probable space group: C 2/M
;
_chemical_formula_sum "Si O2"
_cell_formula_units_Z 64
_cell_length_a 26.817174
_cell_length_b 20.123679
_cell_length_c 9.406544
_cell_angle_alpha 90.000000
_cell_angle_beta 135.331978
_cell_angle_gamma 90.000000
_cell_volume 3568.654455
_symmetry_space_group_name_H-M "C 2/M"
_symmetry_group_IT_number 12
_symmetry_cell_setting 'monoclinic'
loop_
_space_group_symop_operation_xyz
x,y,z
-x,y,-z
-x,-y,-z
x,-y,z
1/2+x,1/2+y,z
1/2-x,1/2+y,-z
1/2-x,1/2-y,-z
1/2+x,1/2-y,z
loop_
_atom_site_type_symbol
_atom_site_label
_atom_site_fract_x
_atom_site_fract_y
_atom_site_fract_z
Si Si1 0.021270 0.301246 0.695271
Si Si2 0.236715 0.925221 0.050198
Si Si3 0.741197 0.638950 0.348272
Si Si4 0.615133 0.254522 0.123092
Si Si5 0.702437 0.301946 0.812188
Si Si6 0.614397 0.219056 0.433500
Si Si7 0.707027 0.128566 0.249160
Si Si8 0.122414 0.573305 0.838326
O O1 0.069263 0.365228 0.750425
O O2 0.000000 0.271613 0.500000
O O3 0.951833 0.323108 0.643814
O O4 0.060617 0.249645 0.881105
O O5 0.230795 0.914827 0.205520
O O6 0.318369 0.914013 0.163404
O O7 0.217908 0.000000 0.968683
O O8 0.191674 0.866697 0.886611
O O9 0.676635 0.691457 0.222956
O O10 0.812828 0.679174 0.449674
O O11 0.751585 0.608952 0.525922
O O12 0.592692 0.257160 0.243620
O O13 0.648432 0.180902 0.181167
O O14 0.635066 0.266898 0.606558
O O15 0.745455 0.329042 0.763356
O O16 0.750000 0.250000 0.000000
O O17 0.668981 0.073884 0.077439
O O18 0.090700 0.500000 0.752376
#
# Coordination Sequence:
#
# PCOD9186471 Si02
#       8
#     8   8   8   8   8   8   8   8
#     4  11  24  33  51  80 112 149 194 238 280 336
#     4  10  21  33  53  83 118 146 184 238 285 336
#     4  11  18  33  57  79 107 143 187 237 298 340
#     4  10  19  35  51  78 110 139 180 242 298 333
#     4  11  18  31  57  83 108 143 188 238 292 345
#     4  11  20  33  54  82 108 146 187 240 284 335
#     4   9  17  30  53  80 101 137 189 235 279 330
#     4   9  20  38  52  71 113 163 198 226 268 332
#
# _framework density 17.933931000000001
#
# number of rings (size 3 to 8) (size 9 to 14) (size 15 to 20)
#    0.000    1.750    3.750    1.875    5.250    0.750 
#    0.000    0.625    0.000    9.750    0.000    1.750 
#    0.000    2.000    0.000    0.000    0.000    0.000 
#
# Total GULP energy -178204.849382 kJ/mol
# GULP energy per Si atom -5568.901543 kJ/mol
# Density = 1.789311 g / cm^3
# Si number density = 17.933931 Si / 1000 Ang^3
#
#
#
# Elastic Constant Matrix: (Units=GPa)
#
#
# Indices 1 2 3 4 5 6 
#
# 1 70.4347 9.8035 23.0873 0.0000 -16.7084 0.0000
# 2 9.8035 52.0341 14.6360 0.0000 -8.3178 0.0000
# 3 23.0873 14.6360 98.7482 0.0000 -30.3291 0.0000
# 4 0.0000 0.0000 0.0000 11.5720 0.0000 0.7730
# 5 -16.7084 -8.3178 -30.3291 0.0000 31.1564 0.0000
# 6 0.0000 0.0000 0.0000 0.7730 0.0000 13.8458
#
#
#
# Elastic Compliance Matrix: (Units=1/GPa)
#
#
# Indices 1 2 3 4 5 6 
#
# 1 0.016569 -0.001582 -0.001484 0.000000 0.007019 0.000000
# 2 -0.001582 0.020478 -0.001778 0.000000 0.002887 0.000000
# 3 -0.001484 -0.001778 0.014760 0.000000 0.013098 0.000000
# 4 0.000000 0.000000 0.000000 0.086739 0.000000 -0.004842
# 5 0.007019 0.002887 0.013098 0.000000 0.049381 0.000000
# 6 0.000000 0.000000 0.000000 -0.004842 0.000000 0.072494
#
#
# Mechanical properties :
#
#
# Convention : Reuss Voigt Hill
#
# Bulk Modulus (GPa) = 23.74262 35.14119 29.44190
# Shear Modulus (GPa) = 17.59636 22.89419 20.24527
#
# Velocity S-wave (km/s) = 3.13577 3.57681 3.36353
# Velocity P-wave (km/s) = 5.13599 6.05768 5.61578
#
# Compressibility (1/GPa) = 0.04211835
#
# Stress axis : x y z
#
# Youngs Moduli (GPa) = 60.35331 48.83273 67.75073
#
# Poissons Ratio (x) = 0.07727 0.10051
# Poissons Ratio (y) = 0.09550 0.12049
# Poissons Ratio (z) = 0.08954 0.08685
#
# Static dielectric constant tensor:
#      x y z
#    x 1.658160 0.000000 -0.007970 
#    y 0.000000 1.604350 0.000000 
#    z -0.007970 0.000000 1.700700 
# 
# From -- ./inp_files/99127.got.cif
#   From: 2010.05.17/outbox.cif.g08.bks.cpg/sg12_50_cif.got.tgz:99127.got - 2010.06.03 13:09:07.
