data_PCOD9186509
_publ_section_title
;
Structure prediction by ZEFSAII (Michael W. Deem and Ramdas Pophale) SiO2 
 PCOD9186509
Probable space group: C 2/M
;
_chemical_formula_sum "Si O2"
_cell_formula_units_Z 44
_cell_length_a 26.194940
_cell_length_b 17.615302
_cell_length_c 5.076398
_cell_angle_alpha 90.000000
_cell_angle_beta 103.526923
_cell_angle_gamma 90.000000
_cell_volume 2277.433146
_symmetry_space_group_name_H-M "C 2/M"
_symmetry_group_IT_number 12
_symmetry_cell_setting 'monoclinic'
loop_
_space_group_symop_operation_xyz
x,y,z
-x,y,-z
-x,-y,-z
x,-y,z
1/2+x,1/2+y,z
1/2-x,1/2+y,-z
1/2-x,1/2-y,-z
1/2+x,1/2-y,z
loop_
_atom_site_type_symbol
_atom_site_label
_atom_site_fract_x
_atom_site_fract_y
_atom_site_fract_z
Si Si1 0.706946 0.914304 0.179950
Si Si2 0.099732 0.250816 0.486370
Si Si3 0.961286 0.000000 0.199369
Si Si4 0.942952 0.168289 0.070598
Si Si5 0.635135 0.911330 0.605003
Si Si6 0.779148 0.215353 0.283962
O O1 0.678647 0.909831 0.427367
O O2 0.761619 0.871453 0.253843
O O3 0.717134 0.000000 0.117914
O O4 0.664233 0.888415 0.911374
O O5 0.062599 0.214860 0.665263
O O6 0.095644 0.342820 0.484202
O O7 0.159654 0.231245 0.636755
O O8 0.091285 0.210807 0.193699
O O9 0.930774 0.080244 0.133925
O O10 0.000000 0.000000 0.500000
O O11 0.000000 0.000000 0.000000
O O12 0.000000 0.168392 0.000000
O O13 0.616276 0.000000 0.600510
O O14 0.750000 0.250000 0.500000
O O15 0.750000 0.250000 0.000000
#
# Coordination Sequence:
#
# PCOD9186509 Si02
#       6
#     8   8   4   8   8   8
#     4  10  19  35  53  79 117 163 199 235 281 346
#     4  12  22  37  64  89 119 157 202 245 308 355
#     4  10  20  42  68  88 118 156 198 244 306 368
#     4  11  24  42  64  89 116 153 200 253 298 360
#     4  10  20  35  59  84 116 158 206 238 281 359
#     4  12  21  36  57  84 123 158 191 244 294 351
#
# _framework density 19.319997999999998
#
# number of rings (size 3 to 8) (size 9 to 14) (size 15 to 20)
#    0.000    1.091    3.636    4.909    0.000    0.000 
#    3.273    0.000    0.000    3.273    0.000    0.000 
#    0.000    0.000    0.000    0.000    0.000    0.000 
#
# Total GULP energy -122646.630361 kJ/mol
# GULP energy per Si atom -5574.846835 kJ/mol
# Density = 1.927602 g / cm^3
# Si number density = 19.319998 Si / 1000 Ang^3
#
#
#
# Elastic Constant Matrix: (Units=GPa)
#
#
# Indices 1 2 3 4 5 6 
#
# 1 45.9394 19.5731 9.7299 0.0000 -3.9745 0.0000
# 2 19.5731 144.1639 5.7705 0.0000 7.0555 0.0000
# 3 9.7299 5.7705 99.0317 0.0000 -10.4367 0.0000
# 4 0.0000 0.0000 0.0000 30.1616 0.0000 2.2920
# 5 -3.9745 7.0555 -10.4367 0.0000 29.4835 0.0000
# 6 0.0000 0.0000 0.0000 2.2920 0.0000 24.9095
#
#
#
# Elastic Compliance Matrix: (Units=1/GPa)
#
#
# Indices 1 2 3 4 5 6 
#
# 1 0.023860 -0.003333 -0.001794 0.000000 0.003379 0.000000
# 2 -0.003333 0.007520 -0.000361 0.000000 -0.002377 0.000000
# 3 -0.001794 -0.000361 0.010677 0.000000 0.003624 0.000000
# 4 0.000000 0.000000 0.000000 0.033388 0.000000 -0.003072
# 5 0.003379 -0.002377 0.003624 0.000000 0.036224 0.000000
# 6 0.000000 0.000000 0.000000 -0.003072 0.000000 0.040428
#
#
# Mechanical properties :
#
#
# Convention : Reuss Voigt Hill
#
# Bulk Modulus (GPa) = 32.17429 39.92020 36.04725
# Shear Modulus (GPa) = 28.82939 33.84837 31.33888
#
# Velocity S-wave (km/s) = 3.86710 4.19021 4.03189
# Velocity P-wave (km/s) = 6.05217 6.64214 6.35401
#
# Compressibility (1/GPa) = 0.03108071
#
# Stress axis : x y z
#
# Youngs Moduli (GPa) = 41.91083 132.98143 93.65915
#
# Poissons Ratio (x) = 0.44323 0.16802
# Poissons Ratio (y) = 0.13969 0.03383
# Poissons Ratio (z) = 0.07519 0.04803
#
# Static dielectric constant tensor:
#      x y z
#    x 1.652420 0.000000 0.015710 
#    y 0.000000 1.778350 0.000000 
#    z 0.015710 0.000000 1.704300 
# 
# From -- ./inp_files/24871.got.cif
#   From: 2010.05.17/outbox.cif.g08.bks.cpg/sg12_13_cif.got.tgz:24871.got - 2010.06.03 13:09:07.
