data_PCOD9186230
_publ_section_title
;
Structure prediction by ZEFSAII (Michael W. Deem and Ramdas Pophale) SiO2 
 PCOD9186230
Probable space group: C 2/M
;
_chemical_formula_sum "Si O2"
_cell_formula_units_Z 48
_cell_length_a 12.090773
_cell_length_b 15.534599
_cell_length_c 14.392464
_cell_angle_alpha 90.000000
_cell_angle_beta 45.879921
_cell_angle_gamma 90.000000
_cell_volume 1940.629180
_symmetry_space_group_name_H-M "C 2/M"
_symmetry_group_IT_number 12
_symmetry_cell_setting 'monoclinic'
loop_
_space_group_symop_operation_xyz
x,y,z
-x,y,-z
-x,-y,-z
x,-y,z
1/2+x,1/2+y,z
1/2-x,1/2+y,-z
1/2-x,1/2-y,-z
1/2+x,1/2-y,z
loop_
_atom_site_type_symbol
_atom_site_label
_atom_site_fract_x
_atom_site_fract_y
_atom_site_fract_z
Si Si1 0.749323 0.854736 0.498228
Si Si2 0.286567 0.657702 0.681138
Si Si3 0.561947 0.232601 0.123909
Si Si4 0.094934 0.329035 0.312831
Si Si5 0.399921 0.403187 0.218262
Si Si6 0.178108 0.591891 0.927952
O O1 0.750000 0.750000 0.500000
O O2 0.803808 0.883238 0.569078
O O3 0.570000 0.875745 0.581963
O O4 0.853182 0.887303 0.353530
O O5 0.390612 0.741495 0.635895
O O6 0.286670 0.601276 0.774298
O O7 0.111701 0.694043 0.783779
O O8 0.603455 0.205360 0.203387
O O9 0.527610 0.331767 0.120710
O O10 0.827971 0.321270 0.008309
O O11 0.242490 0.384640 0.254155
O O12 0.449859 0.500000 0.173644
O O13 0.210992 0.500000 0.956361
O O14 0.000000 0.586037 0.000000
#
# Coordination Sequence:
#
# PCOD9186230 Si02
#       6
#     8   8   8   8   8   8
#     4  11  19  35  59  86 119 168 204 249 304 374
#     4   9  19  33  57  86 115 153 206 250 306 361
#     4   9  19  37  59  83 122 167 199 256 316 368
#     4  10  19  34  60  84 117 165 209 242 311 370
#     4  11  23  37  59  96 129 160 210 260 304 370
#     4   9  18  35  59  86 115 151 207 264 307 364
#
# _framework density 24.734247
#
# number of rings (size 3 to 8) (size 9 to 14) (size 15 to 20)
#    0.000    2.167    5.000    0.500    0.000    3.333 
#    0.000    5.833    0.000   14.500    0.000    0.000 
#    0.000    0.000    0.000    0.000    0.000    0.000 
#
# Total GULP energy -134243.324393 kJ/mol
# GULP energy per Si atom -5593.471850 kJ/mol
# Density = 2.467795 g / cm^3
# Si number density = 24.734247 Si / 1000 Ang^3
#
#
#
# Elastic Constant Matrix: (Units=GPa)
#
#
# Indices 1 2 3 4 5 6 
#
# 1 125.7722 39.2900 47.6305 0.0000 1.5687 0.0000
# 2 39.2900 162.7793 36.9259 0.0000 11.9019 0.0000
# 3 47.6305 36.9259 62.9833 -0.0001 0.1916 0.0001
# 4 0.0000 0.0000 -0.0001 12.5092 0.0000 10.8750
# 5 1.5687 11.9019 0.1916 0.0000 36.7123 0.0000
# 6 0.0000 0.0000 0.0001 10.8750 0.0000 3.6900
#
#
#
# Elastic Compliance Matrix: (Units=1/GPa)
#
#
# Indices 1 2 3 4 5 6 
#
# 1 0.011257 -0.000894 -0.007989 0.000000 -0.000149 0.000000
# 2 -0.000894 0.007352 -0.003627 0.000000 -0.002326 0.000000
# 3 -0.007989 -0.003627 0.024041 0.000000 0.001392 0.000000
# 4 0.000000 0.000000 0.000000 -0.051176 0.000000 0.150821
# 5 -0.000149 -0.002326 0.001392 0.000000 0.027992 0.000000
# 6 0.000000 0.000000 0.000000 0.150821 0.000000 -0.173486
#
#
# Mechanical properties :
#
#
# Convention : Reuss Voigt Hill
#
# Bulk Modulus (GPa) = 56.71985 66.58086 61.65036
# Shear Modulus (GPa) = -40.60970 25.76154 -7.42408
#
# Velocity S-wave (km/s) = -4.05636 3.23078 -1.73437
# Velocity P-wave (km/s) = 1.02115 6.39486 4.57913
#
# Compressibility (1/GPa) = 0.01763051
#
# Stress axis : x y z
#
# Youngs Moduli (GPa) = 88.83054 136.01778 41.59587
#
# Poissons Ratio (x) = 0.12161 0.33230
# Poissons Ratio (y) = 0.07942 0.15087
# Poissons Ratio (z) = 0.70964 0.49335
#
# Static dielectric constant tensor:
#      x y z
#    x 2.012200 0.000000 -0.013340 
#    y 0.000000 1.977690 0.000000 
#    z -0.013340 0.000000 1.971970 
# 
# From -- ./inp_files/204518.got.cif
#   From: 2010.05.17/outbox.cif.g08.bks.cpg/sg12_103_cif.got.tgz:204518.got - 2010.06.03 13:09:07.
