data_PCOD9186066
_publ_section_title
;
Structure prediction by ZEFSAII (Michael W. Deem and Ramdas Pophale) SiO2 
 PCOD9186066
Probable space group: C 2/M
;
_chemical_formula_sum "Si O2"
_cell_formula_units_Z 40
_cell_length_a 22.637289
_cell_length_b 13.468341
_cell_length_c 8.891857
_cell_angle_alpha 90.000000
_cell_angle_beta 50.684073
_cell_angle_gamma 90.000000
_cell_volume 2097.410516
_symmetry_space_group_name_H-M "C 2/M"
_symmetry_group_IT_number 12
_symmetry_cell_setting 'monoclinic'
loop_
_space_group_symop_operation_xyz
x,y,z
-x,y,-z
-x,-y,-z
x,-y,z
1/2+x,1/2+y,z
1/2-x,1/2+y,-z
1/2-x,1/2-y,-z
1/2+x,1/2-y,z
loop_
_atom_site_type_symbol
_atom_site_label
_atom_site_fract_x
_atom_site_fract_y
_atom_site_fract_z
Si Si1 0.041139 0.000000 0.634960
Si Si2 0.371942 0.000000 0.177550
Si Si3 0.639304 0.500000 0.079268
Si Si4 0.757702 0.836806 0.605592
Si Si5 0.631275 0.329271 0.311245
Si Si6 0.356072 0.500000 0.280598
Si Si7 0.483728 0.000000 0.277476
Si Si8 0.500000 0.830218 0.500000
O O1 0.078548 0.095472 0.494985
O O2 0.060602 0.000000 0.779878
O O3 0.951997 0.000000 0.758043
O O4 0.318056 0.097032 0.245745
O O5 0.412488 0.000000 0.276397
O O6 0.439697 0.000000 0.946907
O O7 0.663365 0.399185 0.125686
O O8 0.655448 0.500000 0.877400
O O9 0.750000 0.750000 0.500000
O O10 0.798365 0.801866 0.693608
O O11 0.815008 0.908591 0.425119
O O12 0.574803 0.239913 0.356692
O O13 0.484783 0.902905 0.382813
#
# Coordination Sequence:
#
# PCOD9186066 Si02
#       8
#     4   4   4   8   8   4   4   4
#     4   9  16  33  52  81 114 150 167 218 289 335
#     4  10  21  45  59  81 112 148 202 235 277 338
#     4  11  17  32  53  90 115 139 173 227 290 331
#     4  10  21  40  60  78 111 156 190 231 286 339
#     4  10  19  34  59  84 117 148 181 233 288 344
#     4   9  21  32  53  82 114 142 187 223 269 342
#     4  10  24  38  63  80 110 157 193 242 271 325
#     4  11  20  39  56  90 116 145 194 231 288 336
#
# _framework density 19.071135000000002
#
# number of rings (size 3 to 8) (size 9 to 14) (size 15 to 20)
#    0.000    2.000    2.000    3.900    0.000    1.600 
#    0.000   16.000    0.000    0.000    0.000    0.000 
#    0.000    0.000    0.000    0.000    0.000    0.000 
#
# Total GULP energy -111487.965970 kJ/mol
# GULP energy per Si atom -5574.398298 kJ/mol
# Density = 1.902773 g / cm^3
# Si number density = 19.071135 Si / 1000 Ang^3
#
#
#
# Elastic Constant Matrix: (Units=GPa)
#
#
# Indices 1 2 3 4 5 6 
#
# 1 136.4552 38.7367 19.4667 0.0000 20.0849 0.0000
# 2 38.7367 94.4286 -3.0470 0.0000 11.6083 0.0000
# 3 19.4667 -3.0470 50.2879 0.0000 22.5227 0.0000
# 4 0.0000 0.0000 0.0000 22.4260 0.0000 -9.1313
# 5 20.0849 11.6083 22.5227 0.0000 36.6020 0.0000
# 6 0.0000 0.0000 0.0000 -9.1313 0.0000 36.6809
#
#
#
# Elastic Compliance Matrix: (Units=1/GPa)
#
#
# Indices 1 2 3 4 5 6 
#
# 1 0.009040 -0.003533 -0.002752 0.000000 -0.002146 0.000000
# 2 -0.003533 0.012758 0.004258 0.000000 -0.004728 0.000000
# 3 -0.002752 0.004258 0.029179 0.000000 -0.017795 0.000000
# 4 0.000000 0.000000 0.000000 0.049621 0.000000 0.012352
# 5 -0.002146 -0.004728 -0.017795 0.000000 0.040948 0.000000
# 6 0.000000 0.000000 0.000000 0.012352 0.000000 0.030337
#
#
# Mechanical properties :
#
#
# Convention : Reuss Voigt Hill
#
# Bulk Modulus (GPa) = 21.31187 43.49829 32.40508
# Shear Modulus (GPa) = 26.09896 34.20948 30.15422
#
# Velocity S-wave (km/s) = 3.70335 4.23990 3.98067
# Velocity P-wave (km/s) = 5.43006 6.84302 6.17708
#
# Compressibility (1/GPa) = 0.04692221
#
# Stress axis : x y z
#
# Youngs Moduli (GPa) = 110.61931 78.38198 34.27132
#
# Poissons Ratio (x) = 0.27695 0.09432
# Poissons Ratio (y) = 0.39086 -0.14593
# Poissons Ratio (z) = 0.30444 -0.33376
#
# Static dielectric constant tensor:
#      x y z
#    x 1.736520 0.000000 0.014790 
#    y 0.000000 1.639970 0.000000 
#    z 0.014790 0.000000 1.640710 
# 
# From -- ./inp_files/84997.got.cif
#   From: 2010.05.17/outbox.cif.g08.bks.cpg/sg12_43_cif.got.tgz:84997.got - 2010.06.03 13:09:07.
