data_PCOD9186717
_publ_section_title
;
Structure prediction by ZEFSAII (Michael W. Deem and Ramdas Pophale) SiO2 
 PCOD9186717
Probable space group: C 2/M
;
_chemical_formula_sum "Si O2"
_cell_formula_units_Z 52
_cell_length_a 21.725021
_cell_length_b 18.189179
_cell_length_c 8.407044
_cell_angle_alpha 90.000000
_cell_angle_beta 126.417989
_cell_angle_gamma 90.000000
_cell_volume 2673.342734
_symmetry_space_group_name_H-M "C 2/M"
_symmetry_group_IT_number 12
_symmetry_cell_setting 'monoclinic'
loop_
_space_group_symop_operation_xyz
x,y,z
-x,y,-z
-x,-y,-z
x,-y,z
1/2+x,1/2+y,z
1/2-x,1/2+y,-z
1/2-x,1/2-y,-z
1/2+x,1/2-y,z
loop_
_atom_site_type_symbol
_atom_site_label
_atom_site_fract_x
_atom_site_fract_y
_atom_site_fract_z
Si Si1 0.236743 0.360147 0.086042
Si Si2 0.954388 0.761465 0.590182
Si Si3 0.218970 0.709489 0.714288
Si Si4 0.385059 0.582154 0.461040
Si Si5 0.500000 0.797224 0.000000
Si Si6 0.124780 0.579694 0.140824
Si Si7 0.773869 0.080081 0.589925
O O1 0.243399 0.289855 0.214602
O O2 0.317381 0.401718 0.229673
O O3 0.167112 0.409179 0.037837
O O4 0.222255 0.327371 0.892263
O O5 0.869915 0.723836 0.464889
O O6 0.941034 0.848817 0.548060
O O7 0.992854 0.745918 0.820987
O O8 0.000000 0.736287 0.500000
O O9 0.266793 0.653949 0.679425
O O10 0.416403 0.500000 0.486629
O O11 0.340778 0.583844 0.562562
O O12 0.571364 0.852181 0.093953
O O13 0.086236 0.500000 0.085961
O O14 0.194265 0.578074 0.371998
O O15 0.780847 0.000000 0.685154
#
# Coordination Sequence:
#
# PCOD9186717 Si02
#       7
#     8   8   8   8   4   8   8
#     4   9  19  32  59  84 111 145 185 238 298 353
#     4  11  24  40  59  86 118 156 203 238 280 347
#     4  10  19  35  55  87 117 142 188 242 291 342
#     4   9  20  39  60  85 114 148 189 241 299 348
#     4  12  23  38  61  80 114 166 196 236 285 336
#     4  10  20  35  54  79 111 149 190 229 284 349
#     4   9  18  33  57  84 112 140 180 236 292 344
#
# _framework density 19.451301999999998
#
# number of rings (size 3 to 8) (size 9 to 14) (size 15 to 20)
#    0.000    2.154    1.538    2.538    2.154    3.385 
#    0.000    0.385    0.000    2.308    0.000    0.000 
#    0.000    0.000    0.000    0.000    0.000    0.000 
#
# Total GULP energy -144943.106179 kJ/mol
# GULP energy per Si atom -5574.734853 kJ/mol
# Density = 1.940703 g / cm^3
# Si number density = 19.451302 Si / 1000 Ang^3
#
#
#
# Elastic Constant Matrix: (Units=GPa)
#
#
# Indices 1 2 3 4 5 6 
#
# 1 45.8620 22.7204 29.9789 0.0000 2.5943 0.0000
# 2 22.7204 96.6476 25.5015 0.0000 -9.4036 0.0000
# 3 29.9789 25.5015 49.3909 0.0000 -19.0542 0.0000
# 4 0.0000 0.0000 0.0000 2.8413 0.0000 1.7319
# 5 2.5943 -9.4036 -19.0542 0.0000 15.5940 0.0000
# 6 0.0000 0.0000 0.0000 1.7319 0.0000 30.7439
#
#
#
# Elastic Compliance Matrix: (Units=1/GPa)
#
#
# Indices 1 2 3 4 5 6 
#
# 1 0.352412 -0.027427 -0.432719 0.000000 -0.603904 0.000000
# 2 -0.027427 0.014117 0.027247 0.000000 0.046369 0.000000
# 3 -0.432719 0.027247 0.573078 0.000000 0.788659 0.000000
# 4 0.000000 0.000000 0.000000 0.364466 0.000000 -0.020531
# 5 -0.603904 0.046369 0.788659 0.000000 1.156213 0.000000
# 6 0.000000 0.000000 0.000000 -0.020531 0.000000 0.033683
#
#
# Mechanical properties :
#
#
# Convention : Reuss Voigt Hill
#
# Bulk Modulus (GPa) = 13.54852 38.70024 26.12438
# Shear Modulus (GPa) = 1.47738 17.41582 9.44660
#
# Velocity S-wave (km/s) = 0.87245 2.99549 2.20615
# Velocity P-wave (km/s) = 2.82761 5.64829 4.46646
#
# Compressibility (1/GPa) = 0.07380877
#
# Stress axis : x y z
#
# Youngs Moduli (GPa) = 2.83759 70.83791 1.74496
#
# Poissons Ratio (x) = 1.94291 0.75508
# Poissons Ratio (y) = 0.07783 -0.04755
# Poissons Ratio (z) = 1.22788 -1.93014
#
# Static dielectric constant tensor:
#      x y z
#    x 1.709400 0.000000 -0.013050 
#    y 0.000000 1.692840 0.000000 
#    z -0.013050 0.000000 1.681050 
# 
# From -- ./inp_files/88502.got.cif
#   From: 2010.05.17/outbox.cif.g08.bks.cpg/sg12_45_cif.got.tgz:88502.got - 2010.06.03 13:09:07.
