data_PCOD9186961
_publ_section_title
;
Structure prediction by ZEFSAII (Michael W. Deem and Ramdas Pophale) SiO2 
 PCOD9186961
Probable space group: C 2/M
;
_chemical_formula_sum "Si O2"
_cell_formula_units_Z 64
_cell_length_a 20.660031
_cell_length_b 8.296163
_cell_length_c 23.689575
_cell_angle_alpha 90.000000
_cell_angle_beta 43.964015
_cell_angle_gamma 90.000000
_cell_volume 2818.734411
_symmetry_space_group_name_H-M "C 2/M"
_symmetry_group_IT_number 12
_symmetry_cell_setting 'monoclinic'
loop_
_space_group_symop_operation_xyz
x,y,z
-x,y,-z
-x,-y,-z
x,-y,z
1/2+x,1/2+y,z
1/2-x,1/2+y,-z
1/2-x,1/2-y,-z
1/2+x,1/2-y,z
loop_
_atom_site_type_symbol
_atom_site_label
_atom_site_fract_x
_atom_site_fract_y
_atom_site_fract_z
Si Si1 0.989183 0.802590 0.442220
Si Si2 0.565230 0.681499 0.223447
Si Si3 0.304112 0.309258 0.694497
Si Si4 0.374334 0.310744 0.415129
Si Si5 0.529728 0.814313 0.816027
Si Si6 0.714426 0.690106 0.641158
Si Si7 0.430860 0.811369 0.990674
Si Si8 0.748454 0.185372 0.161201
O O1 0.091126 0.757535 0.354913
O O2 0.903172 0.740568 0.458225
O O3 0.000000 0.751252 0.500000
O O4 0.982924 0.000000 0.445526
O O5 0.563060 0.500000 0.201745
O O6 0.475849 0.695156 0.320677
O O7 0.548856 0.803677 0.182769
O O8 0.662087 0.709958 0.193529
O O9 0.297497 0.500000 0.704974
O O10 0.285160 0.269643 0.640924
O O11 0.235508 0.229792 0.782958
O O12 0.350457 0.500000 0.436788
O O13 0.303592 0.243408 0.411582
O O14 0.616361 0.717955 0.735613
O O15 0.560397 0.000000 0.805253
O O16 0.485594 0.751246 0.901352
O O17 0.732492 0.500000 0.625678
O O18 0.337934 0.720472 0.067065
O O19 0.407340 0.000000 0.995043
O O20 0.500000 0.804224 0.000000
O O21 0.721935 0.000000 0.174618
#
# Coordination Sequence:
#
# PCOD9186961 Si02
#       8
#     8   8   8   8   8   8   8   8
#     4   9  17  32  58  88 113 144 189 234 279 337
#     4  10  19  35  57  80 110 149 188 231 285 336
#     4  11  21  36  58  84 115 146 188 240 287 339
#     4   8  15  31  54  81 111 147 186 227 274 327
#     4  10  20  35  56  83 113 146 190 238 286 335
#     4  10  20  34  56  83 115 154 193 234 283 338
#     4  10  22  39  56  75 106 147 186 231 289 343
#     4  12  24  36  56  83 110 143 188 237 285 339
#
# _framework density 22.705224999999999
#
# number of rings (size 3 to 8) (size 9 to 14) (size 15 to 20)
#    0.000    2.000    1.250    4.125    0.000    2.750 
#    0.000    0.625    0.000    1.500    0.000    0.000 
#    0.000    0.000    0.000    0.000    0.000    0.000 
#
# Total GULP energy -178715.164448 kJ/mol
# GULP energy per Si atom -5584.848889 kJ/mol
# Density = 2.265355 g / cm^3
# Si number density = 22.705225 Si / 1000 Ang^3
#
#
#
# Elastic Constant Matrix: (Units=GPa)
#
#
# Indices 1 2 3 4 5 6 
#
# 1 133.1114 -1.4112 24.3108 0.0000 10.8038 -0.0003
# 2 -1.4112 38.9444 2.9462 0.0000 -2.8347 -0.0005
# 3 24.3108 2.9462 75.5925 0.0000 20.0298 -0.0001
# 4 0.0000 0.0000 0.0000 12.9347 0.0000 4.6067
# 5 10.8038 -2.8347 20.0298 0.0000 38.7252 -0.0001
# 6 -0.0003 -0.0005 -0.0001 4.6067 -0.0001 26.6843
#
#
#
# Elastic Compliance Matrix: (Units=1/GPa)
#
#
# Indices 1 2 3 4 5 6 
#
# 1 0.008024 0.000394 -0.002330 0.000000 -0.001005 0.000000
# 2 0.000394 0.026035 -0.001874 0.000000 0.002765 0.000001
# 3 -0.002330 -0.001874 0.016125 0.000000 -0.007828 0.000000
# 4 0.000000 0.000000 0.000000 0.082376 0.000000 -0.014221
# 5 -0.001005 0.002765 -0.007828 0.000000 0.030354 0.000000
# 6 0.000000 0.000001 0.000000 -0.014221 0.000000 0.039930
#
#
# Mechanical properties :
#
#
# Convention : Reuss Voigt Hill
#
# Bulk Modulus (GPa) = 23.49390 33.25998 28.37694
# Shear Modulus (GPa) = 22.25661 30.45568 26.35615
#
# Velocity S-wave (km/s) = 3.13428 3.66642 3.41074
# Velocity P-wave (km/s) = 4.84439 5.70998 5.29490
#
# Compressibility (1/GPa) = 0.04256423
#
# Stress axis : x y z
#
# Youngs Moduli (GPa) = 124.63095 38.40995 62.01487
#
# Poissons Ratio (x) = -0.01513 0.14447
# Poissons Ratio (y) = -0.04909 0.11622
# Poissons Ratio (z) = 0.29034 0.07198
#
# Static dielectric constant tensor:
#      x y z
#    x 1.883760 0.000000 0.015370 
#    y 0.000000 1.769270 0.000000 
#    z 0.015370 0.000000 1.880230 
# 
# From -- ./inp_files/345926.got.cif
#   From: 2010.05.17/outbox.cif.g08.bks.cpg/sg12_173_cif.got.tgz:345926.got - 2010.06.03 13:09:07.
