data_PCOD9186633
_publ_section_title
;
Structure prediction by ZEFSAII (Michael W. Deem and Ramdas Pophale) SiO2 
 PCOD9186633
Probable space group: C 2/M
;
_chemical_formula_sum "Si O2"
_cell_formula_units_Z 56
_cell_length_a 20.166069
_cell_length_b 17.748650
_cell_length_c 17.657259
_cell_angle_alpha 90.000000
_cell_angle_beta 26.530075
_cell_angle_gamma 90.000000
_cell_volume 2822.891752
_symmetry_space_group_name_H-M "C 2/M"
_symmetry_group_IT_number 12
_symmetry_cell_setting 'monoclinic'
loop_
_space_group_symop_operation_xyz
x,y,z
-x,y,-z
-x,-y,-z
x,-y,z
1/2+x,1/2+y,z
1/2-x,1/2+y,-z
1/2-x,1/2-y,-z
1/2+x,1/2-y,z
loop_
_atom_site_type_symbol
_atom_site_label
_atom_site_fract_x
_atom_site_fract_y
_atom_site_fract_z
Si Si1 0.420209 0.920456 0.662360
Si Si2 0.364467 0.227809 0.775636
Si Si3 0.740620 0.915981 0.388732
Si Si4 0.635783 0.738041 0.801409
Si Si5 0.052879 0.241902 0.151849
Si Si6 0.085323 0.155855 0.481565
Si Si7 0.446601 0.413366 0.320546
O O1 0.500000 0.916861 0.500000
O O2 0.322428 0.848917 0.777578
O O3 0.563005 0.916542 0.570802
O O4 0.341378 0.000000 0.750778
O O5 0.456399 0.216082 0.759069
O O6 0.469388 0.276913 0.616940
O O7 0.210137 0.264851 0.955883
O O8 0.795192 0.845850 0.281695
O O9 0.808816 0.909179 0.402878
O O10 0.785534 0.000000 0.313619
O O11 0.570874 0.755956 0.784004
O O12 0.759389 0.801410 0.694041
O O13 0.500000 0.736945 0.000000
O O14 0.050767 0.153426 0.180189
O O15 0.093017 0.109471 0.552561
O O16 0.000000 0.113807 0.500000
O O17 0.502311 0.500000 0.261575
#
# Coordination Sequence:
#
# PCOD9186633 Si02
#       7
#     8   8   8   8   8   8   8
#     4  10  20  31  50  78 110 147 180 212 257 318
#     4  10  19  35  55  77 113 140 179 222 264 320
#     4   9  19  35  53  79 109 143 181 215 259 323
#     4  11  22  34  54  80 112 143 180 223 274 321
#     4   9  21  34  54  83 107 141 178 222 270 322
#     4  11  22  35  58  82 106 143 184 229 274 322
#     4   9  20  38  58  79 106 139 184 229 272 323
#
# _framework density 19.837813000000001
#
# number of rings (size 3 to 8) (size 9 to 14) (size 15 to 20)
#    0.000    2.143    1.429    1.286    4.000    2.857 
#    0.000    0.000    0.000    0.429    0.000    0.000 
#    0.000    0.000    0.000    0.000    0.000    0.000 
#
# Total GULP energy -155975.918974 kJ/mol
# GULP energy per Si atom -5570.568535 kJ/mol
# Density = 1.979266 g / cm^3
# Si number density = 19.837813 Si / 1000 Ang^3
#
#
#
# Elastic Constant Matrix: (Units=GPa)
#
#
# Indices 1 2 3 4 5 6 
#
# 1 105.4977 14.8180 9.9025 0.0014 -0.6380 -0.0045
# 2 14.8180 64.0814 7.5453 0.0014 4.1131 -0.0019
# 3 9.9025 7.5453 41.2444 0.0033 6.0223 -0.0112
# 4 0.0014 0.0014 0.0033 6.7190 -0.0035 12.0852
# 5 -0.6380 4.1131 6.0223 -0.0035 19.9390 0.0131
# 6 -0.0045 -0.0019 -0.0112 12.0852 0.0131 -23.6018
#
#
#
# Elastic Compliance Matrix: (Units=1/GPa)
#
#
# Indices 1 2 3 4 5 6 
#
# 1 0.009997 -0.002142 -0.002217 0.000000 0.001431 0.000000
# 2 -0.002142 0.016530 -0.002094 0.000000 -0.002846 -0.000002
# 3 -0.002217 -0.002094 0.026267 0.000007 -0.007573 -0.000013
# 4 0.000000 0.000000 0.000007 0.077477 -0.000014 0.039671
# 5 0.001431 -0.002846 -0.007573 -0.000014 0.053073 0.000026
# 6 0.000000 -0.000002 -0.000013 0.039671 0.000026 -0.022056
#
#
# Mechanical properties :
#
#
# Convention : Reuss Voigt Hill
#
# Bulk Modulus (GPa) = 25.07153 30.59503 27.83328
# Shear Modulus (GPa) = 26.66820 12.51509 19.59165
#
# Velocity S-wave (km/s) = 3.67046 2.51444 3.14601
# Velocity P-wave (km/s) = 5.53433 4.88732 5.22086
#
# Compressibility (1/GPa) = 0.03988588
#
# Stress axis : x y z
#
# Youngs Moduli (GPa) = 100.03437 60.49687 38.07084
#
# Poissons Ratio (x) = 0.12961 0.08441
# Poissons Ratio (y) = 0.21431 0.07972
# Poissons Ratio (z) = 0.22180 0.12668
#
# Static dielectric constant tensor:
#      x y z
#    x 1.785650 0.000000 0.004630 
#    y 0.000000 1.745980 0.000000 
#    z 0.004630 0.000000 1.660190 
# 
# From -- ./inp_files/285604.got.cif
#   From: 2010.05.17/outbox.cif.g08.bks.cpg/sg12_143_cif.got.tgz:285604.got - 2010.06.03 13:09:07.
