data_PCOD9186299
_publ_section_title
;
Structure prediction by ZEFSAII (Michael W. Deem and Ramdas Pophale) SiO2 
 PCOD9186299
Probable space group: C 2/M
;
_chemical_formula_sum "Si O2"
_cell_formula_units_Z 56
_cell_length_a 18.224539
_cell_length_b 19.891179
_cell_length_c 15.721637
_cell_angle_alpha 90.000000
_cell_angle_beta 154.090769
_cell_angle_gamma 90.000000
_cell_volume 2490.252111
_symmetry_space_group_name_H-M "C 2/M"
_symmetry_group_IT_number 12
_symmetry_cell_setting 'monoclinic'
loop_
_space_group_symop_operation_xyz
x,y,z
-x,y,-z
-x,-y,-z
x,-y,z
1/2+x,1/2+y,z
1/2-x,1/2+y,-z
1/2-x,1/2-y,-z
1/2+x,1/2-y,z
loop_
_atom_site_type_symbol
_atom_site_label
_atom_site_fract_x
_atom_site_fract_y
_atom_site_fract_z
Si Si1 0.497800 0.811617 0.396212
Si Si2 0.723041 0.077175 0.258488
Si Si3 0.363612 0.077281 0.580098
Si Si4 0.685355 0.888166 0.021393
Si Si5 0.956616 0.077877 0.647507
Si Si6 0.643228 0.737579 0.025141
Si Si7 0.305176 0.227381 0.723213
O O1 0.500000 0.820361 0.500000
O O2 0.588705 0.873340 0.445971
O O3 0.303688 0.805961 0.165082
O O4 0.613927 0.745460 0.497608
O O5 0.903015 0.081713 0.492249
O O6 0.648617 0.147579 0.220039
O O7 0.664465 0.000000 0.219656
O O8 0.288217 0.084524 0.854486
O O9 0.198843 0.103574 0.458468
O O10 0.337372 0.000000 0.526004
O O11 0.524045 0.078940 0.810126
O O12 0.662344 0.809059 0.001769
O O13 0.856994 0.897120 0.148803
O O14 0.963137 0.000000 0.676038
O O15 0.678482 0.748130 0.162554
O O16 0.441284 0.729350 0.811888
#
# Coordination Sequence:
#
# PCOD9186299 Si02
#       7
#     8   8   8   8   8   8   8
#     4  10  22  42  66  85 110 152 200 252 304 356
#     4  10  19  34  60  90 123 166 202 228 274 341
#     4  11  25  41  59  88 119 151 196 250 308 355
#     4  11  21  37  59  88 126 161 194 237 281 341
#     4  10  21  36  54  82 123 162 192 230 285 346
#     4   9  19  35  59  87 114 151 195 236 290 351
#     4   9  18  36  58  85 120 152 193 245 285 337
#
# _framework density 22.487683000000001
#
# number of rings (size 3 to 8) (size 9 to 14) (size 15 to 20)
#    0.000    2.000    0.000    3.429    0.000    7.143 
#    0.000   16.429    0.000    0.857    0.000    7.000 
#    0.000    0.000    0.000    0.000    0.000    0.000 
#
# Total GULP energy -156106.091606 kJ/mol
# GULP energy per Si atom -5575.217557 kJ/mol
# Density = 2.243650 g / cm^3
# Si number density = 22.487683 Si / 1000 Ang^3
#
#
#
# Elastic Constant Matrix: (Units=GPa)
#
#
# Indices 1 2 3 4 5 6 
#
# 1 88.0740 51.4014 58.1620 0.0000 25.4856 0.0000
# 2 51.4014 86.1419 29.4108 0.0000 6.5004 0.0000
# 3 58.1620 29.4108 118.3485 0.0000 30.7251 0.0000
# 4 0.0000 0.0000 0.0000 9.6772 0.0000 7.9533
# 5 25.4856 6.5004 30.7251 0.0000 31.1812 0.0000
# 6 0.0000 0.0000 0.0000 7.9533 0.0000 26.3559
#
#
#
# Elastic Compliance Matrix: (Units=1/GPa)
#
#
# Indices 1 2 3 4 5 6 
#
# 1 0.027003 -0.012839 -0.006779 0.000000 -0.012714 0.000000
# 2 -0.012839 0.018798 -0.000093 0.000000 0.006666 0.000000
# 3 -0.006779 -0.000093 0.013922 0.000000 -0.008158 0.000000
# 4 0.000000 0.000000 0.000000 0.137416 0.000000 -0.041467
# 5 -0.012714 0.006666 -0.008158 0.000000 0.049111 0.000000
# 6 0.000000 0.000000 0.000000 -0.041467 0.000000 0.050456
#
#
# Mechanical properties :
#
#
# Convention : Reuss Voigt Hill
#
# Bulk Modulus (GPa) = 49.25529 63.39032 56.32280
# Shear Modulus (GPa) = 14.58177 23.68221 19.13199
#
# Velocity S-wave (km/s) = 2.54920 3.24870 2.91997
# Velocity P-wave (km/s) = 5.53311 6.50555 6.03894
#
# Compressibility (1/GPa) = 0.02030239
#
# Stress axis : x y z
#
# Youngs Moduli (GPa) = 37.03341 53.19644 71.82736
#
# Poissons Ratio (x) = 0.68297 0.48693
# Poissons Ratio (y) = 0.47546 0.00665
# Poissons Ratio (z) = 0.25105 0.00492
#
# Static dielectric constant tensor:
#      x y z
#    x 1.855130 0.000000 0.082720 
#    y 0.000000 1.844760 0.000000 
#    z 0.082720 0.000000 2.033530 
# 
# From -- ./inp_files/322737.got.cif
#   From: 2010.05.17/outbox.cif.g08.bks.cpg/sg12_162_cif.got.tgz:322737.got - 2010.06.03 13:09:07.
