data_PCOD9186484
_publ_section_title
;
Structure prediction by ZEFSAII (Michael W. Deem and Ramdas Pophale) SiO2 
 PCOD9186484
Probable space group: C 2/M
;
_chemical_formula_sum "Si O2"
_cell_formula_units_Z 44
_cell_length_a 10.719111
_cell_length_b 31.133412
_cell_length_c 17.239205
_cell_angle_alpha 90.000000
_cell_angle_beta 17.652133
_cell_angle_gamma 90.000000
_cell_volume 1744.556374
_symmetry_space_group_name_H-M "C 2/M"
_symmetry_group_IT_number 12
_symmetry_cell_setting 'monoclinic'
loop_
_space_group_symop_operation_xyz
x,y,z
-x,y,-z
-x,-y,-z
x,-y,z
1/2+x,1/2+y,z
1/2-x,1/2+y,-z
1/2-x,1/2-y,-z
1/2+x,1/2-y,z
loop_
_atom_site_type_symbol
_atom_site_label
_atom_site_fract_x
_atom_site_fract_y
_atom_site_fract_z
Si Si1 0.496321 0.564346 0.725014
Si Si2 0.388928 0.936057 0.330928
Si Si3 0.630031 0.345501 0.159537
Si Si4 0.985878 0.655622 0.232336
Si Si5 0.128357 0.747993 0.661332
Si Si6 0.074108 0.000000 0.089574
O O1 0.731133 0.548153 0.508599
O O2 0.634545 0.613701 0.657553
O O3 0.539961 0.536959 0.776768
O O4 0.000000 0.562399 0.000000
O O5 0.518145 0.886400 0.265422
O O6 0.738609 0.963004 0.081203
O O7 0.000000 0.937979 0.500000
O O8 0.523832 0.295352 0.227164
O O9 0.000000 0.348127 0.000000
O O10 0.774978 0.354416 0.987439
O O11 0.500000 0.657541 0.500000
O O12 0.112842 0.703157 0.184857
O O13 0.500000 0.742895 0.500000
O O14 0.250000 0.750000 0.500000
#
# Coordination Sequence:
#
# PCOD9186484 Si02
#       6
#     8   8   8   8   8   4
#     4  11  20  30  47  74 112 157 197 250 312 367
#     4  11  19  29  44  68 110 153 191 244 303 369
#     4  11  20  37  58  86 121 164 203 253 314 371
#     4  10  19  35  52  80 116 157 198 248 307 364
#     4  11  23  40  63  91 125 166 212 256 311 380
#     4  12  20  30  42  74 111 151 209 237 318 371
#
# _framework density 25.221309999999999
#
# number of rings (size 3 to 8) (size 9 to 14) (size 15 to 20)
#    0.000    1.091    3.636    8.182    0.000    0.000 
#    0.000    0.000    0.000    0.000    0.000    0.636 
#    0.000    3.273    0.000    0.000    0.000    0.000 
#
# Total GULP energy -122476.298540 kJ/mol
# GULP energy per Si atom -5567.104479 kJ/mol
# Density = 2.516391 g / cm^3
# Si number density = 25.221310 Si / 1000 Ang^3
#
#
#
# Elastic Constant Matrix: (Units=GPa)
#
#
# Indices 1 2 3 4 5 6 
#
# 1 124.9817 32.7658 75.3290 -0.0003 39.8078 -0.0014
# 2 32.7658 257.5394 49.0097 -0.0008 32.9428 -0.0017
# 3 75.3290 49.0097 109.5765 -0.0066 56.2016 -0.0062
# 4 -0.0003 -0.0008 -0.0066 35.6398 0.0015 20.4019
# 5 39.8078 32.9428 56.2016 0.0015 78.7546 0.0000
# 6 -0.0014 -0.0017 -0.0062 20.4019 0.0000 45.8428
#
#
#
# Elastic Compliance Matrix: (Units=1/GPa)
#
#
# Indices 1 2 3 4 5 6 
#
# 1 0.013668 0.000065 -0.009255 -0.000002 -0.000331 0.000000
# 2 0.000065 0.004267 -0.001610 0.000000 -0.000669 0.000000
# 3 -0.009255 -0.001610 0.021237 0.000004 -0.009804 0.000001
# 4 -0.000002 0.000000 0.000004 0.037650 -0.000003 -0.016756
# 5 -0.000331 -0.000669 -0.009804 -0.000003 0.020141 0.000000
# 6 0.000000 0.000000 0.000001 -0.016756 0.000000 0.029271
#
#
# Mechanical properties :
#
#
# Convention : Reuss Voigt Hill
#
# Bulk Modulus (GPa) = 56.91361 89.58963 73.25162
# Shear Modulus (GPa) = 32.53274 54.38032 43.45653
#
# Velocity S-wave (km/s) = 3.59540 4.64845 4.15542
# Velocity P-wave (km/s) = 6.31273 8.02554 7.22010
#
# Compressibility (1/GPa) = 0.01757049
#
# Stress axis : x y z
#
# Youngs Moduli (GPa) = 73.16362 234.38188 47.08755
#
# Poissons Ratio (x) = -0.01516 0.43581
# Poissons Ratio (y) = -0.00473 0.07580
# Poissons Ratio (z) = 0.67716 0.37732
#
# Static dielectric constant tensor:
#      x y z
#    x 1.960810 0.000000 -0.092590 
#    y 0.000000 2.143270 0.000000 
#    z -0.092590 0.000000 2.012780 
# 
# From -- ./inp_files/266247.got.cif
#   From: 2010.05.17/outbox.cif.g08.bks.cpg/sg12_134_cif.got.tgz:266247.got - 2010.06.03 13:09:07.
