data_PCOD9186551
_publ_section_title
;
Structure prediction by ZEFSAII (Michael W. Deem and Ramdas Pophale) SiO2 
 PCOD9186551
Probable space group: C 2/M
;
_chemical_formula_sum "Si O2"
_cell_formula_units_Z 48
_cell_length_a 13.409201
_cell_length_b 13.640343
_cell_length_c 21.013925
_cell_angle_alpha 90.000000
_cell_angle_beta 33.995468
_cell_angle_gamma 90.000000
_cell_volume 2149.047862
_symmetry_space_group_name_H-M "C 2/M"
_symmetry_group_IT_number 12
_symmetry_cell_setting 'monoclinic'
loop_
_space_group_symop_operation_xyz
x,y,z
-x,y,-z
-x,-y,-z
x,-y,z
1/2+x,1/2+y,z
1/2-x,1/2+y,-z
1/2-x,1/2-y,-z
1/2+x,1/2-y,z
loop_
_atom_site_type_symbol
_atom_site_label
_atom_site_fract_x
_atom_site_fract_y
_atom_site_fract_z
Si Si1 0.331608 0.387995 0.520759
Si Si2 0.132990 0.388108 0.754652
Si Si3 0.574014 0.299880 0.862194
Si Si4 0.423777 0.181598 0.445708
Si Si5 0.729939 0.612090 0.663885
Si Si6 0.251603 0.883753 0.888975
O O1 0.391620 0.500000 0.478242
O O2 0.449100 0.298729 0.430864
O O3 0.146994 0.371122 0.579376
O O4 0.286406 0.376266 0.619531
O O5 0.141246 0.500000 0.772973
O O6 0.947826 0.374447 0.813799
O O7 0.125093 0.310174 0.815557
O O8 0.577518 0.354201 0.792214
O O9 0.718276 0.344648 0.835219
O O10 0.386676 0.321540 0.995003
O O11 0.262206 0.170793 0.582488
O O12 0.591341 0.129852 0.389021
O O13 0.712435 0.500000 0.655686
O O14 0.205249 0.000000 0.915155
#
# Coordination Sequence:
#
# PCOD9186551 Si02
#       6
#     8   8   8   8   8   8
#     4  10  19  35  54  76 108 146 182 221 272 334
#     4  10  21  38  59  83 113 151 187 225 281 340
#     4  11  20  36  58  87 111 146 186 234 276 334
#     4  10  20  33  52  79 106 141 181 226 273 324
#     4  11  20  33  53  80 109 138 178 229 279 323
#     4  10  21  37  60  87 114 145 185 233 283 333
#
# _framework density 22.335471999999999
#
# number of rings (size 3 to 8) (size 9 to 14) (size 15 to 20)
#    0.000    1.667    1.667    5.500    0.000    1.333 
#    0.000    4.167    0.000    3.000    0.000    0.000 
#    0.000    0.000    0.000    0.000    0.000    0.000 
#
# Total GULP energy -134118.906530 kJ/mol
# GULP energy per Si atom -5588.287772 kJ/mol
# Density = 2.228464 g / cm^3
# Si number density = 22.335472 Si / 1000 Ang^3
#
#
#
# Elastic Constant Matrix: (Units=GPa)
#
#
# Indices 1 2 3 4 5 6 
#
# 1 61.6973 11.1925 12.2087 -0.0003 9.8279 0.0000
# 2 11.1925 165.3943 20.7779 -0.0005 17.2668 0.0001
# 3 12.2087 20.7779 82.1853 -0.0022 22.2672 0.0005
# 4 -0.0003 -0.0005 -0.0022 19.8341 0.0008 15.6465
# 5 9.8279 17.2668 22.2672 0.0008 33.5565 -0.0001
# 6 0.0000 0.0001 0.0005 15.6465 -0.0001 30.2720
#
#
#
# Elastic Compliance Matrix: (Units=1/GPa)
#
#
# Indices 1 2 3 4 5 6 
#
# 1 0.017195 -0.000593 -0.001369 0.000000 -0.003823 0.000000
# 2 -0.000593 0.006463 -0.000844 0.000000 -0.002592 0.000000
# 3 -0.001369 -0.000844 0.015067 0.000004 -0.009163 -0.000002
# 4 0.000000 0.000000 0.000004 0.085129 -0.000005 -0.044000
# 5 -0.003823 -0.002592 -0.009163 -0.000005 0.038334 0.000003
# 6 0.000000 0.000000 -0.000002 -0.044000 0.000003 0.055776
#
#
# Mechanical properties :
#
#
# Convention : Reuss Voigt Hill
#
# Bulk Modulus (GPa) = 30.19755 44.18167 37.18961
# Shear Modulus (GPa) = 21.31177 34.40570 27.85874
#
# Velocity S-wave (km/s) = 3.09231 3.92906 3.53553
# Velocity P-wave (km/s) = 5.12827 6.35667 5.77522
#
# Compressibility (1/GPa) = 0.03311527
#
# Stress axis : x y z
#
# Youngs Moduli (GPa) = 58.15485 154.73040 66.37089
#
# Poissons Ratio (x) = 0.09169 0.09085
# Poissons Ratio (y) = 0.03446 0.05599
# Poissons Ratio (z) = 0.07960 0.13052
#
# Static dielectric constant tensor:
#      x y z
#    x 1.849160 0.000000 -0.047010 
#    y 0.000000 1.823230 0.000000 
#    z -0.047010 0.000000 1.865300 
# 
# From -- ./inp_files/310201.got.cif
#   From: 2010.05.17/outbox.cif.g08.bks.cpg/sg12_156_cif.got.tgz:310201.got - 2010.06.03 13:09:07.
