data_PCOD9186134
_publ_section_title
;
Structure prediction by ZEFSAII (Michael W. Deem and Ramdas Pophale) SiO2 
 PCOD9186134
Probable space group: C 2/M
;
_chemical_formula_sum "Si O2"
_cell_formula_units_Z 50
_cell_length_a 20.754216
_cell_length_b 7.564238
_cell_length_c 14.063112
_cell_angle_alpha 90.000000
_cell_angle_beta 83.109871
_cell_angle_gamma 90.000000
_cell_volume 2191.821124
_symmetry_space_group_name_H-M "C 2/M"
_symmetry_group_IT_number 12
_symmetry_cell_setting 'monoclinic'
loop_
_space_group_symop_operation_xyz
x,y,z
-x,y,-z
-x,-y,-z
x,-y,z
1/2+x,1/2+y,z
1/2-x,1/2+y,-z
1/2-x,1/2-y,-z
1/2+x,1/2-y,z
loop_
_atom_site_type_symbol
_atom_site_label
_atom_site_fract_x
_atom_site_fract_y
_atom_site_fract_z
Si Si1 0.570442 0.209768 0.710488
Si Si2 0.711606 0.710403 0.605495
Si Si3 0.053719 0.293128 0.387165
Si Si4 0.689094 0.209244 0.256734
Si Si5 0.064879 0.283689 0.930565
Si Si6 0.000000 0.000000 0.500000
Si Si7 0.678533 0.211655 0.047999
O O1 0.637307 0.235500 0.640677
O O2 0.505876 0.276178 0.667976
O O3 0.571240 0.276566 0.819649
O O4 0.560109 0.000000 0.718613
O O5 0.711703 0.500000 0.610952
O O6 0.750000 0.750000 0.500000
O O7 0.754663 0.783333 0.685964
O O8 0.044799 0.500000 0.412826
O O9 0.121256 0.279841 0.322250
O O10 0.053825 0.157430 0.472916
O O11 0.677181 0.285220 0.154743
O O12 0.704406 0.000000 0.241209
O O13 0.065025 0.500000 0.927264
O O14 0.125469 0.222014 0.983009
O O15 0.000000 0.232933 0.000000
O O16 0.667386 0.000000 0.055233
O O17 0.750000 0.250000 0.000000
#
# Coordination Sequence:
#
# PCOD9186134 Si02
#       7
#     8   8   8   8   8   2   8
#     4  10  21  38  60  90 123 157 195 248 307 360
#     4  11  24  39  59  82 117 158 202 250 301 362
#     4  10  23  42  65  89 125 162 205 260 307 363
#     4   9  20  40  60  84 118 162 203 248 308 366
#     4   9  17  32  60  91 115 150 199 242 290 361
#     4  12  26  40  64  98 118 160 218 250 318 366
#     4  10  19  34  59  87 118 155 197 244 300 364
#
# _framework density 22.812080000000002
#
# number of rings (size 3 to 8) (size 9 to 14) (size 15 to 20)
#    0.000    2.080    0.000    2.640    3.360    3.840 
#    2.880    0.000    0.000    0.960    0.000    0.000 
#    0.000    0.000    0.000    0.000    0.000    0.480 
#
# Total GULP energy -139345.823726 kJ/mol
# GULP energy per Si atom -5573.832949 kJ/mol
# Density = 2.276016 g / cm^3
# Si number density = 22.812080 Si / 1000 Ang^3
#
#
#
# Elastic Constant Matrix: (Units=GPa)
#
#
# Indices 1 2 3 4 5 6 
#
# 1 140.1877 -1.9852 23.5092 0.0000 16.9861 0.0000
# 2 -1.9852 78.5362 8.9688 0.0000 2.7734 0.0000
# 3 23.5092 8.9688 81.7491 0.0000 7.4073 0.0000
# 4 0.0000 0.0000 0.0000 -14.8204 0.0000 5.5355
# 5 16.9861 2.7734 7.4073 0.0000 41.1786 0.0000
# 6 0.0000 0.0000 0.0000 5.5355 0.0000 -4.3089
#
#
#
# Elastic Compliance Matrix: (Units=1/GPa)
#
#
# Indices 1 2 3 4 5 6 
#
# 1 0.007836 0.000535 -0.002049 0.000000 -0.002900 0.000000
# 2 0.000535 0.012947 -0.001500 0.000000 -0.000823 0.000000
# 3 -0.002049 -0.001500 0.013114 0.000000 -0.001413 0.000000
# 4 0.000000 0.000000 0.000000 -0.129715 0.000000 -0.166639
# 5 -0.002900 -0.000823 -0.001413 0.000000 0.025790 0.000000
# 6 0.000000 0.000000 0.000000 -0.166639 0.000000 -0.446151
#
#
# Mechanical properties :
#
#
# Convention : Reuss Voigt Hill
#
# Bulk Modulus (GPa) = 35.88308 40.16206 38.02257
# Shear Modulus (GPa) = -9.98282 22.40852 6.21285
#
# Velocity S-wave (km/s) = -2.09419 3.13758 1.65209
# Velocity P-wave (km/s) = 3.14905 5.54705 4.51034
#
# Compressibility (1/GPa) = 0.02786829
#
# Stress axis : x y z
#
# Youngs Moduli (GPa) = 127.61817 77.23915 76.25197
#
# Poissons Ratio (x) = -0.04128 0.15627
# Poissons Ratio (y) = -0.06821 0.11435
# Poissons Ratio (z) = 0.26153 0.11583
#
# Static dielectric constant tensor:
#      x y z
#    x 1.876180 0.000000 0.078630 
#    y 0.000000 1.850550 0.000000 
#    z 0.078630 0.000000 1.961200 
# 
# From -- ./inp_files/230062.got.cif
#   From: 2010.05.17/outbox.cif.g08.bks.cpg/sg12_116_cif.got.tgz:230062.got - 2010.06.03 13:09:07.
