data_PCOD9186176
_publ_section_title
;
Structure prediction by ZEFSAII (Michael W. Deem and Ramdas Pophale) SiO2 
 PCOD9186176
Probable space group: C 2/M
;
_chemical_formula_sum "Si O2"
_cell_formula_units_Z 58
_cell_length_a 25.462143
_cell_length_b 7.461098
_cell_length_c 24.130342
_cell_angle_alpha 90.000000
_cell_angle_beta 145.389356
_cell_angle_gamma 90.000000
_cell_volume 2603.795967
_symmetry_space_group_name_H-M "C 2/M"
_symmetry_group_IT_number 12
_symmetry_cell_setting 'monoclinic'
loop_
_space_group_symop_operation_xyz
x,y,z
-x,y,-z
-x,-y,-z
x,-y,z
1/2+x,1/2+y,z
1/2-x,1/2+y,-z
1/2-x,1/2-y,-z
1/2+x,1/2-y,z
loop_
_atom_site_type_symbol
_atom_site_label
_atom_site_fract_x
_atom_site_fract_y
_atom_site_fract_z
Si Si1 0.679285 0.198953 0.486233
Si Si2 0.036363 0.219028 0.165032
Si Si3 0.794603 0.212768 0.098623
Si Si4 0.622516 0.781586 0.554111
Si Si5 0.500000 0.500000 0.500000
Si Si6 0.200257 0.218052 0.226792
Si Si7 0.503889 0.282044 0.263489
Si Si8 0.856980 0.207436 0.943245
O O1 0.750000 0.250000 0.500000
O O2 0.671338 0.282386 0.539643
O O3 0.578919 0.210934 0.371358
O O4 0.709047 0.000000 0.526433
O O5 0.127486 0.274176 0.210767
O O6 0.029500 0.274638 0.223062
O O7 0.034827 0.000000 0.164794
O O8 0.945905 0.282244 0.052672
O O9 0.900274 0.276419 0.188536
O O10 0.729740 0.287166 0.090555
O O11 0.796556 0.000000 0.108191
O O12 0.750000 0.250000 0.000000
O O13 0.533910 0.660016 0.486474
O O14 0.695312 0.735119 0.666085
O O15 0.606217 0.000000 0.539104
O O16 0.168837 0.284100 0.139118
O O17 0.198590 0.000000 0.224867
O O18 0.506933 0.500000 0.267521
O O19 0.881011 0.000000 0.953400
#
# Coordination Sequence:
#
# PCOD9186176 Si02
#       8
#     8   8   8   8   2   8   8   8
#     4  11  24  42  68  98 134 168 214 278 334 403
#     4   9  16  32  58  90 124 160 201 251 305 373
#     4  11  22  38  58  83 121 162 203 254 305 373
#     4  10  24  46  68  98 132 172 222 278 338 392
#     4  12  26  44  76  94 130 180 218 282 330 418
#     4   9  18  35  62  91 121 158 206 256 309 377
#     4  10  21  37  60  89 123 165 210 256 318 380
#     4  10  19  34  59  89 120 160 204 245 304 373
#
# _framework density 22.275169000000002
#
# number of rings (size 3 to 8) (size 9 to 14) (size 15 to 20)
#    0.000    1.931    1.379    2.276    1.931    6.069 
#    3.724    2.759    1.517    0.828    0.000    0.000 
#    0.000    0.000    0.000    0.000    0.000    0.276 
#
# Total GULP energy -161699.591327 kJ/mol
# GULP energy per Si atom -5575.847977 kJ/mol
# Density = 2.222447 g / cm^3
# Si number density = 22.275169 Si / 1000 Ang^3
#
#
#
# Elastic Constant Matrix: (Units=GPa)
#
#
# Indices 1 2 3 4 5 6 
#
# 1 78.3275 3.6890 -1.8039 0.0000 -5.6202 0.0000
# 2 3.6890 80.0440 -12.2799 0.0000 -3.7432 -0.0001
# 3 -1.8039 -12.2799 50.1977 0.0000 -10.4163 0.0000
# 4 0.0000 0.0000 0.0000 6.9869 0.0000 0.2490
# 5 -5.6202 -3.7432 -10.4163 0.0000 35.5440 0.0000
# 6 0.0000 -0.0001 0.0000 0.2490 0.0000 22.7315
#
#
#
# Elastic Compliance Matrix: (Units=1/GPa)
#
#
# Indices 1 2 3 4 5 6 
#
# 1 0.012966 -0.000362 0.000846 0.000000 0.002260 0.000000
# 2 -0.000362 0.013193 0.003717 0.000000 0.002421 0.000000
# 3 0.000846 0.003717 0.022328 0.000000 0.007068 0.000000
# 4 0.000000 0.000000 0.000000 0.143182 0.000000 -0.001568
# 5 0.002260 0.002421 0.007068 0.000000 0.030818 0.000000
# 6 0.000000 0.000000 0.000000 -0.001568 0.000000 0.044009
#
#
# Mechanical properties :
#
#
# Convention : Reuss Voigt Hill
#
# Bulk Modulus (GPa) = 17.57806 20.86440 19.22123
# Shear Modulus (GPa) = 18.04690 27.65007 22.84849
#
# Velocity S-wave (km/s) = 2.84945 3.52702 3.20619
# Velocity P-wave (km/s) = 4.32832 5.09642 4.72799
#
# Compressibility (1/GPa) = 0.05688910
#
# Stress axis : x y z
#
# Youngs Moduli (GPa) = 77.12713 75.79616 44.78747
#
# Poissons Ratio (x) = 0.02744 -0.03791
# Poissons Ratio (y) = 0.02792 -0.16647
# Poissons Ratio (z) = -0.06528 -0.28173
#
# Static dielectric constant tensor:
#      x y z
#    x 1.737260 0.000000 0.054610 
#    y 0.000000 1.889770 0.000000 
#    z 0.054610 0.000000 1.779370 
# 
# From -- ./inp_files/324667.got.cif
#   From: 2010.05.17/outbox.cif.g08.bks.cpg/sg12_163_cif.got.tgz:324667.got - 2010.06.03 13:09:07.
