data_PCOD9186455
_publ_section_title
;
Structure prediction by ZEFSAII (Michael W. Deem and Ramdas Pophale) SiO2 
 PCOD9186455
Probable space group: C 2/M
;
_chemical_formula_sum "Si O2"
_cell_formula_units_Z 52
_cell_length_a 12.951923
_cell_length_b 25.972614
_cell_length_c 12.382409
_cell_angle_alpha 90.000000
_cell_angle_beta 135.597489
_cell_angle_gamma 90.000000
_cell_volume 2914.497011
_symmetry_space_group_name_H-M "C 2/M"
_symmetry_group_IT_number 12
_symmetry_cell_setting 'monoclinic'
loop_
_space_group_symop_operation_xyz
x,y,z
-x,y,-z
-x,-y,-z
x,-y,z
1/2+x,1/2+y,z
1/2-x,1/2+y,-z
1/2-x,1/2-y,-z
1/2+x,1/2-y,z
loop_
_atom_site_type_symbol
_atom_site_label
_atom_site_fract_x
_atom_site_fract_y
_atom_site_fract_z
Si Si1 0.500000 0.126332 0.500000
Si Si2 0.858608 0.832954 0.128822
Si Si3 0.075351 0.304086 0.357470
Si Si4 0.103156 0.192306 0.472190
Si Si5 0.213668 0.941351 0.254619
Si Si6 0.393468 0.761501 0.018998
Si Si7 0.876387 0.059013 0.063220
O O1 0.495966 0.157826 0.609223
O O2 0.651785 0.094452 0.612939
O O3 0.865784 0.798663 0.024940
O O4 0.811814 0.891750 0.077495
O O5 0.014453 0.831271 0.305086
O O6 0.748059 0.796306 0.113087
O O7 0.109818 0.253624 0.455755
O O8 0.225652 0.324039 0.411725
O O9 0.966797 0.285886 0.181033
O O10 0.000000 0.181874 0.500000
O O11 0.053120 0.931580 0.187094
O O12 0.253806 0.000000 0.311615
O O13 0.184753 0.938699 0.104384
O O14 0.500000 0.764860 0.000000
O O15 0.852410 0.000000 0.084770
#
# Coordination Sequence:
#
# PCOD9186455 Si02
#       7
#     4   8   8   8   8   8   8
#     4  12  19  32  52  78 112 136 173 208 266 332
#     4  10  20  33  53  79  96 141 178 209 272 303
#     4  10  21  32  49  75 101 142 173 208 261 311
#     4  10  19  35  49  70 105 136 178 213 254 310
#     4   9  19  31  49  75 105 136 167 215 268 315
#     4  10  21  35  50  77 110 136 177 217 256 312
#     4   9  18  35  52  74 102 135 179 219 260 314
#
# _framework density 17.841843000000001
#
# number of rings (size 3 to 8) (size 9 to 14) (size 15 to 20)
#    0.000    2.154    0.769    3.923    2.154    0.000 
#    2.769    0.000    0.000    0.923    0.000    4.308 
#    0.000    0.000    0.000    0.000    0.000    0.000 
#
# Total GULP energy -144800.949079 kJ/mol
# GULP energy per Si atom -5569.267272 kJ/mol
# Density = 1.780123 g / cm^3
# Si number density = 17.841843 Si / 1000 Ang^3
#
#
#
# Elastic Constant Matrix: (Units=GPa)
#
#
# Indices 1 2 3 4 5 6 
#
# 1 72.0695 19.2845 8.5489 0.0000 -5.2527 0.0000
# 2 19.2845 94.8680 20.5956 0.0000 -5.5658 0.0000
# 3 8.5489 20.5956 38.9049 0.0000 10.1000 0.0000
# 4 0.0000 0.0000 0.0000 3.4072 0.0000 7.9042
# 5 -5.2527 -5.5658 10.1000 0.0000 18.2514 0.0000
# 6 0.0000 0.0000 0.0000 7.9042 0.0000 12.8966
#
#
#
# Elastic Compliance Matrix: (Units=1/GPa)
#
#
# Indices 1 2 3 4 5 6 
#
# 1 0.015284 -0.001910 -0.003898 0.000000 0.005973 0.000000
# 2 -0.001910 0.013337 -0.008821 0.000000 0.008399 0.000000
# 3 -0.003898 -0.008821 0.037625 0.000000 -0.024633 0.000000
# 4 0.000000 0.000000 0.000000 -0.695750 0.000000 0.426420
# 5 0.005973 0.008399 -0.024633 0.000000 0.072702 0.000000
# 6 0.000000 0.000000 0.000000 0.426420 0.000000 -0.183810
#
#
# Mechanical properties :
#
#
# Convention : Reuss Voigt Hill
#
# Bulk Modulus (GPa) = 27.03617 33.63339 30.33478
# Shear Modulus (GPa) = -7.15283 17.40526 5.12622
#
# Velocity S-wave (km/s) = -2.00443 3.12674 1.69687
# Velocity P-wave (km/s) = 3.13515 5.65041 4.56926
#
# Compressibility (1/GPa) = 0.03698748
#
# Stress axis : x y z
#
# Youngs Moduli (GPa) = 65.42614 74.97921 26.57831
#
# Poissons Ratio (x) = 0.14323 0.10360
# Poissons Ratio (y) = 0.12498 0.23445
# Poissons Ratio (z) = 0.25504 0.66139
#
# Static dielectric constant tensor:
#      x y z
#    x 1.636780 0.000000 0.024300 
#    y 0.000000 1.616980 0.000000 
#    z 0.024300 0.000000 1.622030 
# 
# From -- ./inp_files/136038.got.cif
#   From: 2010.05.17/outbox.cif.g08.bks.cpg/sg12_69_cif.got.tgz:136038.got - 2010.06.03 13:09:07.
