data_PCOD9186771
_publ_section_title
;
Structure prediction by ZEFSAII (Michael W. Deem and Ramdas Pophale) SiO2 
 PCOD9186771
Probable space group: C 2/M
;
_chemical_formula_sum "Si O2"
_cell_formula_units_Z 64
_cell_length_a 32.368758
_cell_length_b 8.668543
_cell_length_c 18.449636
_cell_angle_alpha 90.000000
_cell_angle_beta 138.543646
_cell_angle_gamma 90.000000
_cell_volume 3427.285582
_symmetry_space_group_name_H-M "C 2/M"
_symmetry_group_IT_number 12
_symmetry_cell_setting 'monoclinic'
loop_
_space_group_symop_operation_xyz
x,y,z
-x,y,-z
-x,-y,-z
x,-y,z
1/2+x,1/2+y,z
1/2-x,1/2+y,-z
1/2-x,1/2-y,-z
1/2+x,1/2-y,z
loop_
_atom_site_type_symbol
_atom_site_label
_atom_site_fract_x
_atom_site_fract_y
_atom_site_fract_z
Si Si1 0.029898 0.315446 0.312274
Si Si2 0.338509 0.684498 0.565309
Si Si3 0.817400 0.685185 0.110500
Si Si4 0.288767 0.315823 0.657369
Si Si5 0.460168 0.314207 0.519044
Si Si6 0.599089 0.812346 0.916003
Si Si7 0.191834 0.686470 0.163879
Si Si8 0.827636 0.186062 0.282993
O O1 0.034142 0.500000 0.314759
O O2 0.095113 0.243572 0.373747
O O3 0.016633 0.265056 0.377394
O O4 0.972458 0.263334 0.185996
O O5 0.335954 0.500000 0.555884
O O6 0.324752 0.728818 0.630860
O O7 0.281606 0.753497 0.444222
O O8 0.815043 0.500000 0.109038
O O9 0.865065 0.733352 0.110207
O O10 0.835220 0.747919 0.212529
O O11 0.750000 0.750000 0.000000
O O12 0.287437 0.500000 0.659572
O O13 0.317819 0.247732 0.768229
O O14 0.500000 0.273463 0.500000
O O15 0.463713 0.500000 0.532413
O O16 0.387779 0.271430 0.409712
O O17 0.599486 0.000000 0.918424
O O18 0.639321 0.760454 0.037865
O O19 0.191742 0.500000 0.164812
O O20 0.260790 0.735759 0.227062
O O21 0.826695 0.000000 0.276991
#
# Coordination Sequence:
#
# PCOD9186771 Si02
#       8
#     8   8   8   8   8   8   8   8
#     4  11  22  37  59  83 110 147 195 238 275 329
#     4  10  21  39  61  85 115 148 178 221 284 342
#     4  11  20  34  54  77 108 145 187 231 275 323
#     4  10  21  37  60  90 116 138 179 231 276 333
#     4  10  21  36  54  80 115 151 188 231 284 341
#     4   9  20  37  54  77 111 150 188 231 278 327
#     4  10  19  35  56  78 111 150 185 227 282 333
#     4  10  20  34  53  77 107 145 185 227 278 333
#
# _framework density 18.673670000000001
#
# number of rings (size 3 to 8) (size 9 to 14) (size 15 to 20)
#    0.000    1.875    1.250    3.000    0.000    3.750 
#    0.000    3.750    0.000    3.750    0.000    0.000 
#    0.000    0.000    0.000    0.000    0.000    0.000 
#
# Total GULP energy -178758.582521 kJ/mol
# GULP energy per Si atom -5586.205704 kJ/mol
# Density = 1.863117 g / cm^3
# Si number density = 18.673670 Si / 1000 Ang^3
#
#
#
# Elastic Constant Matrix: (Units=GPa)
#
#
# Indices 1 2 3 4 5 6 
#
# 1 73.9710 10.3035 38.8415 0.0000 -1.2347 0.0000
# 2 10.3035 9.7775 16.3420 0.0000 -2.3405 0.0000
# 3 38.8415 16.3420 112.2993 0.0000 -9.9598 0.0000
# 4 0.0000 0.0000 0.0000 17.9885 0.0000 -12.3410
# 5 -1.2347 -2.3405 -9.9598 0.0000 33.1684 0.0000
# 6 0.0000 0.0000 0.0000 -12.3410 0.0000 25.8731
#
#
#
# Elastic Compliance Matrix: (Units=1/GPa)
#
#
# Indices 1 2 3 4 5 6 
#
# 1 0.017429 -0.011137 -0.004541 0.000000 -0.001501 0.000000
# 2 -0.011137 0.142713 -0.016499 0.000000 0.004702 0.000000
# 3 -0.004541 -0.016499 0.013107 0.000000 0.002603 0.000000
# 4 0.000000 0.000000 0.000000 0.082631 0.000000 0.039414
# 5 -0.001501 0.004702 0.002603 0.000000 0.031207 0.000000
# 6 0.000000 0.000000 0.000000 0.039414 0.000000 0.057450
#
#
# Mechanical properties :
#
#
# Convention : Reuss Voigt Hill
#
# Bulk Modulus (GPa) = 9.18303 36.33576 22.75940
# Shear Modulus (GPa) = 11.23118 24.11004 17.67061
#
# Velocity S-wave (km/s) = 2.45510 3.59712 3.07951
# Velocity P-wave (km/s) = 3.60069 6.06242 4.98587
#
# Compressibility (1/GPa) = 0.10889650
#
# Stress axis : x y z
#
# Youngs Moduli (GPa) = 57.37444 7.00706 76.29446
#
# Poissons Ratio (x) = 0.07804 0.34644
# Poissons Ratio (y) = 0.63896 1.25878
# Poissons Ratio (z) = 0.26053 0.11561
#
# Static dielectric constant tensor:
#      x y z
#    x 1.634520 0.000000 0.003990 
#    y 0.000000 1.633140 0.000000 
#    z 0.003990 0.000000 1.640870 
# 
# From -- ./inp_files/295677.got.cif
#   From: 2010.05.17/outbox.cif.g08.bks.cpg/sg12_148_cif.got.tgz:295677.got - 2010.06.03 13:09:07.
