data_PCOD9186434
_publ_section_title
;
Structure prediction by ZEFSAII (Michael W. Deem and Ramdas Pophale) SiO2 
 PCOD9186434
Probable space group: C 2/M
;
_chemical_formula_sum "Si O2"
_cell_formula_units_Z 44
_cell_length_a 10.459642
_cell_length_b 22.082217
_cell_length_c 8.970837
_cell_angle_alpha 90.000000
_cell_angle_beta 89.818467
_cell_angle_gamma 90.000000
_cell_volume 2072.002521
_symmetry_space_group_name_H-M "C 2/M"
_symmetry_group_IT_number 12
_symmetry_cell_setting 'monoclinic'
loop_
_space_group_symop_operation_xyz
x,y,z
-x,y,-z
-x,-y,-z
x,-y,z
1/2+x,1/2+y,z
1/2-x,1/2+y,-z
1/2-x,1/2-y,-z
1/2+x,1/2-y,z
loop_
_atom_site_type_symbol
_atom_site_label
_atom_site_fract_x
_atom_site_fract_y
_atom_site_fract_z
Si Si1 0.146386 0.631578 0.736841
Si Si2 0.606079 0.713901 0.191388
Si Si3 0.500000 0.192151 0.000000
Si Si4 0.834627 0.695837 0.562450
Si Si5 0.583398 0.631568 0.658083
Si Si6 0.113891 0.000000 0.618794
Si Si7 0.135581 0.500000 0.592514
O O1 0.277054 0.667441 0.782099
O O2 0.109852 0.661017 0.578576
O O3 0.151528 0.560309 0.695466
O O4 0.049411 0.649348 0.867821
O O5 0.607092 0.758739 0.050778
O O6 0.588887 0.764857 0.319716
O O7 0.482526 0.672160 0.216800
O O8 0.750000 0.750000 0.500000
O O9 0.728858 0.651848 0.633446
O O10 0.500000 0.637007 0.500000
O O11 0.592117 0.561996 0.704704
O O12 0.000000 0.000000 0.500000
O O13 0.247979 0.000000 0.528177
O O14 0.000000 0.500000 0.500000
#
# Coordination Sequence:
#
# PCOD9186434 Si02
#       7
#     8   8   4   8   8   4   4
#     4  11  24  43  64  94 135 179 225 278 330 407
#     4  11  23  41  63  99 132 170 220 283 348 398
#     4  12  28  39  64  91 136 188 222 270 330 412
#     4  10  19  34  63  92 127 160 212 280 342 387
#     4  11  18  34  64  95 124 162 213 279 344 394
#     4  10  20  38  63  99 129 164 215 280 340 398
#     4  12  26  45  71 103 135 177 231 286 336 403
#
# _framework density 21.235493999999999
#
# number of rings (size 3 to 8) (size 9 to 14) (size 15 to 20)
#    0.000    1.091    5.455    3.818    2.545    0.364 
#    0.000    0.000    0.000    4.364    0.000    0.000 
#    0.000    0.000    0.000    0.000    0.000    0.000 
#
# Total GULP energy -122551.655439 kJ/mol
# GULP energy per Si atom -5570.529793 kJ/mol
# Density = 2.118716 g / cm^3
# Si number density = 21.235494 Si / 1000 Ang^3
#
#
#
# Elastic Constant Matrix: (Units=GPa)
#
#
# Indices 1 2 3 4 5 6 
#
# 1 78.5611 28.4344 26.8474 0.0000 -18.3079 0.0000
# 2 28.4344 189.7460 51.5752 0.0000 -0.3571 0.0000
# 3 26.8474 51.5752 52.0861 0.0000 -18.7337 0.0000
# 4 0.0000 0.0000 0.0000 15.2661 0.0000 -21.9348
# 5 -18.3079 -0.3571 -18.7337 0.0000 22.6079 0.0000
# 6 0.0000 0.0000 0.0000 -21.9348 0.0000 17.2318
#
#
#
# Elastic Compliance Matrix: (Units=1/GPa)
#
#
# Indices 1 2 3 4 5 6 
#
# 1 0.016998 -0.001698 -0.003047 0.000000 0.011213 0.000000
# 2 -0.001698 0.008657 -0.011599 0.000000 -0.010850 0.000000
# 3 -0.003047 -0.011599 0.044591 0.000000 0.034299 0.000000
# 4 0.000000 0.000000 0.000000 -0.079019 0.000000 -0.100585
# 5 0.011213 -0.010850 0.034299 0.000000 0.081563 0.000000
# 6 0.000000 0.000000 0.000000 -0.100585 0.000000 -0.070005
#
#
# Mechanical properties :
#
#
# Convention : Reuss Voigt Hill
#
# Bulk Modulus (GPa) = 26.62581 59.34524 42.98553
# Shear Modulus (GPa) = 104.18177 25.25692 64.71934
#
# Velocity S-wave (km/s) = 7.01190 3.45247 5.52658
# Velocity P-wave (km/s) = 8.83862 6.62568 7.81092
#
# Compressibility (1/GPa) = 0.03755754
#
# Stress axis : x y z
#
# Youngs Moduli (GPa) = 58.83065 115.51309 22.42583
#
# Poissons Ratio (x) = 0.19612 0.06834
# Poissons Ratio (y) = 0.09988 0.26012
# Poissons Ratio (z) = 0.17928 1.33987
#
# Static dielectric constant tensor:
#      x y z
#    x 2.032550 0.000000 0.008600 
#    y 0.000000 1.714210 0.000000 
#    z 0.008600 0.000000 1.862840 
# 
# From -- ./inp_files/49324.got.cif
#   From: 2010.05.17/outbox.cif.g08.bks.cpg/sg12_25_cif.got.tgz:49324.got - 2010.06.03 13:09:07.
