data_PCOD9186558
_publ_section_title
;
Structure prediction by ZEFSAII (Michael W. Deem and Ramdas Pophale) SiO2 
 PCOD9186558
Probable space group: C 2/M
;
_chemical_formula_sum "Si O2"
_cell_formula_units_Z 48
_cell_length_a 23.538819
_cell_length_b 13.068218
_cell_length_c 14.070949
_cell_angle_alpha 90.000000
_cell_angle_beta 151.983079
_cell_angle_gamma 90.000000
_cell_volume 2033.175436
_symmetry_space_group_name_H-M "C 2/M"
_symmetry_group_IT_number 12
_symmetry_cell_setting 'monoclinic'
loop_
_space_group_symop_operation_xyz
x,y,z
-x,y,-z
-x,-y,-z
x,-y,z
1/2+x,1/2+y,z
1/2-x,1/2+y,-z
1/2-x,1/2-y,-z
1/2+x,1/2-y,z
loop_
_atom_site_type_symbol
_atom_site_label
_atom_site_fract_x
_atom_site_fract_y
_atom_site_fract_z
Si Si1 0.232416 0.881816 0.114256
Si Si2 0.580203 0.881215 0.991293
Si Si3 0.055029 0.756722 0.486038
Si Si4 0.164483 0.708818 0.459112
Si Si5 0.115007 0.168798 0.114962
Si Si6 0.661951 0.881116 0.912400
O O1 0.340245 0.813270 0.313341
O O2 0.116064 0.859079 0.005874
O O3 0.224846 0.863251 0.990213
O O4 0.262778 0.000000 0.172071
O O5 0.449769 0.850045 0.754659
O O6 0.674635 0.866207 0.043200
O O7 0.582411 0.000000 0.024373
O O8 0.611711 0.793126 0.112509
O O9 0.114944 0.785961 0.470428
O O10 0.000000 0.814350 0.500000
O O11 0.947328 0.684707 0.289272
O O12 0.250000 0.750000 0.500000
O O13 0.259066 0.635270 0.653685
O O14 0.000000 0.129107 0.000000
O O15 0.627602 0.000000 0.852427
#
# Coordination Sequence:
#
# PCOD9186558 Si02
#       6
#     8   8   8   8   8   8
#     4   9  17  29  48  76 111 146 178 225 285 335
#     4  10  21  38  61  84 111 150 189 233 286 336
#     4   8  14  25  47  75 104 137 176 223 277 327
#     4  10  19  35  54  77 113 143 184 235 277 324
#     4  11  22  35  54  80 118 148 189 236 275 335
#     4   8  14  27  49  78 106 136 182 229 274 333
#
# _framework density 23.608391000000001
#
# number of rings (size 3 to 8) (size 9 to 14) (size 15 to 20)
#    0.000    2.667    1.667    0.500    0.000    7.333 
#    0.000    0.000    0.000    1.000    0.000    0.000 
#    0.000   64.667    0.000    0.000    0.000    0.000 
#
# Total GULP energy -133626.849103 kJ/mol
# GULP energy per Si atom -5567.785379 kJ/mol
# Density = 2.355466 g / cm^3
# Si number density = 23.608391 Si / 1000 Ang^3
#
#
#
# Elastic Constant Matrix: (Units=GPa)
#
#
# Indices 1 2 3 4 5 6 
#
# 1 224.0372 -0.7985 -1.2952 0.0000 21.1176 0.0000
# 2 -0.7985 68.5723 23.0836 0.0000 -2.5898 0.0000
# 3 -1.2952 23.0836 68.5781 0.0000 3.8212 0.0000
# 4 0.0000 0.0000 0.0000 5.9146 0.0000 -1.1542
# 5 21.1176 -2.5898 3.8212 0.0000 29.9705 0.0000
# 6 0.0000 0.0000 0.0000 -1.1542 0.0000 13.6040
#
#
#
# Elastic Compliance Matrix: (Units=1/GPa)
#
#
# Indices 1 2 3 4 5 6 
#
# 1 0.004789 -0.000190 0.000346 0.000000 -0.003435 0.000000
# 2 -0.000190 0.016592 -0.005717 0.000000 0.002297 0.000000
# 3 0.000346 -0.005717 0.016672 0.000000 -0.002863 0.000000
# 4 0.000000 0.000000 0.000000 0.171920 0.000000 0.014586
# 5 -0.003435 0.002297 -0.002863 0.000000 0.036350 0.000000
# 6 0.000000 0.000000 0.000000 0.014586 0.000000 0.074745
#
#
# Mechanical properties :
#
#
# Convention : Reuss Voigt Hill
#
# Bulk Modulus (GPa) = 37.13215 44.79639 40.96427
# Shear Modulus (GPa) = 14.65559 32.57766 23.61663
#
# Velocity S-wave (km/s) = 2.49425 3.71876 3.16626
# Velocity P-wave (km/s) = 4.90485 6.12004 5.54583
#
# Compressibility (1/GPa) = 0.02693084
#
# Stress axis : x y z
#
# Youngs Moduli (GPa) = 208.82871 60.26993 59.98012
#
# Poissons Ratio (x) = 0.01148 -0.02075
# Poissons Ratio (y) = 0.03976 0.34288
# Poissons Ratio (z) = -0.07224 0.34453
#
# Static dielectric constant tensor:
#      x y z
#    x 2.117590 0.000000 -0.009400 
#    y 0.000000 1.892870 0.000000 
#    z -0.009400 0.000000 1.883540 
# 
# From -- ./inp_files/240749.got.cif
#   From: 2010.05.17/outbox.cif.g08.bks.cpg/sg12_121_cif.got.tgz:240749.got - 2010.06.03 13:09:07.
