data_PCOD9186687
_publ_section_title
;
Structure prediction by ZEFSAII (Michael W. Deem and Ramdas Pophale) SiO2 
 PCOD9186687
Probable space group: C 2/M
;
_chemical_formula_sum "Si O2"
_cell_formula_units_Z 64
_cell_length_a 5.492127
_cell_length_b 25.281890
_cell_length_c 19.733023
_cell_angle_alpha 90.000000
_cell_angle_beta 92.105409
_cell_angle_gamma 90.000000
_cell_volume 2738.107234
_symmetry_space_group_name_H-M "C 2/M"
_symmetry_group_IT_number 12
_symmetry_cell_setting 'monoclinic'
loop_
_space_group_symop_operation_xyz
x,y,z
-x,y,-z
-x,-y,-z
x,-y,z
1/2+x,1/2+y,z
1/2-x,1/2+y,-z
1/2-x,1/2-y,-z
1/2+x,1/2-y,z
loop_
_atom_site_type_symbol
_atom_site_label
_atom_site_fract_x
_atom_site_fract_y
_atom_site_fract_z
Si Si1 0.688584 0.409831 0.690446
Si Si2 0.523395 0.439156 0.166837
Si Si3 0.066431 0.195033 0.316683
Si Si4 0.411137 0.123806 0.226279
Si Si5 0.645404 0.443526 0.431473
Si Si6 0.543202 0.230689 0.191959
Si Si7 0.751127 0.935910 0.034580
Si Si8 0.248074 0.673936 0.541545
O O1 0.555299 0.430056 0.756875
O O2 0.651579 0.347141 0.672008
O O3 0.562309 0.438874 0.627746
O O4 0.964285 0.415440 0.718669
O O5 0.585147 0.500000 0.154527
O O6 0.765121 0.404401 0.165412
O O7 0.308195 0.424393 0.113691
O O8 0.233164 0.158866 0.270238
O O9 0.197020 0.206359 0.389069
O O10 0.006024 0.243482 0.267094
O O11 0.590847 0.168379 0.198503
O O12 0.500000 0.444830 0.500000
O O13 0.779894 0.500000 0.424942
O O14 0.787741 0.387700 0.434880
O O15 0.774799 0.258001 0.159432
O O16 0.742100 0.000000 0.028256
O O17 0.500000 0.915542 0.000000
O O18 0.000000 0.918545 0.000000
O O19 0.500000 0.676156 0.500000
O O20 0.000000 0.689774 0.500000
#
# Coordination Sequence:
#
# PCOD9186687 Si02
#       8
#     8   8   8   8   8   8   8   8
#     4  10  19  35  55  81 115 153 197 253 304 356
#     4  10  22  36  55  88 127 166 202 245 293 350
#     4   9  20  35  56  81 112 145 188 242 312 364
#     4  10  21  34  59  84 116 153 199 243 302 354
#     4   9  19  34  52  75 105 150 204 251 299 354
#     4  10  19  35  59  84 111 149 188 240 306 358
#     4   9  19  36  58  85 120 165 206 236 279 343
#     4  10  22  35  57  78 105 144 188 246 300 368
#
# _framework density 23.373809000000001
#
# number of rings (size 3 to 8) (size 9 to 14) (size 15 to 20)
#    0.000    2.375    1.250    0.375    7.000    1.250 
#    0.000    0.000    0.000    9.750    0.000    0.000 
#    0.000   27.000    0.000    0.000    0.000    0.000 
#
# Total GULP energy -178505.631877 kJ/mol
# GULP energy per Si atom -5578.300996 kJ/mol
# Density = 2.332061 g / cm^3
# Si number density = 23.373809 Si / 1000 Ang^3
#
#
#
# Elastic Constant Matrix: (Units=GPa)
#
#
# Indices 1 2 3 4 5 6 
#
# 1 96.0326 9.8907 29.3708 0.0000 31.5992 0.0000
# 2 9.8907 68.3766 14.5612 0.0000 5.9466 0.0000
# 3 29.3708 14.5612 66.5924 0.0000 29.1259 0.0000
# 4 0.0000 0.0000 0.0000 33.2118 0.0000 10.3689
# 5 31.5992 5.9466 29.1259 0.0000 34.9971 0.0000
# 6 0.0000 0.0000 0.0000 10.3689 0.0000 21.7605
#
#
#
# Elastic Compliance Matrix: (Units=1/GPa)
#
#
# Indices 1 2 3 4 5 6 
#
# 1 0.014913 -0.000875 -0.000883 0.000000 -0.012582 0.000000
# 2 -0.000875 0.015392 -0.003430 0.000000 0.001029 0.000000
# 3 -0.000883 -0.003430 0.024454 0.000000 -0.018971 0.000000
# 4 0.000000 0.000000 0.000000 0.035372 0.000000 -0.016855
# 5 -0.012582 0.001029 -0.018971 0.000000 0.055547 0.000000
# 6 0.000000 0.000000 0.000000 -0.016855 0.000000 0.053986
#
#
# Mechanical properties :
#
#
# Convention : Reuss Voigt Hill
#
# Bulk Modulus (GPa) = 22.53113 37.62746 30.07930
# Shear Modulus (GPa) = 22.23845 29.80579 26.02212
#
# Velocity S-wave (km/s) = 3.08787 3.57484 3.34024
# Velocity P-wave (km/s) = 4.73008 5.75955 5.27001
#
# Compressibility (1/GPa) = 0.04438305
#
# Stress axis : x y z
#
# Youngs Moduli (GPa) = 67.05409 64.96731 40.89345
#
# Poissons Ratio (x) = 0.05684 0.03613
# Poissons Ratio (y) = 0.05867 0.14026
# Poissons Ratio (z) = 0.05924 0.22283
#
# Static dielectric constant tensor:
#      x y z
#    x 1.965070 0.000000 0.024900 
#    y 0.000000 1.946490 0.000000 
#    z 0.024900 0.000000 1.875370 
# 
# From -- ./inp_files/298532.got.cif
#   From: 2010.05.17/outbox.cif.g08.bks.cpg/sg12_150_cif.got.tgz:298532.got - 2010.06.03 13:09:07.
