data_PCOD9186556
_publ_section_title
;
Structure prediction by ZEFSAII (Michael W. Deem and Ramdas Pophale) SiO2 
 PCOD9186556
Probable space group: C 2/M
;
_chemical_formula_sum "Si O2"
_cell_formula_units_Z 64
_cell_length_a 14.810111
_cell_length_b 7.583788
_cell_length_c 25.462534
_cell_angle_alpha 90.000000
_cell_angle_beta 87.941115
_cell_angle_gamma 90.000000
_cell_volume 2858.022623
_symmetry_space_group_name_H-M "C 2/M"
_symmetry_group_IT_number 12
_symmetry_cell_setting 'monoclinic'
loop_
_space_group_symop_operation_xyz
x,y,z
-x,y,-z
-x,-y,-z
x,-y,z
1/2+x,1/2+y,z
1/2-x,1/2+y,-z
1/2-x,1/2-y,-z
1/2+x,1/2-y,z
loop_
_atom_site_type_symbol
_atom_site_label
_atom_site_fract_x
_atom_site_fract_y
_atom_site_fract_z
Si Si1 0.993018 0.784018 0.084308
Si Si2 0.062437 0.209758 0.800610
Si Si3 0.669118 0.806441 0.463752
Si Si4 0.574077 0.787482 0.290800
Si Si5 0.993600 0.716863 0.592925
Si Si6 0.688735 0.206810 0.614042
Si Si7 0.644173 0.710788 0.003094
Si Si8 0.778019 0.213275 0.270123
O O1 0.974849 0.720132 0.143539
O O2 0.086703 0.726370 0.054894
O O3 0.994511 0.000000 0.085314
O O4 0.911610 0.729249 0.047104
O O5 0.993462 0.238133 0.754316
O O6 0.159740 0.277800 0.778805
O O7 0.072816 0.000000 0.807404
O O8 0.750000 0.750000 0.500000
O O9 0.575011 0.717257 0.450312
O O10 0.722841 0.807190 0.407155
O O11 0.643920 0.000000 0.482924
O O12 0.540933 0.725550 0.348768
O O13 0.674979 0.724031 0.275094
O O14 0.576290 0.000000 0.293515
O O15 0.991896 0.500000 0.592611
O O16 0.098250 0.767642 0.586241
O O17 0.675923 0.232236 0.676044
O O18 0.703710 0.000000 0.603433
O O19 0.636419 0.500000 0.003317
O O20 0.750000 0.750000 0.000000
O O21 0.776522 0.000000 0.268769
#
# Coordination Sequence:
#
# PCOD9186556 Si02
#       8
#     8   8   8   8   8   8   8   8
#     4   8  17  34  52  74 110 148 178 217 280 335
#     4  10  20  34  53  80 110 142 183 228 266 317
#     4  11  23  42  61  83 112 143 178 223 273 322
#     4  10  19  35  54  77 108 146 178 212 270 325
#     4   9  19  36  58  78 108 145 174 210 268 326
#     4  11  21  36  59  83 105 140 182 219 262 320
#     4   9  17  33  57  78 102 143 187 227 272 328
#     4  10  20  34  53  77 107 143 178 217 266 319
#
# _framework density 22.393106
#
# number of rings (size 3 to 8) (size 9 to 14) (size 15 to 20)
#    0.000    2.250    2.500    1.500    0.000    2.000 
#    0.000    8.750    0.000    0.000    0.000    0.000 
#    0.000    0.000    0.000    0.000    0.000    0.000 
#
# Total GULP energy -178669.988028 kJ/mol
# GULP energy per Si atom -5583.437126 kJ/mol
# Density = 2.234214 g / cm^3
# Si number density = 22.393106 Si / 1000 Ang^3
#
#
#
# Elastic Constant Matrix: (Units=GPa)
#
#
# Indices 1 2 3 4 5 6 
#
# 1 146.0381 -2.5953 32.5411 0.0000 -13.3973 0.0000
# 2 -2.5953 48.9224 -2.4612 0.0000 -2.8482 0.0000
# 3 32.5411 -2.4612 101.8485 0.0000 -17.7598 0.0000
# 4 0.0000 0.0000 0.0000 12.8020 0.0000 5.0315
# 5 -13.3973 -2.8482 -17.7598 0.0000 23.1340 0.0000
# 6 0.0000 0.0000 0.0000 5.0315 0.0000 18.8617
#
#
#
# Elastic Compliance Matrix: (Units=1/GPa)
#
#
# Indices 1 2 3 4 5 6 
#
# 1 0.007549 0.000480 -0.001879 0.000000 0.002988 0.000000
# 2 0.000480 0.020723 0.000971 0.000000 0.003574 0.000000
# 3 -0.001879 0.000971 0.011861 0.000000 0.008137 0.000000
# 4 0.000000 0.000000 0.000000 0.087261 0.000000 -0.023278
# 5 0.002988 0.003574 0.008137 0.000000 0.051644 0.000000
# 6 0.000000 0.000000 0.000000 -0.023278 0.000000 0.059227
#
#
# Mechanical properties :
#
#
# Convention : Reuss Voigt Hill
#
# Bulk Modulus (GPa) = 25.46093 39.08646 32.27369
# Shear Modulus (GPa) = 19.82441 28.91451 24.36946
#
# Velocity S-wave (km/s) = 2.97861 3.59726 3.30245
# Velocity P-wave (km/s) = 4.81915 5.89460 5.38379
#
# Compressibility (1/GPa) = 0.03927587
#
# Stress axis : x y z
#
# Youngs Moduli (GPa) = 132.46917 48.25571 84.30777
#
# Poissons Ratio (x) = -0.02316 0.15844
# Poissons Ratio (y) = -0.06357 -0.08184
# Poissons Ratio (z) = 0.24895 -0.04684
#
# Static dielectric constant tensor:
#      x y z
#    x 1.821880 0.000000 -0.014160 
#    y 0.000000 1.869670 0.000000 
#    z -0.014160 0.000000 1.836460 
# 
# From -- ./inp_files/338660.got.cif
#   From: 2010.05.17/outbox.cif.g08.bks.cpg/sg12_170_cif.got.tgz:338660.got - 2010.06.03 13:09:07.
