data_PCOD9186627
_publ_section_title
;
Structure prediction by ZEFSAII (Michael W. Deem and Ramdas Pophale) SiO2 
 PCOD9186627
Probable space group: C 2/M
;
_chemical_formula_sum "Si O2"
_cell_formula_units_Z 48
_cell_length_a 26.251745
_cell_length_b 8.034780
_cell_length_c 12.155853
_cell_angle_alpha 90.000000
_cell_angle_beta 90.441239
_cell_angle_gamma 90.000000
_cell_volume 2563.921523
_symmetry_space_group_name_H-M "C 2/M"
_symmetry_group_IT_number 12
_symmetry_cell_setting 'monoclinic'
loop_
_space_group_symop_operation_xyz
x,y,z
-x,y,-z
-x,-y,-z
x,-y,z
1/2+x,1/2+y,z
1/2-x,1/2+y,-z
1/2-x,1/2-y,-z
1/2+x,1/2-y,z
loop_
_atom_site_type_symbol
_atom_site_label
_atom_site_fract_x
_atom_site_fract_y
_atom_site_fract_z
Si Si1 0.190703 0.698789 0.500121
Si Si2 0.657403 0.299565 0.260911
Si Si3 0.946479 0.799719 0.132245
Si Si4 0.648624 0.200389 0.731978
Si Si5 0.244387 0.700820 0.873805
Si Si6 0.438017 0.703476 0.882096
O O1 0.189555 0.500000 0.503091
O O2 0.250000 0.750000 0.500000
O O3 0.163554 0.755661 0.388259
O O4 0.163334 0.762051 0.610572
O O5 0.657197 0.500000 0.252936
O O6 0.707357 0.238961 0.196238
O O7 0.606423 0.238323 0.199501
O O8 0.906435 0.746081 0.222799
O O9 0.004855 0.743662 0.149702
O O10 0.947339 0.000000 0.130230
O O11 0.929625 0.744885 0.009037
O O12 0.692108 0.261206 0.817440
O O13 0.651593 0.000000 0.729412
O O14 0.244240 0.500000 0.868156
O O15 0.250000 0.750000 0.000000
O O16 0.437612 0.500000 0.881244
#
# Coordination Sequence:
#
# PCOD9186627 Si02
#       6
#     8   8   8   8   8   8
#     4  11  22  38  56  75 103 141 182 220 262 315
#     4  10  19  35  55  77 107 140 173 219 269 308
#     4   9  17  33  57  82 104 139 181 213 255 315
#     4  10  21  36  51  74 108 138 169 217 268 311
#     4  10  20  33  50  76 107 135 167 212 266 317
#     4   8  16  32  56  82 109 136 173 221 262 303
#
# _framework density 18.721323000000002
#
# number of rings (size 3 to 8) (size 9 to 14) (size 15 to 20)
#    0.000    2.333    1.667    2.500    0.000    4.000 
#    0.000    4.167    0.000    5.000    0.000    0.000 
#    0.000    0.000    0.000    0.000    0.000    0.000 
#
# Total GULP energy -133934.888785 kJ/mol
# GULP energy per Si atom -5580.620366 kJ/mol
# Density = 1.867871 g / cm^3
# Si number density = 18.721323 Si / 1000 Ang^3
#
#
#
# Elastic Constant Matrix: (Units=GPa)
#
#
# Indices 1 2 3 4 5 6 
#
# 1 104.0443 8.0478 61.5850 0.0000 -16.6327 0.0000
# 2 8.0478 9.0378 3.3789 0.0000 0.1639 0.0000
# 3 61.5850 3.3789 133.0237 0.0000 -23.0480 0.0000
# 4 0.0000 0.0000 0.0000 28.9753 0.0000 -1.1525
# 5 -16.6327 0.1639 -23.0480 0.0000 32.6369 0.0000
# 6 0.0000 0.0000 0.0000 -1.1525 0.0000 20.4674
#
#
#
# Elastic Compliance Matrix: (Units=1/GPa)
#
#
# Indices 1 2 3 4 5 6 
#
# 1 0.014418 -0.010717 -0.005834 0.000000 0.003282 0.000000
# 2 -0.010717 0.119919 0.000986 0.000000 -0.005368 0.000000
# 3 -0.005834 0.000986 0.011027 0.000000 0.004809 0.000000
# 4 0.000000 0.000000 0.000000 0.034590 0.000000 0.001948
# 5 0.003282 -0.005368 0.004809 0.000000 0.035735 0.000000
# 6 0.000000 0.000000 0.000000 0.001948 0.000000 0.048968
#
#
# Mechanical properties :
#
#
# Convention : Reuss Voigt Hill
#
# Bulk Modulus (GPa) = 8.75414 43.56994 26.16204
# Shear Modulus (GPa) = 14.97608 27.95552 21.46580
#
# Velocity S-wave (km/s) = 2.83140 3.86845 3.38982
# Velocity P-wave (km/s) = 3.92114 6.57849 5.41534
#
# Compressibility (1/GPa) = 0.11423168
#
# Stress axis : x y z
#
# Youngs Moduli (GPa) = 69.35646 8.33898 90.68933
#
# Poissons Ratio (x) = 0.08937 0.52911
# Poissons Ratio (y) = 0.74331 -0.08938
# Poissons Ratio (z) = 0.40465 -0.00822
#
# Static dielectric constant tensor:
#      x y z
#    x 1.639400 0.000000 -0.005160 
#    y 0.000000 1.675750 0.000000 
#    z -0.005160 0.000000 1.605950 
# 
# From -- ./inp_files/172043.got.cif
#   From: 2010.05.17/outbox.cif.g08.bks.cpg/sg12_87_cif.got.tgz:172043.got - 2010.06.03 13:09:07.
