data_PCOD9186657
_publ_section_title
;
Structure prediction by ZEFSAII (Michael W. Deem and Ramdas Pophale) SiO2 
 PCOD9186657
Probable space group: C 2/M
;
_chemical_formula_sum "Si O2"
_cell_formula_units_Z 64
_cell_length_a 29.899074
_cell_length_b 22.520441
_cell_length_c 13.752773
_cell_angle_alpha 90.000000
_cell_angle_beta 16.099419
_cell_angle_gamma 90.000000
_cell_volume 2567.925759
_symmetry_space_group_name_H-M "C 2/M"
_symmetry_group_IT_number 12
_symmetry_cell_setting 'monoclinic'
loop_
_space_group_symop_operation_xyz
x,y,z
-x,y,-z
-x,-y,-z
x,-y,z
1/2+x,1/2+y,z
1/2-x,1/2+y,-z
1/2-x,1/2-y,-z
1/2+x,1/2-y,z
loop_
_atom_site_type_symbol
_atom_site_label
_atom_site_fract_x
_atom_site_fract_y
_atom_site_fract_z
Si Si1 0.809701 0.687650 0.426234
Si Si2 0.156815 0.065944 0.103608
Si Si3 0.034932 0.641867 0.711861
Si Si4 0.085560 0.067801 0.555888
Si Si5 0.320505 0.355653 0.476467
Si Si6 0.376190 0.301889 0.840252
Si Si7 0.070254 0.570984 0.246830
Si Si8 0.892606 0.231572 0.493876
O O1 0.750000 0.750000 0.500000
O O2 0.824193 0.659332 0.504903
O O3 0.681137 0.648065 0.635253
O O4 0.000000 0.686979 0.000000
O O5 0.202999 0.135566 0.024355
O O6 0.000000 0.061844 0.500000
O O7 0.079742 0.065785 0.157909
O O8 0.238013 0.000000 0.950463
O O9 0.041239 0.594981 0.609762
O O10 0.010324 0.707220 0.719018
O O11 0.867241 0.626301 0.113374
O O12 0.075946 0.099277 0.678776
O O13 0.129867 0.000000 0.482087
O O14 0.245284 0.092067 0.162286
O O15 0.349569 0.294249 0.477688
O O16 0.500000 0.280758 0.500000
O O17 0.491056 0.313071 0.693522
O O18 0.251666 0.252144 0.134667
O O19 0.077049 0.500000 0.231573
O O20 0.000000 0.588356 0.500000
#
# Coordination Sequence:
#
# PCOD9186657 Si02
#       8
#     8   8   8   8   8   8   8   8
#     4  10  20  35  58  82 109 146 184 233 288 347
#     4   9  18  33  52  74 102 142 192 235 272 326
#     4  10  21  36  56  85 112 144 188 233 281 337
#     4   9  17  32  54  76 105 146 191 236 280 334
#     4  10  19  35  55  79 113 139 186 236 285 344
#     4  11  24  37  52  79 114 154 189 229 285 340
#     4   9  19  35  56  81 112 153 192 230 282 342
#     4  12  21  36  54  79 112 150 185 235 282 344
#
# _framework density 24.922840000000001
#
# number of rings (size 3 to 8) (size 9 to 14) (size 15 to 20)
#    0.000    2.000    3.750    0.375    0.000    2.500 
#    0.000    2.500    0.000    3.750    0.000    0.000 
#    0.000    3.000    0.000    0.000    0.000    0.000 
#
# Total GULP energy -178178.231439 kJ/mol
# GULP energy per Si atom -5568.069732 kJ/mol
# Density = 2.486611 g / cm^3
# Si number density = 24.922840 Si / 1000 Ang^3
#
#
#
# Elastic Constant Matrix: (Units=GPa)
#
#
# Indices 1 2 3 4 5 6 
#
# 1 166.6855 47.8847 12.1517 0.0092 -32.6679 0.0060
# 2 47.8847 98.9654 3.4875 0.0028 -1.5517 0.0003
# 3 12.1517 3.4875 71.4295 0.0061 -7.6050 -0.0028
# 4 0.0092 0.0028 0.0061 12.5608 -0.0070 -0.1779
# 5 -32.6679 -1.5517 -7.6050 -0.0070 29.1432 -0.0003
# 6 0.0060 0.0003 -0.0028 -0.1779 -0.0003 -39.8753
#
#
#
# Elastic Compliance Matrix: (Units=1/GPa)
#
#
# Indices 1 2 3 4 5 6 
#
# 1 0.009220 -0.004293 -0.000291 0.000000 0.010030 0.000001
# 2 -0.004293 0.012126 -0.000314 -0.000002 -0.004249 0.000000
# 3 -0.000291 -0.000314 0.014429 -0.000005 0.003422 -0.000001
# 4 0.000000 -0.000002 -0.000005 0.079608 0.000018 -0.000355
# 5 0.010030 -0.004249 0.003422 0.000018 0.046224 0.000001
# 6 0.000001 0.000000 -0.000001 -0.000355 0.000001 -0.025077
#
#
# Mechanical properties :
#
#
# Convention : Reuss Voigt Hill
#
# Bulk Modulus (GPa) = 38.49373 51.56979 45.03176
# Shear Modulus (GPa) = 32.26091 18.60285 25.43188
#
# Velocity S-wave (km/s) = 3.60172 2.73503 3.19787
# Velocity P-wave (km/s) = 5.72497 5.54171 5.63408
#
# Compressibility (1/GPa) = 0.02597826
#
# Stress axis : x y z
#
# Youngs Moduli (GPa) = 108.46296 82.46473 69.30474
#
# Poissons Ratio (x) = 0.35406 0.02016
# Poissons Ratio (y) = 0.46568 0.02176
# Poissons Ratio (z) = 0.03156 0.02590
#
# Static dielectric constant tensor:
#      x y z
#    x 2.127700 0.000000 -0.010080 
#    y 0.000000 2.028440 0.000000 
#    z -0.010080 0.000000 2.195540 
# 
# From -- ./inp_files/251918.got.cif
#   From: 2010.05.17/outbox.cif.g08.bks.cpg/sg12_126_cif.got.tgz:251918.got - 2010.06.03 13:09:07.
