data_PCOD9186508
_publ_section_title
;
Structure prediction by ZEFSAII (Michael W. Deem and Ramdas Pophale) SiO2 
 PCOD9186508
Probable space group: C 2/M
;
_chemical_formula_sum "Si O2"
_cell_formula_units_Z 56
_cell_length_a 25.143721
_cell_length_b 16.053044
_cell_length_c 11.503658
_cell_angle_alpha 90.000000
_cell_angle_beta 141.662429
_cell_angle_gamma 90.000000
_cell_volume 2880.183389
_symmetry_space_group_name_H-M "C 2/M"
_symmetry_group_IT_number 12
_symmetry_cell_setting 'monoclinic'
loop_
_space_group_symop_operation_xyz
x,y,z
-x,y,-z
-x,-y,-z
x,-y,z
1/2+x,1/2+y,z
1/2-x,1/2+y,-z
1/2-x,1/2-y,-z
1/2+x,1/2-y,z
loop_
_atom_site_type_symbol
_atom_site_label
_atom_site_fract_x
_atom_site_fract_y
_atom_site_fract_z
Si Si1 0.902744 0.271133 0.586977
Si Si2 0.386981 0.626719 0.411516
Si Si3 0.779284 0.594538 0.487267
Si Si4 0.591713 0.341541 0.178242
Si Si5 0.093753 0.737487 0.957946
Si Si6 0.290570 0.908557 0.783227
Si Si7 0.083932 0.907328 0.804559
O O1 0.884277 0.225676 0.433809
O O2 0.834485 0.339542 0.508865
O O3 0.900015 0.197419 0.679619
O O4 0.001832 0.297975 0.760164
O O5 0.307798 0.590017 0.345860
O O6 0.381881 0.603953 0.267857
O O7 0.480220 0.597046 0.615492
O O8 0.802157 0.500000 0.496169
O O9 0.677534 0.608424 0.298108
O O10 0.796082 0.606647 0.654100
O O11 0.500000 0.385862 0.000000
O O12 0.587767 0.264332 0.082273
O O13 0.110310 0.825583 0.922070
O O14 0.164207 0.666323 0.071497
O O15 0.328736 0.000000 0.871694
O O16 0.107419 0.000000 0.888919
#
# Coordination Sequence:
#
# PCOD9186508 Si02
#       7
#     8   8   8   8   8   8   8
#     4  10  19  36  57  79 111 152 188 227 279 335
#     4  10  19  36  61  81 106 146 187 236 281 331
#     4  11  22  34  54  83 114 152 191 226 272 335
#     4  10  19  35  53  79 111 143 179 226 288 343
#     4  10  22  35  56  82 114 153 183 231 288 323
#     4  11  21  34  55  84 114 149 196 234 268 326
#     4  10  21  38  59  84 111 142 188 237 285 341
#
# _framework density 19.443207000000001
#
# number of rings (size 3 to 8) (size 9 to 14) (size 15 to 20)
#    0.000    1.714    2.857    3.000    0.000    2.000 
#    0.000    1.429    0.000    0.857    0.000    4.000 
#    0.000    0.000    0.000    0.000    0.000    0.000 
#
# Total GULP energy -156208.799568 kJ/mol
# GULP energy per Si atom -5578.885699 kJ/mol
# Density = 1.939895 g / cm^3
# Si number density = 19.443207 Si / 1000 Ang^3
#
#
#
# Elastic Constant Matrix: (Units=GPa)
#
#
# Indices 1 2 3 4 5 6 
#
# 1 56.7156 50.1433 12.1597 0.0000 7.4670 0.0000
# 2 50.1433 127.9118 55.9008 0.0000 17.4385 0.0000
# 3 12.1597 55.9008 54.1203 0.0000 10.8849 0.0000
# 4 0.0000 0.0000 0.0000 10.7835 0.0000 -1.7090
# 5 7.4670 17.4385 10.8849 0.0000 18.3002 0.0000
# 6 0.0000 0.0000 0.0000 -1.7090 0.0000 -2.3585
#
#
#
# Elastic Compliance Matrix: (Units=1/GPa)
#
#
# Indices 1 2 3 4 5 6 
#
# 1 0.029702 -0.015621 0.010115 0.000000 -0.003250 0.000000
# 2 -0.015621 0.022967 -0.019416 0.000000 -0.003963 0.000000
# 3 0.010115 -0.019416 0.037903 0.000000 -0.008170 0.000000
# 4 0.000000 0.000000 0.000000 0.083182 0.000000 -0.060273
# 5 -0.003250 -0.003963 -0.008170 0.000000 0.064607 0.000000
# 6 0.000000 0.000000 0.000000 -0.060273 0.000000 -0.380321
#
#
# Mechanical properties :
#
#
# Convention : Reuss Voigt Hill
#
# Bulk Modulus (GPa) = 24.55293 52.79503 38.67398
# Shear Modulus (GPa) = -63.66111 13.38130 -25.13991
#
# Velocity S-wave (km/s) = -5.72828 2.62625 -3.59972
# Velocity P-wave (km/s) = 5.57633 6.03396 1.62991
#
# Compressibility (1/GPa) = 0.04072834
#
# Stress axis : x y z
#
# Youngs Moduli (GPa) = 33.66774 43.54034 26.38347
#
# Poissons Ratio (x) = 0.68015 -0.26688
# Poissons Ratio (y) = 0.52593 0.51226
# Poissons Ratio (z) = -0.34056 0.84538
#
# Static dielectric constant tensor:
#      x y z
#    x 1.688240 0.000000 0.003190 
#    y 0.000000 1.685960 0.000000 
#    z 0.003190 0.000000 1.707250 
# 
# From -- ./inp_files/183558.got.cif
#   From: 2010.05.17/outbox.cif.g08.bks.cpg/sg12_92_cif.got.tgz:183558.got - 2010.06.03 13:09:07.
