data_PCOD9186609
_publ_section_title
;
Structure prediction by ZEFSAII (Michael W. Deem and Ramdas Pophale) SiO2 
 PCOD9186609
Probable space group: C 2/M
;
_chemical_formula_sum "Si O2"
_cell_formula_units_Z 56
_cell_length_a 14.927317
_cell_length_b 7.578406
_cell_length_c 30.966697
_cell_angle_alpha 90.000000
_cell_angle_beta 127.436071
_cell_angle_gamma 90.000000
_cell_volume 2781.586437
_symmetry_space_group_name_H-M "C 2/M"
_symmetry_group_IT_number 12
_symmetry_cell_setting 'monoclinic'
loop_
_space_group_symop_operation_xyz
x,y,z
-x,y,-z
-x,-y,-z
x,-y,z
1/2+x,1/2+y,z
1/2-x,1/2+y,-z
1/2-x,1/2-y,-z
1/2+x,1/2-y,z
loop_
_atom_site_type_symbol
_atom_site_label
_atom_site_fract_x
_atom_site_fract_y
_atom_site_fract_z
Si Si1 0.077697 0.713144 0.561929
Si Si2 0.667025 0.710239 0.354690
Si Si3 0.706337 0.210143 0.938983
Si Si4 0.090412 0.703337 0.059564
Si Si5 0.552138 0.784100 0.143358
Si Si6 0.703498 0.786727 0.267221
Si Si7 0.541088 0.289649 0.649391
O O1 0.081508 0.500000 0.561018
O O2 0.207252 0.778997 0.597285
O O3 0.028379 0.759756 0.594451
O O4 0.000000 0.776505 0.500000
O O5 0.670666 0.500000 0.363203
O O6 0.654126 0.739251 0.299661
O O7 0.562943 0.780740 0.352619
O O8 0.791334 0.291741 0.929681
O O9 0.578593 0.269303 0.893982
O O10 0.709746 0.000000 0.934617
O O11 0.750000 0.250000 0.000000
O O12 0.052459 0.500000 0.054491
O O13 0.095816 0.776557 0.109290
O O14 0.000000 0.786447 0.000000
O O15 0.626711 0.722614 0.205328
O O16 0.555693 0.000000 0.146056
O O17 0.833156 0.721358 0.302507
O O18 0.707248 0.000000 0.266662
O O19 0.544569 0.500000 0.657722
#
# Coordination Sequence:
#
# PCOD9186609 Si02
#       7
#     8   8   8   8   8   8   8
#     4   9  18  32  49  72 104 138 168 200 246 299
#     4   9  18  33  51  73 102 132 164 211 255 287
#     4  11  21  35  53  75 100 130 165 203 247 300
#     4  10  19  35  55  75 100 133 164 199 252 306
#     4   9  19  35  53  72 101 133 162 201 254 307
#     4   9  18  34  53  72  95 130 170 205 247 302
#     4   9  18  32  51  73  98 130 168 209 250 290
#
# _framework density 20.132396
#
# number of rings (size 3 to 8) (size 9 to 14) (size 15 to 20)
#    0.000    2.571    1.429    0.429    0.000    2.857 
#    0.000    3.571    0.000    0.000    0.000    0.000 
#    0.000    0.000    0.000    0.000    0.000    0.000 
#
# Total GULP energy -156212.499855 kJ/mol
# GULP energy per Si atom -5579.017852 kJ/mol
# Density = 2.008657 g / cm^3
# Si number density = 20.132396 Si / 1000 Ang^3
#
#
#
# Elastic Constant Matrix: (Units=GPa)
#
#
# Indices 1 2 3 4 5 6 
#
# 1 197.8630 -5.6583 111.9697 0.0000 -7.2879 0.0000
# 2 -5.6583 43.3378 -7.0292 0.0000 4.1282 0.0000
# 3 111.9697 -7.0292 195.9351 0.0000 -6.0936 0.0000
# 4 0.0000 0.0000 0.0000 13.1912 0.0000 -2.4239
# 5 -7.2879 4.1282 -6.0936 0.0000 12.4915 0.0000
# 6 0.0000 0.0000 0.0000 -2.4239 0.0000 0.3992
#
#
#
# Elastic Compliance Matrix: (Units=1/GPa)
#
#
# Indices 1 2 3 4 5 6 
#
# 1 0.007536 0.000078 -0.004232 0.000000 0.002307 0.000000
# 2 0.000078 0.023900 0.000577 0.000000 -0.007571 -0.000002
# 3 -0.004232 0.000577 0.007575 0.000000 0.001035 0.000000
# 4 0.000000 0.000000 0.000000 -0.654302 0.000000 -3.973326
# 5 0.002307 -0.007571 0.001035 0.000000 0.084407 0.000002
# 6 0.000000 -0.000002 0.000000 -3.973326 0.000002-21.623207
#
#
# Mechanical properties :
#
#
# Convention : Reuss Voigt Hill
#
# Bulk Modulus (GPa) = 31.39008 70.63335 51.01172
# Shear Modulus (GPa) = -0.22587 27.73995 13.75704
#
# Velocity S-wave (km/s) = -0.33532 3.71600 2.61689
# Velocity P-wave (km/s) = 3.93392 7.31930 5.87571
#
# Compressibility (1/GPa) = 0.03185720
#
# Stress axis : x y z
#
# Youngs Moduli (GPa) = 132.69477 41.84175 132.01108
#
# Poissons Ratio (x) = -0.00325 0.55868
# Poissons Ratio (y) = -0.01032 -0.07623
# Poissons Ratio (z) = 0.56157 -0.02416
#
# Static dielectric constant tensor:
#      x y z
#    x 1.684620 0.000000 0.012460 
#    y 0.000000 1.770140 0.000000 
#    z 0.012460 0.000000 1.694100 
# 
# From -- ./inp_files/337878.got.cif
#   From: 2010.05.17/outbox.cif.g08.bks.cpg/sg12_169_cif.got.tgz:337878.got - 2010.06.03 13:09:07.
