data_PCOD9186403
_publ_section_title
;
Structure prediction by ZEFSAII (Michael W. Deem and Ramdas Pophale) SiO2 
 PCOD9186403
Probable space group: C 2/M
;
_chemical_formula_sum "Si O2"
_cell_formula_units_Z 48
_cell_length_a 21.000921
_cell_length_b 8.626566
_cell_length_c 29.488779
_cell_angle_alpha 90.000000
_cell_angle_beta 29.245866
_cell_angle_gamma 90.000000
_cell_volume 2610.053842
_symmetry_space_group_name_H-M "C 2/M"
_symmetry_group_IT_number 12
_symmetry_cell_setting 'monoclinic'
loop_
_space_group_symop_operation_xyz
x,y,z
-x,y,-z
-x,-y,-z
x,-y,z
1/2+x,1/2+y,z
1/2-x,1/2+y,-z
1/2-x,1/2-y,-z
1/2+x,1/2-y,z
loop_
_atom_site_type_symbol
_atom_site_label
_atom_site_fract_x
_atom_site_fract_y
_atom_site_fract_z
Si Si1 0.025373 0.310969 0.932415
Si Si2 0.271873 0.184377 0.435790
Si Si3 0.269006 0.187433 0.038406
Si Si4 0.025155 0.685636 0.536112
Si Si5 0.444790 0.686967 0.754644
Si Si6 0.180391 0.812773 0.265222
O O1 0.025162 0.500000 0.932983
O O2 0.168828 0.262978 0.827415
O O3 0.000000 0.261789 0.000000
O O4 0.906440 0.260845 0.974646
O O5 0.250000 0.250000 0.500000
O O6 0.157217 0.244978 0.474783
O O7 0.413111 0.239091 0.331138
O O8 0.266264 0.000000 0.441569
O O9 0.152346 0.234499 0.144736
O O10 0.269879 0.000000 0.036900
O O11 0.250000 0.250000 0.000000
O O12 0.034875 0.500000 0.531207
O O13 0.000000 0.735121 0.500000
O O14 0.907169 0.739400 0.641452
O O15 0.457709 0.500000 0.747863
O O16 0.379740 0.726647 0.746630
O O17 0.175393 0.000000 0.272419
#
# Coordination Sequence:
#
# PCOD9186403 Si02
#       6
#     8   8   8   8   8   8
#     4   9  16  32  59  87 111 146 196 241 283 338
#     4  12  24  39  63  91 120 156 201 249 298 360
#     4  10  21  37  58  86 123 158 195 243 296 350
#     4  11  25  43  61  86 123 160 195 246 307 358
#     4  10  20  36  60  89 119 157 200 247 298 351
#     4  10  19  34  62  91 114 150 201 249 293 349
#
# _framework density 18.390425
#
# number of rings (size 3 to 8) (size 9 to 14) (size 15 to 20)
#    0.000    1.667    3.333    2.000    0.000    3.333 
#    0.000    4.167    0.000    1.000    0.000    0.000 
#    0.000    0.000    0.000    0.000    0.000    0.000 
#
# Total GULP energy -134088.493409 kJ/mol
# GULP energy per Si atom -5587.020559 kJ/mol
# Density = 1.834857 g / cm^3
# Si number density = 18.390425 Si / 1000 Ang^3
#
#
#
# Elastic Constant Matrix: (Units=GPa)
#
#
# Indices 1 2 3 4 5 6 
#
# 1 197.5407 50.0346 128.6992 0.0016 -4.8719 -0.0031
# 2 50.0346 35.6717 52.9489 0.0045 -0.8955 -0.0034
# 3 128.6992 52.9489 202.6624 0.0000 -12.3700 0.0000
# 4 0.0016 0.0045 0.0000 29.8700 -0.0003 0.8868
# 5 -4.8719 -0.8955 -12.3700 -0.0003 40.7921 0.0016
# 6 -0.0031 -0.0034 0.0000 0.8868 0.0016 23.4191
#
#
#
# Elastic Compliance Matrix: (Units=1/GPa)
#
#
# Indices 1 2 3 4 5 6 
#
# 1 0.009667 -0.007232 -0.004268 0.000001 -0.000298 0.000000
# 2 -0.007232 0.051490 -0.009010 -0.000008 -0.002466 0.000007
# 3 -0.004268 -0.009010 0.010143 0.000002 0.002368 -0.000002
# 4 0.000001 -0.000008 0.000002 0.033516 0.000001 -0.001269
# 5 -0.000298 -0.002466 0.002368 0.000001 0.025143 -0.000002
# 6 0.000000 0.000007 -0.000002 -0.001269 -0.000002 0.042748
#
#
# Mechanical properties :
#
#
# Convention : Reuss Voigt Hill
#
# Bulk Modulus (GPa) = 33.02524 99.91555 66.47039
# Shear Modulus (GPa) = 22.33915 32.42904 27.38410
#
# Velocity S-wave (km/s) = 3.48906 4.20380 3.86300
# Velocity P-wave (km/s) = 5.85049 8.83237 7.49129
#
# Compressibility (1/GPa) = 0.03027987
#
# Stress axis : x y z
#
# Youngs Moduli (GPa) = 103.44247 19.42109 98.58853
#
# Poissons Ratio (x) = 0.14046 0.42075
# Poissons Ratio (y) = 0.74813 0.88832
# Poissons Ratio (z) = 0.44146 0.17499
#
# Static dielectric constant tensor:
#      x y z
#    x 1.607700 0.000000 -0.008350 
#    y 0.000000 1.630380 0.000000 
#    z -0.008350 0.000000 1.612000 
# 
# From -- ./inp_files/365371.got.cif
#   From: 2010.05.17/outbox.cif.g08.bks.cpg/sg12_183_cif.got.tgz:365371.got - 2010.06.03 13:09:07.
