data_PCOD9186662
_publ_section_title
;
Structure prediction by ZEFSAII (Michael W. Deem and Ramdas Pophale) SiO2 
 PCOD9186662
Probable space group: C 2/M
;
_chemical_formula_sum "Si O2"
_cell_formula_units_Z 48
_cell_length_a 14.396253
_cell_length_b 27.975468
_cell_length_c 10.562296
_cell_angle_alpha 90.000000
_cell_angle_beta 29.679096
_cell_angle_gamma 90.000000
_cell_volume 2106.273126
_symmetry_space_group_name_H-M "C 2/M"
_symmetry_group_IT_number 12
_symmetry_cell_setting 'monoclinic'
loop_
_space_group_symop_operation_xyz
x,y,z
-x,y,-z
-x,-y,-z
x,-y,z
1/2+x,1/2+y,z
1/2-x,1/2+y,-z
1/2-x,1/2-y,-z
1/2+x,1/2-y,z
loop_
_atom_site_type_symbol
_atom_site_label
_atom_site_fract_x
_atom_site_fract_y
_atom_site_fract_z
Si Si1 0.322331 0.743847 0.134908
Si Si2 0.773592 0.051974 0.655303
Si Si3 0.787413 0.187161 0.921015
Si Si4 0.103478 0.342883 0.510304
Si Si5 0.172735 0.083101 0.141775
Si Si6 0.415996 0.054731 0.383512
O O1 0.194170 0.787090 0.235822
O O2 0.237902 0.702009 0.323709
O O3 0.500000 0.762544 0.000000
O O4 0.356487 0.719280 0.956857
O O5 0.776375 0.087422 0.769129
O O6 0.630054 0.057254 0.711725
O O7 0.984508 0.053063 0.350346
O O8 0.743355 0.000000 0.751990
O O9 0.879867 0.136265 0.835062
O O10 0.563827 0.174444 0.199256
O O11 0.178530 0.395933 0.454401
O O12 0.000000 0.349806 0.500000
O O13 0.361465 0.062697 0.855911
O O14 0.364481 0.000000 0.484597
#
# Coordination Sequence:
#
# PCOD9186662 Si02
#       6
#     8   8   8   8   8   8
#     4  10  21  38  60  80 112 148 187 240 290 332
#     4  10  20  33  53  87 118 149 192 231 283 350
#     4   9  21  39  54  85 111 145 196 230 282 352
#     4   9  20  39  57  79 115 147 188 239 279 342
#     4  10  19  35  55  79 121 149 183 238 288 332
#     4  10  20  34  58  84 114 153 193 233 285 341
#
# _framework density 22.789068
#
# number of rings (size 3 to 8) (size 9 to 14) (size 15 to 20)
#    0.000    2.333    0.000    2.500    2.333    5.000 
#   15.000    0.000    0.000    0.500    0.000    0.000 
#    0.000    0.000    0.000    0.000    0.000    0.000 
#
# Total GULP energy -133690.331261 kJ/mol
# GULP energy per Si atom -5570.430469 kJ/mol
# Density = 2.273720 g / cm^3
# Si number density = 22.789068 Si / 1000 Ang^3
#
#
#
# Elastic Constant Matrix: (Units=GPa)
#
#
# Indices 1 2 3 4 5 6 
#
# 1 49.1333 13.2557 12.3968 0.0000 -16.9002 0.0000
# 2 13.2557 115.2692 18.1187 0.0000 4.7638 0.0000
# 3 12.3968 18.1187 54.0757 0.0001 -9.4368 0.0000
# 4 0.0000 0.0000 0.0001 18.9789 0.0000 8.5792
# 5 -16.9002 4.7638 -9.4368 0.0000 15.7147 0.0000
# 6 0.0000 0.0000 0.0000 8.5792 0.0000 34.8764
#
#
#
# Elastic Compliance Matrix: (Units=1/GPa)
#
#
# Indices 1 2 3 4 5 6 
#
# 1 0.035764 -0.005943 0.000915 0.000000 0.040812 0.000000
# 2 -0.005943 0.010536 -0.004290 0.000000 -0.012161 0.000000
# 3 0.000915 -0.004290 0.022474 0.000000 0.015780 0.000000
# 4 0.000000 0.000000 0.000000 0.059282 0.000000 -0.014583
# 5 0.040812 -0.012161 0.015780 0.000000 0.120689 0.000000
# 6 0.000000 0.000000 0.000000 -0.014583 0.000000 0.032260
#
#
# Mechanical properties :
#
#
# Convention : Reuss Voigt Hill
#
# Bulk Modulus (GPa) = 19.94552 34.00230 26.97391
# Shear Modulus (GPa) = 15.80514 25.56115 20.68314
#
# Velocity S-wave (km/s) = 2.63637 3.35272 3.01589
# Velocity P-wave (km/s) = 4.24718 5.47179 4.89791
#
# Compressibility (1/GPa) = 0.05013658
#
# Stress axis : x y z
#
# Youngs Moduli (GPa) = 27.96142 94.91528 44.49579
#
# Poissons Ratio (x) = 0.56410 -0.04070
# Poissons Ratio (y) = 0.16618 0.19088
# Poissons Ratio (z) = -0.02558 0.40718
#
# Static dielectric constant tensor:
#      x y z
#    x 1.776070 0.000000 0.033470 
#    y 0.000000 1.906960 0.000000 
#    z 0.033470 0.000000 1.960890 
# 
# From -- ./inp_files/149608.got.cif
#   From: 2010.05.17/outbox.cif.g08.bks.cpg/sg12_75_cif.got.tgz:149608.got - 2010.06.03 13:09:07.
