data_PCOD9186673
_publ_section_title
;
Structure prediction by ZEFSAII (Michael W. Deem and Ramdas Pophale) SiO2 
 PCOD9186673
Probable space group: C 2/M
;
_chemical_formula_sum "Si O2"
_cell_formula_units_Z 56
_cell_length_a 11.018621
_cell_length_b 24.304012
_cell_length_c 8.976151
_cell_angle_alpha 90.000000
_cell_angle_beta 78.700581
_cell_angle_gamma 90.000000
_cell_volume 2357.190200
_symmetry_space_group_name_H-M "C 2/M"
_symmetry_group_IT_number 12
_symmetry_cell_setting 'monoclinic'
loop_
_space_group_symop_operation_xyz
x,y,z
-x,y,-z
-x,-y,-z
x,-y,z
1/2+x,1/2+y,z
1/2-x,1/2+y,-z
1/2-x,1/2-y,-z
1/2+x,1/2-y,z
loop_
_atom_site_type_symbol
_atom_site_label
_atom_site_fract_x
_atom_site_fract_y
_atom_site_fract_z
Si Si1 0.184651 0.561938 0.856577
Si Si2 0.386731 0.169270 0.931031
Si Si3 0.122653 0.825320 0.873889
Si Si4 0.475973 0.907584 0.679785
Si Si5 0.706870 0.441465 0.732281
Si Si6 0.624264 0.716735 0.540980
Si Si7 0.639094 0.593051 0.430589
O O1 0.183394 0.500000 0.919337
O O2 0.313148 0.574548 0.741058
O O3 0.086158 0.565814 0.745761
O O4 0.146988 0.612420 0.971912
O O5 0.251235 0.193308 0.923577
O O6 0.448503 0.151825 0.759879
O O7 0.500000 0.195493 0.000000
O O8 0.143338 0.889563 0.825121
O O9 0.104942 0.796001 0.719628
O O10 0.000000 0.820103 0.000000
O O11 0.500000 0.903928 0.500000
O O12 0.350291 0.940111 0.738870
O O13 0.648905 0.500000 0.782390
O O14 0.710232 0.432067 0.553696
O O15 0.500000 0.741714 0.500000
O O16 0.750000 0.750000 0.500000
O O17 0.645321 0.658979 0.448031
O O18 0.500000 0.576342 0.500000
#
# Coordination Sequence:
#
# PCOD9186673 Si02
#       7
#     8   8   8   8   8   8   8
#     4  11  22  35  58  91 136 189 232 274 328 391
#     4   9  22  39  58  95 136 185 235 277 324 389
#     4  10  23  44  70 100 142 184 217 278 349 401
#     4  10  19  35  55  80 125 180 238 292 326 363
#     4  10  20  34  55  91 133 180 234 272 314 388
#     4  10  24  51  78 106 132 170 218 286 356 423
#     4  10  22  38  60  89 133 174 217 274 335 393
#
# _framework density 23.757097999999999
#
# number of rings (size 3 to 8) (size 9 to 14) (size 15 to 20)
#    0.000    2.000    1.429    0.857    6.000    6.857 
#   10.286    0.714    0.000    0.000    0.000    0.000 
#    0.000    0.000    0.000    0.000    0.000    0.000 
#
# Total GULP energy -156549.222207 kJ/mol
# GULP energy per Si atom -5591.043650 kJ/mol
# Density = 2.370303 g / cm^3
# Si number density = 23.757098 Si / 1000 Ang^3
#
#
#
# Elastic Constant Matrix: (Units=GPa)
#
#
# Indices 1 2 3 4 5 6 
#
# 1 163.7629 25.8681 51.3436 0.0000 -1.1839 0.0000
# 2 25.8681 72.0868 44.9571 0.0000 -7.6631 0.0000
# 3 51.3436 44.9571 132.1945 0.0000 -8.1568 0.0000
# 4 0.0000 0.0000 0.0000 -0.9725 0.0000 -13.5406
# 5 -1.1839 -7.6631 -8.1568 0.0000 42.4664 0.0000
# 6 0.0000 0.0000 0.0000 -13.5406 0.0000 18.6547
#
#
#
# Elastic Compliance Matrix: (Units=1/GPa)
#
#
# Indices 1 2 3 4 5 6 
#
# 1 0.007022 -0.001079 -0.002389 0.000000 -0.000458 0.000000
# 2 -0.001079 0.017950 -0.005553 0.000000 0.002142 0.000000
# 3 -0.002389 -0.005553 0.010439 0.000000 0.000936 0.000000
# 4 0.000000 0.000000 0.000000 -0.092584 0.000000 -0.067203
# 5 -0.000458 0.002142 0.000936 0.000000 0.024102 0.000000
# 6 0.000000 0.000000 0.000000 -0.067203 0.000000 0.004826
#
#
# Mechanical properties :
#
#
# Convention : Reuss Voigt Hill
#
# Bulk Modulus (GPa) = 57.57212 68.04241 62.80726
# Shear Modulus (GPa) = -1133.27917 28.42143 -552.42887
#
# Velocity S-wave (km/s) = -21.86466 3.46256 -15.26555
# Velocity P-wave (km/s) = 24.76149 6.68497 16.85886
#
# Compressibility (1/GPa) = 0.01736952
#
# Stress axis : x y z
#
# Youngs Moduli (GPa) = 142.40048 55.70886 95.79622
#
# Poissons Ratio (x) = 0.06010 0.22884
# Poissons Ratio (y) = 0.15363 0.53200
# Poissons Ratio (z) = 0.34017 0.30938
#
# Static dielectric constant tensor:
#      x y z
#    x 2.060020 0.000000 0.016800 
#    y 0.000000 1.931620 0.000000 
#    z 0.016800 0.000000 1.876250 
# 
# From -- ./inp_files/54194.got.cif
#   From: 2010.05.17/outbox.cif.g08.bks.cpg/sg12_28_cif.got.tgz:54194.got - 2010.06.03 13:09:07.
