data_PCOD9186367
_publ_section_title
;
Structure prediction by ZEFSAII (Michael W. Deem and Ramdas Pophale) SiO2 
 PCOD9186367
Probable space group: C 2/M
;
_chemical_formula_sum "Si O2"
_cell_formula_units_Z 48
_cell_length_a 21.988565
_cell_length_b 10.964957
_cell_length_c 14.750039
_cell_angle_alpha 90.000000
_cell_angle_beta 42.824181
_cell_angle_gamma 90.000000
_cell_volume 2417.390350
_symmetry_space_group_name_H-M "C 2/M"
_symmetry_group_IT_number 12
_symmetry_cell_setting 'monoclinic'
loop_
_space_group_symop_operation_xyz
x,y,z
-x,y,-z
-x,-y,-z
x,-y,z
1/2+x,1/2+y,z
1/2-x,1/2+y,-z
1/2-x,1/2-y,-z
1/2+x,1/2-y,z
loop_
_atom_site_type_symbol
_atom_site_label
_atom_site_fract_x
_atom_site_fract_y
_atom_site_fract_z
Si Si1 0.167293 0.748530 0.160315
Si Si2 0.571255 0.000000 0.291041
Si Si3 0.228909 0.744925 0.301141
Si Si4 0.687699 0.356780 0.525072
Si Si5 0.481984 0.357801 0.782152
Si Si6 0.092691 0.860217 0.951163
Si Si7 0.875437 0.500000 0.555213
O O1 0.118684 0.618896 0.201831
O O2 0.198224 0.763041 0.230589
O O3 0.087414 0.840987 0.223450
O O4 0.250000 0.750000 0.000000
O O5 0.464526 0.000000 0.397192
O O6 0.592049 0.000000 0.375743
O O7 0.205019 0.849139 0.398201
O O8 0.333894 0.716604 0.181543
O O9 0.181161 0.622753 0.391571
O O10 0.701202 0.500000 0.540256
O O11 0.750000 0.250000 0.500000
O O12 0.583907 0.319214 0.655369
O O13 0.490298 0.500000 0.795182
O O14 0.431280 0.304346 0.925043
O O15 0.128815 0.000000 0.921534
O O16 0.000000 0.866657 0.000000
#
# Coordination Sequence:
#
# PCOD9186367 Si02
#       7
#     8   4   8   8   8   8   4
#     4  11  22  37  61  94 130 171 207 261 323 389
#     4   9  20  34  52  86 126 163 213 247 313 381
#     4  11  21  37  65  92 128 162 216 264 332 383
#     4  11  26  46  68  96 129 173 221 269 325 387
#     4  10  22  40  64  92 128 167 217 265 319 388
#     4  10  19  34  61  91 118 163 223 275 313 371
#     4   9  18  34  59  88 119 159 208 268 310 376
#
# _framework density 19.856123
#
# number of rings (size 3 to 8) (size 9 to 14) (size 15 to 20)
#    0.000    1.667    2.500    2.000    2.333    4.000 
#    1.500    1.667    0.000    1.500    0.000    0.000 
#    0.000    0.000    0.000    0.000    0.000    0.000 
#
# Total GULP energy -133851.995746 kJ/mol
# GULP energy per Si atom -5577.166489 kJ/mol
# Density = 1.981093 g / cm^3
# Si number density = 19.856123 Si / 1000 Ang^3
#
#
#
# Elastic Constant Matrix: (Units=GPa)
#
#
# Indices 1 2 3 4 5 6 
#
# 1 66.3923 15.3682 26.1973 0.0000 -8.9824 0.0000
# 2 15.3682 53.6026 40.1415 0.0000 -4.8841 0.0000
# 3 26.1973 40.1415 138.5166 0.0000 -23.5896 0.0000
# 4 0.0000 0.0000 0.0000 28.6791 0.0000 2.4647
# 5 -8.9824 -4.8841 -23.5896 0.0000 36.7681 0.0000
# 6 0.0000 0.0000 0.0000 2.4647 0.0000 26.9291
#
#
#
# Elastic Compliance Matrix: (Units=1/GPa)
#
#
# Indices 1 2 3 4 5 6 
#
# 1 0.016873 -0.003244 -0.001822 0.000000 0.002522 0.000000
# 2 -0.003244 0.024516 -0.006816 0.000000 -0.001909 0.000000
# 3 -0.001822 -0.006816 0.010451 0.000000 0.005355 0.000000
# 4 0.000000 0.000000 0.000000 0.035145 0.000000 -0.003217
# 5 0.002522 -0.001909 0.005355 0.000000 0.030996 0.000000
# 6 0.000000 0.000000 0.000000 -0.003217 0.000000 0.037429
#
#
# Mechanical properties :
#
#
# Convention : Reuss Voigt Hill
#
# Bulk Modulus (GPa) = 35.61597 46.88061 41.24829
# Shear Modulus (GPa) = 26.52067 30.26224 28.39145
#
# Velocity S-wave (km/s) = 3.65861 3.90818 3.78545
# Velocity P-wave (km/s) = 5.98525 6.63525 6.31861
#
# Compressibility (1/GPa) = 0.02807729
#
# Stress axis : x y z
#
# Youngs Moduli (GPa) = 59.26690 40.78894 95.68327
#
# Poissons Ratio (x) = 0.13230 0.17429
# Poissons Ratio (y) = 0.19224 0.65222
# Poissons Ratio (z) = 0.10796 0.27803
#
# Static dielectric constant tensor:
#      x y z
#    x 1.759710 0.000000 0.028130 
#    y 0.000000 1.823310 0.000000 
#    z 0.028130 0.000000 1.711060 
# 
# From -- ./inp_files/232838.got.cif
#   From: 2010.05.17/outbox.cif.g08.bks.cpg/sg12_117_cif.got.tgz:232838.got - 2010.06.03 13:09:07.
