data_PCOD9186873
_publ_section_title
;
Structure prediction by ZEFSAII (Michael W. Deem and Ramdas Pophale) SiO2 
 PCOD9186873
Probable space group: C 2/M
;
_chemical_formula_sum "Si O2"
_cell_formula_units_Z 44
_cell_length_a 27.424452
_cell_length_b 12.562555
_cell_length_c 17.121496
_cell_angle_alpha 90.000000
_cell_angle_beta 21.132218
_cell_angle_gamma 90.000000
_cell_volume 2126.613881
_symmetry_space_group_name_H-M "C 2/M"
_symmetry_group_IT_number 12
_symmetry_cell_setting 'monoclinic'
loop_
_space_group_symop_operation_xyz
x,y,z
-x,y,-z
-x,-y,-z
x,-y,z
1/2+x,1/2+y,z
1/2-x,1/2+y,-z
1/2-x,1/2-y,-z
1/2+x,1/2-y,z
loop_
_atom_site_type_symbol
_atom_site_label
_atom_site_fract_x
_atom_site_fract_y
_atom_site_fract_z
Si Si1 0.137579 0.382682 0.898814
Si Si2 0.000000 0.287126 0.500000
Si Si3 0.274494 0.618759 0.864184
Si Si4 0.432130 0.688249 0.176675
Si Si5 0.009792 0.620376 0.645658
Si Si6 0.839411 0.794886 0.477064
O O1 0.075675 0.500000 0.984607
O O2 0.200133 0.370994 0.891377
O O3 0.261997 0.370624 0.653036
O O4 0.027104 0.292599 0.046832
O O5 0.114623 0.208903 0.295526
O O6 0.054290 0.356220 0.490807
O O7 0.334729 0.500000 0.778642
O O8 0.152820 0.624774 0.107301
O O9 0.282577 0.721959 0.373829
O O10 0.412801 0.647792 0.294407
O O11 0.500000 0.630869 0.000000
O O12 0.049263 0.500000 0.611326
O O13 0.066124 0.713047 0.616960
#
# Coordination Sequence:
#
# PCOD9186873 Si02
#       6
#     8   4   8   8   8   8
#     4  10  19  35  60  88 115 150 196 240 285 346
#     4  12  22  40  62  88 116 154 194 250 296 344
#     4  10  21  37  60  89 116 149 194 242 297 346
#     4   9  19  33  57  84 114 150 190 232 283 341
#     4  11  23  39  60  86 116 157 200 238 287 353
#     4  10  19  35  56  86 118 149 188 240 289 338
#
# _framework density 20.690168
#
# number of rings (size 3 to 8) (size 9 to 14) (size 15 to 20)
#    0.000    1.818    3.636    1.091    0.000    3.273 
#    0.000    4.545    0.000   15.273    0.000    0.000 
#    0.000    0.000    0.000    0.000    0.000    0.000 
#
# Total GULP energy -122667.596340 kJ/mol
# GULP energy per Si atom -5575.799834 kJ/mol
# Density = 2.064308 g / cm^3
# Si number density = 20.690168 Si / 1000 Ang^3
#
#
#
# Elastic Constant Matrix: (Units=GPa)
#
#
# Indices 1 2 3 4 5 6 
#
# 1 51.3360 13.3939 4.9579 0.0000 24.1047 0.0000
# 2 13.3939 49.5211 11.3266 0.0000 -5.9135 0.0000
# 3 4.9579 11.3266 72.3977 0.0000 17.4482 0.0000
# 4 0.0000 0.0000 0.0000 23.1916 0.0000 -1.8821
# 5 24.1047 -5.9135 17.4482 0.0000 40.2880 0.0000
# 6 0.0000 0.0000 0.0000 -1.8821 0.0000 -16.8356
#
#
#
# Elastic Compliance Matrix: (Units=1/GPa)
#
#
# Indices 1 2 3 4 5 6 
#
# 1 0.034160 -0.013540 0.005788 0.000000 -0.024933 0.000000
# 2 -0.013540 0.027259 -0.006983 0.000000 0.015127 0.000000
# 3 0.005788 -0.006983 0.017407 0.000000 -0.012027 0.000000
# 4 0.000000 0.000000 0.000000 0.042731 0.000000 -0.004777
# 5 -0.024933 0.015127 -0.012027 0.000000 0.047168 0.000000
# 6 0.000000 0.000000 0.000000 -0.004777 0.000000 -0.058864
#
#
# Mechanical properties :
#
#
# Convention : Reuss Voigt Hill
#
# Bulk Modulus (GPa) = 20.26107 25.84572 23.05340
# Shear Modulus (GPa) = 32.09553 18.90057 25.49805
#
# Velocity S-wave (km/s) = 3.94286 3.02570 3.51433
# Velocity P-wave (km/s) = 5.52649 4.97247 5.25678
#
# Compressibility (1/GPa) = 0.04935573
#
# Stress axis : x y z
#
# Youngs Moduli (GPa) = 29.27370 36.68484 57.44728
#
# Poissons Ratio (x) = 0.49673 -0.33250
# Poissons Ratio (y) = 0.39638 0.40116
# Poissons Ratio (z) = -0.16943 0.25617
#
# Static dielectric constant tensor:
#      x y z
#    x 1.757600 0.000000 0.055200 
#    y 0.000000 1.727640 0.000000 
#    z 0.055200 0.000000 1.763540 
# 
# From -- ./inp_files/296390.got.cif
#   From: 2010.05.17/outbox.cif.g08.bks.cpg/sg12_149_cif.got.tgz:296390.got - 2010.06.03 13:09:07.
