data_PCOD9186202
_publ_section_title
;
Structure prediction by ZEFSAII (Michael W. Deem and Ramdas Pophale) SiO2 
 PCOD9186202
Probable space group: C 2/M
;
_chemical_formula_sum "Si O2"
_cell_formula_units_Z 34
_cell_length_a 9.000777
_cell_length_b 12.558091
_cell_length_c 16.338787
_cell_angle_alpha 90.000000
_cell_angle_beta 136.373849
_cell_angle_gamma 90.000000
_cell_volume 1274.210141
_symmetry_space_group_name_H-M "C 2/M"
_symmetry_group_IT_number 12
_symmetry_cell_setting 'monoclinic'
loop_
_space_group_symop_operation_xyz
x,y,z
-x,y,-z
-x,-y,-z
x,-y,z
1/2+x,1/2+y,z
1/2-x,1/2+y,-z
1/2-x,1/2-y,-z
1/2+x,1/2-y,z
loop_
_atom_site_type_symbol
_atom_site_label
_atom_site_fract_x
_atom_site_fract_y
_atom_site_fract_z
Si Si1 0.787145 0.883037 0.596188
Si Si2 0.101741 0.657972 0.871856
Si Si3 0.758158 0.151448 0.399501
Si Si4 0.732658 0.379055 0.849988
Si Si5 0.000000 0.000000 0.000000
O O1 0.695096 0.867779 0.468749
O O2 0.719108 0.776592 0.614936
O O3 0.047959 0.877714 0.704710
O O4 0.731866 0.000000 0.607124
O O5 0.155902 0.782264 0.876572
O O6 0.935617 0.617522 0.735252
O O7 0.960447 0.640826 0.897222
O O8 0.318334 0.591974 0.949360
O O9 0.000000 0.108287 0.500000
O O10 0.721478 0.500000 0.879228
#
# Coordination Sequence:
#
# PCOD9186202 Si02
#       5
#     8   8   8   8   2
#     4   9  19  32  56  91 131 165 206 257 325 396
#     4  11  24  44  69  97 137 179 226 278 337 394
#     4  10  19  34  59  91 124 169 210 261 325 400
#     4  10  21  44  70 100 136 177 219 278 337 402
#     4  12  28  48  68  98 132 178 234 290 328 396
#
# _framework density 26.683195000000001
#
# number of rings (size 3 to 8) (size 9 to 14) (size 15 to 20)
#    0.000    1.882    3.529    0.000    1.647    1.882 
#    2.118    0.588    0.000    0.000    0.000    0.000 
#    0.000    0.000    0.000    0.000    0.000    0.000 
#
# Total GULP energy -94834.972334 kJ/mol
# GULP energy per Si atom -5578.527784 kJ/mol
# Density = 2.662246 g / cm^3
# Si number density = 26.683195 Si / 1000 Ang^3
#
#
#
# Elastic Constant Matrix: (Units=GPa)
#
#
# Indices 1 2 3 4 5 6 
#
# 1 105.0208 62.7222 84.9169 0.0000 30.1880 0.0000
# 2 62.7222 291.8618 46.2654 0.0000 15.9576 0.0000
# 3 84.9169 46.2654 167.5681 0.0000 32.4376 0.0000
# 4 0.0000 0.0000 0.0000 11.6567 0.0000 7.9767
# 5 30.1880 15.9576 32.4376 0.0000 61.7724 0.0000
# 6 0.0000 0.0000 0.0000 7.9767 0.0000 12.9217
#
#
#
# Elastic Compliance Matrix: (Units=1/GPa)
#
#
# Indices 1 2 3 4 5 6 
#
# 1 0.018686 -0.002522 -0.007939 0.000000 -0.004312 0.000000
# 2 -0.002522 0.003935 0.000167 0.000000 0.000128 0.000000
# 3 -0.007939 0.000167 0.010243 0.000000 -0.001542 0.000000
# 4 0.000000 0.000000 0.000000 0.148529 0.000000 -0.091688
# 5 -0.004312 0.000128 -0.001542 0.000000 0.019072 0.000000
# 6 0.000000 0.000000 0.000000 -0.091688 0.000000 0.133988
#
#
# Mechanical properties :
#
#
# Convention : Reuss Voigt Hill
#
# Bulk Modulus (GPa) = 81.45200 105.80663 93.62931
# Shear Modulus (GPa) = 13.92242 41.97326 27.94784
#
# Velocity S-wave (km/s) = 2.28670 3.97044 3.23986
# Velocity P-wave (km/s) = 6.12894 7.79475 7.01149
#
# Compressibility (1/GPa) = 0.01227717
#
# Stress axis : x y z
#
# Youngs Moduli (GPa) = 53.51528 254.14578 97.62532
#
# Poissons Ratio (x) = 0.64085 0.77501
# Poissons Ratio (y) = 0.13494 -0.01627
# Poissons Ratio (z) = 0.42483 -0.04235
#
# Static dielectric constant tensor:
#      x y z
#    x 2.090370 0.000000 -0.054000 
#    y 0.000000 1.964190 0.000000 
#    z -0.054000 0.000000 2.166130 
# 
# From -- ./inp_files/127767.got.cif
#   From: 2010.05.17/outbox.cif.g08.bks.cpg/sg12_64_cif.got.tgz:127767.got - 2010.06.03 13:09:07.
