data_PCOD9186311
_publ_section_title
;
Structure prediction by ZEFSAII (Michael W. Deem and Ramdas Pophale) SiO2 
 PCOD9186311
Probable space group: C 2/M
;
_chemical_formula_sum "Si O2"
_cell_formula_units_Z 56
_cell_length_a 13.988417
_cell_length_b 14.705051
_cell_length_c 21.697349
_cell_angle_alpha 90.000000
_cell_angle_beta 31.377272
_cell_angle_gamma 90.000000
_cell_volume 2323.834388
_symmetry_space_group_name_H-M "C 2/M"
_symmetry_group_IT_number 12
_symmetry_cell_setting 'monoclinic'
loop_
_space_group_symop_operation_xyz
x,y,z
-x,y,-z
-x,-y,-z
x,-y,z
1/2+x,1/2+y,z
1/2-x,1/2+y,-z
1/2-x,1/2-y,-z
1/2+x,1/2-y,z
loop_
_atom_site_type_symbol
_atom_site_label
_atom_site_fract_x
_atom_site_fract_y
_atom_site_fract_z
Si Si1 0.199264 0.397094 0.889983
Si Si2 0.192635 0.100560 0.312850
Si Si3 0.619286 0.604000 0.997666
Si Si4 0.296320 0.647152 0.493231
Si Si5 0.413466 0.396774 0.293557
Si Si6 0.173620 0.207665 0.768226
Si Si7 0.600980 0.105046 0.251904
O O1 0.172846 0.500000 0.930765
O O2 0.258624 0.407161 0.786707
O O3 0.380463 0.354199 0.819957
O O4 0.000000 0.350216 0.000000
O O5 0.310943 0.189065 0.262385
O O6 0.978387 0.129421 0.433035
O O7 0.222561 0.000000 0.323669
O O8 0.616357 0.500000 0.023508
O O9 0.818592 0.624547 0.860127
O O10 0.500000 0.604967 0.000000
O O11 0.521661 0.673493 0.097308
O O12 0.250000 0.750000 0.500000
O O13 0.335943 0.603487 0.404903
O O14 0.116434 0.609966 0.624830
O O15 0.436534 0.500000 0.261445
O O16 0.285269 0.348824 0.315545
O O17 0.314359 0.176223 0.744936
O O18 0.657645 0.000000 0.236252
#
# Coordination Sequence:
#
# PCOD9186311 Si02
#       7
#     8   8   8   8   8   8   8
#     4   8  16  34  60  86 116 158 204 249 303 372
#     4  10  21  38  60  86 123 173 221 261 305 373
#     4   8  16  31  54  87 128 167 203 249 314 388
#     4  11  21  40  62  91 123 166 223 269 310 377
#     4  10  21  37  63  99 133 158 198 271 336 375
#     4  11  20  35  59  98 133 163 203 263 331 386
#     4  10  19  34  60  91 127 172 214 259 318 384
#
# _framework density 24.098103999999999
#
# number of rings (size 3 to 8) (size 9 to 14) (size 15 to 20)
#    0.000    2.286    1.429    4.286    0.000    2.286 
#    0.000    2.143    0.000    3.429    0.000    0.000 
#    0.000    0.571    0.000    0.000    0.000    0.000 
#
# Total GULP energy -156351.327411 kJ/mol
# GULP energy per Si atom -5583.975979 kJ/mol
# Density = 2.404326 g / cm^3
# Si number density = 24.098104 Si / 1000 Ang^3
#
#
#
# Elastic Constant Matrix: (Units=GPa)
#
#
# Indices 1 2 3 4 5 6 
#
# 1 38.6612 21.8177 22.7833 -0.0018 5.2763 0.0000
# 2 21.8177 155.1155 35.5930 -0.0073 -8.6651 0.0005
# 3 22.7833 35.5930 170.9185 -0.0115 -19.8872 0.0003
# 4 -0.0018 -0.0073 -0.0115 -61.4501 -0.0041 27.9948
# 5 5.2763 -8.6651 -19.8872 -0.0041 13.4957 0.0006
# 6 0.0000 0.0005 0.0003 27.9948 0.0006 1.6624
#
#
#
# Elastic Compliance Matrix: (Units=1/GPa)
#
#
# Indices 1 2 3 4 5 6 
#
# 1 0.036785 -0.005114 -0.007114 0.000001 -0.028148 -0.000004
# 2 -0.005114 0.007566 -0.000116 0.000000 0.006687 0.000002
# 3 -0.007114 -0.000116 0.008615 -0.000001 0.015402 0.000004
# 4 0.000001 0.000000 -0.000001 -0.001877 -0.000003 0.031602
# 5 -0.028148 0.006687 0.015402 -0.000003 0.112093 0.000015
# 6 -0.000004 0.000002 0.000004 0.031602 0.000015 0.069368
#
#
# Mechanical properties :
#
#
# Convention : Reuss Voigt Hill
#
# Bulk Modulus (GPa) = 35.36122 58.34259 46.85190
# Shear Modulus (GPa) = 18.75016 9.70833 14.22924
#
# Velocity S-wave (km/s) = 2.79243 2.00933 2.43260
# Velocity P-wave (km/s) = 5.01025 5.44484 5.23206
#
# Compressibility (1/GPa) = 0.02827957
#
# Stress axis : x y z
#
# Youngs Moduli (GPa) = 27.18469 132.16557 116.07349
#
# Poissons Ratio (x) = 0.67591 0.82570
# Poissons Ratio (y) = 0.13903 0.01345
# Poissons Ratio (z) = 0.19338 0.01532
#
# Static dielectric constant tensor:
#      x y z
#    x 1.882070 0.000000 -0.031490 
#    y 0.000000 1.799480 0.000000 
#    z -0.031490 0.000000 1.964940 
# 
# From -- ./inp_files/340317.got.cif
#   From: 2010.05.17/outbox.cif.g08.bks.cpg/sg12_171_cif.got.tgz:340317.got - 2010.06.03 13:09:07.
