data_PCOD9186404
_publ_section_title
;
Structure prediction by ZEFSAII (Michael W. Deem and Ramdas Pophale) SiO2 
 PCOD9186404
Probable space group: C 2/M
;
_chemical_formula_sum "Si O2"
_cell_formula_units_Z 64
_cell_length_a 8.449939
_cell_length_b 28.478562
_cell_length_c 16.407491
_cell_angle_alpha 90.000000
_cell_angle_beta 47.769769
_cell_angle_gamma 90.000000
_cell_volume 2923.543667
_symmetry_space_group_name_H-M "C 2/M"
_symmetry_group_IT_number 12
_symmetry_cell_setting 'monoclinic'
loop_
_space_group_symop_operation_xyz
x,y,z
-x,y,-z
-x,-y,-z
x,-y,z
1/2+x,1/2+y,z
1/2-x,1/2+y,-z
1/2-x,1/2-y,-z
1/2+x,1/2-y,z
loop_
_atom_site_type_symbol
_atom_site_label
_atom_site_fract_x
_atom_site_fract_y
_atom_site_fract_z
Si Si1 0.519000 0.888719 0.724065
Si Si2 0.626196 0.312548 0.347947
Si Si3 0.573853 0.442916 0.065334
Si Si4 0.678305 0.687443 0.870797
Si Si5 0.660074 0.393294 0.515683
Si Si6 0.035457 0.763064 0.756770
Si Si7 0.479086 0.443404 0.273010
Si Si8 0.467918 0.054821 0.130501
O O1 0.701468 0.854699 0.702422
O O2 0.307385 0.859095 0.806076
O O3 0.606066 0.897127 0.603658
O O4 0.504754 0.935025 0.783080
O O5 0.411019 0.338456 0.453716
O O6 0.559497 0.295080 0.281680
O O7 0.751162 0.267140 0.341481
O O8 0.582063 0.500000 0.063918
O O9 0.435461 0.431150 0.193447
O O10 0.500000 0.430289 0.000000
O O11 0.820253 0.424833 0.985339
O O12 0.853925 0.725003 0.840098
O O13 0.585379 0.707257 0.819059
O O14 0.500000 0.680897 0.000000
O O15 0.500000 0.413790 0.500000
O O16 0.633056 0.417411 0.612577
O O17 0.456378 0.500000 0.291465
O O18 0.729631 0.429779 0.192913
O O19 0.469109 0.000000 0.112030
#
# Coordination Sequence:
#
# PCOD9186404 Si02
#       8
#     8   8   8   8   8   8   8   8
#     4  10  21  38  55  87 123 159 199 249 303 352
#     4   9  18  37  59  84 115 152 192 245 303 356
#     4   9  19  36  57  83 119 155 196 257 310 360
#     4  10  20  38  61  87 121 154 197 250 306 371
#     4  10  19  37  58  82 128 159 197 260 296 346
#     4   9  19  37  63  87 114 150 201 243 303 374
#     4  10  19  34  62  91 115 159 211 250 306 364
#     4  10  19  35  58  85 120 161 209 252 298 361
#
# _framework density 21.891241999999998
#
# number of rings (size 3 to 8) (size 9 to 14) (size 15 to 20)
#    0.000    2.375    2.500    0.750    0.000    2.750 
#    4.500   17.500    0.000    0.000    0.000    3.500 
#    0.000    0.000    0.000    0.000    0.000    0.000 
#
# Total GULP energy -178413.771628 kJ/mol
# GULP energy per Si atom -5575.430363 kJ/mol
# Density = 2.184142 g / cm^3
# Si number density = 21.891242 Si / 1000 Ang^3
#
#
#
# Elastic Constant Matrix: (Units=GPa)
#
#
# Indices 1 2 3 4 5 6 
#
# 1 59.7901 17.9756 21.8899 0.0000 18.9354 0.0000
# 2 17.9756 37.5538 32.7388 0.0000 13.4924 0.0000
# 3 21.8899 32.7388 172.3966 0.0000 16.1199 0.0000
# 4 0.0000 0.0000 0.0000 31.5065 0.0000 0.1143
# 5 18.9354 13.4924 16.1199 0.0000 28.7869 0.0000
# 6 0.0000 0.0000 0.0000 0.1143 0.0000 18.2078
#
#
#
# Elastic Compliance Matrix: (Units=1/GPa)
#
#
# Indices 1 2 3 4 5 6 
#
# 1 0.022435 -0.006038 -0.000619 0.000000 -0.011580 0.000000
# 2 -0.006038 0.038191 -0.005470 0.000000 -0.010865 0.000000
# 3 -0.000619 -0.005470 0.007007 0.000000 -0.000953 0.000000
# 4 0.000000 0.000000 0.000000 0.031740 0.000000 -0.000199
# 5 -0.011580 -0.010865 -0.000953 0.000000 0.047981 0.000000
# 6 0.000000 0.000000 0.000000 -0.000199 0.000000 0.054923
#
#
# Mechanical properties :
#
#
# Convention : Reuss Voigt Hill
#
# Bulk Modulus (GPa) = 23.05319 46.10545 34.57932
# Shear Modulus (GPa) = 20.74764 28.84266 24.79515
#
# Velocity S-wave (km/s) = 3.08191 3.63374 3.36914
# Velocity P-wave (km/s) = 4.81849 6.22192 5.56463
#
# Compressibility (1/GPa) = 0.04337794
#
# Stress axis : x y z
#
# Youngs Moduli (GPa) = 44.57382 26.18408 142.71349
#
# Poissons Ratio (x) = 0.15811 0.08836
# Poissons Ratio (y) = 0.26915 0.78064
# Poissons Ratio (z) = 0.02760 0.14323
#
# Static dielectric constant tensor:
#      x y z
#    x 1.866660 0.000000 -0.018600 
#    y 0.000000 1.795550 0.000000 
#    z -0.018600 0.000000 1.819720 
# 
# From -- ./inp_files/201244.got.cif
#   From: 2010.05.17/outbox.cif.g08.bks.cpg/sg12_101_cif.got.tgz:201244.got - 2010.06.03 13:09:07.
