data_PCOD9186035
_publ_section_title
;
Structure prediction by ZEFSAII (Michael W. Deem and Ramdas Pophale) SiO2 
 PCOD9186035
Probable space group: C 2/M
;
_chemical_formula_sum "Si O2"
_cell_formula_units_Z 56
_cell_length_a 15.212343
_cell_length_b 22.008970
_cell_length_c 8.371300
_cell_angle_alpha 90.000000
_cell_angle_beta 107.704373
_cell_angle_gamma 90.000000
_cell_volume 2670.033802
_symmetry_space_group_name_H-M "C 2/M"
_symmetry_group_IT_number 12
_symmetry_cell_setting 'monoclinic'
loop_
_space_group_symop_operation_xyz
x,y,z
-x,y,-z
-x,-y,-z
x,-y,z
1/2+x,1/2+y,z
1/2-x,1/2+y,-z
1/2-x,1/2-y,-z
1/2+x,1/2-y,z
loop_
_atom_site_type_symbol
_atom_site_label
_atom_site_fract_x
_atom_site_fract_y
_atom_site_fract_z
Si Si1 0.900916 0.844538 0.887007
Si Si2 0.896902 0.280913 0.015848
Si Si3 0.406748 0.274343 0.549707
Si Si4 0.111418 0.371501 0.409384
Si Si5 0.224938 0.930173 0.013287
Si Si6 0.739020 0.650442 0.731158
Si Si7 0.089914 0.386151 0.762498
O O1 0.878260 0.790082 0.999215
O O2 0.907736 0.811673 0.718299
O O3 0.823057 0.894680 0.866577
O O4 0.000000 0.868733 0.000000
O O5 0.818611 0.312272 0.867461
O O6 0.894180 0.315203 0.182232
O O7 0.000000 0.289123 0.000000
O O8 0.500000 0.281488 0.500000
O O9 0.393684 0.202568 0.578853
O O10 0.326968 0.303375 0.397095
O O11 0.203822 0.387285 0.368529
O O12 0.108456 0.395534 0.587180
O O13 0.018935 0.395224 0.270981
O O14 0.335603 0.922751 0.094892
O O15 0.199321 0.000000 0.995638
O O16 0.195637 0.894821 0.836339
#
# Coordination Sequence:
#
# PCOD9186035 Si02
#       7
#     8   8   8   8   8   8   8
#     4  11  23  40  65  94 129 170 212 265 334 394
#     4  10  19  34  58  97 130 163 200 255 325 405
#     4  12  23  37  62 105 143 162 199 258 336 418
#     4  11  20  37  61 100 137 165 197 256 335 404
#     4  11  27  46  63  86 124 176 239 277 302 365
#     4  11  23  38  64  91 133 173 214 260 332 381
#     4  10  21  36  65  91 134 170 200 264 323 389
#
# _framework density 20.973517999999999
#
# number of rings (size 3 to 8) (size 9 to 14) (size 15 to 20)
#    0.000    1.143    4.286    3.000    4.000    1.429 
#    0.000    5.714    0.000    1.714    0.000    0.000 
#    0.000    0.000    0.000    0.000    0.000    0.000 
#
# Total GULP energy -156468.373393 kJ/mol
# GULP energy per Si atom -5588.156193 kJ/mol
# Density = 2.092578 g / cm^3
# Si number density = 20.973518 Si / 1000 Ang^3
#
#
#
# Elastic Constant Matrix: (Units=GPa)
#
#
# Indices 1 2 3 4 5 6 
#
# 1 37.3078 10.6826 -3.2982 0.0000 -4.6594 0.0000
# 2 10.6826 48.9273 -4.8169 0.0000 -5.7140 0.0000
# 3 -3.2982 -4.8169 60.1040 0.0000 8.7309 0.0000
# 4 0.0000 0.0000 0.0000 11.3384 0.0000 3.0630
# 5 -4.6594 -5.7140 8.7309 0.0000 40.6249 0.0000
# 6 0.0000 0.0000 0.0000 3.0630 0.0000 3.8855
#
#
#
# Elastic Compliance Matrix: (Units=1/GPa)
#
#
# Indices 1 2 3 4 5 6 
#
# 1 0.028866 -0.005957 0.000771 0.000000 0.002307 0.000000
# 2 -0.005957 0.022105 0.001127 0.000000 0.002184 0.000000
# 3 0.000771 0.001127 0.017274 0.000000 -0.003465 0.000000
# 4 0.000000 0.000000 0.000000 0.112060 0.000000 -0.088337
# 5 0.002307 0.002184 -0.003465 0.000000 0.025932 0.000000
# 6 0.000000 0.000000 0.000000 -0.088337 0.000000 0.327002
#
#
# Mechanical properties :
#
#
# Convention : Reuss Voigt Hill
#
# Bulk Modulus (GPa) = 16.63095 16.83044 16.73070
# Shear Modulus (GPa) = 8.90634 20.75452 14.83043
#
# Velocity S-wave (km/s) = 2.06293 3.14914 2.66203
# Velocity P-wave (km/s) = 3.69066 4.61138 4.17647
#
# Compressibility (1/GPa) = 0.06012886
#
# Stress axis : x y z
#
# Youngs Moduli (GPa) = 34.64268 45.23830 57.89077
#
# Poissons Ratio (x) = 0.26949 -0.04466
# Poissons Ratio (y) = 0.20637 -0.06527
# Poissons Ratio (z) = -0.02673 -0.05101
#
# Static dielectric constant tensor:
#      x y z
#    x 1.802750 0.000000 -0.009050 
#    y 0.000000 1.725910 0.000000 
#    z -0.009050 0.000000 1.791910 
# 
# From -- ./inp_files/65464.got.cif
#   From: 2010.05.17/outbox.cif.g08.bks.cpg/sg12_33_cif.got.tgz:65464.got - 2010.06.03 13:09:07.
