data_PCOD9186733
_publ_section_title
;
Structure prediction by ZEFSAII (Michael W. Deem and Ramdas Pophale) SiO2 
 PCOD9186733
Probable space group: C 2/M
;
_chemical_formula_sum "Si O2"
_cell_formula_units_Z 56
_cell_length_a 27.729898
_cell_length_b 8.085329
_cell_length_c 13.820643
_cell_angle_alpha 90.000000
_cell_angle_beta 61.344893
_cell_angle_gamma 90.000000
_cell_volume 2719.144655
_symmetry_space_group_name_H-M "C 2/M"
_symmetry_group_IT_number 12
_symmetry_cell_setting 'monoclinic'
loop_
_space_group_symop_operation_xyz
x,y,z
-x,y,-z
-x,-y,-z
x,-y,z
1/2+x,1/2+y,z
1/2-x,1/2+y,-z
1/2-x,1/2-y,-z
1/2+x,1/2-y,z
loop_
_atom_site_type_symbol
_atom_site_label
_atom_site_fract_x
_atom_site_fract_y
_atom_site_fract_z
Si Si1 0.814036 0.698124 0.941109
Si Si2 0.528534 0.691191 0.111026
Si Si3 0.315501 0.304499 0.151361
Si Si4 0.981260 0.201960 0.668610
Si Si5 0.915231 0.800994 0.540986
Si Si6 0.690137 0.801538 0.266507
Si Si7 0.922855 0.686276 0.132682
O O1 0.819399 0.500000 0.942245
O O2 0.832836 0.757423 0.816615
O O3 0.750000 0.750000 0.000000
O O4 0.834857 0.772599 0.021652
O O5 0.546147 0.500000 0.084527
O O6 0.539864 0.758160 0.207033
O O7 0.462551 0.699239 0.157879
O O8 0.554208 0.792922 0.998853
O O9 0.314817 0.500000 0.166964
O O10 0.252711 0.240281 0.220208
O O11 0.359023 0.228724 0.183380
O O12 0.044015 0.252788 0.583948
O O13 0.945200 0.254142 0.611665
O O14 0.980384 0.000000 0.672800
O O15 0.852875 0.743041 0.609229
O O16 0.915230 0.000000 0.540847
O O17 0.693708 0.000000 0.255783
O O18 0.930610 0.500000 0.158687
#
# Coordination Sequence:
#
# PCOD9186733 Si02
#       7
#     8   8   8   8   8   8   8
#     4   9  17  29  43  65  98 133 168 205 243 293
#     4  10  19  35  56  76 101 136 173 207 251 305
#     4  10  20  34  50  69  99 137 173 209 253 306
#     4   8  17  33  53  77 102 131 170 211 247 293
#     4   9  17  32  53  77 103 133 170 207 246 296
#     4   9  19  32  46  71 104 133 165 206 251 299
#     4  11  22  35  51  77 106 131 168 215 258 303
#
# _framework density 20.594712999999999
#
# number of rings (size 3 to 8) (size 9 to 14) (size 15 to 20)
#    0.000    2.571    0.000    5.143    2.000    3.429 
#    0.000    3.571    0.000    0.857    0.000    0.000 
#    0.000    0.000    0.000    0.000    0.000    0.000 
#
# Total GULP energy -156147.808864 kJ/mol
# GULP energy per Si atom -5576.707459 kJ/mol
# Density = 2.054784 g / cm^3
# Si number density = 20.594713 Si / 1000 Ang^3
#
#
#
# Elastic Constant Matrix: (Units=GPa)
#
#
# Indices 1 2 3 4 5 6 
#
# 1 64.3058 -3.5136 -6.3996 0.0000 -14.6318 0.0000
# 2 -3.5136 33.1211 -5.6991 0.0000 -2.2015 0.0000
# 3 -6.3996 -5.6991 47.6411 0.0000 -14.2493 0.0000
# 4 0.0000 0.0000 0.0000 16.2555 0.0000 1.5888
# 5 -14.6318 -2.2015 -14.2493 0.0000 30.2186 0.0000
# 6 0.0000 0.0000 0.0000 1.5888 0.0000 -5.2751
#
#
#
# Elastic Compliance Matrix: (Units=1/GPa)
#
#
# Indices 1 2 3 4 5 6 
#
# 1 0.019432 0.004130 0.006995 0.000000 0.013008 0.000000
# 2 0.004130 0.032273 0.006655 0.000000 0.007489 0.000000
# 3 0.006995 0.006655 0.027806 0.000000 0.016983 0.000000
# 4 0.000000 0.000000 0.000000 0.059758 0.000000 0.017998
# 5 0.013008 0.007489 0.016983 0.000000 0.047945 0.000000
# 6 0.000000 0.000000 0.000000 0.017998 0.000000 -0.184150
#
#
# Mechanical properties :
#
#
# Convention : Reuss Voigt Hill
#
# Bulk Modulus (GPa) = 8.69022 12.64926 10.66974
# Shear Modulus (GPa) = 853.02463 18.95182 435.98823
#
# Velocity S-wave (km/s) = 20.37388 3.03682 14.56567
# Velocity P-wave (km/s) = 23.61544 4.29554 16.97263
#
# Compressibility (1/GPa) = 0.11507185
#
# Stress axis : x y z
#
# Youngs Moduli (GPa) = 51.46062 30.98535 35.96377
#
# Poissons Ratio (x) = -0.12796 -0.25157
# Poissons Ratio (y) = -0.21252 -0.23935
# Poissons Ratio (z) = -0.35997 -0.20622
#
# Static dielectric constant tensor:
#      x y z
#    x 1.770020 0.000000 -0.022490 
#    y 0.000000 1.710440 0.000000 
#    z -0.022490 0.000000 1.754810 
# 
# From -- ./inp_files/248167.got.cif
#   From: 2010.05.17/outbox.cif.g08.bks.cpg/sg12_125_cif.got.tgz:248167.got - 2010.06.03 13:09:07.
