data_PCOD9186992
_publ_section_title
;
Structure prediction by ZEFSAII (Michael W. Deem and Ramdas Pophale) SiO2 
 PCOD9186992
Probable space group: C 2/M
;
_chemical_formula_sum "Si O2"
_cell_formula_units_Z 60
_cell_length_a 21.601486
_cell_length_b 21.504958
_cell_length_c 8.774311
_cell_angle_alpha 90.000000
_cell_angle_beta 50.693824
_cell_angle_gamma 90.000000
_cell_volume 3153.902202
_symmetry_space_group_name_H-M "C 2/M"
_symmetry_group_IT_number 12
_symmetry_cell_setting 'monoclinic'
loop_
_space_group_symop_operation_xyz
x,y,z
-x,y,-z
-x,-y,-z
x,-y,z
1/2+x,1/2+y,z
1/2-x,1/2+y,-z
1/2-x,1/2-y,-z
1/2+x,1/2-y,z
loop_
_atom_site_type_symbol
_atom_site_label
_atom_site_fract_x
_atom_site_fract_y
_atom_site_fract_z
Si Si1 0.018881 0.764480 0.793044
Si Si2 0.396807 0.822413 0.817304
Si Si3 0.731420 0.305052 0.242640
Si Si4 0.072458 0.876977 0.505996
Si Si5 0.349801 0.181520 0.555319
Si Si6 0.567707 0.929128 0.011575
Si Si7 0.351922 0.500000 0.459669
Si Si8 0.222505 0.398652 0.575316
O O1 0.946523 0.735584 0.806355
O O2 0.043708 0.830864 0.685813
O O3 0.091955 0.716648 0.653085
O O4 0.000000 0.767963 0.000000
O O5 0.398988 0.829812 0.633069
O O6 0.428955 0.883252 0.852483
O O7 0.304971 0.815373 0.015060
O O8 0.650440 0.340558 0.316596
O O9 0.715145 0.232898 0.294993
O O10 0.752234 0.336741 0.371970
O O11 0.000000 0.881498 0.500000
O O12 0.099334 0.944025 0.525523
O O13 0.311329 0.122225 0.534644
O O14 0.550585 0.000000 0.082523
O O15 0.500000 0.907491 0.000000
O O16 0.651283 0.926556 0.790068
O O17 0.295807 0.445754 0.464069
#
# Coordination Sequence:
#
# PCOD9186992 Si02
#       8
#     8   8   8   8   8   8   4   8
#     4  11  22  38  62  89 124 160 198 243 305 365
#     4  11  21  36  59  90 124 151 193 249 302 353
#     4   9  20  36  59  88 118 152 193 243 303 361
#     4  10  21  40  64  91 118 156 200 252 298 353
#     4  11  21  35  57  91 120 154 198 250 299 347
#     4  10  20  36  57  82 116 158 198 229 289 368
#     4  10  21  38  60  84 116 160 209 242 288 354
#     4  10  19  35  57  81 115 160 201 238 285 350
#
# _framework density 19.024052000000001
#
# number of rings (size 3 to 8) (size 9 to 14) (size 15 to 20)
#    0.000    1.733    0.667    5.800    0.000    2.133 
#    1.200    0.333    0.000    7.200    0.000    0.000 
#    0.000    0.000    0.000    0.000    0.000    0.000 
#
# Total GULP energy -167013.732566 kJ/mol
# GULP energy per Si atom -5567.124419 kJ/mol
# Density = 1.898075 g / cm^3
# Si number density = 19.024052 Si / 1000 Ang^3
#
#
#
# Elastic Constant Matrix: (Units=GPa)
#
#
# Indices 1 2 3 4 5 6 
#
# 1 89.2829 23.7385 25.7086 0.0000 1.3610 0.0000
# 2 23.7385 89.3190 27.1197 0.0000 12.6928 0.0000
# 3 25.7086 27.1197 52.6612 0.0000 5.2455 0.0000
# 4 0.0000 0.0000 0.0000 3.8146 0.0000 -6.3009
# 5 1.3610 12.6928 5.2455 0.0000 24.8862 0.0000
# 6 0.0000 0.0000 0.0000 -6.3009 0.0000 29.1761
#
#
#
# Elastic Compliance Matrix: (Units=1/GPa)
#
#
# Indices 1 2 3 4 5 6 
#
# 1 0.013337 -0.002057 -0.005601 0.000000 0.001500 0.000000
# 2 -0.002057 0.014351 -0.005790 0.000000 -0.005987 0.000000
# 3 -0.005601 -0.005790 0.024904 0.000000 -0.001990 0.000000
# 4 0.000000 0.000000 0.000000 0.407517 0.000000 0.088008
# 5 0.001500 -0.005987 -0.001990 0.000000 0.043574 0.000000
# 6 0.000000 0.000000 0.000000 0.088008 0.000000 0.053281
#
#
# Mechanical properties :
#
#
# Convention : Reuss Voigt Hill
#
# Bulk Modulus (GPa) = 38.91734 42.71073 40.81403
# Shear Modulus (GPa) = 8.43987 21.88846 15.16417
#
# Velocity S-wave (km/s) = 2.10857 3.39568 2.82637
# Velocity P-wave (km/s) = 5.14095 6.15417 5.67024
#
# Compressibility (1/GPa) = 0.02569549
#
# Stress axis : x y z
#
# Youngs Moduli (GPa) = 74.97785 69.67974 40.15467
#
# Poissons Ratio (x) = 0.14335 0.22491
# Poissons Ratio (y) = 0.15425 0.23250
# Poissons Ratio (z) = 0.41996 0.40345
#
# Static dielectric constant tensor:
#      x y z
#    x 1.694380 0.000000 -0.027420 
#    y 0.000000 1.650810 0.000000 
#    z -0.027420 0.000000 1.673470 
# 
# From -- ./inp_files/89839.got.cif
#   From: 2010.05.17/outbox.cif.g08.bks.cpg/sg12_45_cif.got.tgz:89839.got - 2010.06.03 13:09:07.
