data_PCOD9186997
_publ_section_title
;
Structure prediction by ZEFSAII (Michael W. Deem and Ramdas Pophale) SiO2 
 PCOD9186997
Probable space group: C 2/M
;
_chemical_formula_sum "Si O2"
_cell_formula_units_Z 40
_cell_length_a 24.990624
_cell_length_b 8.421050
_cell_length_c 8.027226
_cell_angle_alpha 90.000000
_cell_angle_beta 105.178838
_cell_angle_gamma 90.000000
_cell_volume 1630.373556
_symmetry_space_group_name_H-M "C 2/M"
_symmetry_group_IT_number 12
_symmetry_cell_setting 'monoclinic'
loop_
_space_group_symop_operation_xyz
x,y,z
-x,y,-z
-x,-y,-z
x,-y,z
1/2+x,1/2+y,z
1/2-x,1/2+y,-z
1/2-x,1/2-y,-z
1/2+x,1/2-y,z
loop_
_atom_site_type_symbol
_atom_site_label
_atom_site_fract_x
_atom_site_fract_y
_atom_site_fract_z
Si Si1 0.714133 0.685827 0.317252
Si Si2 0.881541 0.687849 0.958075
Si Si3 0.015268 0.187936 0.785768
Si Si4 0.584078 0.310985 0.494820
Si Si5 0.186140 0.190401 0.779740
O O1 0.706076 0.500000 0.329583
O O2 0.750000 0.750000 0.500000
O O3 0.654310 0.761305 0.231150
O O4 0.755606 0.724175 0.197610
O O5 0.879309 0.500000 0.973772
O O6 0.944877 0.742190 0.040020
O O7 0.846899 0.768741 0.080257
O O8 0.050033 0.203602 0.641086
O O9 0.955480 0.257140 0.681898
O O10 0.009563 0.000000 0.813345
O O11 0.588931 0.500000 0.466117
O O12 0.644789 0.254308 0.596513
O O13 0.193699 0.000000 0.775025
#
# Coordination Sequence:
#
# PCOD9186997 Si02
#       5
#     8   8   8   8   8
#     4  12  25  41  57  76 102 137 176 220 269 320
#     4  11  21  34  53  81 111 142 177 218 261 307
#     4   8  13  26  47  74 105 139 173 210 253 305
#     4   7  12  24  47  75 105 137 171 207 253 307
#     4  10  19  35  57  82 109 141 177 217 259 309
#
# _framework density 24.534255999999999
#
# number of rings (size 3 to 8) (size 9 to 14) (size 15 to 20)
#    0.000    2.400    0.000    7.200    0.000    0.000 
#    0.000    9.000    0.000    1.200    0.000    8.400 
#    0.000    0.000    0.000    0.000    0.000    0.000 
#
# Total GULP energy -111817.866880 kJ/mol
# GULP energy per Si atom -5590.893344 kJ/mol
# Density = 2.447841 g / cm^3
# Si number density = 24.534256 Si / 1000 Ang^3
#
#
#
# Elastic Constant Matrix: (Units=GPa)
#
#
# Indices 1 2 3 4 5 6 
#
# 1 137.1598 11.4769 47.6808 0.0000 45.3568 0.0000
# 2 11.4769 34.3021 3.9552 0.0000 16.3664 0.0000
# 3 47.6808 3.9552 177.7477 0.0000 41.6215 0.0000
# 4 0.0000 0.0000 0.0000 29.5021 0.0000 6.8745
# 5 45.3568 16.3664 41.6215 0.0000 63.0062 0.0000
# 6 0.0000 0.0000 0.0000 6.8745 0.0000 3.9536
#
#
#
# Elastic Compliance Matrix: (Units=1/GPa)
#
#
# Indices 1 2 3 4 5 6 
#
# 1 0.009765 -0.000165 -0.001159 0.000000 -0.006221 0.000000
# 2 -0.000165 0.033630 0.001554 0.000000 -0.009643 0.000000
# 3 -0.001159 0.001554 0.006863 0.000000 -0.004103 0.000000
# 4 0.000000 0.000000 0.000000 0.056985 0.000000 -0.099086
# 5 -0.006221 -0.009643 -0.004103 0.000000 0.025565 0.000000
# 6 0.000000 0.000000 0.000000 -0.099086 0.000000 0.425230
#
#
# Mechanical properties :
#
#
# Convention : Reuss Voigt Hill
#
# Bulk Modulus (GPa) = 19.71726 52.82617 36.27171
# Shear Modulus (GPa) = 8.70347 38.36546 23.53447
#
# Velocity S-wave (km/s) = 1.88552 3.95872 3.10054
# Velocity P-wave (km/s) = 3.57691 6.51718 5.25680
#
# Compressibility (1/GPa) = 0.05071700
#
# Stress axis : x y z
#
# Youngs Moduli (GPa) = 102.41037 29.73545 145.70793
#
# Poissons Ratio (x) = 0.00492 0.16888
# Poissons Ratio (y) = 0.01694 -0.22644
# Poissons Ratio (z) = 0.11870 -0.04621
#
# Static dielectric constant tensor:
#      x y z
#    x 1.967860 0.000000 -0.041710 
#    y 0.000000 1.831500 0.000000 
#    z -0.041710 0.000000 2.063220 
# 
# From -- ./inp_files/101087.got.cif
#   From: 2010.05.17/outbox.cif.g08.bks.cpg/sg12_51_cif.got.tgz:101087.got - 2010.06.03 13:09:07.
