data_PCOD9186742
_publ_section_title
;
Structure prediction by ZEFSAII (Michael W. Deem and Ramdas Pophale) SiO2 
 PCOD9186742
Probable space group: C 2/M
;
_chemical_formula_sum "Si O2"
_cell_formula_units_Z 64
_cell_length_a 14.592486
_cell_length_b 8.551256
_cell_length_c 30.186484
_cell_angle_alpha 90.000000
_cell_angle_beta 74.331522
_cell_angle_gamma 90.000000
_cell_volume 3626.820510
_symmetry_space_group_name_H-M "C 2/M"
_symmetry_group_IT_number 12
_symmetry_cell_setting 'monoclinic'
loop_
_space_group_symop_operation_xyz
x,y,z
-x,y,-z
-x,-y,-z
x,-y,z
1/2+x,1/2+y,z
1/2-x,1/2+y,-z
1/2-x,1/2-y,-z
1/2+x,1/2-y,z
loop_
_atom_site_type_symbol
_atom_site_label
_atom_site_fract_x
_atom_site_fract_y
_atom_site_fract_z
Si Si1 0.598251 0.812710 0.301043
Si Si2 0.090074 0.311274 0.621408
Si Si3 0.360409 0.687598 0.801636
Si Si4 0.830388 0.689968 0.124671
Si Si5 0.795472 0.810870 0.629564
Si Si6 0.278270 0.312306 0.948453
Si Si7 0.539440 0.811963 0.125445
Si Si8 0.483966 0.311284 0.552235
O O1 0.495846 0.762919 0.334627
O O2 0.615655 0.745271 0.250314
O O3 0.676344 0.754593 0.326158
O O4 0.599704 0.000000 0.298957
O O5 0.090600 0.500000 0.619821
O O6 0.192777 0.258819 0.625420
O O7 0.062087 0.249595 0.576655
O O8 0.364097 0.500000 0.802802
O O9 0.254269 0.737421 0.831011
O O10 0.431297 0.754168 0.829596
O O11 0.832558 0.500000 0.124709
O O12 0.796894 0.737487 0.079889
O O13 0.934548 0.743920 0.125185
O O14 0.880990 0.763881 0.585245
O O15 0.795014 0.000000 0.632124
O O16 0.280638 0.500000 0.948752
O O17 0.380156 0.250640 0.918463
O O18 0.250000 0.250000 0.000000
O O19 0.541078 0.000000 0.124575
O O20 0.500000 0.256779 0.500000
O O21 0.487116 0.500000 0.551940
#
# Coordination Sequence:
#
# PCOD9186742 Si02
#       8
#     8   8   8   8   8   8   8   8
#     4  10  20  34  51  74 100 128 166 209 246 288
#     4   9  19  34  51  71  98 132 168 203 245 300
#     4  10  20  36  54  75 103 135 166 202 250 303
#     4   8  18  35  54  73 100 135 168 200 246 304
#     4   9  18  34  52  70  97 133 166 200 248 302
#     4  10  20  36  54  77 106 138 172 209 252 299
#     4  10  19  35  56  77 100 132 170 209 248 293
#     4   9  18  32  50  73 100 128 162 206 252 296
#
# _framework density 17.646308999999999
#
# number of rings (size 3 to 8) (size 9 to 14) (size 15 to 20)
#    0.000    2.625    0.000    2.250    0.000    3.250 
#    0.000   15.000    0.000    0.000    0.000    0.000 
#    0.000    0.000    0.000    0.000    0.000    0.000 
#
# Total GULP energy -178494.842634 kJ/mol
# GULP energy per Si atom -5577.963832 kJ/mol
# Density = 1.760615 g / cm^3
# Si number density = 17.646309 Si / 1000 Ang^3
#
#
#
# Elastic Constant Matrix: (Units=GPa)
#
#
# Indices 1 2 3 4 5 6 
#
# 1 176.4833 30.4813 87.1044 0.0000 19.0716 0.0000
# 2 30.4813 32.3380 33.2417 0.0000 2.8701 0.0000
# 3 87.1044 33.2417 176.5816 0.0000 11.1397 0.0000
# 4 0.0000 0.0000 0.0000 31.3063 0.0000 5.4941
# 5 19.0716 2.8701 11.1397 0.0000 8.5407 0.0000
# 6 0.0000 0.0000 0.0000 5.4941 0.0000 22.1562
#
#
#
# Elastic Compliance Matrix: (Units=1/GPa)
#
#
# Indices 1 2 3 4 5 6 
#
# 1 0.009638 -0.004724 -0.002841 0.000000 -0.016229 0.000000
# 2 -0.004724 0.040771 -0.005608 0.000000 0.004161 0.000000
# 3 -0.002841 -0.005608 0.008283 0.000000 -0.002574 0.000000
# 4 0.000000 0.000000 0.000000 0.033396 0.000000 -0.008281
# 5 -0.016229 0.004161 -0.002574 0.000000 0.155285 0.000000
# 6 0.000000 0.000000 0.000000 -0.008281 0.000000 0.047188
#
#
# Mechanical properties :
#
#
# Convention : Reuss Voigt Hill
#
# Bulk Modulus (GPa) = 30.91519 76.33976 53.62747
# Shear Modulus (GPa) = 15.07442 28.03901 21.55671
#
# Velocity S-wave (km/s) = 2.92593 3.99048 3.49893
# Velocity P-wave (km/s) = 5.38258 8.03660 6.83955
#
# Compressibility (1/GPa) = 0.03234656
#
# Stress axis : x y z
#
# Youngs Moduli (GPa) = 103.75304 24.52729 120.73398
#
# Poissons Ratio (x) = 0.11586 0.34304
# Poissons Ratio (y) = 0.49011 0.67702
# Poissons Ratio (z) = 0.29479 0.13754
#
# Static dielectric constant tensor:
#      x y z
#    x 1.595830 0.000000 -0.007930 
#    y 0.000000 1.602980 0.000000 
#    z -0.007930 0.000000 1.572910 
# 
# From -- ./inp_files/359848.got.cif
#   From: 2010.05.17/outbox.cif.g08.bks.cpg/sg12_180_cif.got.tgz:359848.got - 2010.06.03 13:09:07.
