data_PCOD9186916
_publ_section_title
;
Structure prediction by ZEFSAII (Michael W. Deem and Ramdas Pophale) SiO2 
 PCOD9186916
Probable space group: C 2/M
;
_chemical_formula_sum "Si O2"
_cell_formula_units_Z 40
_cell_length_a 7.977797
_cell_length_b 21.489121
_cell_length_c 15.602747
_cell_angle_alpha 90.000000
_cell_angle_beta 48.636801
_cell_angle_gamma 90.000000
_cell_volume 2007.585448
_symmetry_space_group_name_H-M "C 2/M"
_symmetry_group_IT_number 12
_symmetry_cell_setting 'monoclinic'
loop_
_space_group_symop_operation_xyz
x,y,z
-x,y,-z
-x,-y,-z
x,-y,z
1/2+x,1/2+y,z
1/2-x,1/2+y,-z
1/2-x,1/2-y,-z
1/2+x,1/2-y,z
loop_
_atom_site_type_symbol
_atom_site_label
_atom_site_fract_x
_atom_site_fract_y
_atom_site_fract_z
Si Si1 0.359278 0.730551 0.765156
Si Si2 0.757409 0.181710 0.619306
Si Si3 0.551078 0.658321 0.861462
Si Si4 0.469552 0.928938 0.731125
Si Si5 0.348271 0.928864 0.967133
O O1 0.566219 0.769875 0.656081
O O2 0.259865 0.691510 0.720995
O O3 0.450389 0.686771 0.808370
O O4 0.179804 0.781907 0.858024
O O5 0.671182 0.112767 0.628510
O O6 0.000000 0.193472 0.500000
O O7 0.742621 0.606868 0.782372
O O8 0.346262 0.622267 0.974018
O O9 0.471085 0.000000 0.702197
O O10 0.474152 0.928185 0.833762
O O11 0.257880 0.000000 0.007280
O O12 0.500000 0.916851 0.000000
#
# Coordination Sequence:
#
# PCOD9186916 Si02
#       5
#     8   8   8   8   8
#     4   9  20  35  54  81 106 137 174 211 258 312
#     4  10  19  35  57  78 105 137 173 217 261 306
#     4  10  19  36  55  76 108 140 171 210 259 310
#     4  10  21  36  54  78 105 137 177 215 257 307
#     4  10  20  35  56  79 105 139 174 209 255 311
#
# _framework density 19.924433000000001
#
# number of rings (size 3 to 8) (size 9 to 14) (size 15 to 20)
#    0.000    2.200    0.000    3.000    0.000    2.000 
#    0.000   26.000    0.000    1.200    0.000    0.000 
#    0.000    0.000    0.000    0.000    0.000    0.000 
#
# Total GULP energy -111590.733043 kJ/mol
# GULP energy per Si atom -5579.536652 kJ/mol
# Density = 1.987908 g / cm^3
# Si number density = 19.924433 Si / 1000 Ang^3
#
#
#
# Elastic Constant Matrix: (Units=GPa)
#
#
# Indices 1 2 3 4 5 6 
#
# 1 75.3867 37.7295 -6.2756 0.0000 -1.9842 0.0000
# 2 37.7295 120.7669 18.6409 0.0000 -4.0520 0.0000
# 3 -6.2756 18.6409 46.6036 0.0000 -15.5159 0.0000
# 4 0.0000 0.0000 0.0000 4.4667 0.0000 2.6426
# 5 -1.9842 -4.0520 -15.5159 0.0000 17.9066 0.0000
# 6 0.0000 0.0000 0.0000 2.6426 0.0000 31.8282
#
#
#
# Elastic Compliance Matrix: (Units=1/GPa)
#
#
# Indices 1 2 3 4 5 6 
#
# 1 0.017121 -0.006204 0.006959 0.000000 0.006523 0.000000
# 2 -0.006204 0.011102 -0.006561 0.000000 -0.003861 0.000000
# 3 0.006959 -0.006561 0.034829 0.000000 0.029466 0.000000
# 4 0.000000 0.000000 0.000000 0.235444 0.000000 -0.019548
# 5 0.006523 -0.003861 0.029466 0.000000 0.081227 0.000000
# 6 0.000000 0.000000 0.000000 -0.019548 0.000000 0.033042
#
#
# Mechanical properties :
#
#
# Convention : Reuss Voigt Hill
#
# Bulk Modulus (GPa) = 19.44060 38.10521 28.77290
# Shear Modulus (GPa) = 11.32440 23.68444 17.50442
#
# Velocity S-wave (km/s) = 2.38663 3.45151 2.96723
# Velocity P-wave (km/s) = 4.16810 5.92033 5.11973
#
# Compressibility (1/GPa) = 0.05143874
#
# Stress axis : x y z
#
# Youngs Moduli (GPa) = 58.40784 90.07429 28.71142
#
# Poissons Ratio (x) = 0.55883 -0.19980
# Poissons Ratio (y) = 0.36237 0.18839
# Poissons Ratio (z) = -0.40645 0.59102
#
# Static dielectric constant tensor:
#      x y z
#    x 1.716570 0.000000 0.004260 
#    y 0.000000 1.707310 0.000000 
#    z 0.004260 0.000000 1.687250 
# 
# From -- ./inp_files/120043.got.cif
#   From: 2010.05.17/outbox.cif.g08.bks.cpg/sg12_61_cif.got.tgz:120043.got - 2010.06.03 13:09:07.
