data_PCOD9186287
_publ_section_title
;
Structure prediction by ZEFSAII (Michael W. Deem and Ramdas Pophale) SiO2 
 PCOD9186287
Probable space group: C 2/M
;
_chemical_formula_sum "Si O2"
_cell_formula_units_Z 56
_cell_length_a 14.016075
_cell_length_b 19.440779
_cell_length_c 14.217198
_cell_angle_alpha 90.000000
_cell_angle_beta 41.956030
_cell_angle_gamma 90.000000
_cell_volume 2589.968873
_symmetry_space_group_name_H-M "C 2/M"
_symmetry_group_IT_number 12
_symmetry_cell_setting 'monoclinic'
loop_
_space_group_symop_operation_xyz
x,y,z
-x,y,-z
-x,-y,-z
x,-y,z
1/2+x,1/2+y,z
1/2-x,1/2+y,-z
1/2-x,1/2-y,-z
1/2+x,1/2-y,z
loop_
_atom_site_type_symbol
_atom_site_label
_atom_site_fract_x
_atom_site_fract_y
_atom_site_fract_z
Si Si1 0.893144 0.076135 0.164883
Si Si2 0.153309 0.766020 0.367971
Si Si3 0.679762 0.921276 0.585849
Si Si4 0.606992 0.876799 0.292030
Si Si5 0.138197 0.186919 0.651486
Si Si6 0.405255 0.860702 0.151617
Si Si7 0.103910 0.283080 0.133209
O O1 0.731274 0.077845 0.244308
O O2 0.906616 0.136355 0.230369
O O3 0.922527 0.000000 0.182569
O O4 0.000000 0.088159 0.000000
O O5 0.118207 0.694676 0.340483
O O6 0.239665 0.737982 0.396646
O O7 0.258997 0.819098 0.237552
O O8 0.000000 0.798926 0.500000
O O9 0.550263 0.908386 0.605603
O O10 0.797623 0.865005 0.471910
O O11 0.628967 0.905841 0.730143
O O12 0.726292 0.000000 0.543799
O O13 0.639917 0.852560 0.162216
O O14 0.001785 0.233976 0.729746
O O15 0.512452 0.801450 0.109268
O O16 0.500000 0.895226 0.000000
O O17 0.250000 0.250000 0.000000
#
# Coordination Sequence:
#
# PCOD9186287 Si02
#       7
#     8   8   8   8   8   8   8
#     4  10  20  34  53  80 120 160 192 231 283 353
#     4  10  19  34  60  89 121 148 180 248 310 364
#     4  11  23  39  59  83 119 162 207 248 287 348
#     4  10  20  33  56  86 112 147 194 234 296 349
#     4  10  21  35  56  86 121 153 195 237 298 360
#     4  10  23  39  58  87 119 156 204 251 307 358
#     4  10  20  34  59  87 118 147 186 245 307 361
#
# _framework density 21.621880000000001
#
# number of rings (size 3 to 8) (size 9 to 14) (size 15 to 20)
#    0.000    1.857    1.429    2.571    2.000    6.000 
#    0.000    2.143    0.000    1.286    0.000    0.000 
#    0.000    0.000    0.000    0.000    0.000    0.000 
#
# Total GULP energy -156305.005120 kJ/mol
# GULP energy per Si atom -5582.321611 kJ/mol
# Density = 2.157267 g / cm^3
# Si number density = 21.621880 Si / 1000 Ang^3
#
#
#
# Elastic Constant Matrix: (Units=GPa)
#
#
# Indices 1 2 3 4 5 6 
#
# 1 55.1147 15.4553 22.8778 0.0003 -7.7236 -0.0003
# 2 15.4553 84.6147 13.0005 0.0003 3.8823 -0.0002
# 3 22.8778 13.0005 95.6513 0.0005 -4.5988 -0.0003
# 4 0.0003 0.0003 0.0005 17.6356 -0.0004 -3.9253
# 5 -7.7236 3.8823 -4.5988 -0.0004 30.2530 0.0004
# 6 -0.0003 -0.0002 -0.0003 -3.9253 0.0004 24.5445
#
#
#
# Elastic Compliance Matrix: (Units=1/GPa)
#
#
# Indices 1 2 3 4 5 6 
#
# 1 0.021731 -0.003528 -0.004462 0.000000 0.005322 0.000000
# 2 -0.003528 0.012742 -0.001017 0.000000 -0.002691 0.000000
# 3 -0.004462 -0.001017 0.011697 0.000000 0.000769 0.000000
# 4 0.000000 0.000000 0.000000 0.058797 0.000001 0.009403
# 5 0.005322 -0.002691 0.000769 0.000001 0.034876 0.000000
# 6 0.000000 0.000000 0.000000 0.009403 0.000000 0.042246
#
#
# Mechanical properties :
#
#
# Convention : Reuss Voigt Hill
#
# Bulk Modulus (GPa) = 35.51682 37.56090 36.53886
# Shear Modulus (GPa) = 23.86749 26.75641 25.31195
#
# Velocity S-wave (km/s) = 3.32604 3.52158 3.42521
# Velocity P-wave (km/s) = 5.58677 5.82622 5.70775
#
# Compressibility (1/GPa) = 0.02815567
#
# Stress axis : x y z
#
# Youngs Moduli (GPa) = 46.01628 78.47788 85.49041
#
# Poissons Ratio (x) = 0.27687 0.38148
# Poissons Ratio (y) = 0.16234 0.08698
# Poissons Ratio (z) = 0.20534 0.07985
#
# Static dielectric constant tensor:
#      x y z
#    x 1.849670 0.000000 0.071940 
#    y 0.000000 1.747670 0.000000 
#    z 0.071940 0.000000 1.869080 
# 
# From -- ./inp_files/217653.got.cif
#   From: 2010.05.17/outbox.cif.g08.bks.cpg/sg12_109_cif.got.tgz:217653.got - 2010.06.03 13:09:07.
