data_PCOD9186781
_publ_section_title
;
Structure prediction by ZEFSAII (Michael W. Deem and Ramdas Pophale) SiO2 
 PCOD9186781
Probable space group: C 2/M
;
_chemical_formula_sum "Si O2"
_cell_formula_units_Z 48
_cell_length_a 8.324805
_cell_length_b 27.816884
_cell_length_c 21.202098
_cell_angle_alpha 90.000000
_cell_angle_beta 152.906112
_cell_angle_gamma 90.000000
_cell_volume 2236.155688
_symmetry_space_group_name_H-M "C 2/M"
_symmetry_group_IT_number 12
_symmetry_cell_setting 'monoclinic'
loop_
_space_group_symop_operation_xyz
x,y,z
-x,y,-z
-x,-y,-z
x,-y,z
1/2+x,1/2+y,z
1/2-x,1/2+y,-z
1/2-x,1/2-y,-z
1/2+x,1/2-y,z
loop_
_atom_site_type_symbol
_atom_site_label
_atom_site_fract_x
_atom_site_fract_y
_atom_site_fract_z
Si Si1 0.242046 0.851900 0.289710
Si Si2 0.079882 0.198792 0.454758
Si Si3 0.727190 0.697186 0.963142
Si Si4 0.419390 0.446727 0.640283
Si Si5 0.707368 0.147265 0.221486
Si Si6 0.907878 0.947255 0.152931
O O1 0.626665 0.842579 0.450158
O O2 0.990526 0.846668 0.263097
O O3 0.164239 0.902930 0.229109
O O4 0.139728 0.813837 0.199773
O O5 0.250000 0.250000 0.500000
O O6 0.000000 0.198276 0.500000
O O7 0.772140 0.186441 0.298322
O O8 0.844141 0.658753 0.057761
O O9 0.750000 0.750000 0.000000
O O10 0.000000 0.693207 0.000000
O O11 0.441796 0.500000 0.617168
O O12 0.684774 0.404495 0.711183
O O13 0.543793 0.452387 0.755643
O O14 0.000000 0.434471 0.500000
O O15 0.971451 0.000000 0.145799
O O16 0.500000 0.933454 0.000000
#
# Coordination Sequence:
#
# PCOD9186781 Si02
#       6
#     8   8   8   8   8   8
#     4  10  19  35  56  80 110 141 177 222 270 321
#     4  12  25  39  55  77 104 141 186 228 274 325
#     4  10  21  34  52  77 104 136 175 219 268 320
#     4   9  16  27  48  78 107 137 172 210 257 310
#     4  10  19  35  56  79 108 140 174 219 269 319
#     4   9  16  28  51  84 115 141 174 219 268 317
#
# _framework density 21.465411
#
# number of rings (size 3 to 8) (size 9 to 14) (size 15 to 20)
#    0.000    2.000    0.000    7.000    0.000    4.000 
#    0.000    0.000    0.000    2.000    0.000    0.000 
#    0.000   16.000    0.000    0.000    0.000    0.000 
#
# Total GULP energy -133702.168772 kJ/mol
# GULP energy per Si atom -5570.923699 kJ/mol
# Density = 2.141655 g / cm^3
# Si number density = 21.465411 Si / 1000 Ang^3
#
#
#
# Elastic Constant Matrix: (Units=GPa)
#
#
# Indices 1 2 3 4 5 6 
#
# 1 34.8533 2.7474 -0.2221 -0.0007 -14.2367 0.0008
# 2 2.7474 113.6453 2.0032 0.0007 -13.2642 0.0035
# 3 -0.2221 2.0032 98.6254 0.0114 -18.8978 0.0016
# 4 -0.0007 0.0007 0.0114 35.1716 0.0015 -4.1442
# 5 -14.2367 -13.2642 -18.8978 0.0015 20.8057 -0.0001
# 6 0.0008 0.0035 0.0016 -4.1442 -0.0001 14.4817
#
#
#
# Elastic Compliance Matrix: (Units=1/GPa)
#
#
# Indices 1 2 3 4 5 6 
#
# 1 0.044684 0.003418 0.007636 -0.000004 0.039690 -0.000005
# 2 0.003418 0.009881 0.001770 -0.000002 0.010246 -0.000003
# 3 0.007636 0.001770 0.013727 -0.000006 0.018822 -0.000004
# 4 -0.000004 -0.000002 -0.000006 0.029424 -0.000011 0.008420
# 5 0.039690 0.010246 0.018822 -0.000011 0.098851 -0.000009
# 6 -0.000005 -0.000003 -0.000004 0.008420 -0.000009 0.071462
#
#
# Mechanical properties :
#
#
# Convention : Reuss Voigt Hill
#
# Bulk Modulus (GPa) = 10.64500 28.46455 19.55478
# Shear Modulus (GPa) = 18.26852 30.26483 24.26668
#
# Velocity S-wave (km/s) = 2.92047 3.75898 3.36594
# Velocity P-wave (km/s) = 4.04254 5.66828 4.92298
#
# Compressibility (1/GPa) = 0.09394079
#
# Stress axis : x y z
#
# Youngs Moduli (GPa) = 22.37961 101.20064 72.84793
#
# Poissons Ratio (x) = -0.34587 -0.55630
# Poissons Ratio (y) = -0.07649 -0.12896
# Poissons Ratio (z) = -0.17090 -0.17915
#
# Static dielectric constant tensor:
#      x y z
#    x 1.755200 -0.000030 0.081270 
#    y -0.000030 1.936890 -0.000180 
#    z 0.081270 -0.000180 2.100370 
# 
# From -- ./inp_files/302791.got.cif
#   From: 2010.05.17/outbox.cif.g08.bks.cpg/sg12_152_cif.got.tgz:302791.got - 2010.06.03 13:09:07.
