data_PCOD9186568
_publ_section_title
;
Structure prediction by ZEFSAII (Michael W. Deem and Ramdas Pophale) SiO2 
 PCOD9186568
Probable space group: C 2/M
;
_chemical_formula_sum "Si O2"
_cell_formula_units_Z 56
_cell_length_a 11.805422
_cell_length_b 28.026770
_cell_length_c 9.727115
_cell_angle_alpha 90.000000
_cell_angle_beta 115.011526
_cell_angle_gamma 90.000000
_cell_volume 2916.577879
_symmetry_space_group_name_H-M "C 2/M"
_symmetry_group_IT_number 12
_symmetry_cell_setting 'monoclinic'
loop_
_space_group_symop_operation_xyz
x,y,z
-x,y,-z
-x,-y,-z
x,-y,z
1/2+x,1/2+y,z
1/2-x,1/2+y,-z
1/2-x,1/2-y,-z
1/2+x,1/2-y,z
loop_
_atom_site_type_symbol
_atom_site_label
_atom_site_fract_x
_atom_site_fract_y
_atom_site_fract_z
Si Si1 0.559490 0.230702 0.178395
Si Si2 0.208484 0.382641 0.813604
Si Si3 0.698770 0.231708 0.826153
Si Si4 0.456158 0.883454 0.824315
Si Si5 0.780503 0.945829 0.348185
Si Si6 0.658527 0.445024 0.319223
Si Si7 0.381963 0.445321 0.095611
O O1 0.451826 0.243708 0.237974
O O2 0.704276 0.248303 0.240264
O O3 0.563476 0.173381 0.183545
O O4 0.500000 0.245453 0.000000
O O5 0.213458 0.325503 0.824345
O O6 0.068549 0.396161 0.781479
O O7 0.247107 0.405937 0.689851
O O8 0.300736 0.407098 0.972095
O O9 0.750000 0.250000 0.000000
O O10 0.331930 0.909278 0.715750
O O11 0.500000 0.897752 0.000000
O O12 0.859329 0.938939 0.527095
O O13 0.851619 0.941582 0.241569
O O14 0.730697 0.000000 0.328678
O O15 0.700082 0.500000 0.319415
O O16 0.530572 0.438784 0.169133
O O17 0.351935 0.500000 0.037232
#
# Coordination Sequence:
#
# PCOD9186568 Si02
#       7
#     8   8   8   8   8   8   8
#     4   8  16  30  49  74 110 141 172 224 276 327
#     4  11  21  34  56  86 113 138 179 234 280 319
#     4   9  18  31  50  80 112 141 178 226 278 330
#     4  10  19  35  54  80 110 141 181 230 276 321
#     4  10  21  36  56  78 107 151 189 219 268 337
#     4  10  22  38  53  78 115 147 181 226 278 329
#     4  10  20  35  56  80 109 146 186 227 269 322
#
# _framework density 19.200585
#
# number of rings (size 3 to 8) (size 9 to 14) (size 15 to 20)
#    0.000    2.286    1.429    2.143    0.000    8.286 
#    0.000    1.429    0.000    0.857    0.000    0.000 
#    0.000    0.000    0.000    0.000    0.000    0.000 
#
# Total GULP energy -155962.767531 kJ/mol
# GULP energy per Si atom -5570.098840 kJ/mol
# Density = 1.915688 g / cm^3
# Si number density = 19.200585 Si / 1000 Ang^3
#
#
#
# Elastic Constant Matrix: (Units=GPa)
#
#
# Indices 1 2 3 4 5 6 
#
# 1 135.7206 44.3604 8.2340 0.0000 -11.2318 0.0000
# 2 44.3604 41.7881 7.9813 0.0000 -3.3830 0.0000
# 3 8.2340 7.9813 45.6080 0.0000 -7.1250 0.0000
# 4 0.0000 0.0000 0.0000 10.0992 0.0000 -2.4755
# 5 -11.2318 -3.3830 -7.1250 0.0000 25.3305 0.0000
# 6 0.0000 0.0000 0.0000 -2.4755 0.0000 31.1621
#
#
#
# Elastic Compliance Matrix: (Units=1/GPa)
#
#
# Indices 1 2 3 4 5 6 
#
# 1 0.011603 -0.012134 0.000606 0.000000 0.003695 0.000000
# 2 -0.012134 0.037563 -0.004644 0.000000 -0.001670 0.000000
# 3 0.000606 -0.004644 0.023612 0.000000 0.006290 0.000000
# 4 0.000000 0.000000 0.000000 0.100984 0.000000 0.008022
# 5 0.003695 -0.001670 0.006290 0.000000 0.042663 0.000000
# 6 0.000000 0.000000 0.000000 0.008022 0.000000 0.032728
#
#
# Mechanical properties :
#
#
# Convention : Reuss Voigt Hill
#
# Bulk Modulus (GPa) = 24.73150 38.25202 31.49176
# Shear Modulus (GPa) = 16.95068 24.15444 20.55256
#
# Velocity S-wave (km/s) = 2.97445 3.55069 3.27527
# Velocity P-wave (km/s) = 4.97042 6.06427 5.54439
#
# Compressibility (1/GPa) = 0.04043427
#
# Stress axis : x y z
#
# Youngs Moduli (GPa) = 86.18413 26.62209 42.35160
#
# Poissons Ratio (x) = 0.32303 -0.02566
# Poissons Ratio (y) = 1.04575 0.19667
# Poissons Ratio (z) = -0.05221 0.12362
#
# Static dielectric constant tensor:
#      x y z
#    x 1.721610 0.000000 -0.035480 
#    y 0.000000 1.636020 0.000000 
#    z -0.035480 0.000000 1.670820 
# 
# From -- ./inp_files/54321.got.cif
#   From: 2010.05.17/outbox.cif.g08.bks.cpg/sg12_28_cif.got.tgz:54321.got - 2010.06.03 13:09:07.
