data_PCOD9186929
_publ_section_title
;
Structure prediction by ZEFSAII (Michael W. Deem and Ramdas Pophale) SiO2 
 PCOD9186929
Probable space group: C 2/M
;
_chemical_formula_sum "Si O2"
_cell_formula_units_Z 48
_cell_length_a 16.282609
_cell_length_b 28.766474
_cell_length_c 7.719066
_cell_angle_alpha 90.000000
_cell_angle_beta 35.270489
_cell_angle_gamma 90.000000
_cell_volume 2087.757862
_symmetry_space_group_name_H-M "C 2/M"
_symmetry_group_IT_number 12
_symmetry_cell_setting 'monoclinic'
loop_
_space_group_symop_operation_xyz
x,y,z
-x,y,-z
-x,-y,-z
x,-y,z
1/2+x,1/2+y,z
1/2-x,1/2+y,-z
1/2-x,1/2-y,-z
1/2+x,1/2-y,z
loop_
_atom_site_type_symbol
_atom_site_label
_atom_site_fract_x
_atom_site_fract_y
_atom_site_fract_z
Si Si1 0.354822 0.854634 0.569400
Si Si2 0.077513 0.284942 0.053149
Si Si3 0.409865 0.684481 0.830538
Si Si4 0.863234 0.949190 0.353073
Si Si5 0.935158 0.448554 0.303740
Si Si6 0.687146 0.647984 0.492687
O O1 0.464008 0.812178 0.366056
O O2 0.442968 0.902846 0.408533
O O3 0.263074 0.853005 0.548741
O O4 0.232778 0.846267 0.920679
O O5 0.126291 0.236876 0.052160
O O6 0.210601 0.318543 0.791224
O O7 0.000000 0.276808 0.000000
O O8 0.500000 0.683091 0.500000
O O9 0.528366 0.666980 0.761934
O O10 0.732028 0.952808 0.447092
O O11 0.826903 0.906013 0.538571
O O12 0.880376 0.000000 0.407419
O O13 0.000000 0.938876 0.000000
O O14 0.988110 0.500000 0.269410
O O15 0.000000 0.439164 0.000000
#
# Coordination Sequence:
#
# PCOD9186929 Si02
#       6
#     8   8   8   8   8   8
#     4  10  19  35  57  80 107 137 173 215 261 313
#     4  10  21  36  56  80 103 134 176 220 266 315
#     4  12  25  37  51  74 105 143 183 220 261 309
#     4   9  16  27  48  78 107 134 164 201 250 306
#     4   9  16  28  51  84 113 132 160 209 263 311
#     4  10  19  35  57  79 105 136 172 216 265 313
#
# _framework density 22.99117
#
# number of rings (size 3 to 8) (size 9 to 14) (size 15 to 20)
#    0.000    2.000    0.000    7.000    0.000    5.333 
#    0.000    0.000    0.000    2.000    0.000    0.000 
#    0.000   16.000    0.000    0.000    0.000    0.000 
#
# Total GULP energy -134028.324994 kJ/mol
# GULP energy per Si atom -5584.513541 kJ/mol
# Density = 2.293884 g / cm^3
# Si number density = 22.991170 Si / 1000 Ang^3
#
#
#
# Elastic Constant Matrix: (Units=GPa)
#
#
# Indices 1 2 3 4 5 6 
#
# 1 50.6040 1.7530 6.2031 0.0000 9.0576 0.0000
# 2 1.7530 175.2346 29.4743 0.0000 13.6209 0.0000
# 3 6.2031 29.4743 78.5099 0.0000 8.0470 0.0000
# 4 0.0000 0.0000 0.0000 28.6847 0.0000 -11.3172
# 5 9.0576 13.6209 8.0470 0.0000 31.5487 0.0000
# 6 0.0000 0.0000 0.0000 -11.3172 0.0000 -14.2571
#
#
#
# Elastic Compliance Matrix: (Units=1/GPa)
#
#
# Indices 1 2 3 4 5 6 
#
# 1 0.020951 0.000454 -0.001221 0.000000 -0.005900 0.000000
# 2 0.000454 0.006240 -0.002145 0.000000 -0.002277 0.000000
# 3 -0.001221 -0.002145 0.013871 0.000000 -0.002261 0.000000
# 4 0.000000 0.000000 0.000000 0.026548 0.000000 -0.021073
# 5 -0.005900 -0.002277 -0.002261 0.000000 0.034951 0.000000
# 6 0.000000 0.000000 0.000000 -0.021073 0.000000 -0.053413
#
#
# Mechanical properties :
#
#
# Convention : Reuss Voigt Hill
#
# Bulk Modulus (GPa) = 28.37833 42.13435 35.25634
# Shear Modulus (GPa) = 74.94264 26.98978 50.96621
#
# Velocity S-wave (km/s) = 5.71551 3.42997 4.71337
# Velocity P-wave (km/s) = 7.47837 5.83544 6.70740
#
# Compressibility (1/GPa) = 0.03523816
#
# Stress axis : x y z
#
# Youngs Moduli (GPa) = 47.72981 160.25875 72.09377
#
# Poissons Ratio (x) = -0.07282 0.08804
# Poissons Ratio (y) = -0.02169 0.15465
# Poissons Ratio (z) = 0.05829 0.34377
#
# Static dielectric constant tensor:
#      x y z
#    x 1.904780 0.000000 0.021560 
#    y 0.000000 1.954400 0.000000 
#    z 0.021560 0.000000 1.905680 
# 
# From -- ./inp_files/91374.got.cif
#   From: 2010.05.17/outbox.cif.g08.bks.cpg/sg12_46_cif.got.tgz:91374.got - 2010.06.03 13:09:07.
