data_PCOD9186170
_publ_section_title
;
Structure prediction by ZEFSAII (Michael W. Deem and Ramdas Pophale) SiO2 
 PCOD9186170
Probable space group: C 2/M
;
_chemical_formula_sum "Si O2"
_cell_formula_units_Z 56
_cell_length_a 27.863672
_cell_length_b 8.198945
_cell_length_c 13.013858
_cell_angle_alpha 90.000000
_cell_angle_beta 111.761608
_cell_angle_gamma 90.000000
_cell_volume 2761.175084
_symmetry_space_group_name_H-M "C 2/M"
_symmetry_group_IT_number 12
_symmetry_cell_setting 'monoclinic'
loop_
_space_group_symop_operation_xyz
x,y,z
-x,y,-z
-x,-y,-z
x,-y,z
1/2+x,1/2+y,z
1/2-x,1/2+y,-z
1/2-x,1/2-y,-z
1/2+x,1/2-y,z
loop_
_atom_site_type_symbol
_atom_site_label
_atom_site_fract_x
_atom_site_fract_y
_atom_site_fract_z
Si Si1 0.154031 0.697091 0.661101
Si Si2 0.613128 0.699908 0.229397
Si Si3 0.996895 0.194027 0.180320
Si Si4 0.390565 0.302833 0.003722
Si Si5 0.462682 0.196977 0.376677
Si Si6 0.696817 0.805467 0.907553
Si Si7 0.191346 0.805903 0.467758
O O1 0.155407 0.500000 0.659186
O O2 0.095506 0.746406 0.641713
O O3 0.189023 0.754369 0.784466
O O4 0.171266 0.757563 0.564084
O O5 0.613045 0.500000 0.232562
O O6 0.554435 0.756773 0.204169
O O7 0.653050 0.757860 0.347811
O O8 0.626914 0.748099 0.123968
O O9 0.948824 0.256574 0.074273
O O10 0.981734 0.226880 0.285848
O O11 0.999263 0.000000 0.163732
O O12 0.391598 0.500000 0.006089
O O13 0.351291 0.247753 0.060377
O O14 0.500000 0.241392 0.500000
O O15 0.463590 0.000000 0.365807
O O16 0.696652 0.000000 0.903505
O O17 0.750000 0.750000 0.000000
O O18 0.250000 0.750000 0.500000
O O19 0.190607 0.000000 0.459481
#
# Coordination Sequence:
#
# PCOD9186170 Si02
#       7
#     8   8   8   8   8   8   8
#     4  10  22  41  61  84 119 156 192 241 296 348
#     4   9  20  38  59  86 120 157 193 240 296 346
#     4  10  19  34  59  89 118 150 194 240 286 352
#     4  10  20  37  62  90 120 155 194 237 296 358
#     4  10  20  35  57  84 118 157 192 234 292 351
#     4  11  24  41  62  88 120 155 198 248 297 351
#     4  11  24  41  62  86 117 155 201 248 293 349
#
# _framework density 20.281220999999999
#
# number of rings (size 3 to 8) (size 9 to 14) (size 15 to 20)
#    0.000    1.857    1.429    2.143    2.000    3.714 
#    0.000    2.143    0.000    1.714    0.000    0.000 
#    0.000    0.000    0.000    0.000    0.000    0.000 
#
# Total GULP energy -156437.688297 kJ/mol
# GULP energy per Si atom -5587.060296 kJ/mol
# Density = 2.023506 g / cm^3
# Si number density = 20.281221 Si / 1000 Ang^3
#
#
#
# Elastic Constant Matrix: (Units=GPa)
#
#
# Indices 1 2 3 4 5 6 
#
# 1 67.2865 9.8594 48.9831 0.0000 11.6190 0.0000
# 2 9.8594 12.8704 15.9225 0.0000 5.3969 0.0000
# 3 48.9831 15.9225 179.2394 0.0000 14.4861 0.0000
# 4 0.0000 0.0000 0.0000 16.8405 0.0000 -1.5446
# 5 11.6190 5.3969 14.4861 0.0000 39.7402 0.0000
# 6 0.0000 0.0000 0.0000 -1.5446 0.0000 28.1669
#
#
#
# Elastic Compliance Matrix: (Units=1/GPa)
#
#
# Indices 1 2 3 4 5 6 
#
# 1 0.019849 -0.008452 -0.004428 0.000000 -0.003041 0.000000
# 2 -0.008452 0.094360 -0.005395 0.000000 -0.008377 0.000000
# 3 -0.004428 -0.005395 0.007320 0.000000 -0.000641 0.000000
# 4 0.000000 0.000000 0.000000 0.059681 0.000000 0.003273
# 5 -0.003041 -0.008377 -0.000641 0.000000 0.027424 0.000000
# 6 0.000000 0.000000 0.000000 0.003273 0.000000 0.035682
#
#
# Mechanical properties :
#
#
# Convention : Reuss Voigt Hill
#
# Bulk Modulus (GPa) = 11.76771 45.43627 28.60199
# Shear Modulus (GPa) = 16.17113 29.25826 22.71470
#
# Velocity S-wave (km/s) = 2.82679 3.80232 3.35025
# Velocity P-wave (km/s) = 4.05823 6.45976 5.39434
#
# Compressibility (1/GPa) = 0.08497829
#
# Stress axis : x y z
#
# Youngs Moduli (GPa) = 50.38099 10.59770 136.60724
#
# Poissons Ratio (x) = 0.08957 0.60485
# Poissons Ratio (y) = 0.42583 0.73706
# Poissons Ratio (z) = 0.22307 0.05718
#
# Static dielectric constant tensor:
#      x y z
#    x 1.685050 0.000000 0.028240 
#    y 0.000000 1.720550 0.000000 
#    z 0.028240 0.000000 1.720440 
# 
# From -- ./inp_files/180765.got.cif
#   From: 2010.05.17/outbox.cif.g08.bks.cpg/sg12_91_cif.got.tgz:180765.got - 2010.06.03 13:09:07.
