data_PCOD9186256
_publ_section_title
;
Structure prediction by ZEFSAII (Michael W. Deem and Ramdas Pophale) SiO2 
 PCOD9186256
Probable space group: C 2/M
;
_chemical_formula_sum "Si O2"
_cell_formula_units_Z 56
_cell_length_a 19.401156
_cell_length_b 8.506685
_cell_length_c 27.410044
_cell_angle_alpha 90.000000
_cell_angle_beta 41.690426
_cell_angle_gamma 90.000000
_cell_volume 3008.765119
_symmetry_space_group_name_H-M "C 2/M"
_symmetry_group_IT_number 12
_symmetry_cell_setting 'monoclinic'
loop_
_space_group_symop_operation_xyz
x,y,z
-x,y,-z
-x,-y,-z
x,-y,z
1/2+x,1/2+y,z
1/2-x,1/2+y,-z
1/2-x,1/2-y,-z
1/2+x,1/2-y,z
loop_
_atom_site_type_symbol
_atom_site_label
_atom_site_fract_x
_atom_site_fract_y
_atom_site_fract_z
Si Si1 0.577714 0.186181 0.808014
Si Si2 0.215574 0.813592 0.571239
Si Si3 0.012489 0.186908 0.740644
Si Si4 0.113726 0.819505 0.446868
Si Si5 0.920994 0.688269 0.082894
Si Si6 0.187076 0.683348 0.205471
Si Si7 0.199313 0.323019 0.311429
O O1 0.517366 0.229287 0.790783
O O2 0.535705 0.215744 0.885022
O O3 0.678297 0.296349 0.753205
O O4 0.604389 0.000000 0.792167
O O5 0.250000 0.750000 0.500000
O O6 0.308184 0.769494 0.559102
O O7 0.107502 0.758022 0.654456
O O8 0.205848 0.000000 0.571662
O O9 0.901003 0.222560 0.776305
O O10 0.026074 0.000000 0.740244
O O11 0.158097 0.807609 0.369286
O O12 0.000000 0.749232 0.500000
O O13 0.105112 0.000000 0.468215
O O14 0.910534 0.500000 0.083041
O O15 0.805545 0.758041 0.138015
O O16 0.000000 0.746762 0.000000
O O17 0.182168 0.500000 0.194271
O O18 0.161231 0.695557 0.276643
O O19 0.174961 0.500000 0.341573
#
# Coordination Sequence:
#
# PCOD9186256 Si02
#       7
#     8   8   8   8   8   8   8
#     4  10  19  34  60  87 113 150 190 231 281 341
#     4  11  25  42  60  83 115 155 198 246 300 350
#     4  11  23  39  59  84 117 155 196 243 291 345
#     4  11  24  39  57  82 112 147 192 242 292 347
#     4   9  19  38  63  91 122 154 189 233 286 344
#     4  10  22  37  58  88 118 151 194 239 286 343
#     4  10  20  36  56  81 110 145 189 237 286 339
#
# _framework density 18.612287999999999
#
# number of rings (size 3 to 8) (size 9 to 14) (size 15 to 20)
#    0.000    1.714    1.429    2.571    2.000    5.429 
#    0.000    0.714    0.000    0.000    0.000    0.000 
#    0.000    0.000    0.000    0.000    0.000    0.000 
#
# Total GULP energy -156093.587512 kJ/mol
# GULP energy per Si atom -5574.770983 kJ/mol
# Density = 1.856993 g / cm^3
# Si number density = 18.612288 Si / 1000 Ang^3
#
#
#
# Elastic Constant Matrix: (Units=GPa)
#
#
# Indices 1 2 3 4 5 6 
#
# 1 109.9704 25.1294 52.5654 0.0000 1.7261 0.0004
# 2 25.1294 42.7088 22.6528 0.0000 9.9334 0.0006
# 3 52.5654 22.6528 107.2686 0.0001 13.3577 0.0001
# 4 0.0000 0.0000 0.0001 25.4832 0.0000 7.0252
# 5 1.7261 9.9334 13.3577 0.0000 17.3179 0.0000
# 6 0.0004 0.0006 0.0001 7.0252 0.0000 38.7474
#
#
#
# Elastic Compliance Matrix: (Units=1/GPa)
#
#
# Indices 1 2 3 4 5 6 
#
# 1 0.013307 -0.006221 -0.006070 0.000000 0.006924 0.000000
# 2 -0.006221 0.031732 -0.001619 0.000000 -0.016333 0.000000
# 3 -0.006070 -0.001619 0.013770 0.000000 -0.009088 0.000000
# 4 0.000000 0.000000 0.000000 0.041306 0.000000 -0.007489
# 5 0.006924 -0.016333 -0.009088 0.000000 0.073431 0.000000
# 6 0.000000 0.000000 0.000000 -0.007489 0.000000 0.027166
#
#
# Mechanical properties :
#
#
# Convention : Reuss Voigt Hill
#
# Bulk Modulus (GPa) = 32.26733 51.18254 41.72494
# Shear Modulus (GPa) = 20.93258 26.94974 23.94116
#
# Velocity S-wave (km/s) = 3.35724 3.80933 3.59041
# Velocity P-wave (km/s) = 5.69230 6.84887 6.29719
#
# Compressibility (1/GPa) = 0.03099109
#
# Stress axis : x y z
#
# Youngs Moduli (GPa) = 75.14584 31.51388 72.62056
#
# Poissons Ratio (x) = 0.19605 0.44077
# Poissons Ratio (y) = 0.46748 0.11756
# Poissons Ratio (z) = 0.45610 0.05101
#
# Static dielectric constant tensor:
#      x y z
#    x 1.644340 0.000000 -0.014490 
#    y 0.000000 1.652340 0.000000 
#    z -0.014490 0.000000 2.016110 
# 
# From -- ./inp_files/342256.got.cif
#   From: 2010.05.17/outbox.cif.g08.bks.cpg/sg12_172_cif.got.tgz:342256.got - 2010.06.03 13:09:07.
