data_PCOD9186538
_publ_section_title
;
Structure prediction by ZEFSAII (Michael W. Deem and Ramdas Pophale) SiO2 
 PCOD9186538
Probable space group: C 2/M
;
_chemical_formula_sum "Si O2"
_cell_formula_units_Z 58
_cell_length_a 23.943103
_cell_length_b 7.720581
_cell_length_c 16.527934
_cell_angle_alpha 90.000000
_cell_angle_beta 82.600645
_cell_angle_gamma 90.000000
_cell_volume 3029.823339
_symmetry_space_group_name_H-M "C 2/M"
_symmetry_group_IT_number 12
_symmetry_cell_setting 'monoclinic'
loop_
_space_group_symop_operation_xyz
x,y,z
-x,y,-z
-x,-y,-z
x,-y,z
1/2+x,1/2+y,z
1/2-x,1/2+y,-z
1/2-x,1/2-y,-z
1/2+x,1/2-y,z
loop_
_atom_site_type_symbol
_atom_site_label
_atom_site_fract_x
_atom_site_fract_y
_atom_site_fract_z
Si Si1 0.187122 0.791275 0.665046
Si Si2 0.076545 0.703562 0.756785
Si Si3 0.583109 0.703660 0.261191
Si Si4 0.022805 0.300692 0.110556
Si Si5 0.012234 0.802928 0.610663
Si Si6 0.313801 0.794828 0.661335
Si Si7 0.000000 0.000000 0.000000
Si Si8 0.877738 0.790365 0.484360
O O1 0.142577 0.741308 0.742713
O O2 0.250172 0.725899 0.666848
O O3 0.159704 0.729658 0.585243
O O4 0.189236 0.000000 0.660064
O O5 0.067492 0.500000 0.742830
O O6 0.039670 0.745891 0.842015
O O7 0.050231 0.804271 0.685595
O O8 0.569670 0.500000 0.257208
O O9 0.563165 0.787328 0.181573
O O10 0.545011 0.776702 0.343091
O O11 0.647489 0.723218 0.274290
O O12 0.023470 0.500000 0.082826
O O13 0.034310 0.154575 0.043127
O O14 0.057291 0.728013 0.538326
O O15 0.998698 0.000000 0.589024
O O16 0.346322 0.758424 0.571664
O O17 0.310461 0.000000 0.673154
O O18 0.880948 0.000000 0.480413
#
# Coordination Sequence:
#
# PCOD9186538 Si02
#       8
#     8   8   8   8   8   8   2   8
#     4   9  19  33  49  67  98 139 188 232 280 317
#     4   9  17  29  51  78 105 133 169 221 266 303
#     4  10  19  35  54  73 103 146 181 217 271 330
#     4  10  21  37  58  91 123 141 172 214 256 324
#     4   8  16  30  49  67  92 134 178 218 270 326
#     4  11  22  32  44  69 102 140 186 235 277 320
#     4  12  22  36  64  94 120 150 166 192 284 322
#     4   9  17  31  47  66  92 133 183 241 286 322
#
# _framework density 19.14303
#
# number of rings (size 3 to 8) (size 9 to 14) (size 15 to 20)
#    0.000    2.483    0.690    2.690    1.931    4.414 
#    0.000    2.759    0.000    0.000    0.000    0.966 
#    0.000    0.000    0.000    0.000    0.000    0.000 
#
# Total GULP energy -161465.987450 kJ/mol
# GULP energy per Si atom -5567.792671 kJ/mol
# Density = 1.909946 g / cm^3
# Si number density = 19.143030 Si / 1000 Ang^3
#
#
#
# Elastic Constant Matrix: (Units=GPa)
#
#
# Indices 1 2 3 4 5 6 
#
# 1 112.8290 2.5649 18.0877 0.0000 21.9413 0.0000
# 2 2.5649 61.9863 14.3532 0.0000 4.0677 0.0000
# 3 18.0877 14.3532 46.6900 0.0000 17.4032 0.0000
# 4 0.0000 0.0000 0.0000 0.2853 0.0000 17.5150
# 5 21.9413 4.0677 17.4032 0.0000 16.3204 0.0000
# 6 0.0000 0.0000 0.0000 17.5150 0.0000 6.6708
#
#
#
# Elastic Compliance Matrix: (Units=1/GPa)
#
#
# Indices 1 2 3 4 5 6 
#
# 1 0.012149 0.000214 0.002217 0.000000 -0.018750 0.000000
# 2 0.000214 0.017423 -0.006163 0.000000 0.001940 0.000000
# 3 0.002217 -0.006163 0.038159 0.000000 -0.042135 0.000000
# 4 0.000000 0.000000 0.000000 -0.021881 0.000000 0.057450
# 5 -0.018750 0.001940 -0.042135 0.000000 0.130928 0.000000
# 6 0.000000 0.000000 0.000000 0.057450 0.000000 -0.000936
#
#
# Mechanical properties :
#
#
# Convention : Reuss Voigt Hill
#
# Bulk Modulus (GPa) = 16.59248 32.39076 24.49162
# Shear Modulus (GPa) = 24.58262 17.08858 20.83560
#
# Velocity S-wave (km/s) = 3.58740 2.99102 3.30270
# Velocity P-wave (km/s) = 5.08387 5.37451 5.23121
#
# Compressibility (1/GPa) = 0.06026827
#
# Stress axis : x y z
#
# Youngs Moduli (GPa) = 82.31074 57.39422 26.20622
#
# Poissons Ratio (x) = -0.01231 -0.05809
# Poissons Ratio (y) = -0.01765 0.16150
# Poissons Ratio (z) = -0.18245 0.35370
#
# Static dielectric constant tensor:
#      x y z
#    x 1.718160 0.000000 -0.011280 
#    y 0.000000 1.708090 0.000000 
#    z -0.011280 0.000000 1.685670 
# 
# From -- ./inp_files/237750.got.cif
#   From: 2010.05.17/outbox.cif.g08.bks.cpg/sg12_119_cif.got.tgz:237750.got - 2010.06.03 13:09:07.
