data_PCOD9186753
_publ_section_title
;
Structure prediction by ZEFSAII (Michael W. Deem and Ramdas Pophale) SiO2 
 PCOD9186753
Probable space group: C 2/M
;
_chemical_formula_sum "Si O2"
_cell_formula_units_Z 56
_cell_length_a 24.654607
_cell_length_b 8.350204
_cell_length_c 15.078242
_cell_angle_alpha 90.000000
_cell_angle_beta 69.151433
_cell_angle_gamma 90.000000
_cell_volume 2900.924948
_symmetry_space_group_name_H-M "C 2/M"
_symmetry_group_IT_number 12
_symmetry_cell_setting 'monoclinic'
loop_
_space_group_symop_operation_xyz
x,y,z
-x,y,-z
-x,-y,-z
x,-y,z
1/2+x,1/2+y,z
1/2-x,1/2+y,-z
1/2-x,1/2-y,-z
1/2+x,1/2-y,z
loop_
_atom_site_type_symbol
_atom_site_label
_atom_site_fract_x
_atom_site_fract_y
_atom_site_fract_z
Si Si1 0.192833 0.191214 0.819423
Si Si2 0.428202 0.306510 0.634756
Si Si3 0.440903 0.692779 0.424158
Si Si4 0.007153 0.305094 0.098245
Si Si5 0.317310 0.807069 0.807356
Si Si6 0.895358 0.309042 0.271949
Si Si7 0.362231 0.806140 0.965731
O O1 0.258626 0.251738 0.794877
O O2 0.159774 0.254250 0.752448
O O3 0.158090 0.241672 0.928002
O O4 0.193910 0.000000 0.814000
O O5 0.427256 0.500000 0.638565
O O6 0.492201 0.253349 0.629942
O O7 0.423790 0.258077 0.533775
O O8 0.375176 0.241502 0.722080
O O9 0.441114 0.500000 0.422764
O O10 0.399870 0.753567 0.370374
O O11 0.005469 0.500000 0.100858
O O12 0.953456 0.246475 0.187947
O O13 0.000000 0.256262 0.000000
O O14 0.071213 0.256810 0.091830
O O15 0.314880 0.000000 0.811019
O O16 0.322934 0.751917 0.906193
O O17 0.897087 0.500000 0.268645
O O18 0.360994 0.000000 0.971339
#
# Coordination Sequence:
#
# PCOD9186753 Si02
#       7
#     8   8   8   8   8   8   8
#     4  11  23  37  51  75 112 149 185 230 275 318
#     4   9  19  37  61  85 112 143 175 215 272 332
#     4   9  19  37  59  86 116 141 168 218 279 327
#     4   9  16  29  50  76 105 134 169 218 267 311
#     4  10  22  37  55  79 109 145 186 232 275 312
#     4  11  21  35  57  82 108 147 188 221 269 328
#     4  10  19  35  56  77 105 143 184 227 273 325
#
# _framework density 19.304186000000001
#
# number of rings (size 3 to 8) (size 9 to 14) (size 15 to 20)
#    0.000    2.143    1.429    3.000    0.000    4.000 
#    0.000    4.286    0.000    0.000    0.000    0.000 
#    0.000    0.000    0.000    0.000    0.000    0.000 
#
# Total GULP energy -156330.844558 kJ/mol
# GULP energy per Si atom -5583.244449 kJ/mol
# Density = 1.926025 g / cm^3
# Si number density = 19.304186 Si / 1000 Ang^3
#
#
#
# Elastic Constant Matrix: (Units=GPa)
#
#
# Indices 1 2 3 4 5 6 
#
# 1 137.1657 17.1448 45.1817 0.0000 33.5346 0.0000
# 2 17.1448 12.5653 4.6420 0.0000 8.5491 0.0000
# 3 45.1817 4.6420 47.2216 0.0000 23.1977 0.0000
# 4 0.0000 0.0000 0.0000 27.0712 0.0000 -0.6693
# 5 33.5346 8.5491 23.1977 0.0000 32.5460 0.0000
# 6 0.0000 0.0000 0.0000 -0.6693 0.0000 21.3962
#
#
#
# Elastic Compliance Matrix: (Units=1/GPa)
#
#
# Indices 1 2 3 4 5 6 
#
# 1 0.012604 -0.011487 -0.009283 0.000000 -0.003353 0.000000
# 2 -0.011487 0.108020 0.013075 0.000000 -0.025858 0.000000
# 3 -0.009283 0.013075 0.039643 0.000000 -0.022125 0.000000
# 4 0.000000 0.000000 0.000000 0.036968 0.000000 0.001156
# 5 -0.003353 -0.025858 -0.022125 0.000000 0.056742 0.000000
# 6 0.000000 0.000000 0.000000 0.001156 0.000000 0.046774
#
#
# Mechanical properties :
#
#
# Convention : Reuss Voigt Hill
#
# Bulk Modulus (GPa) = 6.90246 36.76554 21.83400
# Shear Modulus (GPa) = 13.71993 24.86828 19.29411
#
# Velocity S-wave (km/s) = 2.66883 3.59309 3.16488
# Velocity P-wave (km/s) = 3.61667 6.02498 4.96894
#
# Compressibility (1/GPa) = 0.14487594
#
# Stress axis : x y z
#
# Youngs Moduli (GPa) = 79.34206 9.25753 25.22533
#
# Poissons Ratio (x) = 0.10634 0.23417
# Poissons Ratio (y) = 0.91138 -0.32981
# Poissons Ratio (z) = 0.73654 -0.12104
#
# Static dielectric constant tensor:
#      x y z
#    x 1.691770 0.000000 0.004690 
#    y 0.000000 1.668370 0.000000 
#    z 0.004690 0.000000 1.651370 
# 
# From -- ./inp_files/237400.got.cif
#   From: 2010.05.17/outbox.cif.g08.bks.cpg/sg12_119_cif.got.tgz:237400.got - 2010.06.03 13:09:07.
