data_PCOD9186390
_publ_section_title
;
Structure prediction by ZEFSAII (Michael W. Deem and Ramdas Pophale) SiO2 
 PCOD9186390
Probable space group: C 2/M
;
_chemical_formula_sum "Si O2"
_cell_formula_units_Z 56
_cell_length_a 18.195829
_cell_length_b 23.425189
_cell_length_c 9.478799
_cell_angle_alpha 90.000000
_cell_angle_beta 140.827558
_cell_angle_gamma 90.000000
_cell_volume 2552.050318
_symmetry_space_group_name_H-M "C 2/M"
_symmetry_group_IT_number 12
_symmetry_cell_setting 'monoclinic'
loop_
_space_group_symop_operation_xyz
x,y,z
-x,y,-z
-x,-y,-z
x,-y,z
1/2+x,1/2+y,z
1/2-x,1/2+y,-z
1/2-x,1/2-y,-z
1/2+x,1/2-y,z
loop_
_atom_site_type_symbol
_atom_site_label
_atom_site_fract_x
_atom_site_fract_y
_atom_site_fract_z
Si Si1 0.704177 0.864121 0.107368
Si Si2 0.623319 0.565362 0.105676
Si Si3 0.799418 0.566409 0.619816
Si Si4 0.105883 0.320836 0.560238
Si Si5 0.484507 0.763856 0.142534
Si Si6 0.346711 0.335482 0.064815
Si Si7 0.506181 0.066124 0.303279
O O1 0.727717 0.892250 0.292467
O O2 0.618603 0.810375 0.997945
O O3 0.814721 0.846599 0.179242
O O4 0.624345 0.910353 0.904381
O O5 0.644573 0.500000 0.095398
O O6 0.717875 0.580312 0.365492
O O7 0.628787 0.606191 0.980896
O O8 0.500000 0.569347 0.000000
O O9 0.779020 0.500000 0.628875
O O10 0.930750 0.570431 0.755720
O O11 0.227180 0.311438 0.816727
O O12 0.078841 0.388457 0.502710
O O13 0.000000 0.298733 0.500000
O O14 0.092574 0.292504 0.386498
O O15 0.500000 0.751658 0.000000
O O16 0.446843 0.708285 0.172856
O O17 0.513327 0.000000 0.356577
#
# Coordination Sequence:
#
# PCOD9186390 Si02
#       7
#     8   8   8   8   8   8   8
#     4  11  22  38  61  94 131 162 199 259 313 373
#     4  10  23  44  66  89 126 169 213 258 298 361
#     4  10  20  37  63  94 128 167 206 248 308 371
#     4  11  22  41  62  92 130 162 201 263 314 370
#     4  11  25  43  63  88 123 165 211 259 310 371
#     4  12  24  43  64  93 124 165 211 257 314 370
#     4  10  19  34  61  96 131 163 198 245 308 378
#
# _framework density 21.943141000000001
#
# number of rings (size 3 to 8) (size 9 to 14) (size 15 to 20)
#    0.000    1.286    4.286    3.429    0.000    3.143 
#    2.571    0.714    0.000    2.571    0.000    0.000 
#    0.000    0.000    0.000    0.000    0.000    0.000 
#
# Total GULP energy -156612.625676 kJ/mol
# GULP energy per Si atom -5593.308060 kJ/mol
# Density = 2.189320 g / cm^3
# Si number density = 21.943141 Si / 1000 Ang^3
#
#
#
# Elastic Constant Matrix: (Units=GPa)
#
#
# Indices 1 2 3 4 5 6 
#
# 1 89.7814 38.3236 17.8175 0.0000 -35.3989 0.0000
# 2 38.3236 80.4734 21.2064 0.0000 -18.4661 0.0000
# 3 17.8175 21.2064 12.0477 0.0000 -7.2876 0.0000
# 4 0.0000 0.0000 0.0000 10.5164 0.0000 3.7241
# 5 -35.3989 -18.4661 -7.2876 0.0000 28.9049 0.0000
# 6 0.0000 0.0000 0.0000 3.7241 0.0000 16.6808
#
#
#
# Elastic Compliance Matrix: (Units=1/GPa)
#
#
# Indices 1 2 3 4 5 6 
#
# 1 0.025877 -0.000800 -0.021240 0.000000 0.025824 0.000000
# 2 -0.000800 0.023921 -0.038078 0.000000 0.004702 0.000000
# 3 -0.021240 -0.038078 0.178162 0.000000 -0.005419 0.000000
# 4 0.000000 0.000000 0.000000 0.103253 0.000000 -0.023052
# 5 0.025824 0.004702 -0.005419 0.000000 0.067859 0.000000
# 6 0.000000 0.000000 0.000000 -0.023052 0.000000 0.065096
#
#
# Mechanical properties :
#
#
# Convention : Reuss Voigt Hill
#
# Bulk Modulus (GPa) = 9.28303 37.44416 23.36360
# Shear Modulus (GPa) = 8.06046 18.21743 13.13894
#
# Velocity S-wave (km/s) = 1.91867 2.88446 2.44964
# Velocity P-wave (km/s) = 3.02458 5.30987 4.32104
#
# Compressibility (1/GPa) = 0.10772346
#
# Stress axis : x y z
#
# Youngs Moduli (GPa) = 38.64454 41.80486 5.61285
#
# Poissons Ratio (x) = 0.03345 0.11922
# Poissons Ratio (y) = 0.03092 0.21373
# Poissons Ratio (z) = 0.82082 1.59184
#
# Static dielectric constant tensor:
#      x y z
#    x 1.838800 0.000000 0.008150 
#    y 0.000000 1.808800 0.000000 
#    z 0.008150 0.000000 1.811510 
# 
# From -- ./inp_files/79148.got.cif
#   From: 2010.05.17/outbox.cif.g08.bks.cpg/sg12_40_cif.got.tgz:79148.got - 2010.06.03 13:09:07.
