data_PCOD9186885
_publ_section_title
;
Structure prediction by ZEFSAII (Michael W. Deem and Ramdas Pophale) SiO2 
 PCOD9186885
Probable space group: C 2/M
;
_chemical_formula_sum "Si O2"
_cell_formula_units_Z 64
_cell_length_a 18.251798
_cell_length_b 21.395830
_cell_length_c 9.560460
_cell_angle_alpha 90.000000
_cell_angle_beta 122.950900
_cell_angle_gamma 90.000000
_cell_volume 3132.899386
_symmetry_space_group_name_H-M "C 2/M"
_symmetry_group_IT_number 12
_symmetry_cell_setting 'monoclinic'
loop_
_space_group_symop_operation_xyz
x,y,z
-x,y,-z
-x,-y,-z
x,-y,z
1/2+x,1/2+y,z
1/2-x,1/2+y,-z
1/2-x,1/2-y,-z
1/2+x,1/2-y,z
loop_
_atom_site_type_symbol
_atom_site_label
_atom_site_fract_x
_atom_site_fract_y
_atom_site_fract_z
Si Si1 0.248947 0.432021 0.946611
Si Si2 0.590634 0.867205 0.177878
Si Si3 0.262046 0.568030 0.290234
Si Si4 0.397065 0.610318 0.905844
Si Si5 0.326323 0.793340 0.158793
Si Si6 0.827428 0.161687 0.565670
Si Si7 0.409056 0.247947 0.986289
Si Si8 0.137783 0.293302 0.475030
O O1 0.205206 0.500000 0.871730
O O2 0.269289 0.431040 0.131728
O O3 0.336559 0.429414 0.944429
O O4 0.197095 0.367105 0.870493
O O5 0.661038 0.921445 0.231413
O O6 0.581266 0.844692 0.329471
O O7 0.500000 0.879348 0.000000
O O8 0.637433 0.807756 0.147431
O O9 0.291234 0.500000 0.371862
O O10 0.314839 0.625043 0.409925
O O11 0.363405 0.612508 0.713397
O O12 0.500000 0.597648 0.000000
O O13 0.378022 0.681552 0.939063
O O14 0.406462 0.774478 0.142071
O O15 0.352957 0.784083 0.348335
O O16 0.250000 0.750000 0.000000
O O17 0.883172 0.224466 0.606955
O O18 0.734697 0.185002 0.528656
O O19 0.500000 0.249205 0.000000
#
# Coordination Sequence:
#
# PCOD9186885 Si02
#       8
#     8   8   8   8   8   8   8   8
#     4  11  23  39  59  90 120 155 210 256 298 369
#     4  10  20  37  59  87 127 157 191 252 310 363
#     4  10  22  38  60  84 114 161 211 252 296 359
#     4  11  22  39  62  86 122 165 195 249 322 372
#     4  12  20  36  64  91 119 168 208 253 319 362
#     4  10  19  35  56  90 121 147 206 255 301 363
#     4  10  20  35  59  88 124 158 194 249 308 368
#     4  10  20  32  59  94 119 157 201 253 307 374
#
# _framework density 20.428362
#
# number of rings (size 3 to 8) (size 9 to 14) (size 15 to 20)
#    0.000    1.500    5.000    0.750    1.750    1.000 
#    0.000    3.125    0.000    1.875    0.000    1.750 
#    0.000    0.000    0.000    0.000    0.000    0.000 
#
# Total GULP energy -178161.494906 kJ/mol
# GULP energy per Si atom -5567.546716 kJ/mol
# Density = 2.038187 g / cm^3
# Si number density = 20.428362 Si / 1000 Ang^3
#
#
#
# Elastic Constant Matrix: (Units=GPa)
#
#
# Indices 1 2 3 4 5 6 
#
# 1 50.9878 16.3468 36.7491 0.0000 -11.3906 0.0000
# 2 16.3468 88.0327 10.4382 0.0000 -9.0226 0.0000
# 3 36.7491 10.4382 106.2908 0.0000 -22.4827 0.0000
# 4 0.0000 0.0000 0.0000 148.4216 0.0000 -70.8835
# 5 -11.3906 -9.0226 -22.4827 0.0000 34.3742 0.0000
# 6 0.0000 0.0000 0.0000 -70.8835 0.0000 57.3972
#
#
#
# Elastic Compliance Matrix: (Units=1/GPa)
#
#
# Indices 1 2 3 4 5 6 
#
# 1 0.027638 -0.003851 -0.008651 0.000000 0.002489 0.000000
# 2 -0.003851 0.012241 0.000626 0.000000 0.002346 0.000000
# 3 -0.008651 0.000626 0.013655 0.000000 0.006229 0.000000
# 4 0.000000 0.000000 0.000000 0.016425 0.000000 0.020284
# 5 0.002489 0.002346 0.006229 0.000000 0.034606 0.000000
# 6 0.000000 0.000000 0.000000 0.020284 0.000000 0.042473
#
#
# Mechanical properties :
#
#
# Convention : Reuss Voigt Hill
#
# Bulk Modulus (GPa) = 33.57800 41.37551 37.47675
# Shear Modulus (GPa) = 27.66728 60.15707 43.91218
#
# Velocity S-wave (km/s) = 3.68415 5.43247 4.64137
# Velocity P-wave (km/s) = 5.87962 7.72314 6.86356
#
# Compressibility (1/GPa) = 0.02978140
#
# Stress axis : x y z
#
# Youngs Moduli (GPa) = 36.18142 81.69386 73.23206
#
# Poissons Ratio (x) = 0.31463 0.63353
# Poissons Ratio (y) = 0.13934 -0.04582
# Poissons Ratio (z) = 0.31300 -0.05111
#
# Static dielectric constant tensor:
#      x y z
#    x 1.783920 0.000000 0.030470 
#    y 0.000000 1.793470 0.000000 
#    z 0.030470 0.000000 1.793860 
# 
# From -- ./inp_files/89626.got.cif
#   From: 2010.05.17/outbox.cif.g08.bks.cpg/sg12_45_cif.got.tgz:89626.got - 2010.06.03 13:09:07.
