data_PCOD9186378
_publ_section_title
;
Structure prediction by ZEFSAII (Michael W. Deem and Ramdas Pophale) SiO2 
 PCOD9186378
Probable space group: C 2/M
;
_chemical_formula_sum "Si O2"
_cell_formula_units_Z 50
_cell_length_a 19.453891
_cell_length_b 17.757053
_cell_length_c 9.020904
_cell_angle_alpha 90.000000
_cell_angle_beta 127.329229
_cell_angle_gamma 90.000000
_cell_volume 2477.902817
_symmetry_space_group_name_H-M "C 2/M"
_symmetry_group_IT_number 12
_symmetry_cell_setting 'monoclinic'
loop_
_space_group_symop_operation_xyz
x,y,z
-x,y,-z
-x,-y,-z
x,-y,z
1/2+x,1/2+y,z
1/2-x,1/2+y,-z
1/2-x,1/2-y,-z
1/2+x,1/2-y,z
loop_
_atom_site_type_symbol
_atom_site_label
_atom_site_fract_x
_atom_site_fract_y
_atom_site_fract_z
Si Si1 0.415717 0.139201 0.704658
Si Si2 0.057977 0.239594 0.848845
Si Si3 0.287716 0.802309 0.765455
Si Si4 0.250676 0.585707 0.028797
Si Si5 0.500000 0.000000 0.000000
Si Si6 0.145598 0.690871 0.673553
Si Si7 0.458378 0.583249 0.282996
O O1 0.486625 0.204168 0.814567
O O2 0.327074 0.167392 0.665131
O O3 0.401221 0.138820 0.508517
O O4 0.452974 0.066137 0.834752
O O5 0.087481 0.268113 0.722897
O O6 0.020772 0.155844 0.787115
O O7 0.141346 0.249021 0.061848
O O8 0.278528 0.875444 0.857702
O O9 0.198538 0.756583 0.657949
O O10 0.219196 0.500000 0.977374
O O11 0.354301 0.585473 0.159753
O O12 0.211078 0.637999 0.850105
O O13 0.500000 0.591377 0.500000
O O14 0.483360 0.500000 0.258980
#
# Coordination Sequence:
#
# PCOD9186378 Si02
#       7
#     8   8   8   8   2   8   8
#     4  12  26  41  65  86 131 169 211 258 321 384
#     4  11  20  42  63  92 122 166 210 253 309 372
#     4  11  21  41  61  93 124 167 202 258 313 387
#     4  10  21  36  61  94 123 157 203 263 313 358
#     4  12  28  48  58  96 130 172 216 258 336 376
#     4  11  22  40  64  92 120 166 213 262 303 380
#     4  10  19  34  61  92 123 153 201 257 307 365
#
# _framework density 20.178353999999999
#
# number of rings (size 3 to 8) (size 9 to 14) (size 15 to 20)
#    0.000    1.120    4.800    2.880    2.240    0.000 
#    0.000    0.800    0.000    2.880    0.000    0.000 
#    0.000    0.000    0.000    0.000    0.000    0.000 
#
# Total GULP energy -139328.418563 kJ/mol
# GULP energy per Si atom -5573.136743 kJ/mol
# Density = 2.013243 g / cm^3
# Si number density = 20.178354 Si / 1000 Ang^3
#
#
#
# Elastic Constant Matrix: (Units=GPa)
#
#
# Indices 1 2 3 4 5 6 
#
# 1 50.7181 21.1921 -3.5483 0.0000 -8.7074 0.0000
# 2 21.1921 149.0504 -7.5965 0.0000 -4.5722 0.0000
# 3 -3.5483 -7.5965 54.2446 0.0000 -9.0404 0.0000
# 4 0.0000 0.0000 0.0000 27.1436 0.0000 4.2040
# 5 -8.7074 -4.5722 -9.0404 0.0000 23.2577 0.0000
# 6 0.0000 0.0000 0.0000 4.2040 0.0000 6.3574
#
#
#
# Elastic Compliance Matrix: (Units=1/GPa)
#
#
# Indices 1 2 3 4 5 6 
#
# 1 0.022600 -0.002809 0.002569 0.000000 0.008908 0.000000
# 2 -0.002809 0.007179 0.000943 0.000000 0.000726 0.000000
# 3 0.002569 0.000943 0.020237 0.000000 0.009014 0.000000
# 4 0.000000 0.000000 0.000000 0.041045 0.000000 -0.027142
# 5 0.008908 0.000726 0.009014 0.000000 0.049978 0.000000
# 6 0.000000 0.000000 0.000000 -0.027142 0.000000 0.175247
#
#
# Mechanical properties :
#
#
# Convention : Reuss Voigt Hill
#
# Bulk Modulus (GPa) = 19.44702 30.45643 24.95172
# Shear Modulus (GPa) = 15.05933 27.61612 21.33773
#
# Velocity S-wave (km/s) = 2.73483 3.70347 3.25538
# Velocity P-wave (km/s) = 4.43068 5.78049 5.15000
#
# Compressibility (1/GPa) = 0.05142176
#
# Stress axis : x y z
#
# Youngs Moduli (GPa) = 44.24856 139.29830 49.41371
#
# Poissons Ratio (x) = 0.39129 -0.12697
# Poissons Ratio (y) = 0.12430 -0.04658
# Poissons Ratio (z) = -0.11370 -0.13130
#
# Static dielectric constant tensor:
#      x y z
#    x 1.732030 0.000000 0.002640 
#    y 0.000000 1.714770 0.000000 
#    z 0.002640 0.000000 1.750560 
# 
# From -- ./inp_files/75168.got.cif
#   From: 2010.05.17/outbox.cif.g08.bks.cpg/sg12_38_cif.got.tgz:75168.got - 2010.06.03 13:09:07.
