data_PCOD9186829
_publ_section_title
;
Structure prediction by ZEFSAII (Michael W. Deem and Ramdas Pophale) SiO2 
 PCOD9186829
Probable space group: C 2/M
;
_chemical_formula_sum "Si O2"
_cell_formula_units_Z 56
_cell_length_a 33.911877
_cell_length_b 8.056963
_cell_length_c 19.432497
_cell_angle_alpha 90.000000
_cell_angle_beta 144.409080
_cell_angle_gamma 90.000000
_cell_volume 3090.084769
_symmetry_space_group_name_H-M "C 2/M"
_symmetry_group_IT_number 12
_symmetry_cell_setting 'monoclinic'
loop_
_space_group_symop_operation_xyz
x,y,z
-x,y,-z
-x,-y,-z
x,-y,z
1/2+x,1/2+y,z
1/2-x,1/2+y,-z
1/2-x,1/2-y,-z
1/2+x,1/2-y,z
loop_
_atom_site_type_symbol
_atom_site_label
_atom_site_fract_x
_atom_site_fract_y
_atom_site_fract_z
Si Si1 0.533471 0.193676 0.976116
Si Si2 0.200198 0.305773 0.369053
Si Si3 0.113555 0.000000 0.664624
Si Si4 0.437372 0.812553 0.590241
Si Si5 0.996569 0.000000 0.381108
Si Si6 0.315316 0.307661 0.802162
Si Si7 0.574003 0.307175 0.273956
Si Si8 0.180850 0.305147 0.690915
O O1 0.499841 0.286330 0.864193
O O2 0.515370 0.000000 0.944169
O O3 0.500000 0.256587 0.000000
O O4 0.614177 0.211365 0.092651
O O5 0.208130 0.500000 0.367464
O O6 0.250000 0.250000 0.500000
O O7 0.211785 0.213518 0.313942
O O8 0.125494 0.266925 0.291209
O O9 0.053729 0.000000 0.522248
O O10 0.155540 0.168036 0.709239
O O11 0.075534 0.000000 0.683537
O O12 0.488581 0.666170 0.641174
O O13 0.419287 0.785293 0.644175
O O14 0.371360 0.795427 0.447811
O O15 0.463771 0.000000 0.617549
O O16 0.331210 0.500000 0.836463
O O17 0.255347 0.260222 0.768813
O O18 0.590294 0.500000 0.307749
O O19 0.180146 0.500000 0.712224
#
# Coordination Sequence:
#
# PCOD9186829 Si02
#       8
#     8   8   4   8   4   8   8   8
#     4  11  23  38  55  76 104 143 188 239 282 327
#     4  12  24  36  52  76 105 146 189 229 277 329
#     4   9  18  32  58  80 121 146 180 220 274 337
#     4  10  19  35  56  81 117 150 182 228 276 332
#     4   9  18  34  52  90 113 148 182 220 272 341
#     4  11  22  37  55  77 107 142 188 235 277 325
#     4  12  23  37  56  77 108 146 189 235 280 327
#     4   9  20  34  54  83 115 149 183 225 276 332
#
# _framework density 18.122479999999999
#
# number of rings (size 3 to 8) (size 9 to 14) (size 15 to 20)
#    0.000    1.429    2.143    4.286    2.000    2.286 
#    0.000    2.857    0.000    0.000    0.000    1.000 
#    0.000    0.000    0.000    0.000    0.000    0.000 
#
# Total GULP energy -156354.126695 kJ/mol
# GULP energy per Si atom -5584.075953 kJ/mol
# Density = 1.808123 g / cm^3
# Si number density = 18.122480 Si / 1000 Ang^3
#
#
#
# Elastic Constant Matrix: (Units=GPa)
#
#
# Indices 1 2 3 4 5 6 
#
# 1 78.3499 38.2154 -2.8912 0.0000 27.7227 0.0000
# 2 38.2154 89.9481 6.2023 0.0000 14.3795 0.0000
# 3 -2.8912 6.2023 40.4326 0.0000 14.7642 0.0000
# 4 0.0000 0.0000 0.0000 24.8024 0.0000 3.3574
# 5 27.7227 14.3795 14.7642 0.0000 20.6632 0.0000
# 6 0.0000 0.0000 0.0000 3.3574 0.0000 21.1772
#
#
#
# Elastic Compliance Matrix: (Units=1/GPa)
#
#
# Indices 1 2 3 4 5 6 
#
# 1 0.048177 -0.009607 0.035287 0.000000 -0.083164 0.000000
# 2 -0.009607 0.014512 -0.005320 0.000000 0.006591 0.000000
# 3 0.035287 -0.005320 0.059542 0.000000 -0.086184 0.000000
# 4 0.000000 0.000000 0.000000 0.041203 0.000000 -0.006532
# 5 -0.083164 0.006591 -0.086184 0.000000 0.216966 0.000000
# 6 0.000000 0.000000 0.000000 -0.006532 0.000000 0.048256
#
#
# Mechanical properties :
#
#
# Convention : Reuss Voigt Hill
#
# Bulk Modulus (GPa) = 6.13677 32.42039 19.27858
# Shear Modulus (GPa) = 11.30572 24.47549 17.89060
#
# Velocity S-wave (km/s) = 2.50041 3.67898 3.14539
# Velocity P-wave (km/s) = 3.42486 5.99792 4.88389
#
# Compressibility (1/GPa) = 0.16295213
#
# Stress axis : x y z
#
# Youngs Moduli (GPa) = 20.75666 68.90746 16.79476
#
# Poissons Ratio (x) = 0.66197 -0.59263
# Poissons Ratio (y) = 0.19940 0.08934
# Poissons Ratio (z) = -0.73243 0.36657
#
# Static dielectric constant tensor:
#      x y z
#    x 1.592480 0.000000 0.016120 
#    y 0.000000 1.622000 0.000000 
#    z 0.016120 0.000000 1.626030 
# 
# From -- ./inp_files/292629.got.cif
#   From: 2010.05.17/outbox.cif.g08.bks.cpg/sg12_147_cif.got.tgz:292629.got - 2010.06.03 13:09:07.
