data_PCOD9186316
_publ_section_title
;
Structure prediction by ZEFSAII (Michael W. Deem and Ramdas Pophale) SiO2 
 PCOD9186316
Probable space group: C 2/M
;
_chemical_formula_sum "Si O2"
_cell_formula_units_Z 48
_cell_length_a 11.093981
_cell_length_b 18.407160
_cell_length_c 13.032589
_cell_angle_alpha 90.000000
_cell_angle_beta 111.270326
_cell_angle_gamma 90.000000
_cell_volume 2480.073423
_symmetry_space_group_name_H-M "C 2/M"
_symmetry_group_IT_number 12
_symmetry_cell_setting 'monoclinic'
loop_
_space_group_symop_operation_xyz
x,y,z
-x,y,-z
-x,-y,-z
x,-y,z
1/2+x,1/2+y,z
1/2-x,1/2+y,-z
1/2-x,1/2-y,-z
1/2+x,1/2-y,z
loop_
_atom_site_type_symbol
_atom_site_label
_atom_site_fract_x
_atom_site_fract_y
_atom_site_fract_z
Si Si1 0.845550 0.762566 0.934393
Si Si2 0.985079 0.081396 0.685906
Si Si3 0.728229 0.322209 0.725786
Si Si4 0.622767 0.420882 0.116151
Si Si5 0.261316 0.914955 0.533012
Si Si6 0.147505 0.713960 0.547740
O O1 0.820901 0.696729 0.847357
O O2 0.810584 0.844472 0.886469
O O3 0.750000 0.750000 0.000000
O O4 0.000000 0.763660 0.000000
O O5 0.919768 0.082054 0.777668
O O6 0.881808 0.092936 0.562488
O O7 0.095364 0.141297 0.720399
O O8 0.040556 0.000000 0.687274
O O9 0.772509 0.374550 0.646070
O O10 0.700102 0.242690 0.670559
O O11 0.689591 0.500000 0.122336
O O12 0.500000 0.422764 0.000000
O O13 0.348439 0.870222 0.479788
O O14 0.289210 0.000000 0.548998
O O15 0.250000 0.750000 0.500000
O O16 0.000000 0.740543 0.500000
#
# Coordination Sequence:
#
# PCOD9186316 Si02
#       6
#     8   8   8   8   8   8
#     4  11  24  40  61  90 120 154 201 253 300 355
#     4  10  19  34  60  92 122 155 201 252 297 354
#     4  11  20  35  59  84 119 157 195 243 304 360
#     4   9  18  35  59  85 114 152 198 245 291 340
#     4  10  21  36  56  87 121 155 200 248 298 359
#     4  10  21  35  56  86 118 155 194 235 291 359
#
# _framework density 19.354265999999999
#
# number of rings (size 3 to 8) (size 9 to 14) (size 15 to 20)
#    0.000    1.833    0.000    6.000    0.000    5.667 
#    0.000    0.833    0.000    8.500    0.000    0.000 
#    0.000    0.000    0.000    0.000    0.000    0.000 
#
# Total GULP energy -133644.883796 kJ/mol
# GULP energy per Si atom -5568.536825 kJ/mol
# Density = 1.931021 g / cm^3
# Si number density = 19.354266 Si / 1000 Ang^3
#
#
#
# Elastic Constant Matrix: (Units=GPa)
#
#
# Indices 1 2 3 4 5 6 
#
# 1 81.0962 45.5614 25.5844 0.0000 -4.0781 0.0000
# 2 45.5614 161.1819 58.1360 0.0000 -14.4190 0.0000
# 3 25.5844 58.1360 85.4531 0.0000 -1.5745 0.0000
# 4 0.0000 0.0000 0.0000 42.4229 0.0000 -12.8168
# 5 -4.0781 -14.4190 -1.5745 0.0000 16.6770 0.0000
# 6 0.0000 0.0000 0.0000 -12.8168 0.0000 38.7989
#
#
#
# Elastic Compliance Matrix: (Units=1/GPa)
#
#
# Indices 1 2 3 4 5 6 
#
# 1 0.014947 -0.003404 -0.002150 0.000000 0.000509 0.000000
# 2 -0.003404 0.009790 -0.005510 0.000000 0.007112 0.000000
# 3 -0.002150 -0.005510 0.016025 0.000000 -0.003777 0.000000
# 4 0.000000 0.000000 0.000000 0.026186 0.000000 0.008650
# 5 0.000509 0.007112 -0.003777 0.000000 0.065879 0.000000
# 6 0.000000 0.000000 0.000000 0.008650 0.000000 0.028631
#
#
# Mechanical properties :
#
#
# Convention : Reuss Voigt Hill
#
# Bulk Modulus (GPa) = 53.66515 65.14388 59.40452
# Shear Modulus (GPa) = 26.34364 32.80973 29.57668
#
# Velocity S-wave (km/s) = 3.69335 4.12177 3.91343
# Velocity P-wave (km/s) = 6.78054 7.50891 7.15400
#
# Compressibility (1/GPa) = 0.01863407
#
# Stress axis : x y z
#
# Youngs Moduli (GPa) = 66.90110 102.14362 62.40196
#
# Poissons Ratio (x) = 0.34772 0.13415
# Poissons Ratio (y) = 0.22775 0.34385
# Poissons Ratio (z) = 0.14383 0.56283
#
# Static dielectric constant tensor:
#      x y z
#    x 1.728730 0.000000 -0.035590 
#    y 0.000000 1.734180 0.000000 
#    z -0.035590 0.000000 1.731520 
# 
# From -- ./inp_files/131747.got.cif
#   From: 2010.05.17/outbox.cif.g08.bks.cpg/sg12_66_cif.got.tgz:131747.got - 2010.06.03 13:09:07.
