data_PCOD9186644
_publ_section_title
;
Structure prediction by ZEFSAII (Michael W. Deem and Ramdas Pophale) SiO2 
 PCOD9186644
Probable space group: C 2/M
;
_chemical_formula_sum "Si O2"
_cell_formula_units_Z 56
_cell_length_a 22.137909
_cell_length_b 7.693488
_cell_length_c 16.566359
_cell_angle_alpha 90.000000
_cell_angle_beta 59.322844
_cell_angle_gamma 90.000000
_cell_volume 2426.685834
_symmetry_space_group_name_H-M "C 2/M"
_symmetry_group_IT_number 12
_symmetry_cell_setting 'monoclinic'
loop_
_space_group_symop_operation_xyz
x,y,z
-x,y,-z
-x,-y,-z
x,-y,z
1/2+x,1/2+y,z
1/2-x,1/2+y,-z
1/2-x,1/2-y,-z
1/2+x,1/2-y,z
loop_
_atom_site_type_symbol
_atom_site_label
_atom_site_fract_x
_atom_site_fract_y
_atom_site_fract_z
Si Si1 0.127338 0.712785 0.758929
Si Si2 0.520328 0.802306 0.078646
Si Si3 0.331561 0.696686 0.448169
Si Si4 0.023704 0.787139 0.574693
Si Si5 0.163389 0.192563 0.030138
Si Si6 0.615622 0.286744 0.237659
Si Si7 0.762337 0.704863 0.182389
O O1 0.128268 0.500000 0.757281
O O2 0.047551 0.765103 0.829781
O O3 0.147102 0.785167 0.659281
O O4 0.180388 0.773724 0.793312
O O5 0.588050 0.687368 0.039623
O O6 0.537266 0.000000 0.093912
O O7 0.500000 0.814383 0.000000
O O8 0.329065 0.500000 0.479707
O O9 0.250000 0.750000 0.500000
O O10 0.398171 0.776184 0.452452
O O11 0.000000 0.739545 0.500000
O O12 0.960501 0.730900 0.678353
O O13 0.024885 0.000000 0.577078
O O14 0.140405 0.272045 0.131739
O O15 0.191872 0.000000 0.025714
O O16 0.212401 0.273542 0.927767
O O17 0.613543 0.500000 0.236538
O O18 0.682304 0.231939 0.246848
O O19 0.759975 0.500000 0.199146
#
# Coordination Sequence:
#
# PCOD9186644 Si02
#       7
#     8   8   8   8   8   8   8
#     4  10  21  37  60  87 117 155 202 246 296 353
#     4  10  19  35  55  78 110 153 199 237 282 352
#     4  11  24  41  65  95 126 155 194 247 303 361
#     4   9  19  37  63  91 115 149 200 249 293 350
#     4  11  21  33  52  83 120 152 193 247 301 347
#     4   9  19  34  55  83 115 150 194 246 297 349
#     4  10  20  36  58  82 114 159 202 240 285 354
#
# _framework density 23.076740000000001
#
# number of rings (size 3 to 8) (size 9 to 14) (size 15 to 20)
#    0.000    2.000    1.429    2.143    2.000    2.571 
#    0.000    0.714    0.000    3.429    0.000    0.000 
#    0.000    0.000    0.000    0.000    0.000    0.000 
#
# Total GULP energy -156155.335910 kJ/mol
# GULP energy per Si atom -5576.976283 kJ/mol
# Density = 2.302422 g / cm^3
# Si number density = 23.076740 Si / 1000 Ang^3
#
#
#
# Elastic Constant Matrix: (Units=GPa)
#
#
# Indices 1 2 3 4 5 6 
#
# 1 177.5633 25.6099 69.6300 -0.0001 -29.0093 -0.0005
# 2 25.6099 28.6391 -13.6927 -0.0002 -5.0427 -0.0007
# 3 69.6300 -13.6927 74.3962 -0.0001 -13.5922 -0.0004
# 4 -0.0001 -0.0002 -0.0001 16.8454 0.0000 -11.9456
# 5 -29.0093 -5.0427 -13.5922 0.0000 43.0795 0.0000
# 6 -0.0005 -0.0007 -0.0004 -11.9456 0.0000 37.9982
#
#
#
# Elastic Compliance Matrix: (Units=1/GPa)
#
#
# Indices 1 2 3 4 5 6 
#
# 1 0.018128 -0.025962 -0.021298 -0.000001 0.002449 -0.000001
# 2 -0.025962 0.077641 0.039322 0.000003 0.004012 0.000002
# 3 -0.021298 0.039322 0.041208 0.000002 0.003263 0.000001
# 4 -0.000001 0.000003 0.000002 0.076394 0.000000 0.024016
# 5 0.002449 0.004012 0.003263 0.000000 0.026361 0.000000
# 6 -0.000001 0.000002 0.000001 0.024016 0.000000 0.033867
#
#
# Mechanical properties :
#
#
# Convention : Reuss Voigt Hill
#
# Bulk Modulus (GPa) = 8.25759 49.29922 28.77841
# Shear Modulus (GPa) = 15.15873 32.85470 24.00671
#
# Velocity S-wave (km/s) = 2.56575 3.77731 3.22887
# Velocity P-wave (km/s) = 3.51618 6.35874 5.13796
#
# Compressibility (1/GPa) = 0.12110066
#
# Stress axis : x y z
#
# Youngs Moduli (GPa) = 55.16276 12.87985 24.26691
#
# Poissons Ratio (x) = 0.33439 0.51683
# Poissons Ratio (y) = 1.43216 -0.95422
# Poissons Ratio (z) = 1.17485 -0.50646
#
# Static dielectric constant tensor:
#      x y z
#    x 1.877040 0.000000 0.029030 
#    y 0.000000 2.111860 0.000000 
#    z 0.029030 0.000000 1.792300 
# 
# From -- ./inp_files/280962.got.cif
#   From: 2010.05.17/outbox.cif.g08.bks.cpg/sg12_141_cif.got.tgz:280962.got - 2010.06.03 13:09:07.
