data_PCOD9186655
_publ_section_title
;
Structure prediction by ZEFSAII (Michael W. Deem and Ramdas Pophale) SiO2 
 PCOD9186655
Probable space group: C 2/M
;
_chemical_formula_sum "Si O2"
_cell_formula_units_Z 64
_cell_length_a 17.594763
_cell_length_b 26.110034
_cell_length_c 20.173770
_cell_angle_alpha 90.000000
_cell_angle_beta 158.861635
_cell_angle_gamma 90.000000
_cell_volume 3342.177058
_symmetry_space_group_name_H-M "C 2/M"
_symmetry_group_IT_number 12
_symmetry_cell_setting 'monoclinic'
loop_
_space_group_symop_operation_xyz
x,y,z
-x,y,-z
-x,-y,-z
x,-y,z
1/2+x,1/2+y,z
1/2-x,1/2+y,-z
1/2-x,1/2-y,-z
1/2+x,1/2-y,z
loop_
_atom_site_type_symbol
_atom_site_label
_atom_site_fract_x
_atom_site_fract_y
_atom_site_fract_z
Si Si1 0.703308 0.444336 0.485178
Si Si2 0.677730 0.943360 0.812845
Si Si3 0.750401 0.336229 0.554562
Si Si4 0.159632 0.161614 0.329363
Si Si5 0.417935 0.556296 0.763034
Si Si6 0.281251 0.191554 0.046182
Si Si7 0.267264 0.334221 0.839037
Si Si8 0.565191 0.753058 0.483601
O O1 0.670554 0.500000 0.489931
O O2 0.666202 0.393555 0.497438
O O3 0.572693 0.443239 0.309830
O O4 0.948899 0.441202 0.661336
O O5 0.703583 0.894300 0.787059
O O6 0.696623 0.000000 0.796555
O O7 0.863063 0.940178 0.018891
O O8 0.771659 0.333810 0.491756
O O9 0.602651 0.290634 0.459746
O O10 0.981718 0.327357 0.773507
O O11 0.205653 0.109608 0.326501
O O12 0.223421 0.212446 0.342139
O O13 0.911270 0.161318 0.143446
O O14 0.324927 0.500000 0.704175
O O15 0.240545 0.182791 0.090787
O O16 0.250000 0.250000 0.000000
O O17 0.109693 0.295775 0.674509
O O18 0.500000 0.329667 0.000000
O O19 0.500000 0.728820 0.500000
#
# Coordination Sequence:
#
# PCOD9186655 Si02
#       8
#     8   8   8   8   8   8   8   8
#     4   9  17  32  58  87 112 136 174 229 281 332
#     4  10  19  35  55  79 111 146 187 230 273 326
#     4  11  21  38  58  85 113 141 190 230 281 339
#     4  11  19  35  59  81 111 141 182 230 279 333
#     4   9  17  29  52  80 106 139 176 219 270 320
#     4  12  21  35  59  83 105 147 187 231 281 329
#     4  12  24  39  54  81 115 151 195 232 281 332
#     4  12  25  39  54  77 112 152 186 238 285 330
#
# _framework density 19.149194999999999
#
# number of rings (size 3 to 8) (size 9 to 14) (size 15 to 20)
#    0.000    1.250    5.000    2.625    0.000    0.250 
#    0.000    0.000    0.000    1.125    0.000    0.000 
#    0.000    0.500    0.000    0.750    0.000    0.000 
#
# Total GULP energy -178417.241183 kJ/mol
# GULP energy per Si atom -5575.538787 kJ/mol
# Density = 1.910561 g / cm^3
# Si number density = 19.149195 Si / 1000 Ang^3
#
#
#
# Elastic Constant Matrix: (Units=GPa)
#
#
# Indices 1 2 3 4 5 6 
#
# 1 33.4334 24.0413 3.0267 0.0000 5.7621 0.0000
# 2 24.0413 133.3861 19.3498 0.0005 9.8095 0.0000
# 3 3.0267 19.3498 90.5720 0.0015 -2.2454 0.0002
# 4 0.0000 0.0005 0.0015 26.9573 0.0000 -5.7086
# 5 5.7621 9.8095 -2.2454 0.0000 15.2462 -0.0002
# 6 0.0000 0.0000 0.0002 -5.7086 -0.0002 9.1321
#
#
#
# Elastic Compliance Matrix: (Units=1/GPa)
#
#
# Indices 1 2 3 4 5 6 
#
# 1 0.035716 -0.005678 -0.000225 0.000000 -0.009878 0.000000
# 2 -0.005678 0.009081 -0.001849 0.000000 -0.003969 0.000000
# 3 -0.000225 -0.001849 0.011517 -0.000001 0.002971 -0.000001
# 4 0.000000 0.000000 -0.000001 0.042756 0.000000 0.026727
# 5 -0.009878 -0.003969 0.002971 0.000000 0.072314 0.000001
# 6 0.000000 0.000000 -0.000001 0.026727 0.000001 0.126211
#
#
# Mechanical properties :
#
#
# Convention : Reuss Voigt Hill
#
# Bulk Modulus (GPa) = 24.50419 38.91413 31.70916
# Shear Modulus (GPa) = 15.30445 24.33205 19.81825
#
# Velocity S-wave (km/s) = 2.83012 3.56849 3.22054
# Velocity P-wave (km/s) = 4.84806 6.11102 5.51580
#
# Compressibility (1/GPa) = 0.04080935
#
# Stress axis : x y z
#
# Youngs Moduli (GPa) = 27.99851 110.12599 86.82779
#
# Poissons Ratio (x) = 0.62533 0.01956
# Poissons Ratio (y) = 0.15898 0.16051
# Poissons Ratio (z) = 0.00631 0.20358
#
# Static dielectric constant tensor:
#      x y z
#    x 1.632600 0.000000 -0.012720 
#    y 0.000000 1.756050 0.000000 
#    z -0.012720 0.000000 1.739760 
# 
# From -- ./inp_files/318599.got.cif
#   From: 2010.05.17/outbox.cif.g08.bks.cpg/sg12_160_cif.got.tgz:318599.got - 2010.06.03 13:09:07.
