data_PCOD9186610
_publ_section_title
;
Structure prediction by ZEFSAII (Michael W. Deem and Ramdas Pophale) SiO2 
 PCOD9186610
Probable space group: C 2/M
;
_chemical_formula_sum "Si O2"
_cell_formula_units_Z 56
_cell_length_a 14.965101
_cell_length_b 7.671106
_cell_length_c 30.692424
_cell_angle_alpha 90.000000
_cell_angle_beta 52.827771
_cell_angle_gamma 90.000000
_cell_volume 2807.570149
_symmetry_space_group_name_H-M "C 2/M"
_symmetry_group_IT_number 12
_symmetry_cell_setting 'monoclinic'
loop_
_space_group_symop_operation_xyz
x,y,z
-x,y,-z
-x,-y,-z
x,-y,z
1/2+x,1/2+y,z
1/2-x,1/2+y,-z
1/2-x,1/2-y,-z
1/2+x,1/2-y,z
loop_
_atom_site_type_symbol
_atom_site_label
_atom_site_fract_x
_atom_site_fract_y
_atom_site_fract_z
Si Si1 0.415708 0.294718 0.649772
Si Si2 0.558008 0.202195 0.939996
Si Si3 0.032420 0.211549 0.268607
Si Si4 0.667209 0.207915 0.563639
Si Si5 0.806478 0.786745 0.856184
Si Si6 0.721655 0.792693 0.643819
Si Si7 0.358785 0.707924 0.938798
O O1 0.391020 0.500000 0.661789
O O2 0.425195 0.224187 0.696429
O O3 0.541107 0.276443 0.593841
O O4 0.319584 0.221315 0.646285
O O5 0.677798 0.274097 0.890393
O O6 0.467207 0.211299 0.929079
O O7 0.581408 0.000000 0.944670
O O8 0.500000 0.282981 0.000000
O O9 0.112353 0.272905 0.206199
O O10 0.903109 0.264931 0.300670
O O11 0.033833 0.000000 0.269124
O O12 0.750000 0.250000 0.500000
O O13 0.714147 0.276346 0.596329
O O14 0.657300 0.000000 0.570231
O O15 0.843926 0.734317 0.893524
O O16 0.809101 0.000000 0.853609
O O17 0.741727 0.000000 0.634180
O O18 0.371952 0.500000 0.935010
O O19 0.250000 0.750000 0.000000
#
# Coordination Sequence:
#
# PCOD9186610 Si02
#       7
#     8   8   8   8   8   8   8
#     4   9  18  34  55  76 101 136 176 213 257 308
#     4  10  19  35  55  75 101 136 169 208 263 317
#     4   9  18  34  55  76  99 134 175 214 256 312
#     4  10  20  34  52  77 110 142 174 212 256 301
#     4   9  19  35  53  74 105 137 167 209 266 317
#     4   9  19  35  54  77 106 138 170 217 266 300
#     4  11  21  35  53  75 102 134 171 210 256 312
#
# _framework density 19.946072999999998
#
# number of rings (size 3 to 8) (size 9 to 14) (size 15 to 20)
#    0.000    2.429    1.429    0.857    0.000    3.143 
#    0.000    6.429    0.000    0.000    0.000    0.000 
#    0.000    0.000    0.000    0.000    0.000    0.000 
#
# Total GULP energy -156210.189802 kJ/mol
# GULP energy per Si atom -5578.935350 kJ/mol
# Density = 1.990067 g / cm^3
# Si number density = 19.946073 Si / 1000 Ang^3
#
#
#
# Elastic Constant Matrix: (Units=GPa)
#
#
# Indices 1 2 3 4 5 6 
#
# 1 187.4058 -10.7099 95.9266 -0.0001 -7.4243 -0.0004
# 2 -10.7099 30.9921 -16.1129 -0.0003 5.5036 -0.0009
# 3 95.9266 -16.1129 180.2870 0.0000 -3.7406 0.0001
# 4 -0.0001 -0.0003 0.0000 15.2626 0.0000 -1.2107
# 5 -7.4243 5.5036 -3.7406 0.0000 12.5369 0.0000
# 6 -0.0004 -0.0009 0.0001 -1.2107 0.0000 14.1545
#
#
#
# Elastic Compliance Matrix: (Units=1/GPa)
#
#
# Indices 1 2 3 4 5 6 
#
# 1 0.007463 -0.000032 -0.003906 0.000000 0.003268 0.000000
# 2 -0.000032 0.036487 0.002964 0.000001 -0.015152 0.000002
# 3 -0.003906 0.002964 0.007864 0.000000 -0.001268 0.000000
# 4 0.000000 0.000001 0.000000 0.065967 0.000000 0.005642
# 5 0.003268 -0.015152 -0.001268 0.000000 0.087974 -0.000001
# 6 0.000000 0.000002 0.000000 0.005642 -0.000001 0.071131
#
#
# Mechanical properties :
#
#
# Convention : Reuss Voigt Hill
#
# Bulk Modulus (GPa) = 20.05430 59.65470 39.85450
# Shear Modulus (GPa) = 16.92300 30.36289 23.64294
#
# Velocity S-wave (km/s) = 2.91596 3.90583 3.44662
# Velocity P-wave (km/s) = 4.62743 7.09321 5.98861
#
# Compressibility (1/GPa) = 0.04986462
#
# Stress axis : x y z
#
# Youngs Moduli (GPa) = 133.99492 27.40712 127.16921
#
# Poissons Ratio (x) = 0.00088 0.49671
# Poissons Ratio (y) = 0.00430 -0.37689
# Poissons Ratio (z) = 0.52338 -0.08123
#
# Static dielectric constant tensor:
#      x y z
#    x 1.688630 0.000000 0.015240 
#    y 0.000000 1.761850 0.000000 
#    z 0.015240 0.000000 1.684090 
# 
# From -- ./inp_files/374942.got.cif
#   From: 2010.05.17/outbox.cif.g08.bks.cpg/sg12_188_cif.got.tgz:374942.got - 2010.06.03 13:09:07.
