data_PCOD9186419
_publ_section_title
;
Structure prediction by ZEFSAII (Michael W. Deem and Ramdas Pophale) SiO2 
 PCOD9186419
Probable space group: C 2/M
;
_chemical_formula_sum "Si O2"
_cell_formula_units_Z 48
_cell_length_a 8.142268
_cell_length_b 22.257293
_cell_length_c 17.310859
_cell_angle_alpha 90.000000
_cell_angle_beta 52.269996
_cell_angle_gamma 90.000000
_cell_volume 2481.188048
_symmetry_space_group_name_H-M "C 2/M"
_symmetry_group_IT_number 12
_symmetry_cell_setting 'monoclinic'
loop_
_space_group_symop_operation_xyz
x,y,z
-x,y,-z
-x,-y,-z
x,-y,z
1/2+x,1/2+y,z
1/2-x,1/2+y,-z
1/2-x,1/2-y,-z
1/2+x,1/2-y,z
loop_
_atom_site_type_symbol
_atom_site_label
_atom_site_fract_x
_atom_site_fract_y
_atom_site_fract_z
Si Si1 0.412767 0.653446 0.608200
Si Si2 0.220619 0.780800 0.812300
Si Si3 0.640727 0.745564 0.615119
Si Si4 0.326409 0.930136 0.211169
Si Si5 0.804710 0.836097 0.871374
Si Si6 0.234057 0.877508 0.943747
O O1 0.500000 0.632539 0.500000
O O2 0.577197 0.674873 0.626932
O O3 0.303682 0.717356 0.620052
O O4 0.257654 0.606092 0.690299
O O5 0.432500 0.779473 0.703251
O O6 0.180332 0.714279 0.858293
O O7 0.242601 0.823597 0.879718
O O8 0.031371 0.805726 0.816111
O O9 0.750000 0.750000 0.500000
O O10 0.216628 0.897084 0.170453
O O11 0.573156 0.920480 0.129474
O O12 0.276509 0.000000 0.229815
O O13 0.740706 0.851083 0.977297
O O14 0.000000 0.903408 0.000000
#
# Coordination Sequence:
#
# PCOD9186419 Si02
#       6
#     8   8   8   8   8   8
#     4  10  21  38  62  95 121 152 190 239 305 368
#     4  11  19  37  62  92 127 151 189 246 312 370
#     4  10  19  34  62  95 122 146 183 242 310 361
#     4  12  25  42  61  82 118 167 209 248 291 345
#     4  11  23  36  60  90 121 158 198 245 301 360
#     4  10  23  40  61  90 120 154 198 251 307 360
#
# _framework density 19.345572000000001
#
# number of rings (size 3 to 8) (size 9 to 14) (size 15 to 20)
#    0.000    1.333    3.333    3.000    0.000    4.667 
#    0.000    2.500    0.000    0.000    0.000    2.333 
#    0.000    0.000    0.000    0.000    0.000    0.000 
#
# Total GULP energy -133718.427989 kJ/mol
# GULP energy per Si atom -5571.601166 kJ/mol
# Density = 1.930154 g / cm^3
# Si number density = 19.345572 Si / 1000 Ang^3
#
#
#
# Elastic Constant Matrix: (Units=GPa)
#
#
# Indices 1 2 3 4 5 6 
#
# 1 85.7399 43.2788 63.2474 0.0000 9.4464 0.0000
# 2 43.2788 101.6267 42.0574 0.0000 8.3396 0.0000
# 3 63.2474 42.0574 146.7977 0.0000 -1.2669 0.0000
# 4 0.0000 0.0000 0.0000 9.7566 0.0000 -5.1828
# 5 9.4464 8.3396 -1.2669 0.0000 34.5047 0.0000
# 6 0.0000 0.0000 0.0000 -5.1828 0.0000 18.2052
#
#
#
# Elastic Compliance Matrix: (Units=1/GPa)
#
#
# Indices 1 2 3 4 5 6 
#
# 1 0.020108 -0.005209 -0.007210 0.000000 -0.004511 0.000000
# 2 -0.005209 0.012794 -0.001436 0.000000 -0.001719 0.000000
# 3 -0.007210 -0.001436 0.010353 0.000000 0.002701 0.000000
# 4 0.000000 0.000000 0.000000 0.120756 0.000000 0.034378
# 5 -0.004511 -0.001719 0.002701 0.000000 0.030731 0.000000
# 6 0.000000 0.000000 0.000000 0.034378 0.000000 0.064716
#
#
# Mechanical properties :
#
#
# Convention : Reuss Voigt Hill
#
# Bulk Modulus (GPa) = 64.33036 70.14794 67.23915
# Shear Modulus (GPa) = 17.10277 24.86535 20.98406
#
# Velocity S-wave (km/s) = 2.97655 3.58903 3.29704
# Velocity P-wave (km/s) = 6.71853 7.31533 7.02327
#
# Compressibility (1/GPa) = 0.01554476
#
# Stress axis : x y z
#
# Youngs Moduli (GPa) = 49.73076 78.16405 96.58862
#
# Poissons Ratio (x) = 0.40718 0.69641
# Poissons Ratio (y) = 0.25906 0.13868
# Poissons Ratio (z) = 0.35856 0.11223
#
# Static dielectric constant tensor:
#      x y z
#    x 1.849210 0.000000 -0.013420 
#    y 0.000000 1.633610 0.000000 
#    z -0.013420 0.000000 1.737630 
# 
# From -- ./inp_files/257927.got.cif
#   From: 2010.05.17/outbox.cif.g08.bks.cpg/sg12_129_cif.got.tgz:257927.got - 2010.06.03 13:09:07.
