data_PCOD9186408
_publ_section_title
;
Structure prediction by ZEFSAII (Michael W. Deem and Ramdas Pophale) SiO2 
 PCOD9186408
Probable space group: C 2/M
;
_chemical_formula_sum "Si O2"
_cell_formula_units_Z 64
_cell_length_a 20.419990
_cell_length_b 19.323480
_cell_length_c 22.895062
_cell_angle_alpha 90.000000
_cell_angle_beta 22.059756
_cell_angle_gamma 90.000000
_cell_volume 3392.950316
_symmetry_space_group_name_H-M "C 2/M"
_symmetry_group_IT_number 12
_symmetry_cell_setting 'monoclinic'
loop_
_space_group_symop_operation_xyz
x,y,z
-x,y,-z
-x,-y,-z
x,-y,z
1/2+x,1/2+y,z
1/2-x,1/2+y,-z
1/2-x,1/2-y,-z
1/2+x,1/2-y,z
loop_
_atom_site_type_symbol
_atom_site_label
_atom_site_fract_x
_atom_site_fract_y
_atom_site_fract_z
Si Si1 0.978316 0.191520 0.629711
Si Si2 0.851643 0.684285 0.171651
Si Si3 0.775395 0.619905 0.447133
Si Si4 0.675349 0.640999 0.064650
Si Si5 0.687350 0.576373 0.648590
Si Si6 0.578554 0.776355 0.215558
Si Si7 0.014538 0.579513 0.840622
Si Si8 0.821364 0.296142 0.614020
O O1 0.082543 0.137466 0.583163
O O2 0.123830 0.233181 0.473662
O O3 0.831466 0.164002 0.707756
O O4 0.891858 0.247085 0.744659
O O5 0.901945 0.629959 0.180370
O O6 0.817717 0.760068 0.227994
O O7 0.000000 0.685478 0.000000
O O8 0.759040 0.583376 0.523082
O O9 0.876741 0.583649 0.310015
O O10 0.889673 0.688907 0.365012
O O11 0.520449 0.588273 0.181929
O O12 0.594669 0.710622 0.159460
O O13 0.779273 0.667564 0.921845
O O14 0.822771 0.609084 0.984599
O O15 0.729955 0.500000 0.635815
O O16 0.758126 0.638625 0.629770
O O17 0.007722 0.500000 0.865674
O O18 0.000000 0.313855 0.500000
#
# Coordination Sequence:
#
# PCOD9186408 Si02
#       8
#     8   8   8   8   8   8   8   8
#     4  11  19  37  62  90 117 154 209 262 302 353
#     4  11  25  39  62  90 119 165 215 255 305 364
#     4  11  21  37  63  93 126 158 204 256 309 368
#     4  10  22  34  60  91 123 159 199 256 309 364
#     4  12  24  39  63  95 127 164 205 249 315 380
#     4  10  19  34  62  92 116 153 203 258 315 348
#     4  11  24  43  59  86 132 172 204 249 306 370
#     4  10  23  42  65  89 123 159 203 263 308 360
#
# _framework density 18.862639999999999
#
# number of rings (size 3 to 8) (size 9 to 14) (size 15 to 20)
#    0.000    1.250    3.750    2.625    5.250    0.500 
#    0.000    1.875    0.000    0.375    0.000    0.000 
#    0.000    0.000    0.000    0.000    0.000    0.000 
#
# Total GULP energy -178700.552072 kJ/mol
# GULP energy per Si atom -5584.392252 kJ/mol
# Density = 1.881971 g / cm^3
# Si number density = 18.862640 Si / 1000 Ang^3
#
#
#
# Elastic Constant Matrix: (Units=GPa)
#
#
# Indices 1 2 3 4 5 6 
#
# 1 80.5156 40.5850 13.3624 0.0045 -8.9474 -0.0002
# 2 40.5850 100.5881 35.7880 -0.0034 -12.4171 -0.0065
# 3 13.3624 35.7880 60.9399 0.0019 3.7951 -0.0056
# 4 0.0045 -0.0034 0.0019 13.3221 0.0001 2.2779
# 5 -8.9474 -12.4171 3.7951 0.0001 33.1640 0.0017
# 6 -0.0002 -0.0065 -0.0056 2.2779 0.0017 11.0157
#
#
#
# Elastic Compliance Matrix: (Units=1/GPa)
#
#
# Indices 1 2 3 4 5 6 
#
# 1 0.015711 -0.006105 0.000019 -0.000006 0.001951 -0.000002
# 2 -0.006105 0.016060 -0.008425 0.000007 0.005330 0.000003
# 3 0.000019 -0.008425 0.021704 -0.000007 -0.005633 0.000008
# 4 -0.000006 0.000007 -0.000007 0.077814 0.000002 -0.016091
# 5 0.001951 0.005330 -0.005633 0.000002 0.033320 -0.000005
# 6 -0.000002 0.000003 0.000008 -0.016091 -0.000005 0.094107
#
#
# Mechanical properties :
#
#
# Convention : Reuss Voigt Hill
#
# Bulk Modulus (GPa) = 40.89488 46.83495 43.86491
# Shear Modulus (GPa) = 16.89820 21.65425 19.27623
#
# Velocity S-wave (km/s) = 2.99633 3.39189 3.20023
# Velocity P-wave (km/s) = 5.80501 6.34218 6.07953
#
# Compressibility (1/GPa) = 0.02445294
#
# Stress axis : x y z
#
# Youngs Moduli (GPa) = 63.65032 62.26582 46.07443
#
# Poissons Ratio (x) = 0.38012 -0.00086
# Poissons Ratio (y) = 0.38857 0.38817
# Poissons Ratio (z) = -0.00119 0.52459
#
# Static dielectric constant tensor:
#      x y z
#    x 1.667680 0.000000 0.020130 
#    y 0.000000 1.637770 0.000010 
#    z 0.020130 0.000010 1.686680 
# 
# From -- ./inp_files/347845.got.cif
#   From: 2010.05.17/outbox.cif.g08.bks.cpg/sg12_174_cif.got.tgz:347845.got - 2010.06.03 13:09:07.
