data_PCOD9186966
_publ_section_title
;
Structure prediction by ZEFSAII (Michael W. Deem and Ramdas Pophale) SiO2 
 PCOD9186966
Probable space group: C 2/M
;
_chemical_formula_sum "Si O2"
_cell_formula_units_Z 48
_cell_length_a 15.037304
_cell_length_b 11.227931
_cell_length_c 21.115635
_cell_angle_alpha 90.000000
_cell_angle_beta 44.312559
_cell_angle_gamma 90.000000
_cell_volume 2490.491856
_symmetry_space_group_name_H-M "C 2/M"
_symmetry_group_IT_number 12
_symmetry_cell_setting 'monoclinic'
loop_
_space_group_symop_operation_xyz
x,y,z
-x,y,-z
-x,-y,-z
x,-y,z
1/2+x,1/2+y,z
1/2-x,1/2+y,-z
1/2-x,1/2-y,-z
1/2+x,1/2-y,z
loop_
_atom_site_type_symbol
_atom_site_label
_atom_site_fract_x
_atom_site_fract_y
_atom_site_fract_z
Si Si1 0.421501 0.635510 0.105429
Si Si2 0.837201 0.775077 0.783737
Si Si3 0.340843 0.356906 0.926132
Si Si4 0.840630 0.753528 0.534748
Si Si5 0.586240 0.134075 0.621638
Si Si6 0.410924 0.627546 0.618382
O O1 0.375845 0.500000 0.137464
O O2 0.300659 0.718979 0.158461
O O3 0.522219 0.661459 0.109896
O O4 0.500000 0.640775 0.000000
O O5 0.846161 0.832712 0.848358
O O6 0.862333 0.864693 0.713729
O O7 0.949186 0.678461 0.714795
O O8 0.306668 0.500000 0.955126
O O9 0.250000 0.250000 0.000000
O O10 0.695228 0.780787 0.594156
O O11 0.891299 0.645621 0.465897
O O12 0.861130 0.764968 0.599421
O O13 0.936756 0.856379 0.460196
O O14 0.607892 0.000000 0.631127
O O15 0.373268 0.500000 0.610486
#
# Coordination Sequence:
#
# PCOD9186966 Si02
#       6
#     8   8   8   8   8   8
#     4  10  21  41  65  87 124 169 203 246 322 392
#     4  11  23  37  61  92 123 153 210 257 303 367
#     4  11  24  44  68  94 126 166 210 259 317 382
#     4   9  19  35  55  80 113 156 199 236 303 364
#     4  10  20  35  57  85 119 153 201 255 300 359
#     4  10  19  35  57  80 115 156 195 248 307 363
#
# _framework density 19.273301
#
# number of rings (size 3 to 8) (size 9 to 14) (size 15 to 20)
#    0.000    1.833    1.667    3.000    2.333    0.667 
#    0.000   10.833    0.000    0.000    0.000    0.000 
#    0.000    0.000    0.000    0.000    0.000    0.000 
#
# Total GULP energy -133609.274525 kJ/mol
# GULP energy per Si atom -5567.053105 kJ/mol
# Density = 1.922943 g / cm^3
# Si number density = 19.273301 Si / 1000 Ang^3
#
#
#
# Elastic Constant Matrix: (Units=GPa)
#
#
# Indices 1 2 3 4 5 6 
#
# 1 126.3208 29.1552 48.2449 0.0000 4.5198 0.0000
# 2 29.1552 67.7431 31.9314 0.0000 -4.1696 0.0000
# 3 48.2449 31.9314 85.8130 0.0000 10.0122 0.0000
# 4 0.0000 0.0000 0.0000 6.9568 0.0000 8.2748
# 5 4.5198 -4.1696 10.0122 0.0000 39.3502 0.0000
# 6 0.0000 0.0000 0.0000 8.2748 0.0000 19.7212
#
#
#
# Elastic Compliance Matrix: (Units=1/GPa)
#
#
# Indices 1 2 3 4 5 6 
#
# 1 0.010315 -0.002087 -0.005007 0.000000 -0.000132 0.000000
# 2 -0.002087 0.018863 -0.006293 0.000000 0.003840 0.000000
# 3 -0.005007 -0.006293 0.017335 0.000000 -0.004503 0.000000
# 4 0.000000 0.000000 0.000000 0.286967 0.000000 -0.120408
# 5 -0.000132 0.003840 -0.004503 0.000000 0.026980 0.000000
# 6 0.000000 0.000000 0.000000 -0.120408 0.000000 0.101229
#
#
# Mechanical properties :
#
#
# Convention : Reuss Voigt Hill
#
# Bulk Modulus (GPa) = 50.66483 55.39333 53.02908
# Shear Modulus (GPa) = 10.10010 24.57532 17.33771
#
# Velocity S-wave (km/s) = 2.29169 3.57472 3.00254
# Velocity P-wave (km/s) = 5.77469 6.77064 6.29240
#
# Compressibility (1/GPa) = 0.01973756
#
# Stress axis : x y z
#
# Youngs Moduli (GPa) = 96.94417 53.01436 57.68521
#
# Poissons Ratio (x) = 0.11066 0.28884
# Poissons Ratio (y) = 0.20236 0.36304
# Poissons Ratio (z) = 0.48542 0.33364
#
# Static dielectric constant tensor:
#      x y z
#    x 1.712520 0.000000 0.020190 
#    y 0.000000 1.714250 0.000000 
#    z 0.020190 0.000000 1.669480 
# 
# From -- ./inp_files/310199.got.cif
#   From: 2010.05.17/outbox.cif.g08.bks.cpg/sg12_156_cif.got.tgz:310199.got - 2010.06.03 13:09:07.
