data_PCOD9186728
_publ_section_title
;
Structure prediction by ZEFSAII (Michael W. Deem and Ramdas Pophale) SiO2 
 PCOD9186728
Probable space group: C 2/M
;
_chemical_formula_sum "Si O2"
_cell_formula_units_Z 56
_cell_length_a 24.156370
_cell_length_b 24.334613
_cell_length_c 17.924642
_cell_angle_alpha 90.000000
_cell_angle_beta 166.454845
_cell_angle_gamma 90.000000
_cell_volume 2467.828891
_symmetry_space_group_name_H-M "C 2/M"
_symmetry_group_IT_number 12
_symmetry_cell_setting 'monoclinic'
loop_
_space_group_symop_operation_xyz
x,y,z
-x,y,-z
-x,-y,-z
x,-y,z
1/2+x,1/2+y,z
1/2-x,1/2+y,-z
1/2-x,1/2-y,-z
1/2+x,1/2-y,z
loop_
_atom_site_type_symbol
_atom_site_label
_atom_site_fract_x
_atom_site_fract_y
_atom_site_fract_z
Si Si1 0.980476 0.059238 0.680834
Si Si2 0.769529 0.673121 0.849386
Si Si3 0.006552 0.730739 0.721087
Si Si4 0.370975 0.938708 0.065043
Si Si5 0.230599 0.936606 0.169637
Si Si6 0.291888 0.163350 0.648099
Si Si7 0.693245 0.369379 0.344486
O O1 0.802119 0.108629 0.436943
O O2 0.864921 0.000000 0.518227
O O3 0.197711 0.063924 0.908495
O O4 0.090091 0.060866 0.907113
O O5 0.500000 0.688434 0.500000
O O6 0.897434 0.715429 0.071734
O O7 0.789794 0.610481 0.905377
O O8 0.928408 0.673173 0.984609
O O9 0.844776 0.783381 0.506409
O O10 0.832273 0.677600 0.477722
O O11 0.250000 0.750000 0.000000
O O12 0.635790 0.922538 0.435411
O O13 0.361141 0.000000 0.020076
O O14 0.500000 0.920711 0.500000
O O15 0.238374 0.000000 0.209861
O O16 0.075047 0.892862 0.013983
O O17 0.219073 0.153150 0.464144
#
# Coordination Sequence:
#
# PCOD9186728 Si02
#       7
#     8   8   8   8   8   8   8
#     4   9  17  31  52  76 102 137 177 211 250 306
#     4  10  21  35  54  78 102 129 167 213 254 296
#     4  10  19  35  56  74  97 131 170 209 257 309
#     4   9  17  31  51  75 103 136 172 207 249 304
#     4   9  17  30  49  74 105 140 176 217 261 303
#     4   9  17  33  54  72  97 132 170 204 247 308
#     4   9  17  29  50  74  97 133 176 211 250 307
#
# _framework density 22.692011000000001
#
# number of rings (size 3 to 8) (size 9 to 14) (size 15 to 20)
#    0.000    3.000    0.000    3.857    0.000    3.714 
#    0.000   10.000    0.000   12.000    0.000    0.000 
#    0.000    0.000    0.000    0.000    0.000    0.000 
#
# Total GULP energy -156059.439500 kJ/mol
# GULP energy per Si atom -5573.551411 kJ/mol
# Density = 2.264036 g / cm^3
# Si number density = 22.692011 Si / 1000 Ang^3
#
#
#
# Elastic Constant Matrix: (Units=GPa)
#
#
# Indices 1 2 3 4 5 6 
#
# 1 39.8391 33.2408 22.5863 -0.0009 16.3950 0.0002
# 2 33.2408 111.3148 77.2615 0.0018 11.9583 -0.0004
# 3 22.5863 77.2615 179.9049 -0.0008 27.6142 0.0017
# 4 -0.0009 0.0018 -0.0008 45.9317 0.0007 16.8160
# 5 16.3950 11.9583 27.6142 0.0007 34.4525 0.0003
# 6 0.0002 -0.0004 0.0017 16.8160 0.0003 26.1701
#
#
#
# Elastic Compliance Matrix: (Units=1/GPa)
#
#
# Indices 1 2 3 4 5 6 
#
# 1 0.040976 -0.012323 0.002833 0.000002 -0.017493 -0.000002
# 2 -0.012323 0.016505 -0.006342 -0.000002 0.005219 0.000002
# 3 0.002833 -0.006342 0.008889 0.000001 -0.006272 -0.000001
# 4 0.000002 -0.000002 0.000001 0.028469 -0.000002 -0.018293
# 5 -0.017493 0.005219 -0.006272 -0.000002 0.040565 0.000001
# 6 -0.000002 0.000002 -0.000001 -0.018293 0.000001 0.049966
#
#
# Mechanical properties :
#
#
# Convention : Reuss Voigt Hill
#
# Bulk Modulus (GPa) = 28.81424 66.35955 47.58689
# Shear Modulus (GPa) = 21.87201 34.50886 28.19044
#
# Velocity S-wave (km/s) = 3.10798 3.90391 3.52846
# Velocity P-wave (km/s) = 5.06013 7.04470 6.13322
#
# Compressibility (1/GPa) = 0.03470506
#
# Stress axis : x y z
#
# Youngs Moduli (GPa) = 24.40457 60.58859 112.49747
#
# Poissons Ratio (x) = 0.74666 -0.31871
# Poissons Ratio (y) = 0.30075 0.71346
# Poissons Ratio (z) = -0.06914 0.38425
#
# Static dielectric constant tensor:
#      x y z
#    x 2.255700 0.000360 0.160670 
#    y 0.000360 2.023730 0.000150 
#    z 0.160670 0.000150 1.977900 
# 
# From -- ./inp_files/354552.got.cif
#   From: 2010.05.17/outbox.cif.g08.bks.cpg/sg12_178_cif.got.tgz:354552.got - 2010.06.03 13:09:07.
