data_PCOD9186539
_publ_section_title
;
Structure prediction by ZEFSAII (Michael W. Deem and Ramdas Pophale) SiO2 
 PCOD9186539
Probable space group: C 2/M
;
_chemical_formula_sum "Si O2"
_cell_formula_units_Z 48
_cell_length_a 22.839460
_cell_length_b 16.712334
_cell_length_c 16.492705
_cell_angle_alpha 90.000000
_cell_angle_beta 157.404666
_cell_angle_gamma 90.000000
_cell_volume 2418.772111
_symmetry_space_group_name_H-M "C 2/M"
_symmetry_group_IT_number 12
_symmetry_cell_setting 'monoclinic'
loop_
_space_group_symop_operation_xyz
x,y,z
-x,y,-z
-x,-y,-z
x,-y,z
1/2+x,1/2+y,z
1/2-x,1/2+y,-z
1/2-x,1/2-y,-z
1/2+x,1/2-y,z
loop_
_atom_site_type_symbol
_atom_site_label
_atom_site_fract_x
_atom_site_fract_y
_atom_site_fract_z
Si Si1 0.074621 0.315167 0.851953
Si Si2 0.229770 0.591441 0.513153
Si Si3 0.833029 0.151965 0.813268
Si Si4 0.880375 0.090784 0.222664
Si Si5 0.044752 0.249034 0.467202
Si Si6 0.563809 0.365459 0.886092
O O1 0.920928 0.355421 0.689156
O O2 0.049704 0.293726 0.724609
O O3 0.096849 0.229055 0.920951
O O4 0.220153 0.371807 0.046899
O O5 0.201556 0.500000 0.454058
O O6 0.270665 0.597252 0.661130
O O7 0.381631 0.622420 0.662377
O O8 0.717480 0.225422 0.673105
O O9 0.000000 0.180008 0.000000
O O10 0.855616 0.108010 0.927912
O O11 0.008060 0.155206 0.411718
O O12 0.881160 0.093603 0.125527
O O13 0.902964 0.000000 0.278785
O O14 0.000000 0.275430 0.500000
#
# Coordination Sequence:
#
# PCOD9186539 Si02
#       6
#     8   8   8   8   8   8
#     4  10  20  35  54  75 101 136 173 206 246 300
#     4  10  20  33  52  79 108 133 162 206 255 300
#     4   9  19  33  53  76 100 134 169 205 248 299
#     4  11  22  34  52  77 104 133 167 213 259 295
#     4  10  19  35  54  73  99 132 173 211 248 299
#     4  10  19  35  54  74 100 136 174 205 245 301
#
# _framework density 19.84478
#
# number of rings (size 3 to 8) (size 9 to 14) (size 15 to 20)
#    0.000    2.000    0.000    5.500    0.000    5.333 
#    0.000    0.000    0.000    6.000    0.000    0.000 
#    0.000    0.000    0.000    0.000    0.000    0.000 
#
# Total GULP energy -133999.885366 kJ/mol
# GULP energy per Si atom -5583.328557 kJ/mol
# Density = 1.979961 g / cm^3
# Si number density = 19.844780 Si / 1000 Ang^3
#
#
#
# Elastic Constant Matrix: (Units=GPa)
#
#
# Indices 1 2 3 4 5 6 
#
# 1 37.6326 -6.9101 -6.8033 0.0000 1.9330 0.0000
# 2 -6.9101 102.0865 26.8755 0.0000 24.5839 0.0000
# 3 -6.8033 26.8755 44.3008 0.0001 11.5395 0.0000
# 4 0.0000 0.0000 0.0001 5.7694 0.0000 3.0772
# 5 1.9330 24.5839 11.5395 0.0000 24.7701 0.0000
# 6 0.0000 0.0000 0.0000 3.0772 0.0000 6.6110
#
#
#
# Elastic Compliance Matrix: (Units=1/GPa)
#
#
# Indices 1 2 3 4 5 6 
#
# 1 0.028176 0.002274 0.004676 0.000000 -0.006634 0.000000
# 2 0.002274 0.014155 -0.005158 0.000000 -0.011823 0.000000
# 3 0.004676 -0.005158 0.028660 0.000000 -0.008597 0.000000
# 4 0.000000 0.000000 0.000000 0.230571 0.000000 -0.107322
# 5 -0.006634 -0.011823 -0.008597 0.000000 0.056628 0.000000
# 6 0.000000 0.000000 0.000000 -0.107322 0.000000 0.201218
#
#
# Mechanical properties :
#
#
# Convention : Reuss Voigt Hill
#
# Bulk Modulus (GPa) = 13.40976 23.37155 18.39066
# Shear Modulus (GPa) = 8.61056 18.82061 13.71559
#
# Velocity S-wave (km/s) = 2.08528 3.08294 2.63181
# Velocity P-wave (km/s) = 3.54540 4.94726 4.30379
#
# Compressibility (1/GPa) = 0.07457255
#
# Stress axis : x y z
#
# Youngs Moduli (GPa) = 35.49092 70.64873 34.89237
#
# Poissons Ratio (x) = -0.16064 -0.16314
# Poissons Ratio (y) = -0.08070 0.17998
# Poissons Ratio (z) = -0.16594 0.36442
#
# Static dielectric constant tensor:
#      x y z
#    x 1.727310 0.000000 -0.021650 
#    y 0.000000 1.672110 0.000000 
#    z -0.021650 0.000000 1.710410 
# 
# From -- ./inp_files/74602.got.cif
#   From: 2010.05.17/outbox.cif.g08.bks.cpg/sg12_38_cif.got.tgz:74602.got - 2010.06.03 13:09:07.
