data_PCOD9186163
_publ_section_title
;
Structure prediction by ZEFSAII (Michael W. Deem and Ramdas Pophale) SiO2 
 PCOD9186163
Probable space group: C 2/M
;
_chemical_formula_sum "Si O2"
_cell_formula_units_Z 56
_cell_length_a 28.886073
_cell_length_b 8.790968
_cell_length_c 17.416444
_cell_angle_alpha 90.000000
_cell_angle_beta 137.509279
_cell_angle_gamma 90.000000
_cell_volume 2987.385504
_symmetry_space_group_name_H-M "C 2/M"
_symmetry_group_IT_number 12
_symmetry_cell_setting 'monoclinic'
loop_
_space_group_symop_operation_xyz
x,y,z
-x,y,-z
-x,-y,-z
x,-y,z
1/2+x,1/2+y,z
1/2-x,1/2+y,-z
1/2-x,1/2-y,-z
1/2+x,1/2-y,z
loop_
_atom_site_type_symbol
_atom_site_label
_atom_site_fract_x
_atom_site_fract_y
_atom_site_fract_z
Si Si1 0.368093 0.818609 0.545368
Si Si2 0.306546 0.319761 0.321916
Si Si3 0.529395 0.320296 0.905300
Si Si4 0.335045 0.318781 0.835843
Si Si5 0.518000 0.679179 0.713972
Si Si6 0.428275 0.818019 0.369680
Si Si7 0.380513 0.819232 0.736052
O O1 0.321393 0.733135 0.427297
O O2 0.446201 0.769294 0.622794
O O3 0.356053 0.779396 0.619928
O O4 0.361213 0.000000 0.527360
O O5 0.310844 0.500000 0.321530
O O6 0.231115 0.260824 0.209254
O O7 0.365103 0.244708 0.341244
O O8 0.514884 0.500000 0.901858
O O9 0.544868 0.303370 0.833664
O O10 0.460631 0.227334 0.838316
O O11 0.594393 0.275179 0.035328
O O12 0.327495 0.500000 0.832019
O O13 0.342197 0.268499 0.756364
O O14 0.504863 0.500000 0.684792
O O15 0.566948 0.744091 0.708434
O O16 0.500000 0.779481 0.500000
O O17 0.424048 0.000000 0.359156
O O18 0.373184 0.000000 0.737325
#
# Coordination Sequence:
#
# PCOD9186163 Si02
#       7
#     8   8   8   8   8   8   8
#     4  10  20  36  56  83 117 151 186 230 286 340
#     4  12  25  39  58  84 115 149 191 237 284 337
#     4   9  20  38  60  86 115 151 192 235 281 332
#     4  11  23  40  59  80 115 157 193 232 284 339
#     4  10  19  34  59  89 116 143 187 238 280 326
#     4  11  22  37  60  87 117 149 185 227 280 343
#     4  10  21  36  59  88 116 148 192 239 281 331
#
# _framework density 18.745488000000002
#
# number of rings (size 3 to 8) (size 9 to 14) (size 15 to 20)
#    0.000    1.571    1.429    3.857    0.000    6.286 
#    0.000    0.714    0.000    0.000    0.000    0.000 
#    0.000    0.000    0.000    0.000    0.000    0.000 
#
# Total GULP energy -156509.211749 kJ/mol
# GULP energy per Si atom -5589.614705 kJ/mol
# Density = 1.870282 g / cm^3
# Si number density = 18.745488 Si / 1000 Ang^3
#
#
#
# Elastic Constant Matrix: (Units=GPa)
#
#
# Indices 1 2 3 4 5 6 
#
# 1 83.6557 20.7955 8.9224 0.0000 2.8140 0.0000
# 2 20.7955 41.3997 -4.0617 0.0000 -0.7733 0.0000
# 3 8.9224 -4.0617 15.9591 0.0000 -0.3976 0.0000
# 4 0.0000 0.0000 0.0000 23.7663 0.0000 1.9309
# 5 2.8140 -0.7733 -0.3976 0.0000 17.1298 0.0000
# 6 0.0000 0.0000 0.0000 1.9309 0.0000 35.4371
#
#
#
# Elastic Compliance Matrix: (Units=1/GPa)
#
#
# Indices 1 2 3 4 5 6 
#
# 1 0.015443 -0.008894 -0.010977 0.000000 -0.003193 0.000000
# 2 -0.008894 0.029923 0.012665 0.000000 0.003106 0.000000
# 3 -0.010977 0.012665 0.072121 0.000000 0.004049 0.000000
# 4 0.000000 0.000000 0.000000 0.042263 0.000000 -0.002303
# 5 -0.003193 0.003106 0.004049 0.000000 0.059136 0.000000
# 6 0.000000 0.000000 0.000000 -0.002303 0.000000 0.028344
#
#
# Mechanical properties :
#
#
# Convention : Reuss Voigt Hill
#
# Bulk Modulus (GPa) = 9.70159 21.36967 15.53563
# Shear Modulus (GPa) = 16.89189 22.95720 19.92454
#
# Velocity S-wave (km/s) = 3.00512 3.50334 3.26375
# Velocity P-wave (km/s) = 4.15062 5.27154 4.74430
#
# Compressibility (1/GPa) = 0.10307587
#
# Stress axis : x y z
#
# Youngs Moduli (GPa) = 64.75545 33.41947 13.86558
#
# Poissons Ratio (x) = 0.29722 0.15220
# Poissons Ratio (y) = 0.57591 -0.17561
# Poissons Ratio (z) = 0.71080 -0.42326
#
# Static dielectric constant tensor:
#      x y z
#    x 1.639240 0.000000 -0.014610 
#    y 0.000000 1.623320 0.000000 
#    z -0.014610 0.000000 1.647320 
# 
# From -- ./inp_files/288232.got.cif
#   From: 2010.05.17/outbox.cif.g08.bks.cpg/sg12_145_cif.got.tgz:288232.got - 2010.06.03 13:09:07.
