data_PCOD9186174
_publ_section_title
;
Structure prediction by ZEFSAII (Michael W. Deem and Ramdas Pophale) SiO2 
 PCOD9186174
Probable space group: C 2/M
;
_chemical_formula_sum "Si O2"
_cell_formula_units_Z 64
_cell_length_a 19.015847
_cell_length_b 8.780989
_cell_length_c 29.577365
_cell_angle_alpha 90.000000
_cell_angle_beta 136.997541
_cell_angle_gamma 90.000000
_cell_volume 3368.386403
_symmetry_space_group_name_H-M "C 2/M"
_symmetry_group_IT_number 12
_symmetry_cell_setting 'monoclinic'
loop_
_space_group_symop_operation_xyz
x,y,z
-x,y,-z
-x,-y,-z
x,-y,z
1/2+x,1/2+y,z
1/2-x,1/2+y,-z
1/2-x,1/2-y,-z
1/2+x,1/2-y,z
loop_
_atom_site_type_symbol
_atom_site_label
_atom_site_fract_x
_atom_site_fract_y
_atom_site_fract_z
Si Si1 0.678767 0.318843 0.369669
Si Si2 0.893225 0.817773 0.474339
Si Si3 0.672154 0.678300 0.839999
Si Si4 0.637239 0.823502 0.728429
Si Si5 0.411679 0.820275 0.582133
Si Si6 0.971231 0.321927 0.774945
Si Si7 0.898825 0.316878 0.923846
Si Si8 0.364154 0.321227 0.809436
O O1 0.680567 0.500000 0.373721
O O2 0.789895 0.257469 0.405818
O O3 0.652798 0.248071 0.406538
O O4 0.590631 0.266161 0.293463
O O5 0.895786 0.764310 0.527548
O O6 0.000000 0.771961 0.500000
O O7 0.884430 0.000000 0.467468
O O8 0.659770 0.500000 0.843711
O O9 0.643730 0.713782 0.774432
O O10 0.590404 0.772933 0.830038
O O11 0.792604 0.720013 0.900226
O O12 0.531700 0.803573 0.652239
O O13 0.740459 0.800133 0.748083
O O14 0.640284 0.000000 0.746389
O O15 0.388195 0.000000 0.566246
O O16 0.961397 0.500000 0.761210
O O17 0.921194 0.276134 0.798731
O O18 0.897499 0.500000 0.915122
O O19 0.894797 0.231751 0.874116
O O20 0.000000 0.279308 0.000000
O O21 0.386578 0.500000 0.813659
#
# Coordination Sequence:
#
# PCOD9186174 Si02
#       8
#     8   8   8   8   8   8   8   8
#     4  12  25  42  64  88 116 155 200 246 299 358
#     4  11  26  45  62  86 119 155 198 248 301 358
#     4  10  19  34  59  89 119 154 196 239 285 344
#     4   9  19  35  57  85 116 151 191 240 291 347
#     4  11  22  39  63  89 118 154 197 243 298 357
#     4  12  24  39  59  87 123 158 196 246 302 352
#     4   9  19  38  63  91 124 161 199 240 290 348
#     4  10  21  37  58  89 123 156 199 245 293 346
#
# _framework density 19.000195000000001
#
# number of rings (size 3 to 8) (size 9 to 14) (size 15 to 20)
#    0.000    1.500    1.250    4.125    1.750    2.750 
#    0.000    0.625    0.000    0.000    0.000    0.000 
#    0.000    0.000    0.000    0.000    0.000    0.000 
#
# Total GULP energy -178856.915346 kJ/mol
# GULP energy per Si atom -5589.278605 kJ/mol
# Density = 1.895695 g / cm^3
# Si number density = 19.000195 Si / 1000 Ang^3
#
#
#
# Elastic Constant Matrix: (Units=GPa)
#
#
# Indices 1 2 3 4 5 6 
#
# 1 100.2882 32.4933 34.9322 0.0000 18.2878 0.0000
# 2 32.4933 68.5121 25.0663 0.0000 14.2173 0.0000
# 3 34.9322 25.0663 76.7608 0.0000 26.7590 0.0000
# 4 0.0000 0.0000 0.0000 24.7325 0.0000 0.8629
# 5 18.2878 14.2173 26.7590 0.0000 23.4549 0.0000
# 6 0.0000 0.0000 0.0000 0.8629 0.0000 28.5043
#
#
#
# Elastic Compliance Matrix: (Units=1/GPa)
#
#
# Indices 1 2 3 4 5 6 
#
# 1 0.013205 -0.004246 -0.003206 0.000000 -0.004065 0.000000
# 2 -0.004246 0.018547 -0.002257 0.000000 -0.005357 0.000000
# 3 -0.003206 -0.002257 0.023037 0.000000 -0.022415 0.000000
# 4 0.000000 0.000000 0.000000 0.040475 0.000000 -0.001225
# 5 -0.004065 -0.005357 -0.022415 0.000000 0.074624 0.000000
# 6 0.000000 0.000000 0.000000 -0.001225 0.000000 0.035120
#
#
# Mechanical properties :
#
#
# Convention : Reuss Voigt Hill
#
# Bulk Modulus (GPa) = 28.27115 47.83830 38.05473
# Shear Modulus (GPa) = 21.16706 25.54297 23.35502
#
# Velocity S-wave (km/s) = 3.34135 3.67052 3.50980
# Velocity P-wave (km/s) = 5.45874 6.57237 6.04127
#
# Compressibility (1/GPa) = 0.03537174
#
# Stress axis : x y z
#
# Youngs Moduli (GPa) = 75.72969 53.91658 43.40812
#
# Poissons Ratio (x) = 0.22895 0.13915
# Poissons Ratio (y) = 0.32158 0.09796
# Poissons Ratio (z) = 0.24276 0.12167
#
# Static dielectric constant tensor:
#      x y z
#    x 1.655470 0.000000 0.030410 
#    y 0.000000 1.639980 0.000000 
#    z 0.030410 0.000000 1.645080 
# 
# From -- ./inp_files/378437.got.cif
#   From: 2010.05.17/outbox.cif.g08.bks.cpg/sg12_190_cif.got.tgz:378437.got - 2010.06.03 13:09:07.
