data_PCOD9186695
_publ_section_title
;
Structure prediction by ZEFSAII (Michael W. Deem and Ramdas Pophale) SiO2 
 PCOD9186695
Probable space group: C 2/M
;
_chemical_formula_sum "Si O2"
_cell_formula_units_Z 50
_cell_length_a 12.816926
_cell_length_b 13.588226
_cell_length_c 21.503852
_cell_angle_alpha 90.000000
_cell_angle_beta 144.088359
_cell_angle_gamma 90.000000
_cell_volume 2196.636814
_symmetry_space_group_name_H-M "C 2/M"
_symmetry_group_IT_number 12
_symmetry_cell_setting 'monoclinic'
loop_
_space_group_symop_operation_xyz
x,y,z
-x,y,-z
-x,-y,-z
x,-y,z
1/2+x,1/2+y,z
1/2-x,1/2+y,-z
1/2-x,1/2-y,-z
1/2+x,1/2-y,z
loop_
_atom_site_type_symbol
_atom_site_label
_atom_site_fract_x
_atom_site_fract_y
_atom_site_fract_z
Si Si1 0.189521 0.819468 0.539584
Si Si2 0.224226 0.252382 0.881111
Si Si3 0.300040 0.253987 0.328390
Si Si4 0.440547 0.884293 0.304216
Si Si5 0.098654 0.613543 0.137467
Si Si6 0.324735 0.386591 0.040183
Si Si7 0.500000 0.500000 0.500000
O O1 0.228256 0.739680 0.611883
O O2 0.358325 0.850852 0.581586
O O3 0.002048 0.797105 0.417399
O O4 0.149301 0.915506 0.560717
O O5 0.112312 0.325353 0.783549
O O6 0.330695 0.180310 0.885493
O O7 0.336715 0.323370 0.982305
O O8 0.108304 0.181387 0.870539
O O9 0.306004 0.154290 0.291833
O O10 0.177790 0.334467 0.236437
O O11 0.430355 0.000000 0.290496
O O12 0.158380 0.500000 0.158472
O O13 0.886566 0.610540 0.044574
O O14 0.386345 0.500000 0.065402
#
# Coordination Sequence:
#
# PCOD9186695 Si02
#       7
#     8   8   8   8   8   8   2
#     4  10  19  35  55  82 115 141 180 230 270 313
#     4  10  21  34  53  84 111 136 184 232 270 327
#     4   9  21  33  54  85 115 139 182 232 271 320
#     4  11  21  36  57  80 109 152 185 218 273 332
#     4  10  20  34  58  84 109 142 182 230 281 324
#     4  10  20  37  60  80 105 145 184 227 282 328
#     4   8  16  28  52  84  98 130 168 228 252 300
#
# _framework density 22.762069
#
# number of rings (size 3 to 8) (size 9 to 14) (size 15 to 20)
#    0.000    2.240    0.800    2.880    4.480    2.560 
#    0.000    1.600    0.000   67.200    0.000    0.000 
#    0.000    0.000    0.000    0.000    0.000    0.000 
#
# Total GULP energy -139238.063925 kJ/mol
# GULP energy per Si atom -5569.522557 kJ/mol
# Density = 2.271026 g / cm^3
# Si number density = 22.762069 Si / 1000 Ang^3
#
#
#
# Elastic Constant Matrix: (Units=GPa)
#
#
# Indices 1 2 3 4 5 6 
#
# 1 68.1037 31.4501 -5.9392 0.0000 4.0489 0.0000
# 2 31.4501 140.1338 2.7824 0.0000 12.3230 0.0000
# 3 -5.9392 2.7824 44.7741 0.0001 5.8816 0.0000
# 4 0.0000 0.0000 0.0001 17.1144 0.0000 9.5030
# 5 4.0489 12.3230 5.8816 0.0000 14.6150 0.0000
# 6 0.0000 0.0000 0.0000 9.5030 0.0000 0.3202
#
#
#
# Elastic Compliance Matrix: (Units=1/GPa)
#
#
# Indices 1 2 3 4 5 6 
#
# 1 0.016741 -0.003570 0.002805 0.000000 -0.002756 0.000000
# 2 -0.003570 0.008476 -0.000202 0.000000 -0.006076 0.000000
# 3 0.002805 -0.000202 0.024071 0.000000 -0.010294 0.000000
# 4 0.000000 0.000000 0.000000 -0.003775 0.000000 0.112028
# 5 -0.002756 -0.006076 -0.010294 0.000000 0.078452 0.000000
# 6 0.000000 0.000000 0.000000 0.112028 0.000000 -0.201756
#
#
# Mechanical properties :
#
#
# Convention : Reuss Voigt Hill
#
# Bulk Modulus (GPa) = 21.11869 34.39980 27.75925
# Shear Modulus (GPa) = -83.23431 21.39114 -30.92158
#
# Velocity S-wave (km/s) = -6.05363 3.06889 -3.68974
# Velocity P-wave (km/s) = 6.28998 5.26337 2.43524
#
# Compressibility (1/GPa) = 0.04735141
#
# Stress axis : x y z
#
# Youngs Moduli (GPa) = 59.73452 117.98483 41.54351
#
# Poissons Ratio (x) = 0.42126 -0.11651
# Poissons Ratio (y) = 0.21328 0.00840
# Poissons Ratio (z) = -0.16753 0.02385
#
# Static dielectric constant tensor:
#      x y z
#    x 1.987940 0.000000 0.008350 
#    y 0.000000 1.759790 0.000000 
#    z 0.008350 0.000000 1.923470 
# 
# From -- ./inp_files/339645.got.cif
#   From: 2010.05.17/outbox.cif.g08.bks.cpg/sg12_170_cif.got.tgz:339645.got - 2010.06.03 13:09:07.
