data_PCOD9186275
_publ_section_title
;
Structure prediction by ZEFSAII (Michael W. Deem and Ramdas Pophale) SiO2 
 PCOD9186275
Probable space group: C 2/M
;
_chemical_formula_sum "Si O2"
_cell_formula_units_Z 52
_cell_length_a 22.252624
_cell_length_b 27.939573
_cell_length_c 9.356667
_cell_angle_alpha 90.000000
_cell_angle_beta 28.855312
_cell_angle_gamma 90.000000
_cell_volume 2807.430147
_symmetry_space_group_name_H-M "C 2/M"
_symmetry_group_IT_number 12
_symmetry_cell_setting 'monoclinic'
loop_
_space_group_symop_operation_xyz
x,y,z
-x,y,-z
-x,-y,-z
x,-y,z
1/2+x,1/2+y,z
1/2-x,1/2+y,-z
1/2-x,1/2-y,-z
1/2+x,1/2-y,z
loop_
_atom_site_type_symbol
_atom_site_label
_atom_site_fract_x
_atom_site_fract_y
_atom_site_fract_z
Si Si1 0.693497 0.813022 0.493707
Si Si2 0.317695 0.946012 0.181252
Si Si3 0.000000 0.608708 0.000000
Si Si4 0.620113 0.291419 0.646108
Si Si5 0.653550 0.372304 0.342381
Si Si6 0.357787 0.375856 0.963037
Si Si7 0.384641 0.446610 0.149643
O O1 0.622029 0.764534 0.600452
O O2 0.762122 0.802110 0.499052
O O3 0.600280 0.856350 0.717338
O O4 0.801683 0.829498 0.159647
O O5 0.438769 0.922861 0.001981
O O6 0.245719 0.910341 0.224153
O O7 0.222865 0.949829 0.510897
O O8 0.338346 0.000000 0.081655
O O9 0.645082 0.324150 0.455605
O O10 0.500000 0.301229 0.000000
O O11 0.506517 0.384084 0.648894
O O12 0.688508 0.371520 0.102483
O O13 0.327699 0.419118 0.133730
O O14 0.427472 0.500000 0.017125
O O15 0.500000 0.423463 0.000000
#
# Coordination Sequence:
#
# PCOD9186275 Si02
#       7
#     8   8   4   8   8   8   8
#     4  11  23  37  64  91 119 156 205 249 301 357
#     4  11  23  39  62  89 120 160 207 254 298 355
#     4  12  21  38  64  92 116 158 209 252 296 352
#     4  11  21  39  65  90 118 156 203 256 301 355
#     4  11  23  38  62  89 126 160 195 246 315 360
#     4  11  22  38  60  92 125 157 192 251 307 371
#     4  10  19  34  60  89 115 150 198 253 302 350
#
# _framework density 18.522276000000002
#
# number of rings (size 3 to 8) (size 9 to 14) (size 15 to 20)
#    0.000    1.077    6.923    0.231    0.000    1.231 
#    0.000    2.308    0.000    0.923    0.000    0.000 
#    0.000    0.000    0.000    0.000    0.000    0.000 
#
# Total GULP energy -144742.534963 kJ/mol
# GULP energy per Si atom -5567.020576 kJ/mol
# Density = 1.848012 g / cm^3
# Si number density = 18.522276 Si / 1000 Ang^3
#
#
#
# Elastic Constant Matrix: (Units=GPa)
#
#
# Indices 1 2 3 4 5 6 
#
# 1 117.2157 60.8196 21.0543 0.0008 13.1789 -0.0029
# 2 60.8196 112.7684 16.3477 0.0004 -0.6477 -0.0017
# 3 21.0543 16.3477 32.6253 0.0023 -5.4417 -0.0068
# 4 0.0008 0.0004 0.0023 21.9736 -0.0016 -10.3336
# 5 13.1789 -0.6477 -5.4417 -0.0016 34.7716 0.0052
# 6 -0.0029 -0.0017 -0.0068 -10.3336 0.0052 -20.2114
#
#
#
# Elastic Compliance Matrix: (Units=1/GPa)
#
#
# Indices 1 2 3 4 5 6 
#
# 1 0.013853 -0.006532 -0.006739 0.000000 -0.006427 -0.000001
# 2 -0.006532 0.012653 -0.001718 0.000001 0.002442 0.000001
# 3 -0.006739 -0.001718 0.037254 -0.000006 0.008353 -0.000006
# 4 0.000000 0.000001 -0.000006 0.036688 0.000004 -0.018758
# 5 -0.006427 0.002442 0.008353 0.000004 0.032548 0.000004
# 6 -0.000001 0.000001 -0.000006 -0.018758 0.000004 -0.039887
#
#
# Mechanical properties :
#
#
# Convention : Reuss Voigt Hill
#
# Bulk Modulus (GPa) = 29.60027 51.00586 40.30306
# Shear Modulus (GPa) = 37.21662 18.26595 27.74129
#
# Velocity S-wave (km/s) = 4.48737 3.14373 3.87424
# Velocity P-wave (km/s) = 6.54708 6.38551 6.46680
#
# Compressibility (1/GPa) = 0.03378347
#
# Stress axis : x y z
#
# Youngs Moduli (GPa) = 72.18431 79.02978 26.84267
#
# Poissons Ratio (x) = 0.51619 0.18090
# Poissons Ratio (y) = 0.47147 0.04611
# Poissons Ratio (z) = 0.48647 0.13576
#
# Static dielectric constant tensor:
#      x y z
#    x 1.646290 0.000000 -0.019000 
#    y 0.000000 1.724060 0.000000 
#    z -0.019000 0.000000 1.681720 
# 
# From -- ./inp_files/91474.got.cif
#   From: 2010.05.17/outbox.cif.g08.bks.cpg/sg12_46_cif.got.tgz:91474.got - 2010.06.03 13:09:07.
