data_PCOD9186840
_publ_section_title
;
Structure prediction by ZEFSAII (Michael W. Deem and Ramdas Pophale) SiO2 
 PCOD9186840
Probable space group: C 2/M
;
_chemical_formula_sum "Si O2"
_cell_formula_units_Z 48
_cell_length_a 20.121318
_cell_length_b 13.207036
_cell_length_c 13.056958
_cell_angle_alpha 90.000000
_cell_angle_beta 44.639562
_cell_angle_gamma 90.000000
_cell_volume 2438.032347
_symmetry_space_group_name_H-M "C 2/M"
_symmetry_group_IT_number 12
_symmetry_cell_setting 'monoclinic'
loop_
_space_group_symop_operation_xyz
x,y,z
-x,y,-z
-x,-y,-z
x,-y,z
1/2+x,1/2+y,z
1/2-x,1/2+y,-z
1/2-x,1/2-y,-z
1/2+x,1/2-y,z
loop_
_atom_site_type_symbol
_atom_site_label
_atom_site_fract_x
_atom_site_fract_y
_atom_site_fract_z
Si Si1 0.044096 0.765842 0.350387
Si Si2 0.794347 0.613362 0.748662
Si Si3 0.156230 0.790039 0.045161
Si Si4 0.264264 0.884415 0.374478
Si Si5 0.355288 0.186374 0.474513
Si Si6 0.093433 0.617778 0.965645
O O1 0.128527 0.694474 0.297973
O O2 0.000000 0.817686 0.500000
O O3 0.962563 0.694176 0.393508
O O4 0.087340 0.830414 0.209910
O O5 0.825248 0.500000 0.739361
O O6 0.696236 0.636364 0.913829
O O7 0.793128 0.628291 0.627813
O O8 0.105930 0.696115 0.043732
O O9 0.250000 0.750000 0.000000
O O10 0.340081 0.863594 0.381426
O O11 0.183977 0.801352 0.481336
O O12 0.316433 0.869205 0.208844
O O13 0.231175 0.000000 0.416256
O O14 0.090546 0.500000 0.002061
O O15 0.000000 0.636773 0.000000
#
# Coordination Sequence:
#
# PCOD9186840 Si02
#       6
#     8   8   8   8   8   8
#     4   9  20  35  57  80 109 146 186 234 285 331
#     4  10  20  35  57  84 112 147 189 231 286 341
#     4  10  20  36  56  82 118 152 186 237 291 344
#     4  10  20  33  54  82 113 150 187 226 282 344
#     4  10  19  35  56  82 114 150 182 237 281 332
#     4  10  20  35  58  87 115 148 192 241 291 342
#
# _framework density 19.688008
#
# number of rings (size 3 to 8) (size 9 to 14) (size 15 to 20)
#    0.000    2.167    1.667    1.500    0.000    6.333 
#    0.000    0.833    0.000    6.500    0.000    0.000 
#    0.000    0.000    0.000    0.000    0.000    0.000 
#
# Total GULP energy -133810.853855 kJ/mol
# GULP energy per Si atom -5575.452244 kJ/mol
# Density = 1.964320 g / cm^3
# Si number density = 19.688008 Si / 1000 Ang^3
#
#
#
# Elastic Constant Matrix: (Units=GPa)
#
#
# Indices 1 2 3 4 5 6 
#
# 1 48.9038 1.8350 4.7075 0.0000 10.1070 0.0000
# 2 1.8350 39.4844 1.6194 0.0000 -4.3971 0.0000
# 3 4.7075 1.6194 125.8197 0.0000 7.5251 0.0000
# 4 0.0000 0.0000 0.0000 4.9948 0.0000 -2.4956
# 5 10.1070 -4.3971 7.5251 0.0000 20.0386 0.0000
# 6 0.0000 0.0000 0.0000 -2.4956 0.0000 10.2949
#
#
#
# Elastic Compliance Matrix: (Units=1/GPa)
#
#
# Indices 1 2 3 4 5 6 
#
# 1 0.023054 -0.002417 -0.000107 0.000000 -0.012118 0.000000
# 2 -0.002417 0.026273 -0.000681 0.000000 0.007240 0.000000
# 3 -0.000107 -0.000681 0.008149 0.000000 -0.003156 0.000000
# 4 0.000000 0.000000 0.000000 0.227801 0.000000 0.055222
# 5 -0.012118 0.007240 -0.003156 0.000000 0.058790 0.000000
# 6 0.000000 0.000000 0.000000 0.055222 0.000000 0.110522
#
#
# Mechanical properties :
#
#
# Convention : Reuss Voigt Hill
#
# Bulk Modulus (GPa) = 19.58172 25.61465 22.59818
# Shear Modulus (GPa) = 10.45983 20.80205 15.63094
#
# Velocity S-wave (km/s) = 2.30745 3.25404 2.82074
# Velocity P-wave (km/s) = 4.13119 5.21123 4.70232
#
# Compressibility (1/GPa) = 0.05106805
#
# Stress axis : x y z
#
# Youngs Moduli (GPa) = 43.37701 38.06201 122.70866
#
# Poissons Ratio (x) = 0.09198 0.01309
# Poissons Ratio (y) = 0.10482 0.08353
# Poissons Ratio (z) = 0.00463 0.02591
#
# Static dielectric constant tensor:
#      x y z
#    x 1.685950 0.000000 -0.005080 
#    y 0.000000 1.660600 0.000000 
#    z -0.005080 0.000000 1.734330 
# 
# From -- ./inp_files/165471.got.cif
#   From: 2010.05.17/outbox.cif.g08.bks.cpg/sg12_83_cif.got.tgz:165471.got - 2010.06.03 13:09:07.
