data_PCOD9186151
_publ_section_title
;
Structure prediction by ZEFSAII (Michael W. Deem and Ramdas Pophale) SiO2 
 PCOD9186151
Probable space group: C 2/M
;
_chemical_formula_sum "Si O2"
_cell_formula_units_Z 56
_cell_length_a 19.691260
_cell_length_b 8.844541
_cell_length_c 32.237930
_cell_angle_alpha 90.000000
_cell_angle_beta 147.162845
_cell_angle_gamma 90.000000
_cell_volume 3044.514629
_symmetry_space_group_name_H-M "C 2/M"
_symmetry_group_IT_number 12
_symmetry_cell_setting 'monoclinic'
loop_
_space_group_symop_operation_xyz
x,y,z
-x,y,-z
-x,-y,-z
x,-y,z
1/2+x,1/2+y,z
1/2-x,1/2+y,-z
1/2-x,1/2-y,-z
1/2+x,1/2-y,z
loop_
_atom_site_type_symbol
_atom_site_label
_atom_site_fract_x
_atom_site_fract_y
_atom_site_fract_z
Si Si1 0.173931 0.819922 0.999510
Si Si2 0.400403 0.819006 0.870256
Si Si3 0.744285 0.822217 0.451477
Si Si4 0.986355 0.673799 0.541988
Si Si5 0.007626 0.179536 0.695094
Si Si6 0.670654 0.179197 0.706672
Si Si7 0.745836 0.320268 0.873313
O O1 0.233225 0.768815 0.073776
O O2 0.173977 0.000000 0.995918
O O3 0.250000 0.750000 0.000000
O O4 0.032018 0.758037 0.928420
O O5 0.295805 0.766533 0.783691
O O6 0.343889 0.778662 0.886857
O O7 0.413382 0.000000 0.876096
O O8 0.750000 0.750000 0.500000
O O9 0.876524 0.784527 0.498937
O O10 0.630183 0.743406 0.368571
O O11 0.722124 0.000000 0.442936
O O12 0.952320 0.500000 0.536656
O O13 0.000000 0.678603 0.500000
O O14 0.113872 0.708590 0.632190
O O15 0.064932 0.264694 0.684687
O O16 0.107991 0.203637 0.783205
O O17 0.003231 0.000000 0.684490
O O18 0.691326 0.000000 0.722250
O O19 0.761724 0.500000 0.889342
#
# Coordination Sequence:
#
# PCOD9186151 Si02
#       7
#     8   8   8   8   8   8   8
#     4  12  25  41  62  88 121 157 196 241 292 350
#     4  10  21  39  64  90 119 155 194 240 293 350
#     4  12  23  36  59  87 118 156 201 248 296 348
#     4  10  22  40  59  83 118 160 200 242 297 354
#     4  10  20  36  60  89 120 154 193 244 297 347
#     4  10  19  34  59  88 118 154 198 245 289 346
#     4   9  20  39  63  90 120 155 192 237 293 351
#
# _framework density 18.393736000000001
#
# number of rings (size 3 to 8) (size 9 to 14) (size 15 to 20)
#    0.000    1.571    1.429    5.143    0.000    6.000 
#    2.571    0.000    0.000    0.000    0.000    0.000 
#    0.000    0.000    0.000    0.000    0.000    0.000 
#
# Total GULP energy -156423.898435 kJ/mol
# GULP energy per Si atom -5586.567801 kJ/mol
# Density = 1.835187 g / cm^3
# Si number density = 18.393736 Si / 1000 Ang^3
#
#
#
# Elastic Constant Matrix: (Units=GPa)
#
#
# Indices 1 2 3 4 5 6 
#
# 1 84.5283 58.0746 65.4525 0.0000 -5.2192 0.0000
# 2 58.0746 102.4937 64.2037 0.0000 -3.3411 0.0000
# 3 65.4525 64.2037 115.0568 0.0000 -6.5895 0.0000
# 4 0.0000 0.0000 0.0000 34.5144 0.0000 4.3565
# 5 -5.2192 -3.3411 -6.5895 0.0000 26.0930 0.0000
# 6 0.0000 0.0000 0.0000 4.3565 0.0000 30.2112
#
#
#
# Elastic Compliance Matrix: (Units=1/GPa)
#
#
# Indices 1 2 3 4 5 6 
#
# 1 0.024857 -0.008043 -0.009565 0.000000 0.001527 0.000000
# 2 -0.008043 0.017603 -0.005287 0.000000 -0.000690 0.000000
# 3 -0.009565 -0.005287 0.017183 0.000000 0.001749 0.000000
# 4 0.000000 0.000000 0.000000 0.029511 0.000000 -0.004255
# 5 0.001527 -0.000690 0.001749 0.000000 0.038983 0.000000
# 6 0.000000 0.000000 0.000000 -0.004255 0.000000 0.033714
#
#
# Mechanical properties :
#
#
# Convention : Reuss Voigt Hill
#
# Bulk Modulus (GPa) = 72.18414 75.28228 73.73321
# Shear Modulus (GPa) = 23.55619 25.78690 24.67154
#
# Velocity S-wave (km/s) = 3.58252 3.74831 3.66635
# Velocity P-wave (km/s) = 7.51277 7.72982 7.62207
#
# Compressibility (1/GPa) = 0.01385346
#
# Stress axis : x y z
#
# Youngs Moduli (GPa) = 40.23054 56.80713 58.19717
#
# Poissons Ratio (x) = 0.45690 0.55664
# Poissons Ratio (y) = 0.32357 0.30770
# Poissons Ratio (z) = 0.38479 0.30035
#
# Static dielectric constant tensor:
#      x y z
#    x 1.605790 0.000000 0.003590 
#    y 0.000000 1.621390 0.000000 
#    z 0.003590 0.000000 1.644150 
# 
# From -- ./inp_files/377728.got.cif
#   From: 2010.05.17/outbox.cif.g08.bks.cpg/sg12_189_cif.got.tgz:377728.got - 2010.06.03 13:09:07.
