data_PCOD9186320
_publ_section_title
;
Structure prediction by ZEFSAII (Michael W. Deem and Ramdas Pophale) SiO2 
 PCOD9186320
Probable space group: C 2/M
;
_chemical_formula_sum "Si O2"
_cell_formula_units_Z 58
_cell_length_a 11.348902
_cell_length_b 25.176368
_cell_length_c 17.567400
_cell_angle_alpha 90.000000
_cell_angle_beta 148.748071
_cell_angle_gamma 90.000000
_cell_volume 2604.090597
_symmetry_space_group_name_H-M "C 2/M"
_symmetry_group_IT_number 12
_symmetry_cell_setting 'monoclinic'
loop_
_space_group_symop_operation_xyz
x,y,z
-x,y,-z
-x,-y,-z
x,-y,z
1/2+x,1/2+y,z
1/2-x,1/2+y,-z
1/2-x,1/2-y,-z
1/2+x,1/2-y,z
loop_
_atom_site_type_symbol
_atom_site_label
_atom_site_fract_x
_atom_site_fract_y
_atom_site_fract_z
Si Si1 0.561683 0.667807 0.193240
Si Si2 0.881816 0.110063 0.359397
Si Si3 0.910541 0.339323 0.121610
Si Si4 0.405301 0.782975 0.272137
Si Si5 0.190191 0.439888 0.668822
Si Si6 0.500000 0.500000 0.500000
Si Si7 0.345780 0.323542 0.589525
Si Si8 0.772509 0.557495 0.139880
O O1 0.672477 0.697403 0.182204
O O2 0.620767 0.605292 0.224583
O O3 0.682849 0.685273 0.337083
O O4 0.292123 0.674419 0.047346
O O5 0.646236 0.140805 0.217819
O O6 0.000000 0.135974 0.500000
O O7 0.879664 0.048237 0.381757
O O8 0.037676 0.122190 0.372699
O O9 0.917146 0.293068 0.188512
O O10 0.834238 0.391313 0.126956
O O11 0.484762 0.724366 0.339993
O O12 0.604669 0.819388 0.416623
O O13 0.273950 0.500000 0.700392
O O14 0.107416 0.440164 0.710980
O O15 0.000000 0.428278 0.500000
O O16 0.833899 0.500000 0.139603
O O17 0.500000 0.557510 0.000000
#
# Coordination Sequence:
#
# PCOD9186320 Si02
#       8
#     8   8   8   8   8   2   8   8
#     4  12  25  42  65 102 138 175 220 284 351 400
#     4  10  23  45  70 100 129 177 234 272 324 401
#     4  12  23  41  67  96 138 176 227 279 335 413
#     4  11  23  44  71  96 129 182 228 283 337 401
#     4  10  20  36  57  93 135 171 212 270 342 402
#     4   8  20  48  76  98 128 180 244 270 310 410
#     4  11  26  44  70  98 135 174 231 284 328 397
#     4  10  19  34  60  92 130 172 219 273 333 395
#
# _framework density 22.272649999999999
#
# number of rings (size 3 to 8) (size 9 to 14) (size 15 to 20)
#    0.414    0.828    4.138    1.655    2.897    1.103 
#    3.724    0.000    0.000    0.828    0.000    0.000 
#    0.000    0.000    0.000    0.000    0.000    0.000 
#
# Total GULP energy -161637.617914 kJ/mol
# GULP energy per Si atom -5573.710963 kJ/mol
# Density = 2.222196 g / cm^3
# Si number density = 22.272650 Si / 1000 Ang^3
#
#
#
# Elastic Constant Matrix: (Units=GPa)
#
#
# Indices 1 2 3 4 5 6 
#
# 1 28.5609 2.3234 -8.2922 0.0006 5.2975 0.0006
# 2 2.3234 72.1589 8.7721 0.0004 15.7698 0.0007
# 3 -8.2922 8.7721 80.8789 0.0016 1.0259 0.0015
# 4 0.0006 0.0004 0.0016 16.0817 0.0008 -1.9725
# 5 5.2975 15.7698 1.0259 0.0008 31.8545 0.0007
# 6 0.0006 0.0007 0.0015 -1.9725 0.0007 14.8279
#
#
#
# Elastic Compliance Matrix: (Units=1/GPa)
#
#
# Indices 1 2 3 4 5 6 
#
# 1 0.037329 -0.000333 0.003942 -0.000002 -0.006170 -0.000002
# 2 -0.000333 0.015749 -0.001645 0.000000 -0.007688 0.000000
# 3 0.003942 -0.001645 0.012950 -0.000002 -0.000258 -0.000002
# 4 -0.000002 0.000000 -0.000002 0.063214 -0.000002 0.008409
# 5 -0.006170 -0.007688 -0.000258 -0.000002 0.036233 -0.000001
# 6 -0.000002 0.000000 -0.000002 0.008409 -0.000001 0.068559
#
#
# Mechanical properties :
#
#
# Convention : Reuss Voigt Hill
#
# Bulk Modulus (GPa) = 14.29465 20.80059 17.54762
# Shear Modulus (GPa) = 19.72972 24.47252 22.10112
#
# Velocity S-wave (km/s) = 2.97951 3.31837 3.15349
# Velocity P-wave (km/s) = 4.27418 4.90320 4.59946
#
# Compressibility (1/GPa) = 0.06995625
#
# Stress axis : x y z
#
# Youngs Moduli (GPa) = 26.78898 63.49520 77.22045
#
# Poissons Ratio (x) = 0.02112 -0.30437
# Poissons Ratio (y) = 0.00891 0.12701
# Poissons Ratio (z) = -0.10559 0.10443
#
# Static dielectric constant tensor:
#      x y z
#    x 1.861670 0.000000 0.026940 
#    y 0.000000 1.847170 0.000000 
#    z 0.026940 0.000000 1.830030 
# 
# From -- ./inp_files/266043.got.cif
#   From: 2010.05.17/outbox.cif.g08.bks.cpg/sg12_134_cif.got.tgz:266043.got - 2010.06.03 13:09:07.
