data_PCOD9186037
_publ_section_title
;
Structure prediction by ZEFSAII (Michael W. Deem and Ramdas Pophale) SiO2 
 PCOD9186037
Probable space group: C 2/M
;
_chemical_formula_sum "Si O2"
_cell_formula_units_Z 56
_cell_length_a 10.432220
_cell_length_b 13.883523
_cell_length_c 29.319764
_cell_angle_alpha 90.000000
_cell_angle_beta 33.975380
_cell_angle_gamma 90.000000
_cell_volume 2373.131174
_symmetry_space_group_name_H-M "C 2/M"
_symmetry_group_IT_number 12
_symmetry_cell_setting 'monoclinic'
loop_
_space_group_symop_operation_xyz
x,y,z
-x,y,-z
-x,-y,-z
x,-y,z
1/2+x,1/2+y,z
1/2-x,1/2+y,-z
1/2-x,1/2-y,-z
1/2+x,1/2-y,z
loop_
_atom_site_type_symbol
_atom_site_label
_atom_site_fract_x
_atom_site_fract_y
_atom_site_fract_z
Si Si1 0.182787 0.386995 0.822287
Si Si2 0.122993 0.325756 0.006636
Si Si3 0.094040 0.109770 0.834675
Si Si4 0.672046 0.117506 0.560474
Si Si5 0.961095 0.382734 0.797118
Si Si6 0.334014 0.382142 0.290190
Si Si7 0.837568 0.117059 0.612381
O O1 0.207403 0.500000 0.805095
O O2 0.442754 0.348634 0.747920
O O3 0.015039 0.347876 0.832307
O O4 0.060773 0.377268 0.906993
O O5 0.327856 0.389822 0.926019
O O6 0.250000 0.250000 0.000000
O O7 0.000000 0.278938 0.000000
O O8 0.240342 0.152966 0.833623
O O9 0.135844 0.148066 0.771569
O O10 0.177674 0.000000 0.806392
O O11 0.419206 0.148055 0.619384
O O12 0.722537 0.146531 0.598166
O O13 0.896148 0.147101 0.465843
O O14 0.669287 0.000000 0.561158
O O15 0.938360 0.500000 0.806743
O O16 0.181009 0.357343 0.701313
O O17 0.339855 0.500000 0.289440
O O18 0.838222 0.000000 0.611260
#
# Coordination Sequence:
#
# PCOD9186037 Si02
#       7
#     8   8   8   8   8   8   8
#     4  10  21  36  56  77 104 139 176 217 260 305
#     4  12  27  42  56  77 106 134 168 216 268 319
#     4  10  19  34  59  79 100 137 180 217 251 301
#     4   8  12  19  37  65 100 139 173 204 245 299
#     4   9  17  29  47  76 107 137 173 214 255 300
#     4   9  15  27  47  74  99 132 178 215 247 295
#     4   8  12  20  36  64 103 140 168 202 251 301
#
# _framework density 23.597515999999999
#
# number of rings (size 3 to 8) (size 9 to 14) (size 15 to 20)
#    0.000    2.571    2.857    1.286    2.000    0.571 
#    0.000    2.857    0.000    4.286    0.000    0.000 
#    0.000    6.857    0.000    0.000    0.000    0.000 
#
# Total GULP energy -156409.427740 kJ/mol
# GULP energy per Si atom -5586.050991 kJ/mol
# Density = 2.354381 g / cm^3
# Si number density = 23.597516 Si / 1000 Ang^3
#
#
#
# Elastic Constant Matrix: (Units=GPa)
#
#
# Indices 1 2 3 4 5 6 
#
# 1 148.8190 -1.6896 32.1868 -0.0020 -16.1611 -0.0002
# 2 -1.6896 60.7955 -17.7664 -0.0023 -4.9432 -0.0001
# 3 32.1868 -17.7664 102.4563 -0.0020 -20.0605 -0.0025
# 4 -0.0020 -0.0023 -0.0020 23.2496 0.0011 -3.1418
# 5 -16.1611 -4.9432 -20.0605 0.0011 42.5262 -0.0009
# 6 -0.0002 -0.0001 -0.0025 -3.1418 -0.0009 7.0334
#
#
#
# Elastic Compliance Matrix: (Units=1/GPa)
#
#
# Indices 1 2 3 4 5 6 
#
# 1 0.007346 -0.000229 -0.001990 0.000000 0.001826 0.000000
# 2 -0.000229 0.017904 0.003930 0.000002 0.003848 0.000003
# 3 -0.001990 0.003930 0.012128 0.000002 0.005422 0.000006
# 4 0.000000 0.000002 0.000002 0.045775 0.000000 0.020448
# 5 0.001826 0.003848 0.005422 0.000000 0.027214 0.000006
# 6 0.000000 0.000003 0.000006 0.020448 0.000006 0.151313
#
#
# Mechanical properties :
#
#
# Convention : Reuss Voigt Hill
#
# Bulk Modulus (GPa) = 24.50973 37.50360 31.00666
# Shear Modulus (GPa) = 18.39206 34.51782 26.45494
#
# Velocity S-wave (km/s) = 2.79481 3.82877 3.35190
# Velocity P-wave (km/s) = 4.56331 5.95597 5.30553
#
# Compressibility (1/GPa) = 0.04080013
#
# Stress axis : x y z
#
# Youngs Moduli (GPa) = 136.13495 55.85491 82.45130
#
# Poissons Ratio (x) = 0.01278 0.16406
# Poissons Ratio (y) = 0.03115 -0.32402
# Poissons Ratio (z) = 0.27087 -0.21950
#
# Static dielectric constant tensor:
#      x y z
#    x 1.895740 0.000000 -0.019120 
#    y 0.000000 1.931320 0.000000 
#    z -0.019120 0.000000 1.861470 
# 
# From -- ./inp_files/356678.got.cif
#   From: 2010.05.17/outbox.cif.g08.bks.cpg/sg12_179_cif.got.tgz:356678.got - 2010.06.03 13:09:07.
