data_PCOD9186891
_publ_section_title
;
Structure prediction by ZEFSAII (Michael W. Deem and Ramdas Pophale) SiO2 
 PCOD9186891
Probable space group: C 2/M
;
_chemical_formula_sum "Si O2"
_cell_formula_units_Z 64
_cell_length_a 19.215938
_cell_length_b 8.861146
_cell_length_c 30.018386
_cell_angle_alpha 90.000000
_cell_angle_beta 136.884492
_cell_angle_gamma 90.000000
_cell_volume 3493.487160
_symmetry_space_group_name_H-M "C 2/M"
_symmetry_group_IT_number 12
_symmetry_cell_setting 'monoclinic'
loop_
_space_group_symop_operation_xyz
x,y,z
-x,y,-z
-x,-y,-z
x,-y,z
1/2+x,1/2+y,z
1/2-x,1/2+y,-z
1/2-x,1/2-y,-z
1/2+x,1/2-y,z
loop_
_atom_site_type_symbol
_atom_site_label
_atom_site_fract_x
_atom_site_fract_y
_atom_site_fract_z
Si Si1 0.100913 0.817872 0.521021
Si Si2 0.395146 0.318772 0.928073
Si Si3 0.673881 0.183638 0.365137
Si Si4 0.682127 0.678316 0.842089
Si Si5 0.484314 0.179688 0.784962
Si Si6 0.922618 0.319631 0.586707
Si Si7 0.868023 0.178840 0.811264
Si Si8 0.643900 0.821729 0.729017
O O1 0.210624 0.769497 0.591981
O O2 0.100427 0.763200 0.469874
O O3 0.000000 0.763513 0.500000
O O4 0.098591 0.000000 0.520648
O O5 0.386168 0.500000 0.928057
O O6 0.294470 0.245347 0.901717
O O7 0.394585 0.284813 0.874986
O O8 0.500000 0.270558 0.000000
O O9 0.589789 0.233329 0.290030
O O10 0.642545 0.230167 0.400607
O O11 0.671178 0.000000 0.363762
O O12 0.684587 0.500000 0.847124
O O13 0.594833 0.747165 0.832150
O O14 0.650328 0.727582 0.777204
O O15 0.431182 0.226339 0.805826
O O16 0.493915 0.000000 0.785642
O O17 0.907993 0.500000 0.574263
O O18 0.040560 0.293021 0.654592
O O19 0.746996 0.207119 0.749980
O O20 0.886098 0.000000 0.812890
O O21 0.645016 0.000000 0.742239
#
# Coordination Sequence:
#
# PCOD9186891 Si02
#       8
#     8   8   8   8   8   8   8   8
#     4  10  22  37  52  75 109 141 177 232 289 338
#     4   9  19  39  65  87 115 157 192 220 268 331
#     4   9  19  36  55  74 102 144 186 226 275 337
#     4  11  21  34  56  87 118 144 183 234 275 321
#     4  11  21  36  57  79 112 152 189 228 282 341
#     4  10  19  35  57  76 101 139 186 228 273 337
#     4   9  19  34  54  84 116 140 179 233 276 319
#     4   9  18  35  56  78 109 147 183 228 281 337
#
# _framework density 18.319804000000001
#
# number of rings (size 3 to 8) (size 9 to 14) (size 15 to 20)
#    0.000    2.250    1.250    2.625    1.750    3.000 
#    0.000    1.875    0.000    0.000    0.000    0.000 
#    0.000    0.000    0.000    0.000    0.000    0.000 
#
# Total GULP energy -178584.960259 kJ/mol
# GULP energy per Si atom -5580.780008 kJ/mol
# Density = 1.827811 g / cm^3
# Si number density = 18.319804 Si / 1000 Ang^3
#
#
#
# Elastic Constant Matrix: (Units=GPa)
#
#
# Indices 1 2 3 4 5 6 
#
# 1 120.2777 36.5148 52.6917 0.0000 28.1731 0.0000
# 2 36.5148 27.7077 26.1010 0.0000 13.0826 0.0000
# 3 52.6917 26.1010 89.7697 0.0000 31.3761 0.0000
# 4 0.0000 0.0000 0.0000 15.8749 0.0000 -4.2477
# 5 28.1731 13.0826 31.3761 0.0000 24.4231 0.0000
# 6 0.0000 0.0000 0.0000 -4.2477 0.0000 29.5552
#
#
#
# Elastic Compliance Matrix: (Units=1/GPa)
#
#
# Indices 1 2 3 4 5 6 
#
# 1 0.015489 -0.014974 -0.002353 0.000000 -0.006824 0.000000
# 2 -0.014974 0.067237 -0.007639 0.000000 -0.008929 0.000000
# 3 -0.002353 -0.007639 0.022438 0.000000 -0.022020 0.000000
# 4 0.000000 0.000000 0.000000 0.065512 0.000000 0.009415
# 5 -0.006824 -0.008929 -0.022020 0.000000 0.081887 0.000000
# 6 0.000000 0.000000 0.000000 0.009415 0.000000 0.035188
#
#
# Mechanical properties :
#
#
# Convention : Reuss Voigt Hill
#
# Bulk Modulus (GPa) = 18.10559 52.04111 35.07335
# Shear Modulus (GPa) = 14.04120 22.13383 18.08752
#
# Velocity S-wave (km/s) = 2.77149 3.47968 3.14557
# Velocity P-wave (km/s) = 4.48843 6.67929 5.69030
#
# Compressibility (1/GPa) = 0.05523156
#
# Stress axis : x y z
#
# Youngs Moduli (GPa) = 64.56162 14.87274 44.56711
#
# Poissons Ratio (x) = 0.22271 0.10486
# Poissons Ratio (y) = 0.96676 0.34047
# Poissons Ratio (z) = 0.15190 0.11362
#
# Static dielectric constant tensor:
#      x y z
#    x 1.624650 0.000000 0.022910 
#    y 0.000000 1.612660 0.000000 
#    z 0.022910 0.000000 1.629390 
# 
# From -- ./inp_files/378392.got.cif
#   From: 2010.05.17/outbox.cif.g08.bks.cpg/sg12_190_cif.got.tgz:378392.got - 2010.06.03 13:09:07.
