data_PCOD9186883
_publ_section_title
;
Structure prediction by ZEFSAII (Michael W. Deem and Ramdas Pophale) SiO2 
 PCOD9186883
Probable space group: C 2/M
;
_chemical_formula_sum "Si O2"
_cell_formula_units_Z 36
_cell_length_a 8.632871
_cell_length_b 11.910368
_cell_length_c 16.088698
_cell_angle_alpha 90.000000
_cell_angle_beta 95.416013
_cell_angle_gamma 90.000000
_cell_volume 1646.865519
_symmetry_space_group_name_H-M "C 2/M"
_symmetry_group_IT_number 12
_symmetry_cell_setting 'monoclinic'
loop_
_space_group_symop_operation_xyz
x,y,z
-x,y,-z
-x,-y,-z
x,-y,z
1/2+x,1/2+y,z
1/2-x,1/2+y,-z
1/2-x,1/2-y,-z
1/2+x,1/2-y,z
loop_
_atom_site_type_symbol
_atom_site_label
_atom_site_fract_x
_atom_site_fract_y
_atom_site_fract_z
Si Si1 0.547482 0.682277 0.316920
Si Si2 0.868172 0.630465 0.557325
Si Si3 0.715646 0.209040 0.800409
Si Si4 0.000000 0.849345 0.500000
Si Si5 0.953117 0.626679 0.902625
O O1 0.603898 0.803757 0.356720
O O2 0.397978 0.705577 0.253747
O O3 0.686379 0.642959 0.264788
O O4 0.504586 0.621278 0.399188
O O5 0.908526 0.500000 0.566958
O O6 0.698308 0.643168 0.512187
O O7 0.000000 0.690822 0.500000
O O8 0.606127 0.135594 0.853118
O O9 0.834003 0.281731 0.861544
O O10 0.889069 0.500000 0.894618
O O11 0.000000 0.649614 0.000000
#
# Coordination Sequence:
#
# PCOD9186883 Si02
#       5
#     8   8   8   4   8
#     4   8  17  27  47  77 112 152 189 221 282 317
#     4   6  10  23  41  68 101 138 185 227 257 306
#     4  10  19  35  56  90 118 144 186 245 279 338
#     4   6  13  26  42  76 109 154 194 226 265 334
#     4  10  22  41  64  86 112 148 184 230 298 359
#
# _framework density 21.859708999999999
#
# number of rings (size 3 to 8) (size 9 to 14) (size 15 to 20)
#    2.000    1.333    0.000    0.667    0.000    4.444 
#    0.000    4.444    0.000   12.000    0.000    1.556 
#    0.000    0.000    0.000    0.000    0.000    0.000 
#
# Total GULP energy -100252.688176 kJ/mol
# GULP energy per Si atom -5569.593788 kJ/mol
# Density = 2.180995 g / cm^3
# Si number density = 21.859709 Si / 1000 Ang^3
#
#
#
# Elastic Constant Matrix: (Units=GPa)
#
#
# Indices 1 2 3 4 5 6 
#
# 1 102.9313 -0.1911 30.6698 0.0000 -6.3484 0.0000
# 2 -0.1911 96.8478 13.9224 0.0000 11.4087 0.0000
# 3 30.6698 13.9224 119.9330 0.0000 -9.6280 0.0000
# 4 0.0000 0.0000 0.0000 -22.8133 0.0000 4.3672
# 5 -6.3484 11.4087 -9.6280 0.0000 38.1863 0.0000
# 6 0.0000 0.0000 0.0000 4.3672 0.0000 13.8310
#
#
#
# Elastic Compliance Matrix: (Units=1/GPa)
#
#
# Indices 1 2 3 4 5 6 
#
# 1 0.010569 0.000284 -0.002655 0.000000 0.001003 0.000000
# 2 0.000284 0.010992 -0.001642 0.000000 -0.003651 0.000000
# 3 -0.002655 -0.001642 0.009402 0.000000 0.002420 0.000000
# 4 0.000000 0.000000 0.000000 -0.041335 0.000000 0.013052
# 5 0.001003 -0.003651 0.002420 0.000000 0.028055 0.000000
# 6 0.000000 0.000000 0.000000 0.013052 0.000000 0.068180
#
#
# Mechanical properties :
#
#
# Convention : Reuss Voigt Hill
#
# Bulk Modulus (GPa) = 43.59675 45.39046 44.49361
# Shear Modulus (GPa) = 49.24490 24.19486 36.71988
#
# Velocity S-wave (km/s) = 4.75148 3.33051 4.10298
# Velocity P-wave (km/s) = 7.07738 5.96651 6.54555
#
# Compressibility (1/GPa) = 0.02293749
#
# Stress axis : x y z
#
# Youngs Moduli (GPa) = 94.61869 90.97433 106.36229
#
# Poissons Ratio (x) = -0.02588 0.28242
# Poissons Ratio (y) = -0.02691 0.17463
# Poissons Ratio (z) = 0.25123 0.14936
#
# Static dielectric constant tensor:
#      x y z
#    x 1.820770 0.000000 -0.060850 
#    y 0.000000 1.972110 0.000000 
#    z -0.060850 0.000000 1.738710 
# 
# From -- ./inp_files/194182.got.cif
#   From: 2010.05.17/outbox.cif.g08.bks.cpg/sg12_98_cif.got.tgz:194182.got - 2010.06.03 13:09:07.
