data_PCOD9186041
_publ_section_title
;
Structure prediction by ZEFSAII (Michael W. Deem and Ramdas Pophale) SiO2 
 PCOD9186041
Probable space group: C 2/M
;
_chemical_formula_sum "Si O2"
_cell_formula_units_Z 44
_cell_length_a 14.433962
_cell_length_b 14.404221
_cell_length_c 14.544067
_cell_angle_alpha 90.000000
_cell_angle_beta 142.070729
_cell_angle_gamma 90.000000
_cell_volume 1858.729138
_symmetry_space_group_name_H-M "C 2/M"
_symmetry_group_IT_number 12
_symmetry_cell_setting 'monoclinic'
loop_
_space_group_symop_operation_xyz
x,y,z
-x,y,-z
-x,-y,-z
x,-y,z
1/2+x,1/2+y,z
1/2-x,1/2+y,-z
1/2-x,1/2-y,-z
1/2+x,1/2-y,z
loop_
_atom_site_type_symbol
_atom_site_label
_atom_site_fract_x
_atom_site_fract_y
_atom_site_fract_z
Si Si1 0.844280 0.395915 0.227242
Si Si2 0.626285 0.397570 0.227395
Si Si3 0.750000 0.750000 0.000000
Si Si4 0.183018 0.394747 0.443850
Si Si5 0.397321 0.190773 0.801530
Si Si6 0.218493 0.390934 0.102973
O O1 0.823154 0.500000 0.172003
O O2 0.766943 0.395678 0.266029
O O3 0.023281 0.379494 0.369244
O O4 0.772859 0.321149 0.104403
O O5 0.552805 0.500000 0.156375
O O6 0.689108 0.391634 0.379766
O O7 0.555175 0.297585 0.150225
O O8 0.670639 0.665527 0.874467
O O9 0.181007 0.500000 0.403578
O O10 0.186791 0.327158 0.359674
O O11 0.302297 0.151231 0.811801
O O12 0.558067 0.137148 0.928019
O O13 0.238986 0.500000 0.123013
#
# Coordination Sequence:
#
# PCOD9186041 Si02
#       6
#     8   8   4   8   8   8
#     4  10  20  36  56  82 110 142 185 227 270 322
#     4  10  21  36  54  82 115 147 185 227 274 324
#     4  12  20  36  58  84 108 138 180 228 278 320
#     4  10  19  34  59  82 108 146 187 231 270 320
#     4  11  20  36  56  84 113 145 183 227 276 325
#     4  11  23  38  59  84 109 141 184 230 272 328
#
# _framework density 23.672087000000001
#
# number of rings (size 3 to 8) (size 9 to 14) (size 15 to 20)
#    0.000    1.455    3.636    3.818    0.000    2.182 
#    0.000    3.636    0.000    0.000    0.000    1.273 
#    0.000    0.000    0.000    0.000    0.000    0.000 
#
# Total GULP energy -122489.734928 kJ/mol
# GULP energy per Si atom -5567.715224 kJ/mol
# Density = 2.361821 g / cm^3
# Si number density = 23.672087 Si / 1000 Ang^3
#
#
#
# Elastic Constant Matrix: (Units=GPa)
#
#
# Indices 1 2 3 4 5 6 
#
# 1 51.0051 -5.4486 11.4720 0.0003 -20.6062 0.0003
# 2 -5.4486 79.2060 0.5403 0.0006 -37.4816 0.0008
# 3 11.4720 0.5403 77.9651 0.0002 -27.6328 0.0003
# 4 0.0003 0.0006 0.0002 39.9857 0.0002 1.1054
# 5 -20.6062 -37.4816 -27.6328 0.0002 31.3413 0.0002
# 6 0.0003 0.0008 0.0003 1.1054 0.0002 53.4320
#
#
#
# Elastic Compliance Matrix: (Units=1/GPa)
#
#
# Indices 1 2 3 4 5 6 
#
# 1 -0.023310 -0.054275 -0.035826 0.000002 -0.111821 0.000002
# 2 -0.054275 -0.058197 -0.042073 0.000002 -0.142378 0.000002
# 3 -0.035826 -0.042073 -0.011334 0.000001 -0.083864 0.000001
# 4 0.000002 0.000002 0.000001 0.025023 0.000005 -0.000518
# 5 -0.111821 -0.142378 -0.083864 0.000005 -0.285826 0.000004
# 6 0.000002 0.000002 0.000001 -0.000518 0.000004 0.018726
#
#
# Mechanical properties :
#
#
# Convention : Reuss Voigt Hill
#
# Bulk Modulus (GPa) = -2.79963 24.58929 10.89483
# Shear Modulus (GPa) = -26.36677 38.39265 6.01294
#
# Velocity S-wave (km/s) = -3.34104 4.03159 1.59550
# Velocity P-wave (km/s) = 4.00857 5.66407 2.82958
#
# Compressibility (1/GPa) = -0.35718955
#
# Stress axis : x y z
#
# Youngs Moduli (GPa) = -42.89964 -17.18302 -88.23012
#
# Poissons Ratio (x) = -0.93261 -3.16096
# Poissons Ratio (y) = -2.32838 -3.71210
# Poissons Ratio (z) = -1.53694 -0.72294
#
# Static dielectric constant tensor:
#      x y z
#    x 5.462760 0.000000 1.083490 
#    y 0.000000 1.807060 0.000000 
#    z 1.083490 0.000000 2.179470 
# 
# From -- ./inp_files/232667.got.cif
#   From: 2010.05.17/outbox.cif.g08.bks.cpg/sg12_117_cif.got.tgz:232667.got - 2010.06.03 13:09:07.
