data_PCOD9186774
_publ_section_title
;
Structure prediction by ZEFSAII (Michael W. Deem and Ramdas Pophale) SiO2 
 PCOD9186774
Probable space group: C 2/M
;
_chemical_formula_sum "Si O2"
_cell_formula_units_Z 64
_cell_length_a 12.883883
_cell_length_b 13.936149
_cell_length_c 30.851123
_cell_angle_alpha 90.000000
_cell_angle_beta 137.701625
_cell_angle_gamma 90.000000
_cell_volume 3727.950464
_symmetry_space_group_name_H-M "C 2/M"
_symmetry_group_IT_number 12
_symmetry_cell_setting 'monoclinic'
loop_
_space_group_symop_operation_xyz
x,y,z
-x,y,-z
-x,-y,-z
x,-y,z
1/2+x,1/2+y,z
1/2-x,1/2+y,-z
1/2-x,1/2-y,-z
1/2+x,1/2-y,z
loop_
_atom_site_type_symbol
_atom_site_label
_atom_site_fract_x
_atom_site_fract_y
_atom_site_fract_z
Si Si1 0.292876 0.327924 0.977208
Si Si2 0.127626 0.798620 0.095890
Si Si3 0.968045 0.746902 0.338449
Si Si4 0.311849 0.110844 0.739067
Si Si5 0.756509 0.888779 0.587136
Si Si6 0.967595 0.611444 0.562042
Si Si7 0.400357 0.886994 0.236334
Si Si8 0.457607 0.894483 0.879748
O O1 0.310334 0.287815 0.933874
O O2 0.143013 0.394446 0.931216
O O3 0.250000 0.250000 0.000000
O O4 0.466881 0.358184 0.043333
O O5 0.253093 0.851914 0.163597
O O6 0.090956 0.694198 0.104927
O O7 0.825894 0.814229 0.308638
O O8 0.028789 0.683483 0.397078
O O9 0.915831 0.676130 0.284099
O O10 0.103749 0.816527 0.364116
O O11 0.448639 0.127219 0.747033
O O12 0.382017 0.120236 0.809142
O O13 0.259117 0.000000 0.717904
O O14 0.671301 0.872259 0.514751
O O15 0.624720 0.877315 0.582792
O O16 0.807669 0.000000 0.604086
O O17 0.959308 0.500000 0.573714
O O18 0.387961 0.000000 0.242290
O O19 0.409741 0.000000 0.881350
#
# Coordination Sequence:
#
# PCOD9186774 Si02
#       8
#     8   8   8   8   8   8   8   8
#     4   9  19  34  57  78 104 135 177 223 265 314
#     4  10  19  36  55  80 103 140 180 222 267 320
#     4  12  20  34  56  82 108 143 181 219 267 315
#     4  10  21  35  52  77 108 142 178 216 262 321
#     4   9  19  36  57  81 107 141 182 222 262 316
#     4   9  19  36  56  80 111 141 177 222 268 312
#     4  11  23  36  52  77 111 144 179 220 269 323
#     4  10  19  35  56  79 104 138 175 218 269 316
#
# _framework density 17.16761
#
# number of rings (size 3 to 8) (size 9 to 14) (size 15 to 20)
#    0.000    2.000    2.500    2.625    0.000    0.500 
#    0.000    6.250    0.000    4.500    0.000   10.500 
#    0.000    0.000    0.000    0.000    0.000    0.000 
#
# Total GULP energy -178422.714718 kJ/mol
# GULP energy per Si atom -5575.709835 kJ/mol
# Density = 1.712854 g / cm^3
# Si number density = 17.167610 Si / 1000 Ang^3
#
#
#
# Elastic Constant Matrix: (Units=GPa)
#
#
# Indices 1 2 3 4 5 6 
#
# 1 54.4316 33.9039 11.1960 0.0000 0.5640 0.0000
# 2 33.9039 83.1441 23.0710 0.0000 4.0482 0.0000
# 3 11.1960 23.0710 29.9739 0.0000 -1.1498 0.0000
# 4 0.0000 0.0000 0.0000 -4.1153 0.0000 16.8246
# 5 0.5640 4.0482 -1.1498 0.0000 28.4988 0.0000
# 6 0.0000 0.0000 0.0000 16.8246 0.0000 18.3101
#
#
#
# Elastic Compliance Matrix: (Units=1/GPa)
#
#
# Indices 1 2 3 4 5 6 
#
# 1 0.024727 -0.009623 -0.001798 0.000000 0.000805 0.000000
# 2 -0.009623 0.019242 -0.011331 0.000000 -0.003000 0.000000
# 3 -0.001798 -0.011331 0.042885 0.000000 0.003375 0.000000
# 4 0.000000 0.000000 0.000000 -0.051086 0.000000 0.046941
# 5 0.000805 -0.003000 0.003375 0.000000 0.035636 0.000000
# 6 0.000000 0.000000 0.000000 0.046941 0.000000 0.011482
#
#
# Mechanical properties :
#
#
# Convention : Reuss Voigt Hill
#
# Bulk Modulus (GPa) = 24.18444 33.76570 28.97507
# Shear Modulus (GPa) = 35.16837 15.16398 25.16618
#
# Velocity S-wave (km/s) = 4.53098 2.97524 3.83287
# Velocity P-wave (km/s) = 6.44134 5.61371 6.04171
#
# Compressibility (1/GPa) = 0.04134891
#
# Stress axis : x y z
#
# Youngs Moduli (GPa) = 40.44109 51.97071 23.31824
#
# Poissons Ratio (x) = 0.50013 0.04193
# Poissons Ratio (y) = 0.38918 0.26421
# Poissons Ratio (z) = 0.07273 0.58887
#
# Static dielectric constant tensor:
#      x y z
#    x 1.560480 0.000000 0.014720 
#    y 0.000000 1.558810 0.000000 
#    z 0.014720 0.000000 1.571990 
# 
# From -- ./inp_files/358388.got.cif
#   From: 2010.05.17/outbox.cif.g08.bks.cpg/sg12_180_cif.got.tgz:358388.got - 2010.06.03 13:09:07.
