data_PCOD9186341
_publ_section_title
;
Structure prediction by ZEFSAII (Michael W. Deem and Ramdas Pophale) SiO2 
 PCOD9186341
Probable space group: C 2/M
;
_chemical_formula_sum "Si O2"
_cell_formula_units_Z 64
_cell_length_a 19.691660
_cell_length_b 18.095831
_cell_length_c 10.213887
_cell_angle_alpha 90.000000
_cell_angle_beta 89.093087
_cell_angle_gamma 90.000000
_cell_volume 3639.129426
_symmetry_space_group_name_H-M "C 2/M"
_symmetry_group_IT_number 12
_symmetry_cell_setting 'monoclinic'
loop_
_space_group_symop_operation_xyz
x,y,z
-x,y,-z
-x,-y,-z
x,-y,z
1/2+x,1/2+y,z
1/2-x,1/2+y,-z
1/2-x,1/2-y,-z
1/2+x,1/2-y,z
loop_
_atom_site_type_symbol
_atom_site_label
_atom_site_fract_x
_atom_site_fract_y
_atom_site_fract_z
Si Si1 0.775407 0.412921 0.156554
Si Si2 0.693312 0.805267 0.062969
Si Si3 0.247955 0.338986 0.345461
Si Si4 0.120995 0.914402 0.740409
Si Si5 0.036858 0.774406 0.636724
Si Si6 0.326832 0.185056 0.393612
Si Si7 0.623636 0.414641 0.053611
Si Si8 0.948841 0.773292 0.885203
O O1 0.787258 0.500000 0.162297
O O2 0.801044 0.371996 0.285283
O O3 0.695133 0.401827 0.125918
O O4 0.812854 0.373397 0.035246
O O5 0.715423 0.832845 0.204124
O O6 0.622975 0.763115 0.081353
O O7 0.750000 0.750000 0.000000
O O8 0.307131 0.399999 0.334183
O O9 0.285187 0.260721 0.369619
O O10 0.194093 0.346136 0.463807
O O11 0.071276 0.850981 0.686600
O O12 0.099605 0.000000 0.724486
O O13 0.131229 0.900812 0.896743
O O14 0.095624 0.712354 0.621557
O O15 0.000000 0.785858 0.500000
O O16 0.982016 0.751855 0.747385
O O17 0.605129 0.500000 0.070321
O O18 0.566923 0.360721 0.111360
O O19 0.000000 0.755470 0.000000
#
# Coordination Sequence:
#
# PCOD9186341 Si02
#       8
#     8   8   8   8   8   8   8   8
#     4  11  22  37  61  90 122 152 193 256 319 360
#     4  12  20  36  62  88 118 155 205 262 303 352
#     4  10  19  34  61  85 112 160 205 246 299 352
#     4  10  20  36  57  88 127 160 194 244 299 363
#     4  11  24  40  57  83 121 163 207 247 296 361
#     4  10  21  38  56  85 120 153 203 262 300 345
#     4  10  20  35  56  88 125 158 193 239 296 367
#     4  12  22  35  59  87 114 162 206 242 297 361
#
# _framework density 17.586621999999998
#
# number of rings (size 3 to 8) (size 9 to 14) (size 15 to 20)
#    0.000    1.250    5.000    1.500    0.000    3.500 
#    0.000    1.250    0.000    3.750    0.000    0.000 
#    0.000    0.000    0.000    0.000    0.000    0.000 
#
# Total GULP energy -178648.890098 kJ/mol
# GULP energy per Si atom -5582.777816 kJ/mol
# Density = 1.754659 g / cm^3
# Si number density = 17.586622 Si / 1000 Ang^3
#
#
#
# Elastic Constant Matrix: (Units=GPa)
#
#
# Indices 1 2 3 4 5 6 
#
# 1 100.9129 25.4245 54.3973 0.0000 -7.4797 0.0000
# 2 25.4245 44.9268 31.9107 0.0000 3.9604 0.0000
# 3 54.3973 31.9107 140.2948 0.0000 -3.6191 0.0000
# 4 0.0000 0.0000 0.0000 16.4325 0.0000 1.3196
# 5 -7.4797 3.9604 -3.6191 0.0000 33.9829 0.0000
# 6 0.0000 0.0000 0.0000 1.3196 0.0000 12.5088
#
#
#
# Elastic Compliance Matrix: (Units=1/GPa)
#
#
# Indices 1 2 3 4 5 6 
#
# 1 0.013605 -0.005115 -0.004030 0.000000 0.003161 0.000000
# 2 -0.005115 0.028955 -0.004732 0.000000 -0.005004 0.000000
# 3 -0.004030 -0.004732 0.009785 0.000000 0.000706 0.000000
# 4 0.000000 0.000000 0.000000 0.061375 0.000000 -0.006475
# 5 0.003161 -0.005004 0.000706 0.000000 0.030781 0.000000
# 6 0.000000 0.000000 0.000000 -0.006475 0.000000 0.080627
#
#
# Mechanical properties :
#
#
# Convention : Reuss Voigt Hill
#
# Bulk Modulus (GPa) = 40.66546 56.62218 48.64382
# Shear Modulus (GPa) = 19.15125 24.21162 21.68144
#
# Velocity S-wave (km/s) = 3.30353 3.71443 3.51499
# Velocity P-wave (km/s) = 6.14201 7.11772 6.64779
#
# Compressibility (1/GPa) = 0.02459090
#
# Stress axis : x y z
#
# Youngs Moduli (GPa) = 73.50176 34.53596 102.19801
#
# Poissons Ratio (x) = 0.17667 0.41187
# Poissons Ratio (y) = 0.37600 0.48357
# Poissons Ratio (z) = 0.29622 0.16341
#
# Static dielectric constant tensor:
#      x y z
#    x 1.610270 0.000000 -0.003990 
#    y 0.000000 1.608880 0.000000 
#    z -0.003990 0.000000 1.600640 
# 
# From -- ./inp_files/87946.got.cif
#   From: 2010.05.17/outbox.cif.g08.bks.cpg/sg12_44_cif.got.tgz:87946.got - 2010.06.03 13:09:07.
