data_PCOD9186421
_publ_section_title
;
Structure prediction by ZEFSAII (Michael W. Deem and Ramdas Pophale) SiO2 
 PCOD9186421
Probable space group: C 2/M
;
_chemical_formula_sum "Si O2"
_cell_formula_units_Z 48
_cell_length_a 17.585953
_cell_length_b 14.283693
_cell_length_c 22.156325
_cell_angle_alpha 90.000000
_cell_angle_beta 24.840670
_cell_angle_gamma 90.000000
_cell_volume 2338.045941
_symmetry_space_group_name_H-M "C 2/M"
_symmetry_group_IT_number 12
_symmetry_cell_setting 'monoclinic'
loop_
_space_group_symop_operation_xyz
x,y,z
-x,y,-z
-x,-y,-z
x,-y,z
1/2+x,1/2+y,z
1/2-x,1/2+y,-z
1/2-x,1/2-y,-z
1/2+x,1/2-y,z
loop_
_atom_site_type_symbol
_atom_site_label
_atom_site_fract_x
_atom_site_fract_y
_atom_site_fract_z
Si Si1 0.301876 0.608654 0.165394
Si Si2 0.908787 0.108843 0.736883
Si Si3 0.660972 0.389640 0.083918
Si Si4 0.339266 0.705309 0.359470
Si Si5 0.452085 0.107764 0.770005
Si Si6 0.055096 0.749759 0.394859
O O1 0.316139 0.500000 0.173691
O O2 0.165577 0.614865 0.206314
O O3 0.211912 0.672507 0.281060
O O4 0.500000 0.638749 0.000000
O O5 0.783016 0.130615 0.886366
O O6 0.883811 0.171795 0.696667
O O7 0.100754 0.137226 0.629052
O O8 0.897941 0.000000 0.730724
O O9 0.615828 0.500000 0.114398
O O10 0.477746 0.330640 0.207988
O O11 0.813155 0.373441 0.925254
O O12 0.401853 0.810210 0.330814
O O13 0.130715 0.702863 0.494761
O O14 0.518136 0.000000 0.727549
O O15 0.000000 0.787491 0.500000
#
# Coordination Sequence:
#
# PCOD9186421 Si02
#       6
#     8   8   8   8   8   8
#     4  10  23  41  62  91 129 168 204 249 312 380
#     4   9  20  39  63  86 117 159 210 261 308 363
#     4   8  17  32  58  91 119 150 195 256 313 361
#     4  10  20  37  60  90 118 161 208 264 308 361
#     4  10  19  34  62  96 124 155 206 261 315 374
#     4  12  26  41  58  92 131 168 211 255 318 373
#
# _framework density 20.529964
#
# number of rings (size 3 to 8) (size 9 to 14) (size 15 to 20)
#    1.000    1.167    1.667    1.000    2.333    2.667 
#    0.000    0.000    0.000    0.500    0.000    0.000 
#    0.000    0.000    0.000    0.000    0.000    0.000 
#
# Total GULP energy -133794.840377 kJ/mol
# GULP energy per Si atom -5574.785016 kJ/mol
# Density = 2.048324 g / cm^3
# Si number density = 20.529964 Si / 1000 Ang^3
#
#
#
# Elastic Constant Matrix: (Units=GPa)
#
#
# Indices 1 2 3 4 5 6 
#
# 1 43.6860 3.4080 1.6567 -0.0010 14.5519 0.0001
# 2 3.4080 51.6907 21.4592 -0.0017 2.8846 -0.0007
# 3 1.6567 21.4592 52.4889 0.0030 6.1814 0.0003
# 4 -0.0010 -0.0017 0.0030 -20.4113 -0.0028 -5.1609
# 5 14.5519 2.8846 6.1814 -0.0028 37.1361 0.0005
# 6 0.0001 -0.0007 0.0003 -5.1609 0.0005 8.2968
#
#
#
# Elastic Compliance Matrix: (Units=1/GPa)
#
#
# Indices 1 2 3 4 5 6 
#
# 1 0.026444 -0.001596 0.001044 0.000000 -0.010412 0.000000
# 2 -0.001596 0.023399 -0.009563 -0.000003 0.000400 0.000000
# 3 0.001044 -0.009563 0.023347 0.000004 -0.003552 0.000001
# 4 0.000000 -0.000003 0.000004 -0.042334 -0.000003 -0.026334
# 5 -0.010412 0.000400 -0.003552 -0.000003 0.031568 -0.000004
# 6 0.000000 0.000000 0.000001 -0.026334 -0.000004 0.104148
#
#
# Mechanical properties :
#
#
# Convention : Reuss Voigt Hill
#
# Bulk Modulus (GPa) = 18.88229 22.32371 20.60300
# Shear Modulus (GPa) = 24.45539 13.09376 18.77457
#
# Velocity S-wave (km/s) = 3.45513 2.52819 3.02734
# Velocity P-wave (km/s) = 5.01344 4.40677 4.71986
#
# Compressibility (1/GPa) = 0.05295969
#
# Stress axis : x y z
#
# Youngs Moduli (GPa) = 37.81608 42.73740 42.83271
#
# Poissons Ratio (x) = 0.06820 -0.04472
# Poissons Ratio (y) = 0.06035 0.40960
# Poissons Ratio (z) = -0.03948 0.40869
#
# Static dielectric constant tensor:
#      x y z
#    x 1.756700 0.000000 0.047830 
#    y 0.000000 1.733830 0.000000 
#    z 0.047830 0.000000 1.766080 
# 
# From -- ./inp_files/347485.got.cif
#   From: 2010.05.17/outbox.cif.g08.bks.cpg/sg12_174_cif.got.tgz:347485.got - 2010.06.03 13:09:07.
