data_PCOD9186482
_publ_section_title
;
Structure prediction by ZEFSAII (Michael W. Deem and Ramdas Pophale) SiO2 
 PCOD9186482
Probable space group: C 2/M
;
_chemical_formula_sum "Si O2"
_cell_formula_units_Z 56
_cell_length_a 25.658943
_cell_length_b 15.595595
_cell_length_c 10.192880
_cell_angle_alpha 90.000000
_cell_angle_beta 131.427494
_cell_angle_gamma 90.000000
_cell_volume 3058.295019
_symmetry_space_group_name_H-M "C 2/M"
_symmetry_group_IT_number 12
_symmetry_cell_setting 'monoclinic'
loop_
_space_group_symop_operation_xyz
x,y,z
-x,y,-z
-x,-y,-z
x,-y,z
1/2+x,1/2+y,z
1/2-x,1/2+y,-z
1/2-x,1/2-y,-z
1/2+x,1/2-y,z
loop_
_atom_site_type_symbol
_atom_site_label
_atom_site_fract_x
_atom_site_fract_y
_atom_site_fract_z
Si Si1 0.082749 0.905427 0.124728
Si Si2 0.809666 0.839096 0.859882
Si Si3 0.376101 0.277854 0.585257
Si Si4 0.433265 0.596598 0.480126
Si Si5 0.682258 0.097715 0.466311
Si Si6 0.723448 0.155629 0.250654
Si Si7 0.284678 0.595183 0.090204
O O1 0.118400 0.890134 0.042787
O O2 0.110850 0.828048 0.258744
O O3 0.106196 0.000000 0.209601
O O4 0.000000 0.903736 0.000000
O O5 0.752345 0.879501 0.665305
O O6 0.821871 0.739938 0.847719
O O7 0.779870 0.843807 0.957188
O O8 0.428738 0.324545 0.573315
O O9 0.371535 0.175149 0.589992
O O10 0.299508 0.306990 0.412472
O O11 0.500000 0.602884 0.500000
O O12 0.433907 0.500000 0.543412
O O13 0.362637 0.600724 0.277744
O O14 0.698741 0.105479 0.338091
O O15 0.661097 0.000000 0.461033
O O16 0.734235 0.108932 0.130129
O O17 0.273603 0.500000 0.018140
#
# Coordination Sequence:
#
# PCOD9186482 Si02
#       7
#     8   8   8   8   8   8   8
#     4  11  22  32  50  78 109 140 169 210 265 319
#     4  11  20  35  51  79 109 137 173 221 266 318
#     4  10  19  35  52  77 105 136 182 218 262 310
#     4   9  19  33  51  74 107 148 179 206 253 324
#     4  11  20  34  58  79 103 138 182 227 264 309
#     4  10  19  35  53  75 105 142 178 216 266 315
#     4  10  20  31  48  76 108 138 171 214 265 315
#
# _framework density 18.310856000000001
#
# number of rings (size 3 to 8) (size 9 to 14) (size 15 to 20)
#    0.000    1.714    2.857    3.429    2.000    1.143 
#    0.000    0.000    0.000    0.857    0.000    0.000 
#    0.000    0.000    0.000    0.000    0.000    0.000 
#
# Total GULP energy -156016.397587 kJ/mol
# GULP energy per Si atom -5572.014200 kJ/mol
# Density = 1.826918 g / cm^3
# Si number density = 18.310856 Si / 1000 Ang^3
#
#
#
# Elastic Constant Matrix: (Units=GPa)
#
#
# Indices 1 2 3 4 5 6 
#
# 1 86.7184 37.0887 20.2511 0.0000 -15.0156 0.0000
# 2 37.0887 127.4136 14.4949 0.0000 -2.3731 0.0000
# 3 20.2511 14.4949 28.2340 0.0000 -20.5589 0.0000
# 4 0.0000 0.0000 0.0000 -40.4513 0.0000 -77.7344
# 5 -15.0156 -2.3731 -20.5589 0.0000 22.3924 0.0000
# 6 0.0000 0.0000 0.0000 -77.7344 0.0000 -62.2006
#
#
#
# Elastic Compliance Matrix: (Units=1/GPa)
#
#
# Indices 1 2 3 4 5 6 
#
# 1 0.015240 -0.003707 -0.005649 0.000000 0.004640 0.000000
# 2 -0.003707 0.009914 -0.010487 0.000000 -0.011063 0.000000
# 3 -0.005649 -0.010487 0.124560 0.000000 0.109462 0.000000
# 4 0.000000 0.000000 0.000000 0.017638 0.000000 -0.022043
# 5 0.004640 -0.011063 0.109462 0.000000 0.147096 0.000000
# 6 0.000000 0.000000 0.000000 -0.022043 0.000000 0.011471
#
#
# Mechanical properties :
#
#
# Convention : Reuss Voigt Hill
#
# Bulk Modulus (GPa) = 9.08863 42.89283 25.99073
# Shear Modulus (GPa) = 12.42910 -4.68315 3.87298
#
# Velocity S-wave (km/s) = 2.60817 -1.60098 1.45592
# Velocity P-wave (km/s) = 3.74758 4.47863 4.12932
#
# Compressibility (1/GPa) = 0.11002760
#
# Stress axis : x y z
#
# Youngs Moduli (GPa) = 65.61829 100.86245 8.02824
#
# Poissons Ratio (x) = 0.37390 0.04535
# Poissons Ratio (y) = 0.24325 0.08419
# Poissons Ratio (z) = 0.37070 1.05775
#
# Static dielectric constant tensor:
#      x y z
#    x 1.657100 0.000000 -0.043730 
#    y 0.000000 1.661470 0.000000 
#    z -0.043730 0.000000 1.655910 
# 
# From -- ./inp_files/96986.got.cif
#   From: 2010.05.17/outbox.cif.g08.bks.cpg/sg12_49_cif.got.tgz:96986.got - 2010.06.03 13:09:07.
