data_PCOD9186552
_publ_section_title
;
Structure prediction by ZEFSAII (Michael W. Deem and Ramdas Pophale) SiO2 
 PCOD9186552
Probable space group: C 2/M
;
_chemical_formula_sum "Si O2"
_cell_formula_units_Z 56
_cell_length_a 8.930721
_cell_length_b 19.965016
_cell_length_c 23.962526
_cell_angle_alpha 90.000000
_cell_angle_beta 46.970650
_cell_angle_gamma 90.000000
_cell_volume 3123.263912
_symmetry_space_group_name_H-M "C 2/M"
_symmetry_group_IT_number 12
_symmetry_cell_setting 'monoclinic'
loop_
_space_group_symop_operation_xyz
x,y,z
-x,y,-z
-x,-y,-z
x,-y,z
1/2+x,1/2+y,z
1/2-x,1/2+y,-z
1/2-x,1/2-y,-z
1/2+x,1/2-y,z
loop_
_atom_site_type_symbol
_atom_site_label
_atom_site_fract_x
_atom_site_fract_y
_atom_site_fract_z
Si Si1 0.089762 0.577834 0.416789
Si Si2 0.826696 0.694372 0.274511
Si Si3 0.356465 0.336766 0.951708
Si Si4 0.471045 0.578138 0.183696
Si Si5 0.920710 0.923107 0.719933
Si Si6 0.224578 0.707024 0.096054
Si Si7 0.410925 0.831580 0.686104
O O1 0.037299 0.500000 0.417798
O O2 0.336917 0.582015 0.354665
O O3 0.018825 0.626979 0.385863
O O4 0.000000 0.594797 0.500000
O O5 0.701388 0.631010 0.283990
O O6 0.692696 0.761515 0.304645
O O7 0.023320 0.703169 0.184316
O O8 0.912449 0.682240 0.314402
O O9 0.401594 0.401072 0.902936
O O10 0.576380 0.309256 0.917849
O O11 0.264043 0.280426 0.934551
O O12 0.226080 0.341934 0.041581
O O13 0.415725 0.500000 0.197648
O O14 0.593853 0.591070 0.209967
O O15 0.267442 0.623358 0.239788
O O16 0.856652 0.000000 0.725821
#
# Coordination Sequence:
#
# PCOD9186552 Si02
#       7
#     8   8   8   8   8   8   8
#     4   9  19  40  65  87 115 149 182 220 274 338
#     4  12  21  36  57  84 116 148 186 238 277 331
#     4  10  20  34  52  79 102 143 193 237 284 333
#     4  10  19  35  54  76 110 146 187 236 282 335
#     4   9  21  37  57  83 112 147 185 228 280 334
#     4  10  20  34  52  78 107 142 189 235 286 322
#     4  11  21  34  58  86 110 147 190 225 278 335
#
# _framework density 17.929960999999999
#
# number of rings (size 3 to 8) (size 9 to 14) (size 15 to 20)
#    0.000    1.857    2.857    3.000    2.000    1.143 
#    0.000    5.714    0.000    4.286    0.000    0.000 
#    0.000    0.000    0.000    0.000    0.000    0.000 
#
# Total GULP energy -156276.318336 kJ/mol
# GULP energy per Si atom -5581.297083 kJ/mol
# Density = 1.788915 g / cm^3
# Si number density = 17.929961 Si / 1000 Ang^3
#
#
#
# Elastic Constant Matrix: (Units=GPa)
#
#
# Indices 1 2 3 4 5 6 
#
# 1 110.3797 73.8161 28.4577 0.0012 23.7173 -0.0008
# 2 73.8161 98.7326 19.1133 0.0009 20.2896 -0.0006
# 3 28.4577 19.1133 71.5545 0.0015 26.5828 -0.0012
# 4 0.0012 0.0009 0.0015 29.1770 -0.0011 7.1109
# 5 23.7173 20.2896 26.5828 -0.0011 18.3616 0.0008
# 6 -0.0008 -0.0006 -0.0012 7.1109 0.0008 30.3570
#
#
#
# Elastic Compliance Matrix: (Units=1/GPa)
#
#
# Indices 1 2 3 4 5 6 
#
# 1 0.019986 -0.012513 -0.000329 -0.000001 -0.011512 0.000001
# 2 -0.012513 0.021508 0.004449 -0.000001 -0.014045 0.000001
# 3 -0.000329 0.004449 0.031561 -0.000005 -0.050183 0.000004
# 4 -0.000001 -0.000001 -0.000005 0.036349 0.000012 -0.008514
# 5 -0.011512 -0.014045 -0.050183 0.000012 0.157503 -0.000010
# 6 0.000001 0.000001 0.000004 -0.008514 -0.000010 0.034936
#
#
# Mechanical properties :
#
#
# Convention : Reuss Voigt Hill
#
# Bulk Modulus (GPa) = 17.77175 58.16013 37.96594
# Shear Modulus (GPa) = 14.81984 26.19776 20.50880
#
# Velocity S-wave (km/s) = 2.87808 3.82660 3.38572
# Velocity P-wave (km/s) = 4.58015 7.21330 6.04191
#
# Compressibility (1/GPa) = 0.05626906
#
# Stress axis : x y z
#
# Youngs Moduli (GPa) = 50.03477 46.49330 31.68466
#
# Poissons Ratio (x) = 0.58176 0.01044
# Poissons Ratio (y) = 0.62608 -0.14097
# Poissons Ratio (z) = 0.01649 -0.20685
#
# Static dielectric constant tensor:
#      x y z
#    x 1.603310 0.000000 0.008830 
#    y 0.000000 1.609860 0.000000 
#    z 0.008830 0.000000 1.630100 
# 
# From -- ./inp_files/257591.got.cif
#   From: 2010.05.17/outbox.cif.g08.bks.cpg/sg12_129_cif.got.tgz:257591.got - 2010.06.03 13:09:07.
