data_PCOD9186334
_publ_section_title
;
Structure prediction by ZEFSAII (Michael W. Deem and Ramdas Pophale) SiO2 
 PCOD9186334
Probable space group: C 2/M
;
_chemical_formula_sum "Si O2"
_cell_formula_units_Z 56
_cell_length_a 21.228155
_cell_length_b 13.102731
_cell_length_c 19.349871
_cell_angle_alpha 90.000000
_cell_angle_beta 28.743300
_cell_angle_gamma 90.000000
_cell_volume 2588.180155
_symmetry_space_group_name_H-M "C 2/M"
_symmetry_group_IT_number 12
_symmetry_cell_setting 'monoclinic'
loop_
_space_group_symop_operation_xyz
x,y,z
-x,y,-z
-x,-y,-z
x,-y,z
1/2+x,1/2+y,z
1/2-x,1/2+y,-z
1/2-x,1/2-y,-z
1/2+x,1/2-y,z
loop_
_atom_site_type_symbol
_atom_site_label
_atom_site_fract_x
_atom_site_fract_y
_atom_site_fract_z
Si Si1 0.144009 0.878240 0.155496
Si Si2 0.202983 0.255749 0.624334
Si Si3 0.807200 0.116656 0.148260
Si Si4 0.929602 0.335160 0.712792
Si Si5 0.953348 0.613548 0.844798
Si Si6 0.881665 0.737685 0.569350
Si Si7 0.997568 0.880423 0.854997
O O1 0.090424 0.787374 0.255696
O O2 0.080586 0.855634 0.141106
O O3 0.119730 0.000000 0.194221
O O4 0.300763 0.862203 0.003566
O O5 0.250000 0.250000 0.500000
O O6 0.309967 0.295308 0.575367
O O7 0.067495 0.316439 0.763964
O O8 0.149462 0.145085 0.697626
O O9 0.704480 0.115556 0.183094
O O10 0.731646 0.190937 0.273586
O O11 0.824253 0.000000 0.158018
O O12 0.936537 0.159591 0.985782
O O13 0.971593 0.380483 0.744830
O O14 0.037012 0.348953 0.550192
O O15 0.974638 0.500000 0.850296
O O16 0.000000 0.788155 0.500000
O O17 0.979852 0.000000 0.879615
#
# Coordination Sequence:
#
# PCOD9186334 Si02
#       7
#     8   8   8   8   8   8   8
#     4  10  19  34  60  96 129 163 206 256 312 367
#     4  12  23  40  59  88 124 160 209 261 312 362
#     4  10  21  37  60  91 127 166 204 242 301 384
#     4  11  18  36  61  89 128 164 205 251 302 368
#     4  11  21  33  59  93 124 157 199 255 316 369
#     4  10  24  40  59  84 121 167 206 246 303 375
#     4  10  20  35  59  90 127 167 205 248 305 371
#
# _framework density 21.636825000000002
#
# number of rings (size 3 to 8) (size 9 to 14) (size 15 to 20)
#    0.000    1.429    4.286    1.714    0.000    4.857 
#    0.000    2.143    0.000    7.714    0.000    9.000 
#    0.000    0.000    0.000    0.000    0.000    0.000 
#
# Total GULP energy -156094.311714 kJ/mol
# GULP energy per Si atom -5574.796847 kJ/mol
# Density = 2.158758 g / cm^3
# Si number density = 21.636825 Si / 1000 Ang^3
#
#
#
# Elastic Constant Matrix: (Units=GPa)
#
#
# Indices 1 2 3 4 5 6 
#
# 1 122.9029 12.2328 22.0765 0.0000 -9.5204 0.0000
# 2 12.2328 71.0289 20.3255 0.0000 -2.0383 0.0000
# 3 22.0765 20.3255 127.7542 0.0000 7.1385 0.0000
# 4 0.0000 0.0000 0.0000 6.4398 0.0000 -3.0555
# 5 -9.5204 -2.0383 7.1385 0.0000 34.6994 0.0000
# 6 0.0000 0.0000 0.0000 -3.0555 0.0000 17.1354
#
#
#
# Elastic Compliance Matrix: (Units=1/GPa)
#
#
# Indices 1 2 3 4 5 6 
#
# 1 0.008708 -0.000997 -0.001494 0.000000 0.002638 0.000000
# 2 -0.000997 0.014929 -0.002263 0.000000 0.001069 0.000000
# 3 -0.001494 -0.002263 0.008575 0.000000 -0.002307 0.000000
# 4 0.000000 0.000000 0.000000 0.169636 0.000000 0.030249
# 5 0.002638 0.001069 -0.002307 0.000000 0.030080 0.000000
# 6 0.000000 0.000000 0.000000 0.030249 0.000000 0.063753
#
#
# Mechanical properties :
#
#
# Convention : Reuss Voigt Hill
#
# Bulk Modulus (GPa) = 44.04209 47.88395 45.96302
# Shear Modulus (GPa) = 15.98697 29.45833 22.72265
#
# Velocity S-wave (km/s) = 2.72118 3.69384 3.24417
# Velocity P-wave (km/s) = 5.50204 6.35385 5.94323
#
# Compressibility (1/GPa) = 0.02270555
#
# Stress axis : x y z
#
# Youngs Moduli (GPa) = 114.83222 66.98563 116.62456
#
# Poissons Ratio (x) = 0.06676 0.17420
# Poissons Ratio (y) = 0.11445 0.26388
# Poissons Ratio (z) = 0.17152 0.15156
#
# Static dielectric constant tensor:
#      x y z
#    x 1.868220 0.000000 -0.014470 
#    y 0.000000 1.890000 0.000000 
#    z -0.014470 0.000000 1.823010 
# 
# From -- ./inp_files/284529.got.cif
#   From: 2010.05.17/outbox.cif.g08.bks.cpg/sg12_143_cif.got.tgz:284529.got - 2010.06.03 13:09:07.
