data_PCOD9186476
_publ_section_title
;
Structure prediction by ZEFSAII (Michael W. Deem and Ramdas Pophale) SiO2 
 PCOD9186476
Probable space group: C 2/M
;
_chemical_formula_sum "Si O2"
_cell_formula_units_Z 64
_cell_length_a 34.782603
_cell_length_b 8.669173
_cell_length_c 14.793896
_cell_angle_alpha 90.000000
_cell_angle_beta 126.654796
_cell_angle_gamma 90.000000
_cell_volume 3578.741722
_symmetry_space_group_name_H-M "C 2/M"
_symmetry_group_IT_number 12
_symmetry_cell_setting 'monoclinic'
loop_
_space_group_symop_operation_xyz
x,y,z
-x,y,-z
-x,-y,-z
x,-y,z
1/2+x,1/2+y,z
1/2-x,1/2+y,-z
1/2-x,1/2-y,-z
1/2+x,1/2-y,z
loop_
_atom_site_type_symbol
_atom_site_label
_atom_site_fract_x
_atom_site_fract_y
_atom_site_fract_z
Si Si1 0.853096 0.320721 0.268971
Si Si2 0.297794 0.315320 0.675391
Si Si3 0.898176 0.820338 0.502028
Si Si4 0.658529 0.183913 0.086779
Si Si5 0.001521 0.313965 0.396472
Si Si6 0.594486 0.186330 0.838119
Si Si7 0.756227 0.819127 0.909265
Si Si8 0.811007 0.684276 0.494865
O O1 0.868279 0.500000 0.305218
O O2 0.881422 0.212956 0.376193
O O3 0.865829 0.282369 0.183506
O O4 0.796772 0.310941 0.207703
O O5 0.299047 0.500000 0.668243
O O6 0.332211 0.262118 0.804135
O O7 0.242025 0.270768 0.616420
O O8 0.311401 0.239134 0.599286
O O9 0.949372 0.737953 0.581124
O O10 0.855546 0.754369 0.503800
O O11 0.903717 0.000000 0.527056
O O12 0.705226 0.224739 0.092862
O O13 0.654971 0.000000 0.093588
O O14 0.613868 0.240294 0.962355
O O15 0.999701 0.500000 0.396226
O O16 0.000000 0.262235 0.500000
O O17 0.955598 0.258598 0.274407
O O18 0.591360 0.000000 0.840711
O O19 0.769864 0.000000 0.932055
O O20 0.750000 0.750000 0.000000
O O21 0.814248 0.500000 0.494319
#
# Coordination Sequence:
#
# PCOD9186476 Si02
#       8
#     8   8   8   8   8   8   8   8
#     4  10  19  35  52  71 104 148 191 224 263 325
#     4  10  21  38  60  88 117 145 182 230 279 329
#     4  12  24  35  53  84 116 142 178 235 291 333
#     4  11  21  35  54  79 112 150 189 226 271 332
#     4  10  19  36  60  78 102 147 196 235 278 331
#     4   9  18  34  54  76 103 144 192 230 264 320
#     4  11  21  32  48  72 106 145 184 225 268 319
#     4  10  21  39  62  85 111 148 188 226 273 335
#
# _framework density 17.883381
#
# number of rings (size 3 to 8) (size 9 to 14) (size 15 to 20)
#    0.000    1.625    2.500    3.375    0.000    5.750 
#    0.000    1.250    0.000    0.750    0.000    5.250 
#    0.000    0.000    0.000    0.000    0.000    0.000 
#
# Total GULP energy -178631.208873 kJ/mol
# GULP energy per Si atom -5582.225277 kJ/mol
# Density = 1.784268 g / cm^3
# Si number density = 17.883381 Si / 1000 Ang^3
#
#
#
# Elastic Constant Matrix: (Units=GPa)
#
#
# Indices 1 2 3 4 5 6 
#
# 1 65.6885 8.7828 34.5582 0.0000 9.1353 0.0000
# 2 8.7828 20.8536 11.5272 0.0000 5.8151 0.0000
# 3 34.5582 11.5272 121.5413 0.0000 7.7804 0.0000
# 4 0.0000 0.0000 0.0000 23.5158 0.0000 -3.2810
# 5 9.1353 5.8151 7.7804 0.0000 23.2274 0.0000
# 6 0.0000 0.0000 0.0000 -3.2810 0.0000 26.8638
#
#
#
# Elastic Compliance Matrix: (Units=1/GPa)
#
#
# Indices 1 2 3 4 5 6 
#
# 1 0.018899 -0.004017 -0.004682 0.000000 -0.004859 0.000000
# 2 -0.004017 0.054542 -0.003329 0.000000 -0.010960 0.000000
# 3 -0.004682 -0.003329 0.009916 0.000000 -0.000647 0.000000
# 4 0.000000 0.000000 0.000000 0.043262 0.000000 0.005284
# 5 -0.004859 -0.010960 -0.000647 0.000000 0.047924 0.000000
# 6 0.000000 0.000000 0.000000 0.005284 0.000000 0.037870
#
#
# Mechanical properties :
#
#
# Convention : Reuss Voigt Hill
#
# Bulk Modulus (GPa) = 16.86296 35.31333 26.08815
# Shear Modulus (GPa) = 19.51332 24.93575 22.22454
#
# Velocity S-wave (km/s) = 3.30683 3.73815 3.52909
# Velocity P-wave (km/s) = 4.90204 6.19847 5.58798
#
# Compressibility (1/GPa) = 0.05930156
#
# Stress axis : x y z
#
# Youngs Moduli (GPa) = 52.91241 18.33462 100.84767
#
# Poissons Ratio (x) = 0.07365 0.47213
# Poissons Ratio (y) = 0.21254 0.33574
# Poissons Ratio (z) = 0.24772 0.06104
#
# Static dielectric constant tensor:
#      x y z
#    x 1.601690 0.000000 0.011070 
#    y 0.000000 1.608980 0.000000 
#    z 0.011070 0.000000 1.641870 
# 
# From -- ./inp_files/249251.got.cif
#   From: 2010.05.17/outbox.cif.g08.bks.cpg/sg12_125_cif.got.tgz:249251.got - 2010.06.03 13:09:07.
