data_PCOD9186748
_publ_section_title
;
Structure prediction by ZEFSAII (Michael W. Deem and Ramdas Pophale) SiO2 
 PCOD9186748
Probable space group: C 2/M
;
_chemical_formula_sum "Si O2"
_cell_formula_units_Z 56
_cell_length_a 22.640879
_cell_length_b 14.467298
_cell_length_c 9.813820
_cell_angle_alpha 90.000000
_cell_angle_beta 72.883252
_cell_angle_gamma 90.000000
_cell_volume 3072.158207
_symmetry_space_group_name_H-M "C 2/M"
_symmetry_group_IT_number 12
_symmetry_cell_setting 'monoclinic'
loop_
_space_group_symop_operation_xyz
x,y,z
-x,y,-z
-x,-y,-z
x,-y,z
1/2+x,1/2+y,z
1/2-x,1/2+y,-z
1/2-x,1/2-y,-z
1/2+x,1/2-y,z
loop_
_atom_site_type_symbol
_atom_site_label
_atom_site_fract_x
_atom_site_fract_y
_atom_site_fract_z
Si Si1 0.270513 0.399883 0.234543
Si Si2 0.002388 0.105655 0.337944
Si Si3 0.954502 0.262466 0.898118
Si Si4 0.181181 0.203477 0.037465
Si Si5 0.662677 0.754582 0.338938
Si Si6 0.359224 0.600023 0.429882
Si Si7 0.051041 0.391730 0.346310
O O1 0.238938 0.500000 0.250570
O O2 0.222956 0.318185 0.296355
O O3 0.318992 0.399309 0.322699
O O4 0.306743 0.380954 0.070399
O O5 0.930926 0.103376 0.345065
O O6 0.000000 0.136272 0.500000
O O7 0.033475 0.173780 0.208628
O O8 0.027017 0.000000 0.319710
O O9 0.879681 0.259222 0.977898
O O10 0.968234 0.348962 0.787471
O O11 0.000000 0.261274 0.000000
O O12 0.164944 0.188582 0.205480
O O13 0.250000 0.250000 0.000000
O O14 0.656371 0.688646 0.470620
O O15 0.606897 0.826287 0.356765
O O16 0.348376 0.500000 0.507860
O O17 0.067400 0.500000 0.320824
O O18 0.000000 0.384920 0.500000
#
# Coordination Sequence:
#
# PCOD9186748 Si02
#       7
#     8   8   8   8   8   8   8
#     4  10  20  34  52  76 107 141 176 218 266 317
#     4  10  20  34  53  79 110 143 178 218 268 324
#     4  11  21  34  56  82 109 142 180 227 279 328
#     4   9  20  35  51  73 103 140 179 217 263 319
#     4  10  19  35  56  77 103 138 181 220 263 321
#     4  10  20  33  52  79 109 138 171 218 272 320
#     4  10  21  37  57  79 103 136 178 222 271 327
#
# _framework density 18.22823
#
# number of rings (size 3 to 8) (size 9 to 14) (size 15 to 20)
#    0.000    2.000    0.000    4.714    0.000    1.714 
#    0.000    0.000    0.000    0.857    0.000    0.000 
#    0.000    0.000    0.000    0.000    0.000    0.000 
#
# Total GULP energy -155881.756973 kJ/mol
# GULP energy per Si atom -5567.205606 kJ/mol
# Density = 1.818674 g / cm^3
# Si number density = 18.228230 Si / 1000 Ang^3
#
#
#
# Elastic Constant Matrix: (Units=GPa)
#
#
# Indices 1 2 3 4 5 6 
#
# 1 107.7939 31.1494 40.9612 0.0000 9.0954 0.0000
# 2 31.1494 122.4521 58.7097 0.0000 5.3801 0.0000
# 3 40.9612 58.7097 78.1126 0.0000 8.2468 0.0000
# 4 0.0000 0.0000 0.0000 24.9520 0.0000 -3.5821
# 5 9.0954 5.3801 8.2468 0.0000 24.4913 0.0000
# 6 0.0000 0.0000 0.0000 -3.5821 0.0000 23.3328
#
#
#
# Elastic Compliance Matrix: (Units=1/GPa)
#
#
# Indices 1 2 3 4 5 6 
#
# 1 0.011717 -0.000079 -0.005835 0.000000 -0.002369 0.000000
# 2 -0.000079 0.012772 -0.009607 0.000000 0.000458 0.000000
# 3 -0.005835 -0.009607 0.023465 0.000000 -0.003624 0.000000
# 4 0.000000 0.000000 0.000000 0.040980 0.000000 0.006291
# 5 -0.002369 0.000458 -0.003624 0.000000 0.042830 0.000000
# 6 0.000000 0.000000 0.000000 0.006291 0.000000 0.043824
#
#
# Mechanical properties :
#
#
# Convention : Reuss Voigt Hill
#
# Bulk Modulus (GPa) = 59.12553 63.33323 61.22938
# Shear Modulus (GPa) = 23.55529 26.39111 24.97320
#
# Velocity S-wave (km/s) = 3.59868 3.80914 3.70541
# Velocity P-wave (km/s) = 7.05507 7.35976 7.20903
#
# Compressibility (1/GPa) = 0.01691317
#
# Stress axis : x y z
#
# Youngs Moduli (GPa) = 85.34715 78.29412 42.61727
#
# Poissons Ratio (x) = 0.00619 0.24866
# Poissons Ratio (y) = 0.00674 0.40941
# Poissons Ratio (z) = 0.49797 0.75215
#
# Static dielectric constant tensor:
#      x y z
#    x 1.677910 0.000000 -0.012950 
#    y 0.000000 1.636390 0.000000 
#    z -0.012950 0.000000 1.619680 
# 
# From -- ./inp_files/96288.got.cif
#   From: 2010.05.17/outbox.cif.g08.bks.cpg/sg12_49_cif.got.tgz:96288.got - 2010.06.03 13:09:07.
