data_PCOD9186298
_publ_section_title
;
Structure prediction by ZEFSAII (Michael W. Deem and Ramdas Pophale) SiO2 
 PCOD9186298
Probable space group: C 2/M
;
_chemical_formula_sum "Si O2"
_cell_formula_units_Z 52
_cell_length_a 7.741828
_cell_length_b 18.332762
_cell_length_c 16.876299
_cell_angle_alpha 90.000000
_cell_angle_beta 62.459500
_cell_angle_gamma 90.000000
_cell_volume 2123.819529
_symmetry_space_group_name_H-M "C 2/M"
_symmetry_group_IT_number 12
_symmetry_cell_setting 'monoclinic'
loop_
_space_group_symop_operation_xyz
x,y,z
-x,y,-z
-x,-y,-z
x,-y,z
1/2+x,1/2+y,z
1/2-x,1/2+y,-z
1/2-x,1/2-y,-z
1/2+x,1/2-y,z
loop_
_atom_site_type_symbol
_atom_site_label
_atom_site_fract_x
_atom_site_fract_y
_atom_site_fract_z
Si Si1 0.242552 0.081919 0.104238
Si Si2 0.000000 0.671966 0.500000
Si Si3 0.755332 0.836837 0.735118
Si Si4 0.305787 0.309653 0.317822
Si Si5 0.767300 0.915815 0.194941
Si Si6 0.229916 0.086809 0.433537
Si Si7 0.231076 0.828455 0.959635
O O1 0.292565 0.128653 0.170339
O O2 0.004628 0.082000 0.147393
O O3 0.307241 0.000000 0.102609
O O4 0.308785 0.114759 0.007443
O O5 0.852779 0.717033 0.585625
O O6 0.860116 0.624405 0.473508
O O7 0.663261 0.756774 0.748624
O O8 0.712670 0.883235 0.665765
O O9 0.989871 0.828325 0.687181
O O10 0.222047 0.379381 0.289223
O O11 0.700884 0.858747 0.140872
O O12 0.702071 0.000000 0.197889
O O13 0.000000 0.100430 0.500000
O O14 0.258969 0.000000 0.429026
O O15 0.250000 0.750000 0.000000
O O16 0.000000 0.836024 0.000000
#
# Coordination Sequence:
#
# PCOD9186298 Si02
#       7
#     8   4   8   8   8   8   8
#     4   9  18  34  60  89 119 161 209 254 307 375
#     4  12  25  44  66  94 125 168 220 268 323 388
#     4  11  22  40  60  89 126 163 211 262 322 377
#     4  11  24  38  62  88 123 167 213 266 321 383
#     4   9  19  36  58  88 122 160 207 261 311 369
#     4  11  24  42  65  93 126 164 210 264 322 382
#     4  10  19  34  60  90 123 159 203 249 306 374
#
# _framework density 24.484190000000002
#
# number of rings (size 3 to 8) (size 9 to 14) (size 15 to 20)
#    0.000    1.692    1.538    3.000    1.077    4.923 
#    0.000    1.538    0.000    5.538    0.000    0.000 
#    0.000    0.000    0.000    0.000    0.000    0.000 
#
# Total GULP energy -145523.261145 kJ/mol
# GULP energy per Si atom -5597.048506 kJ/mol
# Density = 2.442846 g / cm^3
# Si number density = 24.484190 Si / 1000 Ang^3
#
#
#
# Elastic Constant Matrix: (Units=GPa)
#
#
# Indices 1 2 3 4 5 6 
#
# 1 137.9308 23.4325 20.7690 0.0000 24.7819 0.0000
# 2 23.4325 114.6804 22.1675 0.0000 34.0698 0.0000
# 3 20.7690 22.1675 88.3241 0.0000 29.1036 0.0000
# 4 0.0000 0.0000 0.0000 29.8582 0.0000 -2.2739
# 5 24.7819 34.0698 29.1036 0.0000 46.3329 0.0000
# 6 0.0000 0.0000 0.0000 -2.2739 0.0000 2.7705
#
#
#
# Elastic Compliance Matrix: (Units=1/GPa)
#
#
# Indices 1 2 3 4 5 6 
#
# 1 0.008065 -0.000464 -0.000594 0.000000 -0.003600 0.000000
# 2 -0.000464 0.011185 -0.000088 0.000000 -0.007921 0.000000
# 3 -0.000594 -0.000088 0.014322 0.000000 -0.008614 0.000000
# 4 0.000000 0.000000 0.000000 0.035725 0.000000 0.029322
# 5 -0.003600 -0.007921 -0.008614 0.000000 0.034744 0.000000
# 6 0.000000 0.000000 0.000000 0.029322 0.000000 0.385017
#
#
# Mechanical properties :
#
#
# Convention : Reuss Voigt Hill
#
# Bulk Modulus (GPa) = 31.96870 52.63036 42.29953
# Shear Modulus (GPa) = 9.96461 34.09673 22.03067
#
# Velocity S-wave (km/s) = 2.01957 3.73581 3.00291
# Velocity P-wave (km/s) = 4.30388 6.33645 5.41637
#
# Compressibility (1/GPa) = 0.03128060
#
# Stress axis : x y z
#
# Youngs Moduli (GPa) = 123.99313 89.40605 69.82239
#
# Poissons Ratio (x) = 0.04146 0.04147
# Poissons Ratio (y) = 0.05750 0.00615
# Poissons Ratio (z) = 0.07365 0.00787
#
# Static dielectric constant tensor:
#      x y z
#    x 1.991000 0.000000 -0.098950 
#    y 0.000000 1.898660 0.000000 
#    z -0.098950 0.000000 1.980830 
# 
# From -- ./inp_files/256524.got.cif
#   From: 2010.05.17/outbox.cif.g08.bks.cpg/sg12_129_cif.got.tgz:256524.got - 2010.06.03 13:09:07.
