data_PCOD9186266
_publ_section_title
;
Structure prediction by ZEFSAII (Michael W. Deem and Ramdas Pophale) SiO2 
 PCOD9186266
Probable space group: C 2/M
;
_chemical_formula_sum "Si O2"
_cell_formula_units_Z 44
_cell_length_a 14.735305
_cell_length_b 11.006656
_cell_length_c 14.587417
_cell_angle_alpha 90.000000
_cell_angle_beta 115.841019
_cell_angle_gamma 90.000000
_cell_volume 2129.309466
_symmetry_space_group_name_H-M "C 2/M"
_symmetry_group_IT_number 12
_symmetry_cell_setting 'monoclinic'
loop_
_space_group_symop_operation_xyz
x,y,z
-x,y,-z
-x,-y,-z
x,-y,z
1/2+x,1/2+y,z
1/2-x,1/2+y,-z
1/2-x,1/2-y,-z
1/2+x,1/2-y,z
loop_
_atom_site_type_symbol
_atom_site_label
_atom_site_fract_x
_atom_site_fract_y
_atom_site_fract_z
Si Si1 0.034078 0.752547 0.262983
Si Si2 0.563992 0.000000 0.193303
Si Si3 0.267051 0.359177 0.581748
Si Si4 0.574926 0.137605 0.618954
Si Si5 0.172959 0.500000 0.885806
Si Si6 0.820998 0.761831 0.120969
Si Si7 0.770917 0.500000 0.880509
O O1 0.085993 0.625643 0.255628
O O2 0.122380 0.844857 0.324887
O O3 0.970612 0.728275 0.327294
O O4 0.940595 0.780864 0.152916
O O5 0.443335 0.000000 0.133849
O O6 0.622562 0.000000 0.123332
O O7 0.253879 0.500000 0.541589
O O8 0.250000 0.250000 0.500000
O O9 0.183869 0.340501 0.623997
O O10 0.500000 0.141494 0.500000
O O11 0.568343 0.000000 0.653979
O O12 0.192399 0.626366 0.843710
O O13 0.228263 0.500000 0.008327
O O14 0.784269 0.873881 0.165580
O O15 0.750000 0.750000 0.000000
#
# Coordination Sequence:
#
# PCOD9186266 Si02
#       7
#     8   4   8   8   4   8   4
#     4  11  22  39  61  90 126 160 208 255 311 368
#     4  10  21  34  59  90 114 157 210 257 290 365
#     4  11  25  42  64  92 124 160 206 259 315 375
#     4  10  20  39  63  86 117 166 206 246 309 381
#     4   8  17  38  58  82 116 163 203 248 309 370
#     4   9  20  37  60  88 126 166 203 253 313 374
#     4  10  19  34  60  88 118 151 209 262 308 344
#
# _framework density 20.663976999999999
#
# number of rings (size 3 to 8) (size 9 to 14) (size 15 to 20)
#    0.000    2.000    2.727    0.273    5.091    0.000 
#    0.000    1.818    0.000    0.000    0.000   14.000 
#    0.000    0.000    0.000    0.000    0.000    0.000 
#
# Total GULP energy -122541.568544 kJ/mol
# GULP energy per Si atom -5570.071297 kJ/mol
# Density = 2.061694 g / cm^3
# Si number density = 20.663977 Si / 1000 Ang^3
#
#
#
# Elastic Constant Matrix: (Units=GPa)
#
#
# Indices 1 2 3 4 5 6 
#
# 1 114.2269 41.9568 26.4935 0.0000 10.2696 0.0000
# 2 41.9568 139.7884 17.7108 0.0000 0.0042 0.0000
# 3 26.4935 17.7108 70.9977 0.0000 19.6402 0.0000
# 4 0.0000 0.0000 0.0000 28.1424 0.0000 6.0983
# 5 10.2696 0.0042 19.6402 0.0000 30.8551 0.0000
# 6 0.0000 0.0000 0.0000 6.0983 0.0000 27.2733
#
#
#
# Elastic Compliance Matrix: (Units=1/GPa)
#
#
# Indices 1 2 3 4 5 6 
#
# 1 0.010593 -0.002830 -0.002757 0.000000 -0.001770 0.000000
# 2 -0.002830 0.008195 -0.001515 0.000000 0.001905 0.000000
# 3 -0.002757 -0.001515 0.018494 0.000000 -0.010854 0.000000
# 4 0.000000 0.000000 0.000000 0.037343 0.000000 -0.008350
# 5 -0.001770 0.001905 -0.010854 0.000000 0.039908 0.000000
# 6 0.000000 0.000000 0.000000 -0.008350 0.000000 0.038533
#
#
# Mechanical properties :
#
#
# Convention : Reuss Voigt Hill
#
# Bulk Modulus (GPa) = 43.33261 55.25947 49.29604
# Shear Modulus (GPa) = 28.57751 33.17762 30.87756
#
# Velocity S-wave (km/s) = 3.72285 4.01131 3.86977
# Velocity P-wave (km/s) = 6.28452 6.94652 6.62380
#
# Compressibility (1/GPa) = 0.02307731
#
# Stress axis : x y z
#
# Youngs Moduli (GPa) = 94.40556 122.02565 54.07016
#
# Poissons Ratio (x) = 0.34533 0.14908
# Poissons Ratio (y) = 0.26716 0.08194
# Poissons Ratio (z) = 0.26028 0.18491
#
# Static dielectric constant tensor:
#      x y z
#    x 1.694250 0.000000 0.050130 
#    y 0.000000 1.821900 0.000000 
#    z 0.050130 0.000000 1.879050 
# 
# From -- ./inp_files/261860.got.cif
#   From: 2010.05.17/outbox.cif.g08.bks.cpg/sg12_131_cif.got.tgz:261860.got - 2010.06.03 13:09:07.
