data_PCOD9186569
_publ_section_title
;
Structure prediction by ZEFSAII (Michael W. Deem and Ramdas Pophale) SiO2 
 PCOD9186569
Probable space group: C 2/M
;
_chemical_formula_sum "Si O2"
_cell_formula_units_Z 64
_cell_length_a 32.887497
_cell_length_b 14.212420
_cell_length_c 23.048629
_cell_angle_alpha 90.000000
_cell_angle_beta 161.321032
_cell_angle_gamma 90.000000
_cell_volume 3450.275678
_symmetry_space_group_name_H-M "C 2/M"
_symmetry_group_IT_number 12
_symmetry_cell_setting 'monoclinic'
loop_
_space_group_symop_operation_xyz
x,y,z
-x,y,-z
-x,-y,-z
x,-y,z
1/2+x,1/2+y,z
1/2-x,1/2+y,-z
1/2-x,1/2-y,-z
1/2+x,1/2-y,z
loop_
_atom_site_type_symbol
_atom_site_label
_atom_site_fract_x
_atom_site_fract_y
_atom_site_fract_z
Si Si1 0.303378 0.644492 0.071270
Si Si2 0.090221 0.104227 0.912397
Si Si3 0.472573 0.111888 0.896157
Si Si4 0.033029 0.394862 0.747130
Si Si5 0.864188 0.106623 0.347084
Si Si6 0.065570 0.781016 0.453753
Si Si7 0.818432 0.892406 0.492651
Si Si8 0.885334 0.312020 0.023569
O O1 0.344629 0.610486 0.063251
O O2 0.437639 0.654570 0.284892
O O3 0.250000 0.750000 0.000000
O O4 0.181355 0.593995 0.931250
O O5 0.937227 0.112262 0.697134
O O6 0.118047 0.000000 0.974268
O O7 0.133317 0.199769 0.001047
O O8 0.324187 0.126448 0.679937
O O9 0.498545 0.000000 0.929932
O O10 0.500000 0.142814 0.000000
O O11 0.554678 0.158061 0.956456
O O12 0.976744 0.500000 0.673538
O O13 0.973053 0.324233 0.617806
O O14 0.031085 0.342579 0.807172
O O15 0.863037 0.191900 0.391521
O O16 0.746238 0.131659 0.146805
O O17 0.000000 0.107756 0.500000
O O18 0.845629 0.000000 0.345927
O O19 0.147741 0.821900 0.512610
O O20 0.818785 0.000000 0.470438
#
# Coordination Sequence:
#
# PCOD9186569 Si02
#       8
#     8   8   8   8   8   8   8   8
#     4   9  16  32  54  81 113 149 190 232 280 335
#     4  10  20  35  56  84 114 154 197 239 286 342
#     4  10  21  36  58  87 118 153 189 236 302 360
#     4  11  21  34  56  85 116 152 191 239 292 341
#     4  11  24  37  56  84 118 154 189 236 293 354
#     4  10  19  35  54  80 113 151 189 234 284 350
#     4   9  17  33  56  81 110 145 192 235 283 343
#     4  12  22  39  60  86 121 149 194 250 295 349
#
# _framework density 18.549242
#
# number of rings (size 3 to 8) (size 9 to 14) (size 15 to 20)
#    0.000    1.750    3.750    3.375    1.750    4.000 
#    0.000    0.625    0.000    1.125    0.000    0.000 
#    0.000    0.000    0.000    0.000    0.000    0.000 
#
# Total GULP energy -178207.447269 kJ/mol
# GULP energy per Si atom -5568.982727 kJ/mol
# Density = 1.850702 g / cm^3
# Si number density = 18.549242 Si / 1000 Ang^3
#
#
#
# Elastic Constant Matrix: (Units=GPa)
#
#
# Indices 1 2 3 4 5 6 
#
# 1 62.6310 32.9793 24.4466 0.0000 2.3875 0.0000
# 2 32.9793 127.7002 26.7594 0.0000 -1.7896 0.0000
# 3 24.4466 26.7594 53.7811 0.0001 7.4395 0.0000
# 4 0.0000 0.0000 0.0001 21.6253 0.0000 -0.3293
# 5 2.3875 -1.7896 7.4395 0.0000 28.6013 0.0000
# 6 0.0000 0.0000 0.0000 -0.3293 0.0000 12.8003
#
#
#
# Elastic Compliance Matrix: (Units=1/GPa)
#
#
# Indices 1 2 3 4 5 6 
#
# 1 0.020951 -0.003813 -0.007626 0.000000 -0.000004 0.000000
# 2 -0.003813 0.009521 -0.003247 0.000000 0.001759 0.000000
# 3 -0.007626 -0.003247 0.024497 0.000000 -0.005939 0.000000
# 4 0.000000 0.000000 0.000000 0.046260 0.000000 0.001190
# 5 -0.000004 0.001759 -0.005939 0.000000 0.036619 0.000000
# 6 0.000000 0.000000 0.000000 0.001190 0.000000 0.078154
#
#
# Mechanical properties :
#
#
# Convention : Reuss Voigt Hill
#
# Bulk Modulus (GPa) = 39.06646 45.83143 42.44895
# Shear Modulus (GPa) = 19.69235 23.26718 21.47977
#
# Velocity S-wave (km/s) = 3.26179 3.54552 3.40661
# Velocity P-wave (km/s) = 5.94074 6.44380 6.19738
#
# Compressibility (1/GPa) = 0.02559740
#
# Stress axis : x y z
#
# Youngs Moduli (GPa) = 47.73070 105.03531 40.82062
#
# Poissons Ratio (x) = 0.40047 0.31129
# Poissons Ratio (y) = 0.18199 0.13255
# Poissons Ratio (z) = 0.36398 0.34107
#
# Static dielectric constant tensor:
#      x y z
#    x 1.641560 0.000000 -0.004740 
#    y 0.000000 1.662010 0.000000 
#    z -0.004740 0.000000 1.691880 
# 
# From -- ./inp_files/330390.got.cif
#   From: 2010.05.17/outbox.cif.g08.bks.cpg/sg12_166_cif.got.tgz:330390.got - 2010.06.03 13:09:07.
