data_PCOD9186356
_publ_section_title
;
Structure prediction by ZEFSAII (Michael W. Deem and Ramdas Pophale) SiO2 
 PCOD9186356
Probable space group: C 2/M
;
_chemical_formula_sum "Si O2"
_cell_formula_units_Z 64
_cell_length_a 17.016939
_cell_length_b 22.222783
_cell_length_c 23.252652
_cell_angle_alpha 90.000000
_cell_angle_beta 20.722958
_cell_angle_gamma 90.000000
_cell_volume 3111.509554
_symmetry_space_group_name_H-M "C 2/M"
_symmetry_group_IT_number 12
_symmetry_cell_setting 'monoclinic'
loop_
_space_group_symop_operation_xyz
x,y,z
-x,y,-z
-x,-y,-z
x,-y,z
1/2+x,1/2+y,z
1/2-x,1/2+y,-z
1/2-x,1/2-y,-z
1/2+x,1/2-y,z
loop_
_atom_site_type_symbol
_atom_site_label
_atom_site_fract_x
_atom_site_fract_y
_atom_site_fract_z
Si Si1 0.681912 0.927033 0.331839
Si Si2 0.691631 0.233031 0.915967
Si Si3 0.508425 0.846861 0.854339
Si Si4 0.745694 0.928262 0.163419
Si Si5 0.567601 0.572362 0.151096
Si Si6 0.533096 0.839880 0.707431
Si Si7 0.538859 0.373776 0.656418
Si Si8 0.696008 0.932263 0.818050
O O1 0.500000 0.903292 0.500000
O O2 0.637129 0.907821 0.297851
O O3 0.922012 0.913583 0.194249
O O4 0.669113 0.000000 0.339826
O O5 0.861045 0.287501 0.808607
O O6 0.846704 0.176801 0.792021
O O7 0.500000 0.244053 0.000000
O O8 0.574104 0.212640 0.055792
O O9 0.597995 0.833889 0.729664
O O10 0.669988 0.882827 0.786509
O O11 0.296291 0.891403 0.993974
O O12 0.612363 0.899728 0.203098
O O13 0.742792 0.000000 0.160088
O O14 0.000000 0.910219 0.000000
O O15 0.596893 0.500000 0.135060
O O16 0.437526 0.596399 0.296810
O O17 0.744503 0.845620 0.521045
O O18 0.429334 0.423859 0.690271
O O19 0.670622 0.000000 0.812814
O O20 0.500000 0.923855 0.000000
#
# Coordination Sequence:
#
# PCOD9186356 Si02
#       8
#     8   8   8   8   8   8   8   8
#     4   9  17  30  50  77 113 153 193 238 287 343
#     4  11  22  46  68  84 114 165 217 256 306 375
#     4  11  22  40  62  92 123 157 210 262 302 370
#     4  10  21  38  55  80 122 164 197 240 302 373
#     4  10  19  34  61  89 118 163 210 245 293 372
#     4  12  26  38  63  93 126 159 203 259 328 369
#     4  11  22  40  62  93 127 158 201 265 317 373
#     4  11  20  39  69  95 125 171 213 251 308 378
#
# _framework density 20.568794
#
# number of rings (size 3 to 8) (size 9 to 14) (size 15 to 20)
#    0.000    1.375    3.750    3.375    0.000    4.500 
#    0.000    0.625    0.000    0.000    0.000    0.000 
#    0.000    0.000    0.000    0.000    0.000    0.000 
#
# Total GULP energy -178735.633468 kJ/mol
# GULP energy per Si atom -5585.488546 kJ/mol
# Density = 2.052198 g / cm^3
# Si number density = 20.568794 Si / 1000 Ang^3
#
#
#
# Elastic Constant Matrix: (Units=GPa)
#
#
# Indices 1 2 3 4 5 6 
#
# 1 85.9289 2.7380 7.5920 0.0262 4.1197 0.0728
# 2 2.7380 39.6815 4.0419 0.1020 -3.5178 0.0274
# 3 7.5920 4.0419 40.3319 0.1837 9.8996 0.0452
# 4 0.0262 0.1020 0.1837 18.4185 -0.0542 -4.8950
# 5 4.1197 -3.5178 9.8996 -0.0542 25.3965 -0.0662
# 6 0.0728 0.0274 0.0452 -4.8950 -0.0662 18.7142
#
#
#
# Elastic Compliance Matrix: (Units=1/GPa)
#
#
# Indices 1 2 3 4 5 6 
#
# 1 0.011887 -0.000749 -0.001840 -0.000011 -0.001315 -0.000048
# 2 -0.000749 0.026095 -0.003749 -0.000100 0.005197 -0.000034
# 3 -0.001840 -0.003749 0.028278 -0.000341 -0.011245 -0.000185
# 4 -0.000011 -0.000100 -0.000341 0.058355 0.000285 0.015266
# 5 -0.001315 0.005197 -0.011245 0.000285 0.044693 0.000257
# 6 -0.000048 -0.000034 -0.000185 0.015266 0.000257 0.057430
#
#
# Mechanical properties :
#
#
# Convention : Reuss Voigt Hill
#
# Bulk Modulus (GPa) = 18.66231 21.63179 20.14705
# Shear Modulus (GPa) = 19.43433 22.61055 21.02244
#
# Velocity S-wave (km/s) = 3.07717 3.31911 3.20043
# Velocity P-wave (km/s) = 4.66027 5.02278 4.84492
#
# Compressibility (1/GPa) = 0.05358394
#
# Stress axis : x y z
#
# Youngs Moduli (GPa) = 84.12529 38.32106 35.36300
#
# Poissons Ratio (x) = 0.02872 0.06505
# Poissons Ratio (y) = 0.06304 0.13259
# Poissons Ratio (z) = 0.15476 0.14368
#
# Static dielectric constant tensor:
#      x y z
#    x 1.737120 0.000000 0.023010 
#    y 0.000000 1.729220 0.000060 
#    z 0.023010 0.000060 1.758610 
# 
# From -- ./inp_files/344887.got.cif
#   From: 2010.05.17/outbox.cif.g08.bks.cpg/sg12_173_cif.got.tgz:344887.got - 2010.06.03 13:09:07.
