data_PCOD9186188
_publ_section_title
;
Structure prediction by ZEFSAII (Michael W. Deem and Ramdas Pophale) SiO2 
 PCOD9186188
Probable space group: C 2/M
;
_chemical_formula_sum "Si O2"
_cell_formula_units_Z 64
_cell_length_a 28.888625
_cell_length_b 17.053297
_cell_length_c 11.507528
_cell_angle_alpha 90.000000
_cell_angle_beta 146.989334
_cell_angle_gamma 90.000000
_cell_volume 3088.520583
_symmetry_space_group_name_H-M "C 2/M"
_symmetry_group_IT_number 12
_symmetry_cell_setting 'monoclinic'
loop_
_space_group_symop_operation_xyz
x,y,z
-x,y,-z
-x,-y,-z
x,-y,z
1/2+x,1/2+y,z
1/2-x,1/2+y,-z
1/2-x,1/2-y,-z
1/2+x,1/2-y,z
loop_
_atom_site_type_symbol
_atom_site_label
_atom_site_fract_x
_atom_site_fract_y
_atom_site_fract_z
Si Si1 0.306602 0.407684 0.733451
Si Si2 0.214240 0.406550 0.297113
Si Si3 0.764588 0.594525 0.182183
Si Si4 0.362810 0.411417 0.457339
Si Si5 0.984187 0.170334 0.097112
Si Si6 0.975993 0.355075 0.081057
Si Si7 0.551562 0.094557 0.492215
Si Si8 0.906116 0.089432 0.284460
O O1 0.329808 0.500000 0.790530
O O2 0.269120 0.392571 0.528083
O O3 0.233845 0.393410 0.676049
O O4 0.390006 0.356867 0.931066
O O5 0.197514 0.500000 0.251179
O O6 0.273909 0.379468 0.317395
O O7 0.124595 0.365793 0.117938
O O8 0.761172 0.500000 0.153600
O O9 0.850264 0.623805 0.302141
O O10 0.671548 0.625949 0.950391
O O11 0.369637 0.500000 0.519961
O O12 0.444528 0.365519 0.671390
O O13 0.365969 0.415842 0.326961
O O14 0.995538 0.263119 0.121251
O O15 0.000000 0.140151 0.000000
O O16 0.015378 0.387837 0.285613
O O17 0.000000 0.386330 0.000000
O O18 0.500000 0.122031 0.500000
O O19 0.553359 0.000000 0.504234
O O20 0.000000 0.125489 0.500000
O O21 0.921949 0.000000 0.271144
#
# Coordination Sequence:
#
# PCOD9186188 Si02
#       8
#     8   8   8   8   8   8   8   8
#     4  10  19  34  59  90 121 153 198 254 307 360
#     4  10  21  36  60  89 114 148 198 259 308 354
#     4   9  18  33  56  88 118 148 190 241 305 363
#     4  10  20  35  59  88 117 149 199 258 305 356
#     4  11  22  38  56  85 122 164 201 243 304 373
#     4  11  25  42  59  87 125 167 205 248 307 373
#     4  10  22  41  67  91 118 158 208 262 303 352
#     4   9  17  30  52  84 118 147 181 235 301 363
#
# _framework density 20.721895
#
# number of rings (size 3 to 8) (size 9 to 14) (size 15 to 20)
#    0.000    2.000    1.250    2.250    1.750    5.000 
#    2.250    1.875    0.000    1.500    0.000    0.000 
#    0.000    0.000    0.000    0.000    0.000    0.000 
#
# Total GULP energy -178385.943157 kJ/mol
# GULP energy per Si atom -5574.560724 kJ/mol
# Density = 2.067473 g / cm^3
# Si number density = 20.721895 Si / 1000 Ang^3
#
#
#
# Elastic Constant Matrix: (Units=GPa)
#
#
# Indices 1 2 3 4 5 6 
#
# 1 135.6392 0.5064 44.3136 0.0000 6.4932 0.0000
# 2 0.5064 5.4428 -3.1154 0.0000 -4.2198 0.0000
# 3 44.3136 -3.1154 64.8764 0.0000 7.2078 0.0000
# 4 0.0000 0.0000 0.0000 86.7456 0.0000 62.3075
# 5 6.4932 -4.2198 7.2078 0.0000 33.7801 0.0000
# 6 0.0000 0.0000 0.0000 62.3075 0.0000 58.5229
#
#
#
# Elastic Compliance Matrix: (Units=1/GPa)
#
#
# Indices 1 2 3 4 5 6 
#
# 1 0.009647 -0.005621 -0.006735 0.000000 -0.001119 0.000000
# 2 -0.005621 0.209964 0.011152 0.000000 0.024930 0.000000
# 3 -0.006735 0.011152 0.020743 0.000000 -0.001738 0.000000
# 4 0.000000 0.000000 0.000000 0.048999 0.000000 -0.052167
# 5 -0.001119 0.024930 -0.001738 0.000000 0.033304 0.000000
# 6 0.000000 0.000000 0.000000 -0.052167 0.000000 0.072628
#
#
# Mechanical properties :
#
#
# Convention : Reuss Voigt Hill
#
# Bulk Modulus (GPa) = 4.20261 32.15194 18.17727
# Shear Modulus (GPa) = 10.48199 46.75998 28.62098
#
# Velocity S-wave (km/s) = 2.25153 4.75547 3.72048
# Velocity P-wave (km/s) = 2.96508 6.76034 5.21986
#
# Compressibility (1/GPa) = 0.23794764
#
# Stress axis : x y z
#
# Youngs Moduli (GPa) = 103.65399 4.76271 48.20887
#
# Poissons Ratio (x) = 0.02677 0.32470
# Poissons Ratio (y) = 0.58261 -0.53764
# Poissons Ratio (z) = 0.69813 -0.05311
#
# Static dielectric constant tensor:
#      x y z
#    x 1.803810 0.000000 -0.026870 
#    y 0.000000 1.724480 0.000000 
#    z -0.026870 0.000000 1.757800 
# 
# From -- ./inp_files/190108.got.cif
#   From: 2010.05.17/outbox.cif.g08.bks.cpg/sg12_96_cif.got.tgz:190108.got - 2010.06.03 13:09:07.
