data_PCOD9186685
_publ_section_title
;
Structure prediction by ZEFSAII (Michael W. Deem and Ramdas Pophale) SiO2 
 PCOD9186685
Probable space group: C 2/M
;
_chemical_formula_sum "Si O2"
_cell_formula_units_Z 64
_cell_length_a 17.617708
_cell_length_b 13.749688
_cell_length_c 14.318844
_cell_angle_alpha 90.000000
_cell_angle_beta 62.958757
_cell_angle_gamma 90.000000
_cell_volume 3089.382378
_symmetry_space_group_name_H-M "C 2/M"
_symmetry_group_IT_number 12
_symmetry_cell_setting 'monoclinic'
loop_
_space_group_symop_operation_xyz
x,y,z
-x,y,-z
-x,-y,-z
x,-y,z
1/2+x,1/2+y,z
1/2-x,1/2+y,-z
1/2-x,1/2-y,-z
1/2+x,1/2-y,z
loop_
_atom_site_type_symbol
_atom_site_label
_atom_site_fract_x
_atom_site_fract_y
_atom_site_fract_z
Si Si1 0.916932 0.386942 0.409126
Si Si2 0.406933 0.301421 0.530455
Si Si3 0.757040 0.890280 0.267633
Si Si4 0.038455 0.300521 0.185575
Si Si5 0.825281 0.203676 0.771414
Si Si6 0.427231 0.678771 0.102213
Si Si7 0.183412 0.312161 0.974450
Si Si8 0.271124 0.385996 0.471583
O O1 0.924327 0.500000 0.433281
O O2 0.923151 0.311125 0.491172
O O3 0.819618 0.372877 0.426148
O O4 0.986321 0.360768 0.291736
O O5 0.500000 0.343510 0.500000
O O6 0.353065 0.325318 0.652855
O O7 0.352201 0.340541 0.474972
O O8 0.709720 0.814040 0.227479
O O9 0.856382 0.889203 0.185866
O O10 0.755029 0.851709 0.374811
O O11 0.722405 0.000000 0.282003
O O12 0.092095 0.217380 0.210171
O O13 0.971839 0.247715 0.154002
O O14 0.112129 0.356687 0.084036
O O15 0.751122 0.141544 0.863527
O O16 0.375697 0.746037 0.058219
O O17 0.500000 0.628597 0.000000
O O18 0.250000 0.250000 0.000000
O O19 0.286973 0.500000 0.455111
#
# Coordination Sequence:
#
# PCOD9186685 Si02
#       8
#     8   8   8   8   8   8   8   8
#     4  11  23  37  57  89 125 160 196 242 295 359
#     4  12  23  37  60  88 117 157 199 242 303 354
#     4  10  20  34  53  78 112 152 188 232 297 348
#     4  10  19  35  55  81 115 146 193 236 291 347
#     4  10  20  33  54  84 110 152 194 244 286 349
#     4   9  18  32  56  83 108 142 188 247 290 341
#     4   8  17  33  54  80 108 144 197 241 283 336
#     4  10  23  40  58  83 118 157 198 244 292 356
#
# _framework density 20.716116
#
# number of rings (size 3 to 8) (size 9 to 14) (size 15 to 20)
#    0.000    2.000    2.500    1.125    3.500    1.250 
#    0.000    0.000    0.000    4.125    0.000    1.750 
#    0.000    0.000    0.000    0.000    0.000    0.000 
#
# Total GULP energy -178182.752453 kJ/mol
# GULP energy per Si atom -5568.211014 kJ/mol
# Density = 2.066896 g / cm^3
# Si number density = 20.716116 Si / 1000 Ang^3
#
#
#
# Elastic Constant Matrix: (Units=GPa)
#
#
# Indices 1 2 3 4 5 6 
#
# 1 120.7650 9.2587 13.3210 0.0000 6.0259 0.0000
# 2 9.2587 11.5567 -1.4514 0.0000 0.9038 0.0000
# 3 13.3210 -1.4514 123.6826 0.0000 -18.4867 0.0000
# 4 0.0000 0.0000 0.0000 3.2848 0.0000 0.2255
# 5 6.0259 0.9038 -18.4867 0.0000 36.4036 0.0000
# 6 0.0000 0.0000 0.0000 0.2255 0.0000 7.5752
#
#
#
# Elastic Compliance Matrix: (Units=1/GPa)
#
#
# Indices 1 2 3 4 5 6 
#
# 1 0.009091 -0.007297 -0.001366 0.000000 -0.002018 0.000000
# 2 -0.007297 0.092620 0.001850 0.000000 -0.000152 0.000000
# 3 -0.001366 0.001850 0.008961 0.000000 0.004731 0.000000
# 4 0.000000 0.000000 0.000000 0.305052 0.000000 -0.009083
# 5 -0.002018 -0.000152 0.004731 0.000000 0.030210 0.000000
# 6 0.000000 0.000000 0.000000 -0.009083 0.000000 0.132279
#
#
# Mechanical properties :
#
#
# Convention : Reuss Voigt Hill
#
# Bulk Modulus (GPa) = 10.30445 33.14010 21.72228
# Shear Modulus (GPa) = 8.01038 25.11114 16.56076
#
# Velocity S-wave (km/s) = 1.96854 3.48538 2.83046
# Velocity P-wave (km/s) = 3.18618 5.67707 4.60331
#
# Compressibility (1/GPa) = 0.09704543
#
# Stress axis : x y z
#
# Youngs Moduli (GPa) = 109.99390 10.79679 111.59194
#
# Poissons Ratio (x) = 0.07879 0.15248
# Poissons Ratio (y) = 0.80267 -0.20646
# Poissons Ratio (z) = 0.15029 -0.01998
#
# Static dielectric constant tensor:
#      x y z
#    x 1.751560 0.000000 -0.036500 
#    y 0.000000 1.714870 0.000000 
#    z -0.036500 0.000000 1.839960 
# 
# From -- ./inp_files/225248.got.cif
#   From: 2010.05.17/outbox.cif.g08.bks.cpg/sg12_113_cif.got.tgz:225248.got - 2010.06.03 13:09:07.
