data_PCOD9186862
_publ_section_title
;
Structure prediction by ZEFSAII (Michael W. Deem and Ramdas Pophale) SiO2 
 PCOD9186862
Probable space group: C 2/M
;
_chemical_formula_sum "Si O2"
_cell_formula_units_Z 58
_cell_length_a 24.610887
_cell_length_b 7.999709
_cell_length_c 27.049076
_cell_angle_alpha 90.000000
_cell_angle_beta 146.805451
_cell_angle_gamma 90.000000
_cell_volume 2915.580349
_symmetry_space_group_name_H-M "C 2/M"
_symmetry_group_IT_number 12
_symmetry_cell_setting 'monoclinic'
loop_
_space_group_symop_operation_xyz
x,y,z
-x,y,-z
-x,-y,-z
x,-y,z
1/2+x,1/2+y,z
1/2-x,1/2+y,-z
1/2-x,1/2-y,-z
1/2+x,1/2-y,z
loop_
_atom_site_type_symbol
_atom_site_label
_atom_site_fract_x
_atom_site_fract_y
_atom_site_fract_z
Si Si1 0.312610 0.797689 0.727235
Si Si2 0.866461 0.193986 0.868552
Si Si3 0.316743 0.313493 0.942960
Si Si4 0.884720 0.812826 0.173437
Si Si5 0.730916 0.702119 0.562546
Si Si6 0.034801 0.690850 0.867442
Si Si7 0.000000 0.500000 0.000000
Si Si8 0.088272 0.302412 0.370609
O O1 0.294804 0.720097 0.767284
O O2 0.243547 0.745920 0.628891
O O3 0.425582 0.747597 0.798616
O O4 0.308850 0.000000 0.727480
O O5 0.817435 0.219899 0.885060
O O6 0.944156 0.348098 0.925568
O O7 0.903536 0.000000 0.895034
O O8 0.356617 0.500000 0.980836
O O9 0.206742 0.301637 0.880775
O O10 0.390921 0.197305 0.029825
O O11 0.916053 0.787362 0.140556
O O12 0.983370 0.781196 0.280262
O O13 0.848132 0.000000 0.153357
O O14 0.729050 0.500000 0.559276
O O15 0.829198 0.756063 0.606608
O O16 0.636848 0.767190 0.460694
O O17 0.022360 0.500000 0.840821
O O18 0.075452 0.500000 0.354156
#
# Coordination Sequence:
#
# PCOD9186862 Si02
#       8
#     8   8   8   8   8   8   2   8
#     4  10  20  37  61  87 122 159 192 247 301 353
#     4  11  25  40  61  89 118 160 206 250 306 356
#     4  11  25  42  58  81 116 158 204 249 289 351
#     4  12  24  38  59  83 115 158 201 243 294 355
#     4   9  18  34  57  86 119 151 188 235 300 359
#     4  11  22  37  58  85 117 155 197 241 294 348
#     4  12  22  40  64  82 124 150 202 260 300 344
#     4  10  19  35  56  84 117 151 189 239 295 353
#
# _framework density 19.893124
#
# number of rings (size 3 to 8) (size 9 to 14) (size 15 to 20)
#    0.000    1.379    2.069    3.931    3.862    3.310 
#    0.000    0.000    0.000    0.828    0.000    5.793 
#    0.000    0.000    0.000    0.000    0.000    0.000 
#
# Total GULP energy -161738.241762 kJ/mol
# GULP energy per Si atom -5577.180750 kJ/mol
# Density = 1.984785 g / cm^3
# Si number density = 19.893124 Si / 1000 Ang^3
#
#
#
# Elastic Constant Matrix: (Units=GPa)
#
#
# Indices 1 2 3 4 5 6 
#
# 1 68.0369 12.8277 34.5076 0.0000 -21.4230 0.0000
# 2 12.8277 71.3293 13.9052 0.0000 -9.4750 0.0003
# 3 34.5076 13.9052 57.4998 0.0000 -27.7544 0.0000
# 4 0.0000 0.0000 0.0000 22.3745 0.0000 -9.2164
# 5 -21.4230 -9.4750 -27.7544 0.0000 38.4385 0.0000
# 6 0.0000 0.0003 0.0000 -9.2164 0.0000 16.9540
#
#
#
# Elastic Compliance Matrix: (Units=1/GPa)
#
#
# Indices 1 2 3 4 5 6 
#
# 1 0.021650 -0.001266 -0.010765 0.000000 0.003981 0.000000
# 2 -0.001266 0.014853 -0.002157 0.000000 0.001398 0.000000
# 3 -0.010765 -0.002157 0.032574 0.000000 0.016988 0.000000
# 4 0.000000 0.000000 0.000000 0.057589 0.000000 0.031306
# 5 0.003981 0.001398 0.016988 0.000000 0.040845 0.000000
# 6 0.000000 0.000000 0.000000 0.031306 0.000000 0.076002
#
#
# Mechanical properties :
#
#
# Convention : Reuss Voigt Hill
#
# Bulk Modulus (GPa) = 24.57009 35.48302 30.02655
# Shear Modulus (GPa) = 17.51576 24.59509 21.05543
#
# Velocity S-wave (km/s) = 2.97053 3.52001 3.25688
# Velocity P-wave (km/s) = 4.91358 5.86482 5.41015
#
# Compressibility (1/GPa) = 0.04069989
#
# Stress axis : x y z
#
# Youngs Moduli (GPa) = 46.18898 67.32447 30.69978
#
# Poissons Ratio (x) = 0.08524 0.33049
# Poissons Ratio (y) = 0.05848 0.06623
# Poissons Ratio (z) = 0.49723 0.14525
#
# Static dielectric constant tensor:
#      x y z
#    x 1.711180 0.000000 -0.032900 
#    y 0.000000 1.711430 0.000000 
#    z -0.032900 0.000000 1.695840 
# 
# From -- ./inp_files/367635.got.cif
#   From: 2010.05.17/outbox.cif.g08.bks.cpg/sg12_184_cif.got.tgz:367635.got - 2010.06.03 13:09:07.
