data_PCOD9186940
_publ_section_title
;
Structure prediction by ZEFSAII (Michael W. Deem and Ramdas Pophale) SiO2 
 PCOD9186940
Probable space group: C 2/M
;
_chemical_formula_sum "Si O2"
_cell_formula_units_Z 48
_cell_length_a 16.404931
_cell_length_b 8.496274
_cell_length_c 17.291569
_cell_angle_alpha 90.000000
_cell_angle_beta 89.514487
_cell_angle_gamma 90.000000
_cell_volume 2410.025997
_symmetry_space_group_name_H-M "C 2/M"
_symmetry_group_IT_number 12
_symmetry_cell_setting 'monoclinic'
loop_
_space_group_symop_operation_xyz
x,y,z
-x,y,-z
-x,-y,-z
x,-y,z
1/2+x,1/2+y,z
1/2-x,1/2+y,-z
1/2-x,1/2-y,-z
1/2+x,1/2-y,z
loop_
_atom_site_type_symbol
_atom_site_label
_atom_site_fract_x
_atom_site_fract_y
_atom_site_fract_z
Si Si1 0.249831 0.688232 0.912962
Si Si2 0.589017 0.692527 0.181032
Si Si3 0.409075 0.313316 0.173388
Si Si4 0.093306 0.689402 0.502151
Si Si5 0.342716 0.688131 0.659439
Si Si6 0.654116 0.810654 0.669506
O O1 0.252906 0.500000 0.912992
O O2 0.331809 0.744154 0.867910
O O3 0.166753 0.738369 0.870955
O O4 0.250000 0.750000 0.000000
O O5 0.589441 0.500000 0.181329
O O6 0.500414 0.741967 0.150776
O O7 0.601455 0.744145 0.270046
O O8 0.405173 0.500000 0.161325
O O9 0.396887 0.273812 0.263902
O O10 0.094066 0.500000 0.502848
O O11 0.137387 0.743246 0.424193
O O12 0.132312 0.741127 0.582832
O O13 0.000000 0.744194 0.500000
O O14 0.351060 0.500000 0.653522
O O15 0.249362 0.721338 0.682303
O O16 0.641589 0.000000 0.675466
#
# Coordination Sequence:
#
# PCOD9186940 Si02
#       6
#     8   8   8   8   8   8
#     4  11  23  44  67  90 124 158 192 239 296 356
#     4   9  20  39  62  86 120 160 195 239 297 357
#     4  11  22  38  63  93 118 153 203 245 291 352
#     4  10  21  34  49  78 117 153 195 251 305 342
#     4  10  19  35  57  79 108 156 205 240 290 353
#     4  10  20  36  56  79 116 161 198 242 302 353
#
# _framework density 19.916798
#
# number of rings (size 3 to 8) (size 9 to 14) (size 15 to 20)
#    0.000    1.833    1.667    2.500    0.000    2.333 
#    0.000    7.500    0.000    0.000    0.000    0.000 
#    0.000    0.000    0.000    0.000    0.000    0.000 
#
# Total GULP energy -134031.064289 kJ/mol
# GULP energy per Si atom -5584.627679 kJ/mol
# Density = 1.987147 g / cm^3
# Si number density = 19.916798 Si / 1000 Ang^3
#
#
#
# Elastic Constant Matrix: (Units=GPa)
#
#
# Indices 1 2 3 4 5 6 
#
# 1 135.5672 32.5673 61.7584 0.0000 12.2943 0.0000
# 2 32.5673 14.1454 13.3249 0.0000 0.5961 0.0000
# 3 61.7584 13.3249 123.4151 0.0000 4.4381 0.0000
# 4 0.0000 0.0000 0.0000 33.3846 0.0000 -0.5493
# 5 12.2943 0.5961 4.4381 0.0000 10.9004 0.0000
# 6 0.0000 0.0000 0.0000 -0.5493 0.0000 18.4797
#
#
#
# Elastic Compliance Matrix: (Units=1/GPa)
#
#
# Indices 1 2 3 4 5 6 
#
# 1 0.023328 -0.047351 -0.005793 0.000000 -0.021363 0.000000
# 2 -0.047351 0.174819 0.003292 0.000000 0.042505 0.000000
# 3 -0.005793 0.003292 0.010573 0.000000 0.002049 0.000000
# 4 0.000000 0.000000 0.000000 0.029969 0.000000 0.000891
# 5 -0.021363 0.042505 0.002049 0.000000 0.112676 0.000000
# 6 0.000000 0.000000 0.000000 0.000891 0.000000 0.054140
#
#
# Mechanical properties :
#
#
# Convention : Reuss Voigt Hill
#
# Bulk Modulus (GPa) = 9.17305 54.26987 31.72146
# Shear Modulus (GPa) = 9.23282 23.58475 16.40878
#
# Velocity S-wave (km/s) = 2.15540 3.44490 2.87342
# Velocity P-wave (km/s) = 3.28786 6.56739 5.19329
#
# Compressibility (1/GPa) = 0.10901499
#
# Stress axis : x y z
#
# Youngs Moduli (GPa) = 42.86722 5.72020 94.58481
#
# Poissons Ratio (x) = 0.27086 0.54792
# Poissons Ratio (y) = 2.02980 -0.31134
# Poissons Ratio (z) = 0.24833 -0.01883
#
# Static dielectric constant tensor:
#      x y z
#    x 1.719850 0.000000 0.005730 
#    y 0.000000 1.692150 0.000000 
#    z 0.005730 0.000000 1.688150 
# 
# From -- ./inp_files/267651.got.cif
#   From: 2010.05.17/outbox.cif.g08.bks.cpg/sg12_134_cif.got.tgz:267651.got - 2010.06.03 13:09:07.
