data_PCOD9186332
_publ_section_title
;
Structure prediction by ZEFSAII (Michael W. Deem and Ramdas Pophale) SiO2 
 PCOD9186332
Probable space group: C 2/M
;
_chemical_formula_sum "Si O2"
_cell_formula_units_Z 56
_cell_length_a 15.891499
_cell_length_b 27.217797
_cell_length_c 11.647615
_cell_angle_alpha 90.000000
_cell_angle_beta 33.010495
_cell_angle_gamma 90.000000
_cell_volume 2744.644371
_symmetry_space_group_name_H-M "C 2/M"
_symmetry_group_IT_number 12
_symmetry_cell_setting 'monoclinic'
loop_
_space_group_symop_operation_xyz
x,y,z
-x,y,-z
-x,-y,-z
x,-y,z
1/2+x,1/2+y,z
1/2-x,1/2+y,-z
1/2-x,1/2-y,-z
1/2+x,1/2-y,z
loop_
_atom_site_type_symbol
_atom_site_label
_atom_site_fract_x
_atom_site_fract_y
_atom_site_fract_z
Si Si1 0.667694 0.793867 0.850529
Si Si2 0.921336 0.883594 0.968566
Si Si3 0.964569 0.648580 0.802307
Si Si4 0.334624 0.199517 0.749185
Si Si5 0.328912 0.556944 0.658379
Si Si6 0.204172 0.142015 0.484043
Si Si7 0.701686 0.944795 0.062965
O O1 0.757619 0.751263 0.811577
O O2 0.781297 0.813060 0.621244
O O3 0.500000 0.774338 0.000000
O O4 0.615259 0.841853 0.983272
O O5 0.840549 0.927141 0.987125
O O6 0.051408 0.861581 0.734484
O O7 0.789275 0.842671 0.141151
O O8 0.000000 0.897553 0.000000
O O9 0.883293 0.691404 0.824301
O O10 0.146550 0.650178 0.607707
O O11 0.924279 0.597865 0.786150
O O12 0.500000 0.193438 0.500000
O O13 0.500000 0.573404 0.500000
O O14 0.334459 0.500000 0.611792
O O15 0.276714 0.592662 0.615666
O O16 0.243177 0.556323 0.879407
O O17 0.654266 0.000000 0.146262
#
# Coordination Sequence:
#
# PCOD9186332 Si02
#       7
#     8   8   8   8   8   8   8
#     4  10  22  39  61  92 124 159 204 252 310 368
#     4  11  24  42  64  90 124 166 210 255 306 366
#     4  10  22  39  60  92 130 162 202 251 306 368
#     4  11  24  42  62  85 120 164 209 251 306 369
#     4  10  19  34  60  95 130 161 203 252 306 365
#     4  11  22  39  65  94 128 162 203 257 309 366
#     4  10  21  38  61  91 127 166 206 253 304 363
#
# _framework density 20.403372999999998
#
# number of rings (size 3 to 8) (size 9 to 14) (size 15 to 20)
#    0.000    1.571    2.857    1.714    0.000    4.857 
#    0.000    5.000    0.000   14.571    0.000    0.000 
#    0.000    0.000    0.000    0.000    0.000    0.000 
#
# Total GULP energy -156124.099068 kJ/mol
# GULP energy per Si atom -5575.860681 kJ/mol
# Density = 2.035693 g / cm^3
# Si number density = 20.403373 Si / 1000 Ang^3
#
#
#
# Elastic Constant Matrix: (Units=GPa)
#
#
# Indices 1 2 3 4 5 6 
#
# 1 100.0921 54.0303 23.8173 0.0009 -17.0137 0.0001
# 2 54.0303 110.3843 37.1821 -0.0003 -18.3942 -0.0002
# 3 23.8173 37.1821 67.6924 0.0008 4.1007 -0.0004
# 4 0.0009 -0.0003 0.0008 -28.2837 0.0000 0.6027
# 5 -17.0137 -18.3942 4.1007 0.0000 23.6768 0.0003
# 6 0.0001 -0.0002 -0.0004 0.6027 0.0003 7.2183
#
#
#
# Elastic Compliance Matrix: (Units=1/GPa)
#
#
# Indices 1 2 3 4 5 6 
#
# 1 0.014560 -0.005008 -0.002800 0.000000 0.007057 -0.000001
# 2 -0.005008 0.015657 -0.007435 -0.000001 0.009853 0.000000
# 3 -0.002800 -0.007435 0.020529 0.000001 -0.011343 0.000001
# 4 0.000000 -0.000001 0.000001 -0.035293 0.000000 0.002947
# 5 0.007057 0.009853 -0.011343 0.000000 0.056925 -0.000003
# 6 -0.000001 0.000000 0.000001 0.002947 -0.000003 0.138291
#
#
# Mechanical properties :
#
#
# Convention : Reuss Voigt Hill
#
# Bulk Modulus (GPa) = 49.35644 56.46980 52.91312
# Shear Modulus (GPa) = 20.16896 11.39820 15.78358
#
# Velocity S-wave (km/s) = 3.14747 2.36613 2.78434
# Velocity P-wave (km/s) = 6.11977 5.93309 6.02715
#
# Compressibility (1/GPa) = 0.02026078
#
# Stress axis : x y z
#
# Youngs Moduli (GPa) = 68.68307 63.87112 48.71231
#
# Poissons Ratio (x) = 0.31984 0.13638
# Poissons Ratio (y) = 0.34394 0.36217
# Poissons Ratio (z) = 0.19229 0.47487
#
# Static dielectric constant tensor:
#      x y z
#    x 1.946890 0.000000 0.129380 
#    y 0.000000 1.722130 0.000000 
#    z 0.129380 0.000000 1.791100 
# 
# From -- ./inp_files/150409.got.cif
#   From: 2010.05.17/outbox.cif.g08.bks.cpg/sg12_76_cif.got.tgz:150409.got - 2010.06.03 13:09:07.
