data_PCOD9186313
_publ_section_title
;
Structure prediction by ZEFSAII (Michael W. Deem and Ramdas Pophale) SiO2 
 PCOD9186313
Probable space group: C 2/M
;
_chemical_formula_sum "Si O2"
_cell_formula_units_Z 60
_cell_length_a 12.504254
_cell_length_b 18.093644
_cell_length_c 13.401731
_cell_angle_alpha 90.000000
_cell_angle_beta 76.066876
_cell_angle_gamma 90.000000
_cell_volume 2942.896010
_symmetry_space_group_name_H-M "C 2/M"
_symmetry_group_IT_number 12
_symmetry_cell_setting 'monoclinic'
loop_
_space_group_symop_operation_xyz
x,y,z
-x,y,-z
-x,-y,-z
x,-y,z
1/2+x,1/2+y,z
1/2-x,1/2+y,-z
1/2-x,1/2-y,-z
1/2+x,1/2-y,z
loop_
_atom_site_type_symbol
_atom_site_label
_atom_site_fract_x
_atom_site_fract_y
_atom_site_fract_z
Si Si1 0.149515 0.580887 0.859723
Si Si2 0.634962 0.646765 0.256602
Si Si3 0.445038 0.915024 0.345389
Si Si4 0.500000 0.804362 0.000000
Si Si5 0.679786 0.088509 0.230316
Si Si6 0.603216 0.412554 0.686969
Si Si7 0.710547 0.590111 0.450086
Si Si8 0.666885 0.225920 0.105455
O O1 0.124108 0.500000 0.905498
O O2 0.279699 0.591562 0.817234
O O3 0.095528 0.586768 0.761178
O O4 0.096247 0.643444 0.938172
O O5 0.507674 0.631052 0.263944
O O6 0.656827 0.631260 0.368261
O O7 0.672682 0.725433 0.204112
O O8 0.570029 0.886923 0.316593
O O9 0.339004 0.885031 0.428053
O O10 0.454421 0.000000 0.376194
O O11 0.548018 0.760598 0.081992
O O12 0.792730 0.100102 0.264500
O O13 0.680469 0.140756 0.133783
O O14 0.668283 0.000000 0.212354
O O15 0.576635 0.500000 0.696757
O O16 0.644971 0.396269 0.565771
O O17 0.709854 0.500000 0.431838
O O18 0.750000 0.250000 0.000000
#
# Coordination Sequence:
#
# PCOD9186313 Si02
#       8
#     8   8   8   4   8   8   8   8
#     4  10  19  34  60  92 117 150 207 264 304 350
#     4  11  22  38  60  90 132 167 208 251 313 377
#     4   8  15  31  57  88 118 150 195 254 304 347
#     4  12  23  40  62  84 113 160 214 264 313 362
#     4  10  22  42  65  91 125 164 210 260 315 378
#     4  10  21  38  65  97 131 171 205 248 313 384
#     4   9  18  36  66  99 127 162 211 261 308 367
#     4  12  27  44  62  89 124 169 208 262 328 376
#
# _framework density 20.388079999999999
#
# number of rings (size 3 to 8) (size 9 to 14) (size 15 to 20)
#    0.000    1.867    2.667    2.600    1.867    2.133 
#    0.000    3.333    2.933    1.600    0.000    0.000 
#    0.000    0.000    0.000    0.000    0.000    0.000 
#
# Total GULP energy -167303.260954 kJ/mol
# GULP energy per Si atom -5576.775365 kJ/mol
# Density = 2.034168 g / cm^3
# Si number density = 20.388080 Si / 1000 Ang^3
#
#
#
# Elastic Constant Matrix: (Units=GPa)
#
#
# Indices 1 2 3 4 5 6 
#
# 1 123.4438 31.3897 40.9505 0.0000 -25.2480 0.0000
# 2 31.3897 40.3566 28.4287 0.0000 -1.7656 0.0000
# 3 40.9505 28.4287 77.8426 0.0000 -10.0305 0.0000
# 4 0.0000 0.0000 0.0000 20.8580 0.0000 -2.3258
# 5 -25.2480 -1.7656 -10.0305 0.0000 33.7847 0.0000
# 6 0.0000 0.0000 0.0000 -2.3258 0.0000 21.5333
#
#
#
# Elastic Compliance Matrix: (Units=1/GPa)
#
#
# Indices 1 2 3 4 5 6 
#
# 1 0.012618 -0.007437 -0.002867 0.000000 0.008190 0.000000
# 2 -0.007437 0.037869 -0.010792 0.000000 -0.006783 0.000000
# 3 -0.002867 -0.010792 0.018661 0.000000 0.002834 0.000000
# 4 0.000000 0.000000 0.000000 0.048528 0.000000 0.005241
# 5 0.008190 -0.006783 0.002834 0.000000 0.036207 0.000000
# 6 0.000000 0.000000 0.000000 0.005241 0.000000 0.047006
#
#
# Mechanical properties :
#
#
# Convention : Reuss Voigt Hill
#
# Bulk Modulus (GPa) = 37.09544 49.24231 43.16888
# Shear Modulus (GPa) = 19.83627 24.62681 22.23154
#
# Velocity S-wave (km/s) = 3.12257 3.47926 3.30573
# Velocity P-wave (km/s) = 5.58881 6.35179 5.98248
#
# Compressibility (1/GPa) = 0.02695749
#
# Stress axis : x y z
#
# Youngs Moduli (GPa) = 79.25249 26.40699 53.58790
#
# Poissons Ratio (x) = 0.19638 0.15362
# Poissons Ratio (y) = 0.58937 0.57831
# Poissons Ratio (z) = 0.22719 0.28498
#
# Static dielectric constant tensor:
#      x y z
#    x 1.773380 0.000000 0.006350 
#    y 0.000000 1.735110 0.000000 
#    z 0.006350 0.000000 1.723360 
# 
# From -- ./inp_files/206649.got.cif
#   From: 2010.05.17/outbox.cif.g08.bks.cpg/sg12_104_cif.got.tgz:206649.got - 2010.06.03 13:09:07.
