data_PCOD9186250
_publ_section_title
;
Structure prediction by ZEFSAII (Michael W. Deem and Ramdas Pophale) SiO2 
 PCOD9186250
Probable space group: C 2/M
;
_chemical_formula_sum "Si O2"
_cell_formula_units_Z 58
_cell_length_a 15.151815
_cell_length_b 7.412596
_cell_length_c 23.578666
_cell_angle_alpha 90.000000
_cell_angle_beta 97.883041
_cell_angle_gamma 90.000000
_cell_volume 2623.195554
_symmetry_space_group_name_H-M "C 2/M"
_symmetry_group_IT_number 12
_symmetry_cell_setting 'monoclinic'
loop_
_space_group_symop_operation_xyz
x,y,z
-x,y,-z
-x,-y,-z
x,-y,z
1/2+x,1/2+y,z
1/2-x,1/2+y,-z
1/2-x,1/2-y,-z
1/2+x,1/2-y,z
loop_
_atom_site_type_symbol
_atom_site_label
_atom_site_fract_x
_atom_site_fract_y
_atom_site_fract_z
Si Si1 0.850499 0.283527 0.985822
Si Si2 0.823510 0.289971 0.855791
Si Si3 0.355278 0.217327 0.218114
Si Si4 0.000000 0.000000 0.000000
Si Si5 0.516602 0.205722 0.562944
Si Si6 0.632938 0.708411 0.365761
Si Si7 0.324352 0.778743 0.344544
Si Si8 0.443847 0.781088 0.764271
O O1 0.867454 0.500000 0.991820
O O2 0.847942 0.219376 0.919511
O O3 0.750000 0.250000 0.000000
O O4 0.929477 0.159995 0.017040
O O5 0.847063 0.500000 0.860087
O O6 0.719528 0.274858 0.832502
O O7 0.877071 0.213664 0.806832
O O8 0.331054 0.279542 0.279726
O O9 0.455461 0.275006 0.213873
O O10 0.354649 0.000000 0.218714
O O11 0.500000 0.289837 0.500000
O O12 0.426951 0.202396 0.591757
O O13 0.592586 0.283973 0.610538
O O14 0.546705 0.000000 0.554589
O O15 0.640511 0.500000 0.382888
O O16 0.731872 0.780208 0.364074
O O17 0.584483 0.720207 0.300659
O O18 0.324922 0.000000 0.342656
O O19 0.440809 0.000000 0.762019
#
# Coordination Sequence:
#
# PCOD9186250 Si02
#       8
#     8   8   8   2   8   8   8   8
#     4  11  25  49  76 110 151 198 255 309 368 436
#     4  10  23  40  62  99 138 163 216 284 327 398
#     4  10  19  34  60  86 120 167 203 247 324 395
#     4  12  26  48  84 112 144 208 246 312 376 432
#     4  10  21  39  60  78 104 150 204 249 299 375
#     4  11  21  34  55  82 116 152 189 248 311 374
#     4   9  18  34  54  81 113 151 192 240 305 378
#     4  10  20  37  58  86 124 163 204 253 315 386
#
# _framework density 22.110437999999998
#
# number of rings (size 3 to 8) (size 9 to 14) (size 15 to 20)
#    0.000    1.793    3.448    0.621    0.966    2.483 
#    0.000    2.759    0.000    0.000    0.000    0.000 
#    0.000    0.000    0.000    0.000    0.000    0.000 
#
# Total GULP energy -161747.573442 kJ/mol
# GULP energy per Si atom -5577.502532 kJ/mol
# Density = 2.206011 g / cm^3
# Si number density = 22.110438 Si / 1000 Ang^3
#
#
#
# Elastic Constant Matrix: (Units=GPa)
#
#
# Indices 1 2 3 4 5 6 
#
# 1 82.4465 14.3725 -26.3517 0.0000 -5.9781 0.0000
# 2 14.3725 102.1296 -0.1664 0.0000 -5.3424 0.0000
# 3 -26.3517 -0.1664 46.5196 0.0000 -5.8379 0.0000
# 4 0.0000 0.0000 0.0000 1.7385 0.0000 0.2917
# 5 -5.9781 -5.3424 -5.8379 0.0000 24.7890 0.0000
# 6 0.0000 0.0000 0.0000 0.2917 0.0000 43.7913
#
#
#
# Elastic Compliance Matrix: (Units=1/GPa)
#
#
# Indices 1 2 3 4 5 6 
#
# 1 0.016011 -0.001937 0.009784 0.000000 0.005748 0.000000
# 2 -0.001937 0.010142 -0.000871 0.000000 0.001514 0.000000
# 3 0.009784 -0.000871 0.028140 0.000000 0.008799 0.000000
# 4 0.000000 0.000000 0.000000 0.575852 0.000000 -0.003836
# 5 0.005748 0.001514 0.008799 0.000000 0.044125 0.000000
# 6 0.000000 0.000000 0.000000 -0.003836 0.000000 0.022861
#
#
# Mechanical properties :
#
#
# Convention : Reuss Voigt Hill
#
# Bulk Modulus (GPa) = 14.65311 22.97827 18.81569
# Shear Modulus (GPa) = 7.08291 30.27986 18.68138
#
# Velocity S-wave (km/s) = 1.79175 3.70467 2.90989
# Velocity P-wave (km/s) = 3.30486 5.35859 4.45177
#
# Compressibility (1/GPa) = 0.06824488
#
# Stress axis : x y z
#
# Youngs Moduli (GPa) = 62.45884 98.60223 35.53721
#
# Poissons Ratio (x) = 0.19094 -0.34769
# Poissons Ratio (y) = 0.12095 0.03094
# Poissons Ratio (z) = -0.61108 0.08586
#
# Static dielectric constant tensor:
#      x y z
#    x 1.796830 0.000000 0.012700 
#    y 0.000000 1.881040 0.000000 
#    z 0.012700 0.000000 1.814200 
# 
# From -- ./inp_files/338071.got.cif
#   From: 2010.05.17/outbox.cif.g08.bks.cpg/sg12_170_cif.got.tgz:338071.got - 2010.06.03 13:09:07.
