data_PCOD9186888
_publ_section_title
;
Structure prediction by ZEFSAII (Michael W. Deem and Ramdas Pophale) SiO2 
 PCOD9186888
Probable space group: C 2/M
;
_chemical_formula_sum "Si O2"
_cell_formula_units_Z 48
_cell_length_a 29.924559
_cell_length_b 14.854523
_cell_length_c 9.094859
_cell_angle_alpha 90.000000
_cell_angle_beta 34.484934
_cell_angle_gamma 90.000000
_cell_volume 2288.991924
_symmetry_space_group_name_H-M "C 2/M"
_symmetry_group_IT_number 12
_symmetry_cell_setting 'monoclinic'
loop_
_space_group_symop_operation_xyz
x,y,z
-x,y,-z
-x,-y,-z
x,-y,z
1/2+x,1/2+y,z
1/2-x,1/2+y,-z
1/2-x,1/2-y,-z
1/2+x,1/2-y,z
loop_
_atom_site_type_symbol
_atom_site_label
_atom_site_fract_x
_atom_site_fract_y
_atom_site_fract_z
Si Si1 0.878009 0.770901 0.389954
Si Si2 0.726573 0.400498 0.125873
Si Si3 0.264321 0.658213 0.237673
Si Si4 0.628635 0.827334 0.111467
Si Si5 0.094459 0.102421 0.961954
Si Si6 0.495880 0.767801 0.306911
O O1 0.828785 0.825396 0.649348
O O2 0.822809 0.690010 0.481288
O O3 0.896013 0.843978 0.216529
O O4 0.953968 0.731170 0.264286
O O5 0.691916 0.500000 0.237700
O O6 0.737471 0.379525 0.923600
O O7 0.811735 0.397130 0.976239
O O8 0.319228 0.600449 0.195565
O O9 0.312596 0.751180 0.103985
O O10 0.565124 0.839958 0.153411
O O11 0.572887 0.787134 0.390136
O O12 0.065877 0.000000 0.023648
O O13 0.035264 0.168101 0.213087
#
# Coordination Sequence:
#
# PCOD9186888 Si02
#       6
#     8   8   8   8   8   8
#     4  11  20  37  59  81 109 149 185 219 272 333
#     4  11  20  34  60  86 109 139 182 238 275 307
#     4  10  19  38  57  79 108 150 188 220 265 332
#     4   9  18  36  55  80 107 146 190 218 263 331
#     4  11  24  36  52  86 119 142 177 228 278 325
#     4  10  19  35  57  75 113 150 179 217 266 333
#
# _framework density 20.969930000000002
#
# number of rings (size 3 to 8) (size 9 to 14) (size 15 to 20)
#    0.000    1.667    3.333    3.000    0.000    2.000 
#    0.000    4.167    0.000    0.000    0.000    3.500 
#    0.000    0.000    0.000    0.000    0.000    0.000 
#
# Total GULP energy -133757.674205 kJ/mol
# GULP energy per Si atom -5573.236425 kJ/mol
# Density = 2.092220 g / cm^3
# Si number density = 20.969930 Si / 1000 Ang^3
#
#
#
# Elastic Constant Matrix: (Units=GPa)
#
#
# Indices 1 2 3 4 5 6 
#
# 1 120.9539 1.1841 23.3542 0.0000 -17.1333 0.0000
# 2 1.1841 22.9413 -2.2964 0.0000 2.4007 0.0000
# 3 23.3542 -2.2964 38.0482 0.0000 3.8464 0.0000
# 4 0.0000 0.0000 0.0000 15.7664 0.0000 -3.6827
# 5 -17.1333 2.4007 3.8464 0.0000 30.5952 0.0000
# 6 0.0000 0.0000 0.0000 -3.6827 0.0000 11.5914
#
#
#
# Elastic Compliance Matrix: (Units=1/GPa)
#
#
# Indices 1 2 3 4 5 6 
#
# 1 0.010727 -0.002040 -0.007425 0.000000 0.007101 0.000000
# 2 -0.002040 0.044688 0.004476 0.000000 -0.005212 0.000000
# 3 -0.007425 0.004476 0.031973 0.000000 -0.008529 0.000000
# 4 0.000000 0.000000 0.000000 0.068510 0.000000 0.021766
# 5 0.007101 -0.005212 -0.008529 0.000000 0.038142 0.000000
# 6 0.000000 0.000000 0.000000 0.021766 0.000000 0.093186
#
#
# Mechanical properties :
#
#
# Convention : Reuss Voigt Hill
#
# Bulk Modulus (GPa) = 12.91831 25.15859 19.03845
# Shear Modulus (GPa) = 15.47949 22.23737 18.85843
#
# Velocity S-wave (km/s) = 2.71989 3.25997 3.00210
# Velocity P-wave (km/s) = 4.00468 5.11795 4.59515
#
# Compressibility (1/GPa) = 0.07740948
#
# Stress axis : x y z
#
# Youngs Moduli (GPa) = 93.22150 22.37730 31.27681
#
# Poissons Ratio (x) = 0.04565 0.23224
# Poissons Ratio (y) = 0.19017 -0.14000
# Poissons Ratio (z) = 0.69220 -0.10016
#
# Static dielectric constant tensor:
#      x y z
#    x 1.858620 0.000000 -0.008260 
#    y 0.000000 1.711240 0.000000 
#    z -0.008260 0.000000 1.789090 
# 
# From -- ./inp_files/111489.got.cif
#   From: 2010.05.17/outbox.cif.g08.bks.cpg/sg12_56_cif.got.tgz:111489.got - 2010.06.03 13:09:07.
