data_PCOD9186905
_publ_section_title
;
Structure prediction by ZEFSAII (Michael W. Deem and Ramdas Pophale) SiO2 
 PCOD9186905
Probable space group: C 2/M
;
_chemical_formula_sum "Si O2"
_cell_formula_units_Z 56
_cell_length_a 19.634631
_cell_length_b 8.532510
_cell_length_c 18.247678
_cell_angle_alpha 90.000000
_cell_angle_beta 94.867856
_cell_angle_gamma 90.000000
_cell_volume 3046.055783
_symmetry_space_group_name_H-M "C 2/M"
_symmetry_group_IT_number 12
_symmetry_cell_setting 'monoclinic'
loop_
_space_group_symop_operation_xyz
x,y,z
-x,y,-z
-x,-y,-z
x,-y,z
1/2+x,1/2+y,z
1/2-x,1/2+y,-z
1/2-x,1/2-y,-z
1/2+x,1/2-y,z
loop_
_atom_site_type_symbol
_atom_site_label
_atom_site_fract_x
_atom_site_fract_y
_atom_site_fract_z
Si Si1 0.742603 0.689758 0.581456
Si Si2 0.962148 0.309710 0.072199
Si Si3 0.808139 0.680120 0.055567
Si Si4 0.503818 0.689411 0.762466
Si Si5 0.253151 0.675726 0.191211
Si Si6 0.850191 0.187829 0.709065
Si Si7 0.871404 0.178066 0.323755
O O1 0.742032 0.500000 0.584181
O O2 0.750000 0.750000 0.500000
O O3 0.806182 0.749414 0.636473
O O4 0.670516 0.747119 0.611237
O O5 0.963174 0.500000 0.075518
O O6 0.884002 0.250047 0.058480
O O7 0.990302 0.251480 0.153481
O O8 0.000000 0.263750 0.000000
O O9 0.815537 0.500000 0.036982
O O10 0.780326 0.705021 0.134223
O O11 0.750000 0.750000 0.000000
O O12 0.511041 0.500000 0.767849
O O13 0.430396 0.725313 0.720018
O O14 0.564238 0.749330 0.713851
O O15 0.245026 0.500000 0.159530
O O16 0.184717 0.734320 0.223186
O O17 0.311149 0.668320 0.258394
O O18 0.842524 0.000000 0.711317
O O19 0.892040 0.000000 0.346455
#
# Coordination Sequence:
#
# PCOD9186905 Si02
#       7
#     8   8   8   8   8   8   8
#     4  10  20  37  61  87 116 150 186 229 278 333
#     4  10  23  40  55  78 112 150 189 236 292 339
#     4  11  23  37  54  78 108 143 187 237 287 339
#     4  10  20  37  59  83 111 147 190 235 280 337
#     4  10  19  35  57  77 105 145 187 233 278 331
#     4  10  21  35  56  87 117 145 185 231 278 336
#     4   8  16  33  57  81 105 140 184 222 269 326
#
# _framework density 18.384430999999999
#
# number of rings (size 3 to 8) (size 9 to 14) (size 15 to 20)
#    0.000    2.143    1.429    2.571    2.000    2.000 
#    0.000    1.429    0.000    4.286    0.000    0.000 
#    0.000    0.000    0.000    0.000    0.000    0.000 
#
# Total GULP energy -156007.656778 kJ/mol
# GULP energy per Si atom -5571.702028 kJ/mol
# Density = 1.834259 g / cm^3
# Si number density = 18.384431 Si / 1000 Ang^3
#
#
#
# Elastic Constant Matrix: (Units=GPa)
#
#
# Indices 1 2 3 4 5 6 
#
# 1 147.3957 27.0363 66.5713 0.0000 -13.6156 0.0000
# 2 27.0363 24.9521 4.3420 0.0000 6.2487 0.0000
# 3 66.5713 4.3420 100.1675 0.0000 -17.0886 0.0000
# 4 0.0000 0.0000 0.0000 30.6426 0.0000 2.0504
# 5 -13.6156 6.2487 -17.0886 0.0000 25.1832 0.0000
# 6 0.0000 0.0000 0.0000 2.0504 0.0000 18.0682
#
#
#
# Elastic Compliance Matrix: (Units=1/GPa)
#
#
# Indices 1 2 3 4 5 6 
#
# 1 0.013238 -0.014580 -0.007156 0.000000 0.005919 0.000000
# 2 -0.014580 0.060366 0.003589 0.000000 -0.020427 0.000000
# 3 -0.007156 0.003589 0.015575 0.000000 0.005809 0.000000
# 4 0.000000 0.000000 0.000000 0.032884 0.000000 -0.003732
# 5 0.005919 -0.020427 0.005809 0.000000 0.051920 0.000000
# 6 0.000000 0.000000 0.000000 -0.003732 0.000000 0.055769
#
#
# Mechanical properties :
#
#
# Convention : Reuss Voigt Hill
#
# Bulk Modulus (GPa) = 18.90969 52.04606 35.47787
# Shear Modulus (GPa) = 17.62585 26.41652 22.02119
#
# Velocity S-wave (km/s) = 3.09971 3.79475 3.46470
# Velocity P-wave (km/s) = 4.80822 6.89721 5.94519
#
# Compressibility (1/GPa) = 0.05288294
#
# Stress axis : x y z
#
# Youngs Moduli (GPa) = 75.54208 16.56559 64.20724
#
# Poissons Ratio (x) = 0.24153 0.45946
# Poissons Ratio (y) = 1.10144 -0.23042
# Poissons Ratio (z) = 0.54057 -0.05945
#
# Static dielectric constant tensor:
#      x y z
#    x 1.654500 0.000000 -0.022180 
#    y 0.000000 1.651580 0.000000 
#    z -0.022180 0.000000 1.499040 
# 
# From -- ./inp_files/280451.got.cif
#   From: 2010.05.17/outbox.cif.g08.bks.cpg/sg12_141_cif.got.tgz:280451.got - 2010.06.03 13:09:07.
