data_PCOD9186335
_publ_section_title
;
Structure prediction by ZEFSAII (Michael W. Deem and Ramdas Pophale) SiO2 
 PCOD9186335
Probable space group: C 2/M
;
_chemical_formula_sum "Si O2"
_cell_formula_units_Z 40
_cell_length_a 14.835953
_cell_length_b 18.069636
_cell_length_c 14.416968
_cell_angle_alpha 90.000000
_cell_angle_beta 150.381171
_cell_angle_gamma 90.000000
_cell_volume 1910.142488
_symmetry_space_group_name_H-M "C 2/M"
_symmetry_group_IT_number 12
_symmetry_cell_setting 'monoclinic'
loop_
_space_group_symop_operation_xyz
x,y,z
-x,y,-z
-x,-y,-z
x,-y,z
1/2+x,1/2+y,z
1/2-x,1/2+y,-z
1/2-x,1/2-y,-z
1/2+x,1/2-y,z
loop_
_atom_site_type_symbol
_atom_site_label
_atom_site_fract_x
_atom_site_fract_y
_atom_site_fract_z
Si Si1 0.089864 0.724824 0.480025
Si Si2 0.617914 0.918713 0.387337
Si Si3 0.472452 0.368850 0.260002
Si Si4 0.011487 0.788165 0.905776
Si Si5 0.904074 0.381426 0.010757
O O1 0.052594 0.648461 0.393475
O O2 0.306825 0.729217 0.688457
O O3 0.000000 0.726165 0.500000
O O4 0.024491 0.794093 0.361810
O O5 0.529125 0.907412 0.207227
O O6 0.837807 0.912338 0.577293
O O7 0.568709 0.000000 0.379066
O O8 0.410012 0.343285 0.100981
O O9 0.303158 0.407161 0.159438
O O10 0.108390 0.708655 0.997280
O O11 0.000000 0.818665 0.000000
O O12 0.000000 0.401314 0.000000
#
# Coordination Sequence:
#
# PCOD9186335 Si02
#       5
#     8   8   8   8   8
#     4  11  21  38  66  94 123 160 208 260 309 355
#     4  11  25  43  59  88 131 168 204 249 308 376
#     4  11  22  40  65  92 124 160 209 260 306 356
#     4  10  19  34  60  98 123 150 200 262 311 355
#     4  11  22  37  64  92 121 157 207 258 311 359
#
# _framework density 20.940844999999999
#
# number of rings (size 3 to 8) (size 9 to 14) (size 15 to 20)
#    0.000    1.200    4.000    4.200    2.800    1.600 
#    0.000    1.000    0.000    2.400    0.000    0.000 
#    0.000    0.000    0.000    0.000    0.000    0.000 
#
# Total GULP energy -111857.761083 kJ/mol
# GULP energy per Si atom -5592.888054 kJ/mol
# Density = 2.089318 g / cm^3
# Si number density = 20.940845 Si / 1000 Ang^3
#
#
#
# Elastic Constant Matrix: (Units=GPa)
#
#
# Indices 1 2 3 4 5 6 
#
# 1 111.1492 13.8059 21.6611 0.0000 -14.0441 0.0000
# 2 13.8059 79.6680 -3.3888 0.0000 -19.0481 0.0000
# 3 21.6611 -3.3888 67.3544 0.0000 -11.3581 0.0000
# 4 0.0000 0.0000 0.0000 -9.6852 0.0000 -2.9002
# 5 -14.0441 -19.0481 -11.3581 0.0000 38.7705 0.0000
# 6 0.0000 0.0000 0.0000 -2.9002 0.0000 -4.5230
#
#
#
# Elastic Compliance Matrix: (Units=1/GPa)
#
#
# Indices 1 2 3 4 5 6 
#
# 1 0.010002 -0.001356 -0.002931 0.000000 0.002098 0.000000
# 2 -0.001356 0.014666 0.002426 0.000000 0.007425 0.000000
# 3 -0.002931 0.002426 0.016762 0.000000 0.005041 0.000000
# 4 0.000000 0.000000 0.000000 -0.127787 0.000000 0.081938
# 5 0.002098 0.007425 0.005041 0.000000 0.031677 0.000000
# 6 0.000000 0.000000 0.000000 0.081938 0.000000 -0.273630
#
#
# Mechanical properties :
#
#
# Convention : Reuss Voigt Hill
#
# Bulk Modulus (GPa) = 26.52072 35.81421 31.16747
# Shear Modulus (GPa) = -16.02463 19.98534 1.98036
#
# Velocity S-wave (km/s) = -2.76929 3.09264 0.97352
# Velocity P-wave (km/s) = 1.57061 5.46738 4.02238
#
# Compressibility (1/GPa) = 0.03770636
#
# Stress axis : x y z
#
# Youngs Moduli (GPa) = 99.98335 68.18718 59.66040
#
# Poissons Ratio (x) = 0.09248 0.17486
# Poissons Ratio (y) = 0.13561 -0.14474
# Poissons Ratio (z) = 0.29305 -0.16543
#
# Static dielectric constant tensor:
#      x y z
#    x 1.760180 0.000000 0.022430 
#    y 0.000000 1.732230 0.000000 
#    z 0.022430 0.000000 1.752700 
# 
# From -- ./inp_files/106477.got.cif
#   From: 2010.05.17/outbox.cif.g08.bks.cpg/sg12_54_cif.got.tgz:106477.got - 2010.06.03 13:09:07.
