data_PCOD9186634
_publ_section_title
;
Structure prediction by ZEFSAII (Michael W. Deem and Ramdas Pophale) SiO2 
 PCOD9186634
Probable space group: C 2/M
;
_chemical_formula_sum "Si O2"
_cell_formula_units_Z 56
_cell_length_a 20.291797
_cell_length_b 16.698340
_cell_length_c 11.930127
_cell_angle_alpha 90.000000
_cell_angle_beta 47.903225
_cell_angle_gamma 90.000000
_cell_volume 2999.512850
_symmetry_space_group_name_H-M "C 2/M"
_symmetry_group_IT_number 12
_symmetry_cell_setting 'monoclinic'
loop_
_space_group_symop_operation_xyz
x,y,z
-x,y,-z
-x,-y,-z
x,-y,z
1/2+x,1/2+y,z
1/2-x,1/2+y,-z
1/2-x,1/2-y,-z
1/2+x,1/2-y,z
loop_
_atom_site_type_symbol
_atom_site_label
_atom_site_fract_x
_atom_site_fract_y
_atom_site_fract_z
Si Si1 0.686955 0.674811 0.719439
Si Si2 0.516452 0.407899 0.846636
Si Si3 0.321793 0.847301 0.977913
Si Si4 0.840044 0.588719 0.429224
Si Si5 0.607790 0.149372 0.865698
Si Si6 0.476000 0.092970 0.648879
Si Si7 0.670052 0.657552 0.992312
O O1 0.610841 0.634307 0.730233
O O2 0.777184 0.658106 0.549993
O O3 0.649971 0.763410 0.788179
O O4 0.697102 0.635965 0.833038
O O5 0.519479 0.500000 0.808634
O O6 0.433457 0.364894 0.883023
O O7 0.500000 0.404808 0.000000
O O8 0.399348 0.861085 0.800141
O O9 0.317022 0.752597 0.008630
O O10 0.352049 0.882188 0.062944
O O11 0.232540 0.877737 0.018557
O O12 0.801273 0.500000 0.497732
O O13 0.861756 0.596982 0.273748
O O14 0.934622 0.594226 0.381660
O O15 0.500000 0.155691 0.000000
O O16 0.500000 0.126133 0.500000
O O17 0.447437 0.000000 0.667926
#
# Coordination Sequence:
#
# PCOD9186634 Si02
#       7
#     8   8   8   8   8   8   8
#     4  10  19  35  57  83 110 144 187 238 284 328
#     4   9  17  30  52  81 109 140 181 232 287 332
#     4  10  19  35  55  77 113 148 187 234 276 335
#     4  11  23  36  54  82 116 150 186 228 280 341
#     4  11  21  37  58  82 113 151 194 231 275 339
#     4  10  21  35  53  79 111 147 183 231 288 332
#     4   9  19  33  56  82 110 146 187 236 282 333
#
# _framework density 18.669698
#
# number of rings (size 3 to 8) (size 9 to 14) (size 15 to 20)
#    0.000    2.000    1.429    3.857    0.000    2.000 
#    0.000    0.000    0.000    0.000    0.000    2.000 
#    0.000    0.000    0.000    0.000    0.000    0.000 
#
# Total GULP energy -156059.083241 kJ/mol
# GULP energy per Si atom -5573.538687 kJ/mol
# Density = 1.862720 g / cm^3
# Si number density = 18.669698 Si / 1000 Ang^3
#
#
#
# Elastic Constant Matrix: (Units=GPa)
#
#
# Indices 1 2 3 4 5 6 
#
# 1 151.7835 17.2766 33.9462 0.0000 10.2922 0.0000
# 2 17.2766 12.5318 -8.0374 0.0000 -4.4248 0.0000
# 3 33.9462 -8.0374 61.8155 0.0000 10.1452 0.0000
# 4 0.0000 0.0000 0.0000 3.8712 0.0000 11.9657
# 5 10.2922 -4.4248 10.1452 0.0000 30.7210 0.0000
# 6 0.0000 0.0000 0.0000 11.9657 0.0000 -3.5295
#
#
#
# Elastic Compliance Matrix: (Units=1/GPa)
#
#
# Indices 1 2 3 4 5 6 
#
# 1 0.011336 -0.022556 -0.008460 0.000000 -0.004253 0.000000
# 2 -0.022556 0.134528 0.026917 0.000000 0.018044 0.000000
# 3 -0.008460 0.026917 0.024552 0.000000 -0.001397 0.000000
# 4 0.000000 0.000000 0.000000 0.022504 0.000000 0.076292
# 5 -0.004253 0.018044 -0.001397 0.000000 0.037036 0.000000
# 6 0.000000 0.000000 0.000000 0.076292 0.000000 -0.024683
#
#
# Mechanical properties :
#
#
# Convention : Reuss Voigt Hill
#
# Bulk Modulus (GPa) = 6.16454 34.72240 20.44347
# Shear Modulus (GPa) = 18.68846 18.40890 18.54868
#
# Velocity S-wave (km/s) = 3.16730 3.14352 3.15543
# Velocity P-wave (km/s) = 4.08470 5.64041 4.92438
#
# Compressibility (1/GPa) = 0.16221818
#
# Stress axis : x y z
#
# Youngs Moduli (GPa) = 88.21265 7.43338 40.72963
#
# Poissons Ratio (x) = 0.16767 0.34458
# Poissons Ratio (y) = 1.98973 -1.09632
# Poissons Ratio (z) = 0.74629 -0.20008
#
# Static dielectric constant tensor:
#      x y z
#    x 1.676370 0.000000 0.010240 
#    y 0.000000 1.673830 0.000000 
#    z 0.010240 0.000000 1.633440 
# 
# From -- ./inp_files/158194.got.cif
#   From: 2010.05.17/outbox.cif.g08.bks.cpg/sg12_80_cif.got.tgz:158194.got - 2010.06.03 13:09:07.
