data_PCOD9186667
_publ_section_title
;
Structure prediction by ZEFSAII (Michael W. Deem and Ramdas Pophale) SiO2 
 PCOD9186667
Probable space group: C 2/M
;
_chemical_formula_sum "Si O2"
_cell_formula_units_Z 56
_cell_length_a 14.666445
_cell_length_b 18.246068
_cell_length_c 13.595866
_cell_angle_alpha 90.000000
_cell_angle_beta 49.601156
_cell_angle_gamma 90.000000
_cell_volume 2770.768453
_symmetry_space_group_name_H-M "C 2/M"
_symmetry_group_IT_number 12
_symmetry_cell_setting 'monoclinic'
loop_
_space_group_symop_operation_xyz
x,y,z
-x,y,-z
-x,-y,-z
x,-y,z
1/2+x,1/2+y,z
1/2-x,1/2+y,-z
1/2-x,1/2-y,-z
1/2+x,1/2-y,z
loop_
_atom_site_type_symbol
_atom_site_label
_atom_site_fract_x
_atom_site_fract_y
_atom_site_fract_z
Si Si1 0.334352 0.326144 0.203868
Si Si2 0.610287 0.085631 0.348222
Si Si3 0.980552 0.687661 0.758758
Si Si4 0.557321 0.683924 0.563729
Si Si5 0.208990 0.659537 0.706326
Si Si6 0.342324 0.413141 0.789848
Si Si7 0.607498 0.679882 0.065432
O O1 0.234079 0.383613 0.305352
O O2 0.292866 0.245156 0.262930
O O3 0.465607 0.340737 0.156356
O O4 0.347058 0.324391 0.076999
O O5 0.500000 0.095618 0.500000
O O6 0.584231 0.133585 0.269963
O O7 0.620927 0.000000 0.317960
O O8 0.050711 0.748204 0.642786
O O9 0.077784 0.645222 0.755877
O O10 0.895695 0.738288 0.886112
O O11 0.500000 0.709419 0.500000
O O12 0.688196 0.653544 0.448187
O O13 0.468328 0.620783 0.663733
O O14 0.247124 0.613344 0.774721
O O15 0.344930 0.500000 0.795518
O O16 0.326260 0.374112 0.906155
#
# Coordination Sequence:
#
# PCOD9186667 Si02
#       7
#     8   8   8   8   8   8   8
#     4  10  20  40  62  84 109 136 186 240 279 328
#     4  11  24  38  54  81 118 155 184 219 271 330
#     4  10  19  35  55  80 110 140 185 229 268 328
#     4   9  17  31  53  79 105 144 186 230 278 313
#     4  10  20  32  55  81 106 146 184 225 275 320
#     4  10  21  35  51  80 118 149 183 224 272 332
#     4   9  21  38  63  87 104 138 184 238 290 318
#
# _framework density 20.210998
#
# number of rings (size 3 to 8) (size 9 to 14) (size 15 to 20)
#    0.000    2.143    0.000    4.286    0.000    8.857 
#    0.000    2.857    0.000    0.000    0.000    6.000 
#    0.000    0.000    0.000    0.000    0.000    0.000 
#
# Total GULP energy -156467.121533 kJ/mol
# GULP energy per Si atom -5588.111483 kJ/mol
# Density = 2.016500 g / cm^3
# Si number density = 20.210998 Si / 1000 Ang^3
#
#
#
# Elastic Constant Matrix: (Units=GPa)
#
#
# Indices 1 2 3 4 5 6 
#
# 1 88.3483 48.3559 23.3870 0.0000 2.2493 0.0000
# 2 48.3559 82.8356 9.4753 0.0000 -4.6891 0.0000
# 3 23.3870 9.4753 45.6808 0.0000 4.0824 0.0000
# 4 0.0000 0.0000 0.0000 13.3022 0.0000 0.1186
# 5 2.2493 -4.6891 4.0824 0.0000 29.6613 0.0000
# 6 0.0000 0.0000 0.0000 0.1186 0.0000 -3.7591
#
#
#
# Elastic Compliance Matrix: (Units=1/GPa)
#
#
# Indices 1 2 3 4 5 6 
#
# 1 0.019000 -0.010362 -0.007394 0.000000 -0.002061 0.000000
# 2 -0.010362 0.018179 0.001222 0.000000 0.003491 0.000000
# 3 -0.007394 0.001222 0.025671 0.000000 -0.002779 0.000000
# 4 0.000000 0.000000 0.000000 0.075154 0.000000 0.002371
# 5 -0.002061 0.003491 -0.002779 0.000000 0.034805 0.000000
# 6 0.000000 0.000000 0.000000 0.002371 0.000000 -0.265946
#
#
# Mechanical properties :
#
#
# Convention : Reuss Voigt Hill
#
# Bulk Modulus (GPa) = 33.57639 42.14456 37.86047
# Shear Modulus (GPa) = -99.71956 16.88398 -41.41779
#
# Velocity S-wave (km/s) = -7.03181 2.89344 -4.53180
# Velocity P-wave (km/s) = 7.01994 5.66217 2.93422
#
# Compressibility (1/GPa) = 0.02978283
#
# Stress axis : x y z
#
# Youngs Moduli (GPa) = 52.63079 55.00826 38.95408
#
# Poissons Ratio (x) = 0.57002 0.28802
# Poissons Ratio (y) = 0.54539 -0.04762
# Poissons Ratio (z) = 0.38914 -0.06724
#
# Static dielectric constant tensor:
#      x y z
#    x 1.762730 0.000000 -0.015190 
#    y 0.000000 1.658360 0.000000 
#    z -0.015190 0.000000 1.748780 
# 
# From -- ./inp_files/216310.got.cif
#   From: 2010.05.17/outbox.cif.g08.bks.cpg/sg12_109_cif.got.tgz:216310.got - 2010.06.03 13:09:07.
