data_PCOD9186913
_publ_section_title
;
Structure prediction by ZEFSAII (Michael W. Deem and Ramdas Pophale) SiO2 
 PCOD9186913
Probable space group: C 2/M
;
_chemical_formula_sum "Si O2"
_cell_formula_units_Z 56
_cell_length_a 19.677056
_cell_length_b 8.309405
_cell_length_c 28.061024
_cell_angle_alpha 90.000000
_cell_angle_beta 40.180570
_cell_angle_gamma 90.000000
_cell_volume 2960.240548
_symmetry_space_group_name_H-M "C 2/M"
_symmetry_group_IT_number 12
_symmetry_cell_setting 'monoclinic'
loop_
_space_group_symop_operation_xyz
x,y,z
-x,y,-z
-x,-y,-z
x,-y,z
1/2+x,1/2+y,z
1/2-x,1/2+y,-z
1/2-x,1/2-y,-z
1/2+x,1/2-y,z
loop_
_atom_site_type_symbol
_atom_site_label
_atom_site_fract_x
_atom_site_fract_y
_atom_site_fract_z
Si Si1 0.812128 0.307521 0.284306
Si Si2 0.284321 0.811725 0.929766
Si Si3 0.299423 0.320202 0.188896
Si Si4 0.012188 0.697098 0.239563
Si Si5 0.453521 0.816267 0.672708
Si Si6 0.615905 0.815442 0.947813
Si Si7 0.572877 0.804316 0.416745
O O1 0.813516 0.500000 0.278345
O O2 0.840635 0.228546 0.218404
O O3 0.692740 0.254263 0.359464
O O4 0.901223 0.262397 0.274677
O O5 0.389373 0.746279 0.846214
O O6 0.187026 0.779627 0.946653
O O7 0.303418 0.000000 0.925024
O O8 0.250000 0.750000 0.000000
O O9 0.335373 0.500000 0.156275
O O10 0.173280 0.324459 0.258840
O O11 0.329457 0.195112 0.132594
O O12 0.021023 0.500000 0.237181
O O13 0.016343 0.756375 0.292182
O O14 0.473671 0.744570 0.609337
O O15 0.495721 0.000000 0.649680
O O16 0.606683 0.000000 0.969404
O O17 0.500000 0.749238 0.000000
O O18 0.500000 0.757728 0.500000
O O19 0.576334 0.000000 0.412166
#
# Coordination Sequence:
#
# PCOD9186913 Si02
#       7
#     8   8   8   8   8   8   8
#     4  10  20  33  54  82 111 143 180 225 277 332
#     4  11  23  40  58  80 111 149 193 238 289 340
#     4  10  19  35  57  78 103 140 185 231 275 330
#     4   9  18  34  55  77 107 145 183 225 276 333
#     4   8  14  30  55  77  99 136 179 216 263 324
#     4  11  24  39  55  78 110 145 186 238 291 337
#     4   9  18  34  57  83 111 143 182 229 275 324
#
# _framework density 18.917380999999999
#
# number of rings (size 3 to 8) (size 9 to 14) (size 15 to 20)
#    0.000    2.286    1.429    2.571    2.000    1.429 
#    0.000    2.857    0.000    0.000    0.000    0.000 
#    0.000    0.000    0.000    0.000    0.000    0.000 
#
# Total GULP energy -156018.803866 kJ/mol
# GULP energy per Si atom -5572.100138 kJ/mol
# Density = 1.887432 g / cm^3
# Si number density = 18.917381 Si / 1000 Ang^3
#
#
#
# Elastic Constant Matrix: (Units=GPa)
#
#
# Indices 1 2 3 4 5 6 
#
# 1 159.6340 12.2492 63.3698 0.0000 24.9929 0.0001
# 2 12.2492 21.0100 6.1795 0.0000 2.0769 0.0002
# 3 63.3698 6.1795 91.8294 0.0000 24.9023 -0.0002
# 4 0.0000 0.0000 0.0000 20.6260 0.0000 -2.0215
# 5 24.9929 2.0769 24.9023 0.0000 26.8229 0.0000
# 6 0.0001 0.0002 -0.0002 -2.0215 0.0000 41.5026
#
#
#
# Elastic Compliance Matrix: (Units=1/GPa)
#
#
# Indices 1 2 3 4 5 6 
#
# 1 0.009100 -0.003461 -0.005106 0.000000 -0.003471 0.000000
# 2 -0.003461 0.049893 -0.001064 0.000000 0.000349 0.000000
# 3 -0.005106 -0.001064 0.017604 0.000000 -0.011504 0.000000
# 4 0.000000 0.000000 0.000000 0.048715 0.000000 0.002373
# 5 -0.003471 0.000349 -0.011504 0.000000 0.051170 0.000000
# 6 0.000000 0.000000 0.000000 0.002373 0.000000 0.024210
#
#
# Mechanical properties :
#
#
# Convention : Reuss Voigt Hill
#
# Bulk Modulus (GPa) = 17.44092 48.45227 32.94659
# Shear Modulus (GPa) = 20.91485 30.50197 25.70841
#
# Velocity S-wave (km/s) = 3.32865 4.01980 3.69044
# Velocity P-wave (km/s) = 4.90028 6.87119 5.96766
#
# Compressibility (1/GPa) = 0.05733643
#
# Stress axis : x y z
#
# Youngs Moduli (GPa) = 109.88866 20.04308 56.80417
#
# Poissons Ratio (x) = 0.06936 0.29002
# Poissons Ratio (y) = 0.38030 0.06044
# Poissons Ratio (z) = 0.56105 0.02132
#
# Static dielectric constant tensor:
#      x y z
#    x 1.657340 0.000000 0.017820 
#    y 0.000000 1.679010 0.000000 
#    z 0.017820 0.000000 1.686000 
# 
# From -- ./inp_files/342286.got.cif
#   From: 2010.05.17/outbox.cif.g08.bks.cpg/sg12_172_cif.got.tgz:342286.got - 2010.06.03 13:09:07.
