data_PCOD9186677
_publ_section_title
;
Structure prediction by ZEFSAII (Michael W. Deem and Ramdas Pophale) SiO2 
 PCOD9186677
Probable space group: C 2/M
;
_chemical_formula_sum "Si O2"
_cell_formula_units_Z 40
_cell_length_a 19.111463
_cell_length_b 13.070283
_cell_length_c 27.058505
_cell_angle_alpha 90.000000
_cell_angle_beta 160.786920
_cell_angle_gamma 90.000000
_cell_volume 2224.268202
_symmetry_space_group_name_H-M "C 2/M"
_symmetry_group_IT_number 12
_symmetry_cell_setting 'monoclinic'
loop_
_space_group_symop_operation_xyz
x,y,z
-x,y,-z
-x,-y,-z
x,-y,z
1/2+x,1/2+y,z
1/2-x,1/2+y,-z
1/2-x,1/2-y,-z
1/2+x,1/2-y,z
loop_
_atom_site_type_symbol
_atom_site_label
_atom_site_fract_x
_atom_site_fract_y
_atom_site_fract_z
Si Si1 0.751565 0.621884 0.625184
Si Si2 0.093002 0.884209 0.117703
Si Si3 0.402725 0.113341 0.988125
Si Si4 0.189359 0.808942 0.692200
Si Si5 0.709285 0.791815 0.917179
O O1 0.745386 0.500000 0.632036
O O2 0.545934 0.648436 0.454740
O O3 0.718108 0.690012 0.652224
O O4 0.982484 0.654452 0.760242
O O5 0.259820 0.797410 0.246107
O O6 0.175035 0.000000 0.175551
O O7 0.000000 0.869974 0.000000
O O8 0.896834 0.867282 0.024709
O O9 0.615736 0.118006 0.162829
O O10 0.311518 0.000000 0.926061
O O11 0.500000 0.139631 0.000000
O O12 0.240843 0.195239 0.901816
O O13 0.750000 0.750000 0.000000
#
# Coordination Sequence:
#
# PCOD9186677 Si02
#       5
#     8   8   8   8   8
#     4  11  21  34  55  84 117 148 184 234 288 334
#     4  10  21  39  60  81 113 155 189 224 279 342
#     4  10  20  36  57  81 112 150 189 231 278 330
#     4  10  19  35  55  81 111 148 191 228 278 335
#     4  11  20  34  56  85 113 141 189 237 280 327
#
# _framework density 17.983443000000001
#
# number of rings (size 3 to 8) (size 9 to 14) (size 15 to 20)
#    0.000    1.600    4.000    5.400    0.000    0.800 
#    0.000    7.000    0.000    4.800    0.000    0.000 
#    0.000    0.000    0.000    0.000    0.000    0.000 
#
# Total GULP energy -111359.623947 kJ/mol
# GULP energy per Si atom -5567.981197 kJ/mol
# Density = 1.794251 g / cm^3
# Si number density = 17.983443 Si / 1000 Ang^3
#
#
#
# Elastic Constant Matrix: (Units=GPa)
#
#
# Indices 1 2 3 4 5 6 
#
# 1 64.2361 26.6819 14.4607 -0.0196 -3.0449 0.0147
# 2 26.6819 149.5202 22.2879 -0.0014 -5.3294 0.0269
# 3 14.4607 22.2879 97.8959 -0.0273 10.4033 0.0894
# 4 -0.0196 -0.0014 -0.0273 18.5945 0.0133 -3.5549
# 5 -3.0449 -5.3294 10.4033 0.0133 16.6187 0.0114
# 6 0.0147 0.0269 0.0894 -3.5549 0.0114 30.5799
#
#
#
# Elastic Compliance Matrix: (Units=1/GPa)
#
#
# Indices 1 2 3 4 5 6 
#
# 1 0.017368 -0.002608 -0.002379 0.000012 0.003835 0.000001
# 2 -0.002608 0.007503 -0.001637 -0.000007 0.002953 -0.000003
# 3 -0.002379 -0.001637 0.011828 0.000016 -0.008365 -0.000027
# 4 0.000012 -0.000007 0.000016 0.055002 -0.000058 0.006394
# 5 0.003835 0.002953 -0.008365 -0.000058 0.067059 -0.000012
# 6 0.000001 -0.000003 -0.000027 0.006394 -0.000012 0.033445
#
#
# Mechanical properties :
#
#
# Convention : Reuss Voigt Hill
#
# Bulk Modulus (GPa) = 42.64228 48.72368 45.68298
# Shear Modulus (GPa) = 23.44447 29.70674 26.57560
#
# Velocity S-wave (km/s) = 3.61455 4.06876 3.84836
# Velocity P-wave (km/s) = 6.41743 7.01609 6.72343
#
# Compressibility (1/GPa) = 0.02345090
#
# Stress axis : x y z
#
# Youngs Moduli (GPa) = 57.57608 133.28598 84.54503
#
# Poissons Ratio (x) = 0.34761 0.20117
# Poissons Ratio (y) = 0.15016 0.13837
# Poissons Ratio (z) = 0.13700 0.21814
#
# Static dielectric constant tensor:
#      x y z
#    x 1.516580 -0.000040 0.073580 
#    y -0.000040 1.637440 0.000020 
#    z 0.073580 0.000020 1.572670 
# 
# From -- ./inp_files/364047.got.cif
#   From: 2010.05.17/outbox.cif.g08.bks.cpg/sg12_183_cif.got.tgz:364047.got - 2010.06.03 13:09:07.
