data_PCOD9186698
_publ_section_title
;
Structure prediction by ZEFSAII (Michael W. Deem and Ramdas Pophale) SiO2 
 PCOD9186698
Probable space group: C 2/M
;
_chemical_formula_sum "Si O2"
_cell_formula_units_Z 60
_cell_length_a 10.455080
_cell_length_b 23.738339
_cell_length_c 10.756707
_cell_angle_alpha 90.000000
_cell_angle_beta 104.950747
_cell_angle_gamma 90.000000
_cell_volume 2579.292925
_symmetry_space_group_name_H-M "C 2/M"
_symmetry_group_IT_number 12
_symmetry_cell_setting 'monoclinic'
loop_
_space_group_symop_operation_xyz
x,y,z
-x,y,-z
-x,-y,-z
x,-y,z
1/2+x,1/2+y,z
1/2-x,1/2+y,-z
1/2-x,1/2-y,-z
1/2+x,1/2-y,z
loop_
_atom_site_type_symbol
_atom_site_label
_atom_site_fract_x
_atom_site_fract_y
_atom_site_fract_z
Si Si1 0.664615 0.752403 0.354316
Si Si2 0.411759 0.369234 0.603495
Si Si3 0.147914 0.901191 0.796479
Si Si4 0.143438 0.064215 0.057999
Si Si5 0.745383 0.788679 0.117476
Si Si6 0.408989 0.932656 0.221873
Si Si7 0.500000 0.868746 0.000000
Si Si8 0.345303 0.881424 0.615230
O O1 0.750000 0.750000 0.500000
O O2 0.587201 0.694056 0.341735
O O3 0.742575 0.753956 0.244077
O O4 0.609541 0.816315 0.350436
O O5 0.500000 0.365729 0.500000
O O6 0.498906 0.411758 0.709642
O O7 0.260984 0.384000 0.524800
O O8 0.145928 0.836838 0.844192
O O9 0.252429 0.901997 0.708480
O O10 0.194484 0.936027 0.927348
O O11 0.255895 0.088937 0.176547
O O12 0.120281 0.000000 0.093117
O O13 0.000000 0.091915 0.000000
O O14 0.750000 0.750000 0.000000
O O15 0.615657 0.826712 0.068667
O O16 0.517203 0.915004 0.351430
O O17 0.402283 0.000000 0.215648
O O18 0.466063 0.906902 0.108946
#
# Coordination Sequence:
#
# PCOD9186698 Si02
#       8
#     8   8   8   8   8   8   4   8
#     4   9  18  37  59  81 124 176 218 261 314 386
#     4   9  19  34  59  87 123 171 218 264 318 386
#     4  10  19  35  55  82 118 158 199 257 320 379
#     4  10  22  39  59  85 117 159 208 257 325 413
#     4  11  24  36  56  92 134 170 211 277 331 383
#     4  11  20  36  65  91 122 168 211 271 343 392
#     4  12  21  40  56  92 140 164 209 278 330 394
#     4   9  18  36  58  88 121 152 209 274 309 376
#
# _framework density 23.262188999999999
#
# number of rings (size 3 to 8) (size 9 to 14) (size 15 to 20)
#    0.000    2.000    4.000    1.000    1.867    2.667 
#    0.000    0.667    2.933    2.400    0.000    2.800 
#    0.000    0.000    0.000    0.000    0.000    0.000 
#
# Total GULP energy -167202.481130 kJ/mol
# GULP energy per Si atom -5573.416038 kJ/mol
# Density = 2.320924 g / cm^3
# Si number density = 23.262189 Si / 1000 Ang^3
#
#
#
# Elastic Constant Matrix: (Units=GPa)
#
#
# Indices 1 2 3 4 5 6 
#
# 1 107.3001 29.5496 53.0044 0.0000 55.2598 0.0000
# 2 29.5496 41.9348 31.2839 0.0000 9.3382 0.0000
# 3 53.0044 31.2839 123.6835 0.0000 21.6896 0.0000
# 4 0.0000 0.0000 0.0000 30.5969 0.0000 3.4127
# 5 55.2598 9.3382 21.6896 0.0000 54.1918 0.0000
# 6 0.0000 0.0000 0.0000 3.4127 0.0000 21.6946
#
#
#
# Elastic Compliance Matrix: (Units=1/GPa)
#
#
# Indices 1 2 3 4 5 6 
#
# 1 0.026367 -0.009873 -0.004717 0.000000 -0.023297 0.000000
# 2 -0.009873 0.033346 -0.005336 0.000000 0.006457 0.000000
# 3 -0.004717 -0.005336 0.011240 0.000000 0.001230 0.000000
# 4 0.000000 0.000000 0.000000 0.033267 0.000000 -0.005233
# 5 -0.023297 0.006457 0.001230 0.000000 0.040604 0.000000
# 6 0.000000 0.000000 0.000000 -0.005233 0.000000 0.046918
#
#
# Mechanical properties :
#
#
# Convention : Reuss Voigt Hill
#
# Bulk Modulus (GPa) = 32.15161 55.62159 43.88660
# Shear Modulus (GPa) = 20.66456 31.90202 26.28329
#
# Velocity S-wave (km/s) = 2.98372 3.70727 3.36500
# Velocity P-wave (km/s) = 5.07164 6.50291 5.83135
#
# Compressibility (1/GPa) = 0.03110264
#
# Stress axis : x y z
#
# Youngs Moduli (GPa) = 37.92669 29.98839 88.96529
#
# Poissons Ratio (x) = 0.29607 0.41962
# Poissons Ratio (y) = 0.37444 0.47470
# Poissons Ratio (z) = 0.17889 0.16001
#
# Static dielectric constant tensor:
#      x y z
#    x 2.018320 0.000000 0.037290 
#    y 0.000000 1.882930 0.000000 
#    z 0.037290 0.000000 1.895420 
# 
# From -- ./inp_files/135453.got.cif
#   From: 2010.05.17/outbox.cif.g08.bks.cpg/sg12_68_cif.got.tgz:135453.got - 2010.06.03 13:09:07.
