data_PCOD9186502
_publ_section_title
;
Structure prediction by ZEFSAII (Michael W. Deem and Ramdas Pophale) SiO2 
 PCOD9186502
Probable space group: C 2/M
;
_chemical_formula_sum "Si O2"
_cell_formula_units_Z 52
_cell_length_a 15.350590
_cell_length_b 19.949039
_cell_length_c 19.879101
_cell_angle_alpha 90.000000
_cell_angle_beta 30.491160
_cell_angle_gamma 90.000000
_cell_volume 3088.864751
_symmetry_space_group_name_H-M "C 2/M"
_symmetry_group_IT_number 12
_symmetry_cell_setting 'monoclinic'
loop_
_space_group_symop_operation_xyz
x,y,z
-x,y,-z
-x,-y,-z
x,-y,z
1/2+x,1/2+y,z
1/2-x,1/2+y,-z
1/2-x,1/2-y,-z
1/2+x,1/2-y,z
loop_
_atom_site_type_symbol
_atom_site_label
_atom_site_fract_x
_atom_site_fract_y
_atom_site_fract_z
Si Si1 0.300928 0.160890 0.419268
Si Si2 0.500000 0.857748 0.500000
Si Si3 0.956968 0.580860 0.191935
Si Si4 0.306980 0.420012 0.375193
Si Si5 0.482535 0.247245 0.627958
Si Si6 0.181295 0.351206 0.849938
Si Si7 0.188711 0.920136 0.103983
O O1 0.377330 0.114046 0.310934
O O2 0.233596 0.117786 0.527829
O O3 0.445060 0.210970 0.353289
O O4 0.141453 0.205401 0.499486
O O5 0.658058 0.901199 0.422066
O O6 0.552115 0.809403 0.404057
O O7 0.946903 0.500000 0.201033
O O8 0.857415 0.608641 0.192671
O O9 0.156801 0.601921 0.047709
O O10 0.310919 0.500000 0.383568
O O11 0.493517 0.396577 0.224233
O O12 0.317291 0.292592 0.748848
O O13 0.256180 0.399770 0.857541
O O14 0.000000 0.325808 0.000000
O O15 0.185518 0.000000 0.101008
#
# Coordination Sequence:
#
# PCOD9186502 Si02
#       7
#     8   4   8   8   8   8   8
#     4  10  20  35  56  76 105 139 171 212 260 305
#     4  10  21  34  54  76 101 136 174 222 258 294
#     4  10  20  34  54  82 108 133 168 214 264 306
#     4  10  19  35  57  77 100 134 178 217 255 307
#     4  10  20  36  52  74 108 139 174 210 256 303
#     4  10  19  35  53  77 105 141 175 206 251 312
#     4   9  18  34  54  76 107 139 169 210 259 309
#
# _framework density 16.834664
#
# number of rings (size 3 to 8) (size 9 to 14) (size 15 to 20)
#    0.000    2.154    1.538    2.077    0.000    1.846 
#    2.769    2.308    0.000    0.000    0.000    7.538 
#    0.000    0.000    0.000    0.000    0.000    0.000 
#
# Total GULP energy -144967.680920 kJ/mol
# GULP energy per Si atom -5575.680035 kJ/mol
# Density = 1.679635 g / cm^3
# Si number density = 16.834664 Si / 1000 Ang^3
#
#
#
# Elastic Constant Matrix: (Units=GPa)
#
#
# Indices 1 2 3 4 5 6 
#
# 1 47.9837 19.4655 47.9059 0.0056 -10.1056 0.0125
# 2 19.4655 56.9427 44.3552 0.0123 2.8247 -0.0008
# 3 47.9059 44.3552 106.7719 0.0225 -10.3738 0.0048
# 4 0.0056 0.0123 0.0225 27.3836 0.0029 -3.8039
# 5 -10.1056 2.8247 -10.3738 0.0029 22.7196 -0.0041
# 6 0.0125 -0.0008 0.0048 -3.8039 -0.0041 24.1581
#
#
#
# Elastic Compliance Matrix: (Units=1/GPa)
#
#
# Indices 1 2 3 4 5 6 
#
# 1 0.039888 -0.001495 -0.016255 0.000003 0.010506 -0.000015
# 2 -0.001495 0.027701 -0.011758 -0.000001 -0.009478 0.000002
# 3 -0.016255 -0.011758 0.021957 -0.000009 0.004257 0.000003
# 4 0.000003 -0.000001 -0.000009 0.037335 -0.000007 0.005879
# 5 0.010506 -0.009478 0.004257 -0.000007 0.051810 0.000001
# 6 -0.000015 0.000002 0.000003 0.005879 0.000001 0.042320
#
#
# Mechanical properties :
#
#
# Convention : Reuss Voigt Hill
#
# Bulk Modulus (GPa) = 32.75352 48.35014 40.55183
# Shear Modulus (GPa) = 17.22929 21.51705 19.37317
#
# Velocity S-wave (km/s) = 3.20260 3.57899 3.39601
# Velocity P-wave (km/s) = 5.75967 6.77213 6.28632
#
# Compressibility (1/GPa) = 0.03053107
#
# Stress axis : x y z
#
# Youngs Moduli (GPa) = 25.07012 36.09930 45.54336
#
# Poissons Ratio (x) = 0.05396 0.74031
# Poissons Ratio (y) = 0.03747 0.53549
# Poissons Ratio (z) = 0.40752 0.42445
#
# Static dielectric constant tensor:
#      x y z
#    x 1.550590 0.000000 -0.016750 
#    y 0.000000 1.553260 0.000000 
#    z -0.016750 0.000000 1.577900 
# 
# From -- ./inp_files/64826.got.cif
#   From: 2010.05.17/outbox.cif.g08.bks.cpg/sg12_33_cif.got.tgz:64826.got - 2010.06.03 13:09:07.
