data_PCOD9186511
_publ_section_title
;
Structure prediction by ZEFSAII (Michael W. Deem and Ramdas Pophale) SiO2 
 PCOD9186511
Probable space group: C 2/M
;
_chemical_formula_sum "Si O2"
_cell_formula_units_Z 56
_cell_length_a 23.654798
_cell_length_b 11.397427
_cell_length_c 20.192370
_cell_angle_alpha 90.000000
_cell_angle_beta 149.321897
_cell_angle_gamma 90.000000
_cell_volume 2777.576038
_symmetry_space_group_name_H-M "C 2/M"
_symmetry_group_IT_number 12
_symmetry_cell_setting 'monoclinic'
loop_
_space_group_symop_operation_xyz
x,y,z
-x,y,-z
-x,-y,-z
x,-y,z
1/2+x,1/2+y,z
1/2-x,1/2+y,-z
1/2-x,1/2-y,-z
1/2+x,1/2-y,z
loop_
_atom_site_type_symbol
_atom_site_label
_atom_site_fract_x
_atom_site_fract_y
_atom_site_fract_z
Si Si1 0.340169 0.136218 0.775167
Si Si2 0.217479 0.132392 0.508813
Si Si3 0.158865 0.750263 0.673525
Si Si4 0.992614 0.245924 0.274214
Si Si5 0.049246 0.358797 0.907276
Si Si6 0.303213 0.366521 0.162566
Si Si7 0.009215 0.628929 0.420466
O O1 0.274519 0.139375 0.638529
O O2 0.277970 0.223806 0.761972
O O3 0.466365 0.166605 0.884115
O O4 0.334932 0.000000 0.794182
O O5 0.250000 0.250000 0.500000
O O6 0.084614 0.146319 0.378320
O O7 0.244702 0.000000 0.510238
O O8 0.141249 0.854480 0.708798
O O9 0.080590 0.726113 0.531519
O O10 0.116804 0.645291 0.679661
O O11 0.992785 0.293907 0.200653
O O12 0.873452 0.202021 0.178986
O O13 0.019661 0.348333 0.353781
O O14 0.042995 0.500000 0.891554
O O15 0.177129 0.324912 0.044639
O O16 0.299216 0.500000 0.137598
O O17 0.049943 0.500000 0.478311
#
# Coordination Sequence:
#
# PCOD9186511 Si02
#       7
#     8   8   8   8   8   8   8
#     4  10  20  35  55  82 114 149 188 235 291 348
#     4  11  22  37  57  88 125 156 195 246 301 363
#     4  10  19  35  53  80 111 147 186 233 289 343
#     4  11  20  37  59  86 115 149 187 243 304 349
#     4  10  21  37  58  82 113 150 196 242 286 350
#     4  10  22  37  55  82 112 151 194 239 290 349
#     4  10  21  36  57  85 115 148 195 244 297 357
#
# _framework density 20.161463999999999
#
# number of rings (size 3 to 8) (size 9 to 14) (size 15 to 20)
#    0.000    1.714    2.857    2.571    0.000    1.143 
#    0.000    5.714    0.000    2.571    0.000    9.000 
#    0.000    0.000    0.000    0.000    0.000    0.000 
#
# Total GULP energy -155884.774371 kJ/mol
# GULP energy per Si atom -5567.313370 kJ/mol
# Density = 2.011558 g / cm^3
# Si number density = 20.161464 Si / 1000 Ang^3
#
#
#
# Elastic Constant Matrix: (Units=GPa)
#
#
# Indices 1 2 3 4 5 6 
#
# 1 93.1356 31.5659 19.2234 0.0000 18.6152 0.0000
# 2 31.5659 53.7725 12.7719 0.0000 8.0352 0.0000
# 3 19.2234 12.7719 55.8010 0.0000 19.0991 0.0000
# 4 0.0000 0.0000 0.0000 18.9223 0.0000 3.4520
# 5 18.6152 8.0352 19.0991 0.0000 40.0879 0.0000
# 6 0.0000 0.0000 0.0000 3.4520 0.0000 15.2946
#
#
#
# Elastic Compliance Matrix: (Units=1/GPa)
#
#
# Indices 1 2 3 4 5 6 
#
# 1 0.014504 -0.007432 -0.001792 0.000000 -0.004391 0.000000
# 2 -0.007432 0.023630 -0.002878 0.000000 0.000086 0.000000
# 3 -0.001792 -0.002878 0.022361 0.000000 -0.009244 0.000000
# 4 0.000000 0.000000 0.000000 0.055117 0.000000 -0.012440
# 5 -0.004391 0.000086 -0.009244 0.000000 0.031371 0.000000
# 6 0.000000 0.000000 0.000000 -0.012440 0.000000 0.068190
#
#
# Mechanical properties :
#
#
# Convention : Reuss Voigt Hill
#
# Bulk Modulus (GPa) = 27.55515 36.64795 32.10155
# Shear Modulus (GPa) = 19.88268 24.13746 22.01007
#
# Velocity S-wave (km/s) = 3.14375 3.46382 3.30766
# Velocity P-wave (km/s) = 5.18405 5.84928 5.52669
#
# Compressibility (1/GPa) = 0.03629085
#
# Stress axis : x y z
#
# Youngs Moduli (GPa) = 68.94840 42.31840 44.72065
#
# Poissons Ratio (x) = 0.31451 0.08016
# Poissons Ratio (y) = 0.51243 0.12869
# Poissons Ratio (z) = 0.12358 0.12177
#
# Static dielectric constant tensor:
#      x y z
#    x 1.740920 0.000000 0.033050 
#    y 0.000000 1.708420 0.000000 
#    z 0.033050 0.000000 1.779190 
# 
# From -- ./inp_files/174474.got.cif
#   From: 2010.05.17/outbox.cif.g08.bks.cpg/sg12_88_cif.got.tgz:174474.got - 2010.06.03 13:09:07.
