data_PCOD9186656
_publ_section_title
;
Structure prediction by ZEFSAII (Michael W. Deem and Ramdas Pophale) SiO2 
 PCOD9186656
Probable space group: C 2/M
;
_chemical_formula_sum "Si O2"
_cell_formula_units_Z 48
_cell_length_a 11.564914
_cell_length_b 17.404471
_cell_length_c 20.934593
_cell_angle_alpha 90.000000
_cell_angle_beta 38.448992
_cell_angle_gamma 90.000000
_cell_volume 2620.178112
_symmetry_space_group_name_H-M "C 2/M"
_symmetry_group_IT_number 12
_symmetry_cell_setting 'monoclinic'
loop_
_space_group_symop_operation_xyz
x,y,z
-x,y,-z
-x,-y,-z
x,-y,z
1/2+x,1/2+y,z
1/2-x,1/2+y,-z
1/2-x,1/2-y,-z
1/2+x,1/2-y,z
loop_
_atom_site_type_symbol
_atom_site_label
_atom_site_fract_x
_atom_site_fract_y
_atom_site_fract_z
Si Si1 0.033086 0.301673 0.583226
Si Si2 0.166216 0.916134 0.605933
Si Si3 0.026269 0.683164 0.736147
Si Si4 0.893536 0.845456 0.239229
Si Si5 0.646585 0.590174 0.879265
Si Si6 0.419402 0.370907 0.600118
O O1 0.182921 0.351818 0.480133
O O2 0.077283 0.298839 0.639835
O O3 0.830579 0.338865 0.665611
O O4 0.001052 0.215996 0.571424
O O5 0.075681 0.899862 0.713655
O O6 0.003000 0.912667 0.624610
O O7 0.256625 0.000000 0.565783
O O8 0.021899 0.762725 0.777807
O O9 0.197780 0.635158 0.690864
O O10 0.832530 0.637711 0.816820
O O11 0.940470 0.876363 0.148829
O O12 0.692679 0.500000 0.849437
O O13 0.500000 0.596288 0.000000
O O14 0.500000 0.404316 0.500000
#
# Coordination Sequence:
#
# PCOD9186656 Si02
#       6
#     8   8   8   8   8   8
#     4  10  19  35  55  79 112 154 194 230 276 330
#     4  12  23  33  51  82 121 161 197 234 283 341
#     4  10  20  37  63  85 113 153 197 238 286 346
#     4  10  21  37  60  85 113 148 196 243 289 345
#     4  10  23  43  66  89 114 146 190 252 313 353
#     4  11  20  34  53  77 115 158 192 225 271 336
#
# _framework density 18.319365000000001
#
# number of rings (size 3 to 8) (size 9 to 14) (size 15 to 20)
#    0.000    1.500    3.333    3.500    0.000    5.667 
#    0.000    0.000    0.000    0.000    0.000    3.500 
#    0.000    0.000    0.000    0.000    0.000    0.000 
#
# Total GULP energy -133957.755451 kJ/mol
# GULP energy per Si atom -5581.573144 kJ/mol
# Density = 1.827767 g / cm^3
# Si number density = 18.319365 Si / 1000 Ang^3
#
#
#
# Elastic Constant Matrix: (Units=GPa)
#
#
# Indices 1 2 3 4 5 6 
#
# 1 114.8384 37.7056 43.0509 0.0004 22.2680 0.0007
# 2 37.7056 85.0221 40.7310 0.0005 7.7152 0.0006
# 3 43.0509 40.7310 74.1668 0.0027 18.2253 0.0014
# 4 0.0004 0.0005 0.0027 15.7788 -0.0008 -8.2834
# 5 22.2680 7.7152 18.2253 -0.0008 33.7240 -0.0007
# 6 0.0007 0.0006 0.0014 -8.2834 -0.0007 -7.8182
#
#
#
# Elastic Compliance Matrix: (Units=1/GPa)
#
#
# Indices 1 2 3 4 5 6 
#
# 1 0.012257 -0.002939 -0.004240 0.000000 -0.005129 0.000000
# 2 -0.002939 0.016711 -0.008082 0.000000 0.002485 -0.000001
# 3 -0.004240 -0.008082 0.022187 -0.000001 -0.007342 0.000005
# 4 0.000000 0.000000 -0.000001 0.040725 0.000000 -0.043148
# 5 -0.005129 0.002485 -0.007342 0.000000 0.036439 -0.000005
# 6 0.000000 -0.000001 0.000005 -0.043148 -0.000005 -0.082191
#
#
# Mechanical properties :
#
#
# Convention : Reuss Voigt Hill
#
# Bulk Modulus (GPa) = 48.46715 57.44472 52.95594
# Shear Modulus (GPa) = 59.85933 18.50621 39.18277
#
# Velocity S-wave (km/s) = 5.72245 3.18181 4.62981
# Velocity P-wave (km/s) = 8.37712 6.70254 7.58617
#
# Compressibility (1/GPa) = 0.02063253
#
# Stress axis : x y z
#
# Youngs Moduli (GPa) = 81.58530 59.83911 45.07094
#
# Poissons Ratio (x) = 0.17587 0.19111
# Poissons Ratio (y) = 0.23978 0.36428
# Poissons Ratio (z) = 0.34594 0.48365
#
# Static dielectric constant tensor:
#      x y z
#    x 1.669190 0.000000 0.015960 
#    y 0.000000 1.651550 0.000000 
#    z 0.015960 0.000000 1.601340 
# 
# From -- ./inp_files/132655.got.cif
#   From: 2010.05.17/outbox.cif.g08.bks.cpg/sg12_67_cif.got.tgz:132655.got - 2010.06.03 13:09:07.
