data_PCOD9186360
_publ_section_title
;
Structure prediction by ZEFSAII (Michael W. Deem and Ramdas Pophale) SiO2 
 PCOD9186360
Probable space group: C 2/M
;
_chemical_formula_sum "Si O2"
_cell_formula_units_Z 52
_cell_length_a 7.325125
_cell_length_b 25.888780
_cell_length_c 11.858437
_cell_angle_alpha 90.000000
_cell_angle_beta 74.238589
_cell_angle_gamma 90.000000
_cell_volume 2164.263885
_symmetry_space_group_name_H-M "C 2/M"
_symmetry_group_IT_number 12
_symmetry_cell_setting 'monoclinic'
loop_
_space_group_symop_operation_xyz
x,y,z
-x,y,-z
-x,-y,-z
x,-y,z
1/2+x,1/2+y,z
1/2-x,1/2+y,-z
1/2-x,1/2-y,-z
1/2+x,1/2-y,z
loop_
_atom_site_type_symbol
_atom_site_label
_atom_site_fract_x
_atom_site_fract_y
_atom_site_fract_z
Si Si1 0.807456 0.442773 0.108454
Si Si2 0.500000 0.110886 0.500000
Si Si3 0.056322 0.208025 0.701191
Si Si4 0.834435 0.831183 0.934464
Si Si5 0.909494 0.443179 0.746670
Si Si6 0.145853 0.338829 0.176506
Si Si7 0.285126 0.817898 0.376272
O O1 0.720767 0.500000 0.099199
O O2 0.694895 0.389392 0.108311
O O3 0.888491 0.444802 0.222591
O O4 0.000000 0.440036 0.000000
O O5 0.569305 0.076080 0.384759
O O6 0.660689 0.148680 0.524168
O O7 0.895446 0.209549 0.828258
O O8 0.929886 0.179274 0.629360
O O9 0.142137 0.258816 0.629439
O O10 0.229231 0.185070 0.744268
O O11 0.664602 0.817682 0.048103
O O12 0.000000 0.832218 0.000000
O O13 0.825747 0.500000 0.766931
O O14 0.795616 0.399099 0.831620
O O15 0.930533 0.336917 0.254354
#
# Coordination Sequence:
#
# PCOD9186360 Si02
#       7
#     8   4   8   8   8   8   8
#     4  10  19  34  61  90 118 161 203 245 308 371
#     4  10  23  40  66  94 120 166 209 262 318 358
#     4  11  23  40  60  89 122 163 210 256 310 366
#     4  10  21  35  55  88 130 162 205 253 301 374
#     4  10  20  38  66  94 126 161 206 255 308 377
#     4  10  21  40  59  92 127 166 203 250 320 361
#     4  11  23  42  61  83 122 160 212 264 304 366
#
# _framework density 24.026644999999998
#
# number of rings (size 3 to 8) (size 9 to 14) (size 15 to 20)
#    0.000    1.692    3.077    2.077    0.000    1.538 
#    2.769    2.308    0.000    5.538    0.000    0.000 
#    0.000    0.000    0.000    0.000    0.000    0.000 
#
# Total GULP energy -145094.406154 kJ/mol
# GULP energy per Si atom -5580.554083 kJ/mol
# Density = 2.397196 g / cm^3
# Si number density = 24.026645 Si / 1000 Ang^3
#
#
#
# Elastic Constant Matrix: (Units=GPa)
#
#
# Indices 1 2 3 4 5 6 
#
# 1 89.0690 20.5339 25.2745 0.0000 24.7259 0.0000
# 2 20.5339 100.8660 13.9449 0.0000 7.1492 0.0000
# 3 25.2745 13.9449 141.5084 0.0000 2.7555 0.0000
# 4 0.0000 0.0000 0.0000 28.0297 0.0000 16.6818
# 5 24.7259 7.1492 2.7555 0.0000 40.7774 0.0000
# 6 0.0000 0.0000 0.0000 16.6818 0.0000 5.6532
#
#
#
# Elastic Compliance Matrix: (Units=1/GPa)
#
#
# Indices 1 2 3 4 5 6 
#
# 1 0.014673 -0.002082 -0.002252 0.000000 -0.008380 0.000000
# 2 -0.002082 0.010465 -0.000649 0.000000 -0.000529 0.000000
# 3 -0.002252 -0.000649 0.007514 0.000000 0.000972 0.000000
# 4 0.000000 0.000000 0.000000 -0.047178 0.000000 0.139217
# 5 -0.008380 -0.000529 0.000972 0.000000 0.029632 0.000000
# 6 0.000000 0.000000 0.000000 0.139217 0.000000 -0.233921
#
#
# Mechanical properties :
#
#
# Convention : Reuss Voigt Hill
#
# Bulk Modulus (GPa) = 44.08124 50.10558 47.09341
# Shear Modulus (GPa) = -24.84006 33.00471 4.08233
#
# Velocity S-wave (km/s) = -3.21885 3.71033 1.30490
# Velocity P-wave (km/s) = 2.13822 6.26537 4.68118
#
# Compressibility (1/GPa) = 0.02268539
#
# Stress axis : x y z
#
# Youngs Moduli (GPa) = 68.15459 95.55534 133.08404
#
# Poissons Ratio (x) = 0.19891 0.29975
# Poissons Ratio (y) = 0.14187 0.08640
# Poissons Ratio (z) = 0.15351 0.06203
#
# Static dielectric constant tensor:
#      x y z
#    x 1.987580 0.000000 -0.071730 
#    y 0.000000 2.016780 0.000000 
#    z -0.071730 0.000000 2.047030 
# 
# From -- ./inp_files/123706.got.cif
#   From: 2010.05.17/outbox.cif.g08.bks.cpg/sg12_62_cif.got.tgz:123706.got - 2010.06.03 13:09:07.
