data_PCOD9186978
_publ_section_title
;
Structure prediction by ZEFSAII (Michael W. Deem and Ramdas Pophale) SiO2 
 PCOD9186978
Probable space group: C 2/M
;
_chemical_formula_sum "Si O2"
_cell_formula_units_Z 48
_cell_length_a 18.305399
_cell_length_b 13.712042
_cell_length_c 19.844812
_cell_angle_alpha 90.000000
_cell_angle_beta 155.355796
_cell_angle_gamma 90.000000
_cell_volume 2077.044429
_symmetry_space_group_name_H-M "C 2/M"
_symmetry_group_IT_number 12
_symmetry_cell_setting 'monoclinic'
loop_
_space_group_symop_operation_xyz
x,y,z
-x,y,-z
-x,-y,-z
x,-y,z
1/2+x,1/2+y,z
1/2-x,1/2+y,-z
1/2-x,1/2-y,-z
1/2+x,1/2-y,z
loop_
_atom_site_type_symbol
_atom_site_label
_atom_site_fract_x
_atom_site_fract_y
_atom_site_fract_z
Si Si1 0.630354 0.238684 0.215869
Si Si2 0.752101 0.317676 0.900748
Si Si3 0.287879 0.109228 0.590345
Si Si4 0.208467 0.394495 0.923105
Si Si5 0.732666 0.883693 0.578378
Si Si6 0.571153 0.739745 0.629926
O O1 0.729873 0.176568 0.359026
O O2 0.618996 0.340270 0.247886
O O3 0.734624 0.265641 0.235710
O O4 0.457800 0.176125 0.055709
O O5 0.739760 0.202427 0.907185
O O6 0.612032 0.333459 0.724808
O O7 0.718346 0.376954 0.940230
O O8 0.497999 0.104220 0.755637
O O9 0.223899 0.142476 0.462784
O O10 0.223788 0.000000 0.549750
O O11 0.262425 0.500000 0.941311
O O12 0.549982 0.831059 0.448934
O O13 0.715517 0.000000 0.567879
O O14 0.500000 0.698151 0.500000
#
# Coordination Sequence:
#
# PCOD9186978 Si02
#       6
#     8   8   8   8   8   8
#     4  10  21  33  54  84 113 140 181 234 280 319
#     4  10  19  35  57  81 111 143 183 233 274 321
#     4   9  17  34  58  81 106 145 191 228 267 327
#     4   9  18  33  57  84 108 142 185 229 278 326
#     4  10  20  36  57  80 111 150 188 222 272 337
#     4  10  21  36  56  79 112 152 184 216 273 339
#
# _framework density 23.109760999999999
#
# number of rings (size 3 to 8) (size 9 to 14) (size 15 to 20)
#    0.000    2.333    1.667    1.000    0.000    3.667 
#    0.000    0.833    0.000   15.000    0.000    0.000 
#    0.000    0.000    0.000    0.000    0.000    0.000 
#
# Total GULP energy -133740.403154 kJ/mol
# GULP energy per Si atom -5572.516798 kJ/mol
# Density = 2.305716 g / cm^3
# Si number density = 23.109761 Si / 1000 Ang^3
#
#
#
# Elastic Constant Matrix: (Units=GPa)
#
#
# Indices 1 2 3 4 5 6 
#
# 1 94.4584 12.2690 -2.0610 0.0077 -0.9694 0.0020
# 2 12.2690 56.2471 -26.8469 0.0028 2.0761 0.0003
# 3 -2.0610 -26.8469 78.6152 0.0072 -23.5465 0.0013
# 4 0.0077 0.0028 0.0072 14.8764 0.0017 5.2140
# 5 -0.9694 2.0761 -23.5465 0.0017 37.5189 -0.0007
# 6 0.0020 0.0003 0.0013 5.2140 -0.0007 13.3667
#
#
#
# Elastic Compliance Matrix: (Units=1/GPa)
#
#
# Indices 1 2 3 4 5 6 
#
# 1 0.010921 -0.002677 -0.000615 -0.000005 0.000045 0.000000
# 2 -0.002677 0.022438 0.008866 -0.000009 0.004254 0.000003
# 3 -0.000615 0.008866 0.019187 -0.000013 0.011535 0.000004
# 4 -0.000005 -0.000009 -0.000013 0.077866 -0.000012 -0.030373
# 5 0.000045 0.004254 0.011535 -0.000012 0.033658 0.000005
# 6 0.000000 0.000003 0.000004 -0.030373 0.000005 0.086660
#
#
# Mechanical properties :
#
#
# Convention : Reuss Voigt Hill
#
# Bulk Modulus (GPa) = 15.69994 21.78254 18.74124
# Shear Modulus (GPa) = 19.17085 29.54971 24.36028
#
# Velocity S-wave (km/s) = 2.88333 3.57973 3.25023
# Velocity P-wave (km/s) = 4.23003 5.15093 4.71303
#
# Compressibility (1/GPa) = 0.06369450
#
# Stress axis : x y z
#
# Youngs Moduli (GPa) = 91.56288 44.56816 52.11924
#
# Poissons Ratio (x) = 0.11932 0.03203
# Poissons Ratio (y) = 0.24514 -0.46210
# Poissons Ratio (z) = 0.05627 -0.39515
#
# Static dielectric constant tensor:
#      x y z
#    x 1.905640 0.000000 0.074910 
#    y 0.000000 1.847330 0.000000 
#    z 0.074910 0.000000 2.036740 
# 
# From -- ./inp_files/73654.got.cif
#   From: 2010.05.17/outbox.cif.g08.bks.cpg/sg12_37_cif.got.tgz:73654.got - 2010.06.03 13:09:07.
