data_PCOD9186247
_publ_section_title
;
Structure prediction by ZEFSAII (Michael W. Deem and Ramdas Pophale) SiO2 
 PCOD9186247
Probable space group: C 2/M
;
_chemical_formula_sum "Si O2"
_cell_formula_units_Z 64
_cell_length_a 9.080728
_cell_length_b 15.985017
_cell_length_c 28.781151
_cell_angle_alpha 90.000000
_cell_angle_beta 129.522489
_cell_angle_gamma 90.000000
_cell_volume 3222.607456
_symmetry_space_group_name_H-M "C 2/M"
_symmetry_group_IT_number 12
_symmetry_cell_setting 'monoclinic'
loop_
_space_group_symop_operation_xyz
x,y,z
-x,y,-z
-x,-y,-z
x,-y,z
1/2+x,1/2+y,z
1/2-x,1/2+y,-z
1/2-x,1/2-y,-z
1/2+x,1/2-y,z
loop_
_atom_site_type_symbol
_atom_site_label
_atom_site_fract_x
_atom_site_fract_y
_atom_site_fract_z
Si Si1 0.917680 0.747977 0.232035
Si Si2 0.458926 0.592061 0.691561
Si Si3 0.545479 0.594748 0.931457
Si Si4 0.184943 0.407471 0.307683
Si Si5 0.181379 0.405651 0.927528
Si Si6 0.997926 0.245500 0.147923
Si Si7 0.804803 0.342055 0.439683
Si Si8 0.450641 0.341355 0.439415
O O1 0.026109 0.830508 0.270811
O O2 0.708814 0.743323 0.212212
O O3 0.035901 0.665739 0.268371
O O4 0.869020 0.753030 0.167815
O O5 0.444986 0.500000 0.710331
O O6 0.651219 0.595054 0.698909
O O7 0.287196 0.606717 0.620862
O O8 0.556169 0.500000 0.914560
O O9 0.355041 0.598673 0.925125
O O10 0.541004 0.666069 0.892068
O O11 0.720554 0.606184 0.002573
O O12 0.097322 0.500000 0.289499
O O13 0.297147 0.391542 0.378324
O O14 0.100810 0.500000 0.908759
O O15 0.038587 0.331550 0.886740
O O16 0.642284 0.334104 0.446757
O O17 0.862416 0.250388 0.431921
O O18 0.000000 0.378267 0.500000
O O19 0.500000 0.377638 0.500000
#
# Coordination Sequence:
#
# PCOD9186247 Si02
#       8
#     8   8   8   8   8   8   8   8
#     4  12  24  40  61  85 122 159 203 248 289 343
#     4  10  22  41  62  84 118 159 198 244 301 357
#     4   9  19  38  63  92 124 154 196 244 291 347
#     4  10  22  41  63  84 116 160 201 243 296 358
#     4   9  19  38  64  91 121 160 196 236 293 358
#     4  12  23  38  63  91 120 158 199 248 290 345
#     4  10  19  34  60  86 115 150 190 242 298 357
#     4  10  19  34  60  87 115 148 190 244 301 353
#
# _framework density 19.859694999999999
#
# number of rings (size 3 to 8) (size 9 to 14) (size 15 to 20)
#    0.000    1.750    3.750    2.625    0.000    2.500 
#    2.250    0.000    0.000    1.500    0.000    0.000 
#    0.000    0.000    0.000    0.000    0.000    0.000 
#
# Total GULP energy -178635.541634 kJ/mol
# GULP energy per Si atom -5582.360676 kJ/mol
# Density = 1.981449 g / cm^3
# Si number density = 19.859695 Si / 1000 Ang^3
#
#
#
# Elastic Constant Matrix: (Units=GPa)
#
#
# Indices 1 2 3 4 5 6 
#
# 1 36.0257 26.0673 21.5497 0.0000 2.8006 0.0000
# 2 26.0673 175.4760 84.6639 0.0000 -1.0785 0.0000
# 3 21.5497 84.6639 85.2976 0.0000 -2.8140 0.0000
# 4 0.0000 0.0000 0.0000 -22.2096 0.0000 3.3572
# 5 2.8006 -1.0785 -2.8140 0.0000 30.0294 0.0000
# 6 0.0000 0.0000 0.0000 3.3572 0.0000 24.9451
#
#
#
# Elastic Compliance Matrix: (Units=1/GPa)
#
#
# Indices 1 2 3 4 5 6 
#
# 1 0.033389 -0.001636 -0.006937 0.000000 -0.003823 0.000000
# 2 -0.001636 0.011028 -0.010547 0.000000 -0.000440 0.000000
# 3 -0.006937 -0.010547 0.024028 0.000000 0.002520 0.000000
# 4 0.000000 0.000000 0.000000 -0.044128 0.000000 0.005939
# 5 -0.003823 -0.000440 0.002520 0.000000 0.033878 0.000000
# 6 0.000000 0.000000 0.000000 0.005939 0.000000 0.039289
#
#
# Mechanical properties :
#
#
# Convention : Reuss Voigt Hill
#
# Bulk Modulus (GPa) = 33.10883 62.37345 47.74114
# Shear Modulus (GPa) = 34.29523 17.52088 25.90805
#
# Velocity S-wave (km/s) = 4.16008 2.97346 3.61578
# Velocity P-wave (km/s) = 6.30734 6.57753 6.44385
#
# Compressibility (1/GPa) = 0.03020342
#
# Stress axis : x y z
#
# Youngs Moduli (GPa) = 29.95012 90.67865 41.61775
#
# Poissons Ratio (x) = 0.14838 0.28872
# Poissons Ratio (y) = 0.04901 0.43895
# Poissons Ratio (z) = 0.20777 0.95640
#
# Static dielectric constant tensor:
#      x y z
#    x 1.674280 0.000000 -0.000270 
#    y 0.000000 1.690050 0.000000 
#    z -0.000270 0.000000 1.696690 
# 
# From -- ./inp_files/372609.got.cif
#   From: 2010.05.17/outbox.cif.g08.bks.cpg/sg12_187_cif.got.tgz:372609.got - 2010.06.03 13:09:07.
