data_PCOD9186059
_publ_section_title
;
Structure prediction by ZEFSAII (Michael W. Deem and Ramdas Pophale) SiO2 
 PCOD9186059
Probable space group: C 2/M
;
_chemical_formula_sum "Si O2"
_cell_formula_units_Z 56
_cell_length_a 25.767328
_cell_length_b 7.389618
_cell_length_c 14.804981
_cell_angle_alpha 90.000000
_cell_angle_beta 54.156996
_cell_angle_gamma 90.000000
_cell_volume 2285.172440
_symmetry_space_group_name_H-M "C 2/M"
_symmetry_group_IT_number 12
_symmetry_cell_setting 'monoclinic'
loop_
_space_group_symop_operation_xyz
x,y,z
-x,y,-z
-x,-y,-z
x,-y,z
1/2+x,1/2+y,z
1/2-x,1/2+y,-z
1/2-x,1/2-y,-z
1/2+x,1/2-y,z
loop_
_atom_site_type_symbol
_atom_site_label
_atom_site_fract_x
_atom_site_fract_y
_atom_site_fract_z
Si Si1 0.575721 0.221840 0.693938
Si Si2 0.780577 0.204457 0.733736
Si Si3 0.533610 0.218899 0.058561
Si Si4 0.482233 0.792783 0.421994
Si Si5 0.789830 0.715928 0.369238
Si Si6 0.826516 0.207531 0.018820
Si Si7 0.878299 0.220876 0.775224
O O1 0.513416 0.276961 0.813440
O O2 0.569035 0.283395 0.596767
O O3 0.638813 0.282984 0.682345
O O4 0.576644 0.000000 0.690769
O O5 0.747876 0.289935 0.679221
O O6 0.841924 0.283772 0.721961
O O7 0.799213 0.000000 0.689354
O O8 0.726409 0.197801 0.866647
O O9 0.605259 0.285763 0.000061
O O10 0.537104 0.000000 0.055222
O O11 0.500000 0.274148 0.000000
O O12 0.500000 0.706158 0.500000
O O13 0.549635 0.790068 0.300219
O O14 0.462731 0.000000 0.460266
O O15 0.796348 0.500000 0.347291
O O16 0.750000 0.750000 0.500000
O O17 0.840810 0.278810 0.903695
O O18 0.805675 0.000000 0.031509
O O19 0.879790 0.000000 0.775065
#
# Coordination Sequence:
#
# PCOD9186059 Si02
#       7
#     8   8   8   8   8   8   8
#     4   9  18  35  56  81 112 143 183 231 276 332
#     4  10  22  40  60  82 115 158 198 233 281 348
#     4  10  19  34  59  84 110 152 194 228 278 343
#     4  10  21  36  58  86 112 147 192 237 285 338
#     4  10  22  40  61  85 113 148 192 239 284 336
#     4  11  22  36  56  87 120 148 187 241 294 338
#     4  10  22  39  58  85 119 153 190 237 291 345
#
# _framework density 24.50581
#
# number of rings (size 3 to 8) (size 9 to 14) (size 15 to 20)
#    0.000    2.000    1.429    1.714    2.000    4.571 
#    0.000    1.429    0.000    0.000    0.000    0.000 
#    0.000    0.000    0.000    0.000    0.000    0.000 
#
# Total GULP energy -156593.051494 kJ/mol
# GULP energy per Si atom -5592.608982 kJ/mol
# Density = 2.445003 g / cm^3
# Si number density = 24.505810 Si / 1000 Ang^3
#
#
#
# Elastic Constant Matrix: (Units=GPa)
#
#
# Indices 1 2 3 4 5 6 
#
# 1 161.8264 -1.1616 10.4176 0.0000 34.3538 -0.0001
# 2 -1.1616 92.0540 -6.1726 0.0002 6.9310 -0.0001
# 3 10.4176 -6.1726 58.1386 0.0000 24.3256 0.0000
# 4 0.0000 0.0002 0.0000 31.2033 0.0000 -5.8806
# 5 34.3538 6.9310 24.3256 0.0000 55.4263 0.0000
# 6 -0.0001 -0.0001 0.0000 -5.8806 0.0000 -5.8680
#
#
#
# Elastic Compliance Matrix: (Units=1/GPa)
#
#
# Indices 1 2 3 4 5 6 
#
# 1 0.007162 0.000510 0.000802 0.000000 -0.004855 0.000000
# 2 0.000510 0.011222 0.002229 0.000000 -0.002697 0.000000
# 3 0.000802 0.002229 0.021581 0.000000 -0.010247 0.000000
# 4 0.000000 0.000000 0.000000 0.026957 0.000000 -0.027014
# 5 -0.004855 -0.002697 -0.010247 0.000000 0.025886 0.000000
# 6 0.000000 0.000000 0.000000 -0.027014 0.000000 -0.143343
#
#
# Mechanical properties :
#
#
# Convention : Reuss Voigt Hill
#
# Bulk Modulus (GPa) = 21.25580 35.35399 28.30490
# Shear Modulus (GPa) = -119.23415 36.74802 -41.24307
#
# Velocity S-wave (km/s) = -6.98291 3.87662 -4.10688
# Velocity P-wave (km/s) = 7.50481 5.87330 3.30352
#
# Compressibility (1/GPa) = 0.04704598
#
# Stress axis : x y z
#
# Youngs Moduli (GPa) = 139.62331 89.10943 46.33779
#
# Poissons Ratio (x) = -0.04542 -0.03717
# Poissons Ratio (y) = -0.07117 -0.10327
# Poissons Ratio (z) = -0.11199 -0.19860
#
# Static dielectric constant tensor:
#      x y z
#    x 1.931100 0.000000 0.030860 
#    y 0.000000 2.024750 0.000000 
#    z 0.030860 0.000000 1.912650 
# 
# From -- ./inp_files/238419.got.cif
#   From: 2010.05.17/outbox.cif.g08.bks.cpg/sg12_120_cif.got.tgz:238419.got - 2010.06.03 13:09:07.
