data_PCOD9186072
_publ_section_title
;
Structure prediction by ZEFSAII (Michael W. Deem and Ramdas Pophale) SiO2 
 PCOD9186072
Probable space group: C 2/M
;
_chemical_formula_sum "Si O2"
_cell_formula_units_Z 64
_cell_length_a 17.504331
_cell_length_b 14.637205
_cell_length_c 14.113922
_cell_angle_alpha 90.000000
_cell_angle_beta 66.395697
_cell_angle_gamma 90.000000
_cell_volume 3313.634105
_symmetry_space_group_name_H-M "C 2/M"
_symmetry_group_IT_number 12
_symmetry_cell_setting 'monoclinic'
loop_
_space_group_symop_operation_xyz
x,y,z
-x,y,-z
-x,-y,-z
x,-y,z
1/2+x,1/2+y,z
1/2-x,1/2+y,-z
1/2-x,1/2-y,-z
1/2+x,1/2-y,z
loop_
_atom_site_type_symbol
_atom_site_label
_atom_site_fract_x
_atom_site_fract_y
_atom_site_fract_z
Si Si1 0.579441 0.610066 0.272765
Si Si2 0.008516 0.608822 0.100289
Si Si3 0.097052 0.210831 0.635716
Si Si4 0.664925 0.181288 0.758491
Si Si5 0.974953 0.398305 0.403381
Si Si6 0.828323 0.107116 0.577652
Si Si7 0.729596 0.726303 0.119009
Si Si8 0.135360 0.603749 0.190486
O O1 0.576480 0.500000 0.260718
O O2 0.490161 0.658096 0.303646
O O3 0.607681 0.628054 0.367821
O O4 0.651317 0.657163 0.172682
O O5 0.018358 0.500000 0.089243
O O6 0.922811 0.628934 0.196122
O O7 0.088541 0.639582 0.119092
O O8 0.000000 0.648389 0.000000
O O9 0.145377 0.226175 0.710300
O O10 0.077903 0.312218 0.604437
O O11 0.148677 0.160095 0.528790
O O12 0.738154 0.131742 0.664583
O O13 0.696462 0.189312 0.851035
O O14 0.936889 0.500000 0.408360
O O15 0.000000 0.388152 0.500000
O O16 0.061422 0.397248 0.302856
O O17 0.833717 0.000000 0.555965
O O18 0.703630 0.822217 0.180176
O O19 0.750000 0.750000 0.000000
O O20 0.165611 0.500000 0.162354
#
# Coordination Sequence:
#
# PCOD9186072 Si02
#       8
#     8   8   8   8   8   8   8   8
#     4  10  21  39  64  88 113 152 202 245 279 337
#     4  10  19  34  59  85 107 140 188 244 297 336
#     4  12  21  37  60  86 118 154 195 239 289 345
#     4  11  23  36  56  85 123 150 187 240 297 344
#     4  10  20  33  57  87 113 148 190 229 277 338
#     4  10  22  38  58  87 119 156 194 237 292 345
#     4  11  23  40  60  84 116 154 194 239 293 346
#     4  10  20  38  59  82 112 148 192 234 278 343
#
# _framework density 19.314142
#
# number of rings (size 3 to 8) (size 9 to 14) (size 15 to 20)
#    0.000    1.500    2.500    3.000    1.750    2.500 
#    0.000    1.250    0.000    0.750    0.000    0.000 
#    0.000    0.000    0.000    0.000    0.000    0.000 
#
# Total GULP energy -178596.196819 kJ/mol
# GULP energy per Si atom -5581.131151 kJ/mol
# Density = 1.927018 g / cm^3
# Si number density = 19.314142 Si / 1000 Ang^3
#
#
#
# Elastic Constant Matrix: (Units=GPa)
#
#
# Indices 1 2 3 4 5 6 
#
# 1 23.9472 3.8700 4.8651 0.0000 2.6649 0.0000
# 2 3.8700 62.7265 10.0242 0.0000 1.6709 0.0000
# 3 4.8651 10.0242 87.0789 0.0000 13.3437 0.0000
# 4 0.0000 0.0000 0.0000 64.2521 0.0000 -35.7009
# 5 2.6649 1.6709 13.3437 0.0000 23.0469 0.0000
# 6 0.0000 0.0000 0.0000 -35.7009 0.0000 52.8765
#
#
#
# Elastic Compliance Matrix: (Units=1/GPa)
#
#
# Indices 1 2 3 4 5 6 
#
# 1 0.042875 -0.002296 -0.001533 0.000000 -0.003904 0.000000
# 2 -0.002296 0.016364 -0.001772 0.000000 0.000105 0.000000
# 3 -0.001533 -0.001772 0.012868 0.000000 -0.007145 0.000000
# 4 0.000000 0.000000 0.000000 0.024908 0.000000 0.016817
# 5 -0.003904 0.000105 -0.007145 0.000000 0.047970 0.000000
# 6 0.000000 0.000000 0.000000 0.016817 0.000000 0.030267
#
#
# Mechanical properties :
#
#
# Convention : Reuss Voigt Hill
#
# Bulk Modulus (GPa) = 16.41864 23.47458 19.94661
# Shear Modulus (GPa) = 24.18303 38.36799 31.27551
#
# Velocity S-wave (km/s) = 3.54233 4.46188 4.02843
# Velocity P-wave (km/s) = 5.02494 6.22294 5.65575
#
# Compressibility (1/GPa) = 0.06090640
#
# Stress axis : x y z
#
# Youngs Moduli (GPa) = 23.32335 61.10894 77.71058
#
# Poissons Ratio (x) = 0.14033 0.11912
# Poissons Ratio (y) = 0.05356 0.13767
# Poissons Ratio (z) = 0.03575 0.10826
#
# Static dielectric constant tensor:
#      x y z
#    x 1.694340 0.000000 0.037540 
#    y 0.000000 1.675870 0.000000 
#    z 0.037540 0.000000 1.702460 
# 
# From -- ./inp_files/225282.got.cif
#   From: 2010.05.17/outbox.cif.g08.bks.cpg/sg12_113_cif.got.tgz:225282.got - 2010.06.03 13:09:07.
