data_PCOD9186221
_publ_section_title
;
Structure prediction by ZEFSAII (Michael W. Deem and Ramdas Pophale) SiO2 
 PCOD9186221
Probable space group: C 2/M
;
_chemical_formula_sum "Si O2"
_cell_formula_units_Z 40
_cell_length_a 8.155851
_cell_length_b 14.126422
_cell_length_c 14.530863
_cell_angle_alpha 90.000000
_cell_angle_beta 62.455571
_cell_angle_gamma 90.000000
_cell_volume 1484.384175
_symmetry_space_group_name_H-M "C 2/M"
_symmetry_group_IT_number 12
_symmetry_cell_setting 'monoclinic'
loop_
_space_group_symop_operation_xyz
x,y,z
-x,y,-z
-x,-y,-z
x,-y,z
1/2+x,1/2+y,z
1/2-x,1/2+y,-z
1/2-x,1/2-y,-z
1/2+x,1/2-y,z
loop_
_atom_site_type_symbol
_atom_site_label
_atom_site_fract_x
_atom_site_fract_y
_atom_site_fract_z
Si Si1 0.203878 0.393922 0.691162
Si Si2 0.802503 0.389644 0.022170
Si Si3 0.226966 0.384443 0.172161
Si Si4 0.291794 0.858577 0.517204
Si Si5 0.500437 0.644467 0.255627
O O1 0.222143 0.500000 0.727185
O O2 0.235180 0.403382 0.575143
O O3 0.355187 0.327999 0.699795
O O4 0.991081 0.362388 0.758282
O O5 0.838143 0.500000 0.989837
O O6 0.730939 0.352453 0.942920
O O7 0.659643 0.388147 0.142112
O O8 0.000000 0.348742 0.000000
O O9 0.253742 0.500000 0.177663
O O10 0.354504 0.332381 0.212067
O O11 0.500000 0.869523 0.500000
O O12 0.250000 0.750000 0.500000
O O13 0.154245 0.894247 0.631901
#
# Coordination Sequence:
#
# PCOD9186221 Si02
#       5
#     8   8   8   8   8
#     4  11  23  40  65 100 135 170 218 278 331 392
#     4  10  19  34  59  95 141 179 214 263 331 400
#     4  10  20  35  59  95 135 173 212 261 327 395
#     4  12  27  49  69  95 128 178 231 278 340 405
#     4  12  22  38  65  95 131 177 219 268 326 394
#
# _framework density 26.947202999999998
#
# number of rings (size 3 to 8) (size 9 to 14) (size 15 to 20)
#    0.000    1.000    4.000    4.200    0.000    5.200 
#    0.000    0.000    0.000    1.200    5.200    0.000 
#    0.000    0.000    0.000    0.000    0.000    0.000 
#
# Total GULP energy -111505.553044 kJ/mol
# GULP energy per Si atom -5575.277652 kJ/mol
# Density = 2.688587 g / cm^3
# Si number density = 26.947203 Si / 1000 Ang^3
#
#
#
# Elastic Constant Matrix: (Units=GPa)
#
#
# Indices 1 2 3 4 5 6 
#
# 1 246.4608 61.5929 89.7291 0.0000 18.9961 0.0000
# 2 61.5929 80.8763 27.8985 0.0000 -8.3054 0.0000
# 3 89.7291 27.8985 224.7827 0.0000 28.2606 0.0000
# 4 0.0000 0.0000 0.0000 -265.2139 0.0000 -75.9881
# 5 18.9961 -8.3054 28.2606 0.0000 71.8718 0.0000
# 6 0.0000 0.0000 0.0000 -75.9881 0.0000 12.9967
#
#
#
# Elastic Compliance Matrix: (Units=1/GPa)
#
#
# Indices 1 2 3 4 5 6 
#
# 1 0.005741 -0.003945 -0.001635 0.000000 -0.001330 0.000000
# 2 -0.003945 0.015978 -0.000812 0.000000 0.003208 0.000000
# 3 -0.001635 -0.000812 0.005428 0.000000 -0.001796 0.000000
# 4 0.000000 0.000000 0.000000 -0.001409 0.000000 -0.008241
# 5 -0.001330 0.003208 -0.001796 0.000000 0.015342 0.000000
# 6 0.000000 0.000000 0.000000 -0.008241 0.000000 0.028762
#
#
# Mechanical properties :
#
#
# Convention : Reuss Voigt Hill
#
# Bulk Modulus (GPa) = 69.61694 101.17342 85.39518
# Shear Modulus (GPa) = 57.19987 -11.20912 22.99537
#
# Velocity S-wave (km/s) = 4.61224 -2.04174 2.92438
# Velocity P-wave (km/s) = 7.36575 5.66289 6.56973
#
# Compressibility (1/GPa) = 0.01436432
#
# Stress axis : x y z
#
# Youngs Moduli (GPa) = 174.18426 62.58465 184.23375
#
# Poissons Ratio (x) = 0.24689 0.30119
# Poissons Ratio (y) = 0.68714 0.14955
# Poissons Ratio (z) = 0.28476 0.05080
#
# Static dielectric constant tensor:
#      x y z
#    x 2.038400 0.000000 0.013100 
#    y 0.000000 2.523860 0.000000 
#    z 0.013100 0.000000 1.996870 
# 
# From -- ./inp_files/195311.got.cif
#   From: 2010.05.17/outbox.cif.g08.bks.cpg/sg12_98_cif.got.tgz:195311.got - 2010.06.03 13:09:07.
