data_PCOD9186578
_publ_section_title
;
Structure prediction by ZEFSAII (Michael W. Deem and Ramdas Pophale) SiO2 
 PCOD9186578
Probable space group: C 2/M
;
_chemical_formula_sum "Si O2"
_cell_formula_units_Z 56
_cell_length_a 14.236005
_cell_length_b 22.268588
_cell_length_c 7.342095
_cell_angle_alpha 90.000000
_cell_angle_beta 77.152484
_cell_angle_gamma 90.000000
_cell_volume 2269.289819
_symmetry_space_group_name_H-M "C 2/M"
_symmetry_group_IT_number 12
_symmetry_cell_setting 'monoclinic'
loop_
_space_group_symop_operation_xyz
x,y,z
-x,y,-z
-x,-y,-z
x,-y,z
1/2+x,1/2+y,z
1/2-x,1/2+y,-z
1/2-x,1/2-y,-z
1/2+x,1/2-y,z
loop_
_atom_site_type_symbol
_atom_site_label
_atom_site_fract_x
_atom_site_fract_y
_atom_site_fract_z
Si Si1 0.368010 0.884406 0.223188
Si Si2 0.778388 0.124642 0.197783
Si Si3 0.928391 0.378995 0.791249
Si Si4 0.977826 0.117007 0.214455
Si Si5 0.734926 0.238245 0.719066
Si Si6 0.172078 0.070840 0.220812
Si Si7 0.551207 0.740436 0.282483
O O1 0.462914 0.899140 0.300107
O O2 0.344390 0.813066 0.228945
O O3 0.263609 0.912242 0.306374
O O4 0.399152 0.902061 0.004225
O O5 0.666736 0.110324 0.289690
O O6 0.784668 0.197184 0.184388
O O7 0.865131 0.103967 0.291681
O O8 0.801160 0.098543 0.988941
O O9 0.939307 0.306696 0.801831
O O10 0.063275 0.093131 0.305146
O O11 0.991556 0.188958 0.209831
O O12 0.000000 0.094486 0.000000
O O13 0.750000 0.250000 0.500000
O O14 0.839292 0.217105 0.743851
O O15 0.168199 0.000000 0.207669
O O16 0.500000 0.747829 0.500000
#
# Coordination Sequence:
#
# PCOD9186578 Si02
#       7
#     8   8   8   8   8   8   8
#     4  10  19  35  54  81 114 147 191 236 286 341
#     4   9  20  33  51  80 111 143 186 227 286 344
#     4   9  20  31  52  78 117 149 179 231 287 349
#     4  10  20  33  53  79 110 149 189 235 282 341
#     4  11  21  34  56  86 120 154 187 230 295 358
#     4  10  21  37  58  80 106 150 201 248 286 325
#     4  11  21  33  52  85 122 156 186 229 289 361
#
# _framework density 24.677322
#
# number of rings (size 3 to 8) (size 9 to 14) (size 15 to 20)
#    0.000    2.000    1.429    2.571    6.000    4.286 
#    0.000    5.714    0.000    1.286    0.000    0.000 
#    0.000   27.429    0.000    0.000    0.000    0.000 
#
# Total GULP energy -156417.192442 kJ/mol
# GULP energy per Si atom -5586.328302 kJ/mol
# Density = 2.462115 g / cm^3
# Si number density = 24.677322 Si / 1000 Ang^3
#
#
#
# Elastic Constant Matrix: (Units=GPa)
#
#
# Indices 1 2 3 4 5 6 
#
# 1 315.2195 29.4485 36.6063 0.0000 17.4063 0.0000
# 2 29.4485 60.4374 8.5162 0.0000 -0.2114 0.0000
# 3 36.6063 8.5162 67.6464 0.0000 -13.8679 0.0000
# 4 0.0000 0.0000 0.0000 -81.7908 0.0000 21.7996
# 5 17.4063 -0.2114 -13.8679 0.0000 33.1643 0.0000
# 6 0.0000 0.0000 0.0000 21.7996 0.0000 1.2103
#
#
#
# Elastic Compliance Matrix: (Units=1/GPa)
#
#
# Indices 1 2 3 4 5 6 
#
# 1 0.003766 -0.001498 -0.002468 0.000000 -0.003018 0.000000
# 2 -0.001498 0.017463 -0.001317 0.000000 0.000347 0.000000
# 3 -0.002468 -0.001317 0.018099 0.000000 0.008855 0.000000
# 4 0.000000 0.000000 0.000000 -0.002108 0.000000 0.037964
# 5 -0.003018 0.000347 0.008855 0.000000 0.035442 0.000000
# 6 0.000000 0.000000 0.000000 0.037964 0.000000 0.142439
#
#
# Mechanical properties :
#
#
# Convention : Reuss Voigt Hill
#
# Bulk Modulus (GPa) = 34.76725 65.82727 50.29726
# Shear Modulus (GPa) = 21.25373 15.09890 18.17632
#
# Velocity S-wave (km/s) = 2.93792 2.47625 2.71691
# Velocity P-wave (km/s) = 5.06239 5.90837 5.50167
#
# Compressibility (1/GPa) = 0.02876270
#
# Stress axis : x y z
#
# Youngs Moduli (GPa) = 265.56687 57.26545 55.25059
#
# Poissons Ratio (x) = 0.08576 0.13635
# Poissons Ratio (y) = 0.39771 0.07276
# Poissons Ratio (z) = 0.65537 0.07542
#
# Static dielectric constant tensor:
#      x y z
#    x 2.065580 0.000000 0.045800 
#    y 0.000000 1.901050 0.000000 
#    z 0.045800 0.000000 1.937920 
# 
# From -- ./inp_files/64055.got.cif
#   From: 2010.05.17/outbox.cif.g08.bks.cpg/sg12_33_cif.got.tgz:64055.got - 2010.06.03 13:09:07.
