data_PCOD9186785
_publ_section_title
;
Structure prediction by ZEFSAII (Michael W. Deem and Ramdas Pophale) SiO2 
 PCOD9186785
Probable space group: C 2/M
;
_chemical_formula_sum "Si O2"
_cell_formula_units_Z 48
_cell_length_a 14.443806
_cell_length_b 18.788610
_cell_length_c 7.887313
_cell_angle_alpha 90.000000
_cell_angle_beta 85.761541
_cell_angle_gamma 90.000000
_cell_volume 2134.597476
_symmetry_space_group_name_H-M "C 2/M"
_symmetry_group_IT_number 12
_symmetry_cell_setting 'monoclinic'
loop_
_space_group_symop_operation_xyz
x,y,z
-x,y,-z
-x,-y,-z
x,-y,z
1/2+x,1/2+y,z
1/2-x,1/2+y,-z
1/2-x,1/2-y,-z
1/2+x,1/2-y,z
loop_
_atom_site_type_symbol
_atom_site_label
_atom_site_fract_x
_atom_site_fract_y
_atom_site_fract_z
Si Si1 0.151089 0.421335 0.809628
Si Si2 0.452177 0.922233 0.686242
Si Si3 0.902350 0.147997 0.827467
Si Si4 0.103774 0.692688 0.066815
Si Si5 0.104363 0.083428 0.827189
Si Si6 0.802532 0.917008 0.527137
O O1 0.181229 0.500000 0.870696
O O2 0.200126 0.411022 0.620809
O O3 0.041103 0.426798 0.798154
O O4 0.164336 0.352287 0.924189
O O5 0.500000 0.910214 0.500000
O O6 0.395844 0.856946 0.766833
O O7 0.404605 0.000000 0.691956
O O8 0.874413 0.227303 0.884442
O O9 0.864249 0.127555 0.649421
O O10 0.013164 0.132266 0.810495
O O11 0.865427 0.097726 0.984337
O O12 0.000000 0.698419 0.000000
O O13 0.178098 0.100939 0.670346
O O14 0.078499 0.000000 0.815194
O O15 0.829205 0.000000 0.542346
#
# Coordination Sequence:
#
# PCOD9186785 Si02
#       6
#     8   8   8   8   8   8
#     4   9  19  37  57  80 112 145 181 226 275 333
#     4   9  18  34  58  84 107 140 188 232 273 326
#     4  11  20  35  57  82 113 146 188 229 274 327
#     4  10  19  35  56  79 111 145 185 226 274 325
#     4  10  20  36  57  81 108 146 192 237 269 319
#     4  10  21  37  57  83 114 148 185 227 280 329
#
# _framework density 22.486674000000001
#
# number of rings (size 3 to 8) (size 9 to 14) (size 15 to 20)
#    0.000    2.167    1.667    3.000    0.000    5.333 
#    3.000    0.833    0.000    0.000    0.000    0.000 
#    0.000    0.000    0.000    0.000    0.000    0.000 
#
# Total GULP energy -133949.634478 kJ/mol
# GULP energy per Si atom -5581.234770 kJ/mol
# Density = 2.243549 g / cm^3
# Si number density = 22.486674 Si / 1000 Ang^3
#
#
#
# Elastic Constant Matrix: (Units=GPa)
#
#
# Indices 1 2 3 4 5 6 
#
# 1 44.8774 14.9121 -9.0684 0.0000 -5.3834 0.0000
# 2 14.9121 130.5222 61.9148 0.0000 -12.3741 0.0000
# 3 -9.0684 61.9148 134.5317 0.0000 -19.5384 0.0000
# 4 0.0000 0.0000 0.0000 -29.3684 0.0000 -4.6042
# 5 -5.3834 -12.3741 -19.5384 0.0000 18.0581 0.0000
# 6 0.0000 0.0000 0.0000 -4.6042 0.0000 16.1567
#
#
#
# Elastic Compliance Matrix: (Units=1/GPa)
#
#
# Indices 1 2 3 4 5 6 
#
# 1 0.026138 -0.004541 0.005376 0.000000 0.010497 0.000000
# 2 -0.004541 0.010663 -0.005160 0.000000 0.000370 0.000000
# 3 0.005376 -0.005160 0.011733 0.000000 0.010762 0.000000
# 4 0.000000 0.000000 0.000000 -0.032594 0.000000 -0.009288
# 5 0.010497 0.000370 0.010762 0.000000 0.070404 0.000000
# 6 0.000000 0.000000 0.000000 -0.009288 0.000000 0.059247
#
#
# Mechanical properties :
#
#
# Convention : Reuss Voigt Hill
#
# Bulk Modulus (GPa) = 25.07236 49.49424 37.28330
# Shear Modulus (GPa) = 29.84443 17.11414 23.47929
#
# Velocity S-wave (km/s) = 3.64704 2.76176 3.23482
# Velocity P-wave (km/s) = 5.37667 5.67697 5.52886
#
# Compressibility (1/GPa) = 0.03988456
#
# Stress axis : x y z
#
# Youngs Moduli (GPa) = 38.25902 93.78161 85.22766
#
# Poissons Ratio (x) = 0.42590 -0.45822
# Poissons Ratio (y) = 0.17375 0.43976
# Poissons Ratio (z) = -0.20570 0.48389
#
# Static dielectric constant tensor:
#      x y z
#    x 1.922310 0.000000 0.000740 
#    y 0.000000 1.814310 0.000000 
#    z 0.000740 0.000000 1.821300 
# 
# From -- ./inp_files/75046.got.cif
#   From: 2010.05.17/outbox.cif.g08.bks.cpg/sg12_38_cif.got.tgz:75046.got - 2010.06.03 13:09:07.
