data_PCOD9186447
_publ_section_title
;
Structure prediction by ZEFSAII (Michael W. Deem and Ramdas Pophale) SiO2 
 PCOD9186447
Probable space group: C 2/M
;
_chemical_formula_sum "Si O2"
_cell_formula_units_Z 26
_cell_length_a 8.167421
_cell_length_b 17.308500
_cell_length_c 9.382275
_cell_angle_alpha 90.000000
_cell_angle_beta 45.474639
_cell_angle_gamma 90.000000
_cell_volume 945.595934
_symmetry_space_group_name_H-M "C 2/M"
_symmetry_group_IT_number 12
_symmetry_cell_setting 'monoclinic'
loop_
_space_group_symop_operation_xyz
x,y,z
-x,y,-z
-x,-y,-z
x,-y,z
1/2+x,1/2+y,z
1/2-x,1/2+y,-z
1/2-x,1/2-y,-z
1/2+x,1/2-y,z
loop_
_atom_site_type_symbol
_atom_site_label
_atom_site_fract_x
_atom_site_fract_y
_atom_site_fract_z
Si Si1 0.567909 0.865366 0.149587
Si Si2 0.734435 0.283222 0.717830
Si Si3 0.500000 0.000000 0.000000
Si Si4 0.136632 0.084212 0.566859
O O1 0.396128 0.797663 0.201738
O O2 0.748173 0.821737 0.138084
O O3 0.402645 0.913708 0.355522
O O4 0.645333 0.929417 0.989782
O O5 0.613660 0.341991 0.681435
O O6 0.000000 0.273608 0.500000
O O7 0.000000 0.087310 0.500000
O O8 0.097792 0.000000 0.655716
#
# Coordination Sequence:
#
# PCOD9186447 Si02
#       4
#     8   8   2   8
#     4  11  22  41  60  90 123 160 198 241 297 362
#     4  10  21  37  68  92 119 149 198 255 310 346
#     4  12  28  40  60  82 124 172 202 236 282 362
#     4  10  19  34  64  99 123 146 191 259 312 346
#
# _framework density 27.495889999999999
#
# number of rings (size 3 to 8) (size 9 to 14) (size 15 to 20)
#    0.000    1.538    1.538    6.462    2.154    3.077 
#    0.000    0.000    0.000    3.692    0.000    0.000 
#    0.000    0.000    0.000    0.000    0.000    0.000 
#
# Total GULP energy -72625.311114 kJ/mol
# GULP energy per Si atom -5586.562393 kJ/mol
# Density = 2.743331 g / cm^3
# Si number density = 27.495890 Si / 1000 Ang^3
#
#
#
# Elastic Constant Matrix: (Units=GPa)
#
#
# Indices 1 2 3 4 5 6 
#
# 1 155.2641 111.3424 20.5469 0.0000 6.7596 0.0000
# 2 111.3424 330.9128 48.3756 0.0000 9.2610 0.0000
# 3 20.5469 48.3756 74.7151 0.0000 -14.0780 0.0000
# 4 0.0000 0.0000 0.0000 45.6185 0.0000 -1.8980
# 5 6.7596 9.2610 -14.0780 0.0000 31.0264 0.0000
# 6 0.0000 0.0000 0.0000 -1.8980 0.0000 -18.9745
#
#
#
# Elastic Compliance Matrix: (Units=1/GPa)
#
#
# Indices 1 2 3 4 5 6 
#
# 1 0.008565 -0.002714 -0.000872 0.000000 -0.001452 0.000000
# 2 -0.002714 0.004336 -0.002399 0.000000 -0.001791 0.000000
# 3 -0.000872 -0.002399 0.016782 0.000000 0.008521 0.000000
# 4 0.000000 0.000000 0.000000 0.021830 0.000000 -0.002184
# 5 -0.001452 -0.001791 0.008521 0.000000 0.036948 0.000000
# 6 0.000000 0.000000 0.000000 -0.002184 0.000000 -0.052484
#
#
# Mechanical properties :
#
#
# Convention : Reuss Voigt Hill
#
# Bulk Modulus (GPa) = 56.44901 102.38019 79.41460
# Shear Modulus (GPa) = 92.84853 36.90923 64.87888
#
# Velocity S-wave (km/s) = 5.81734 3.66779 4.86283
# Velocity P-wave (km/s) = 8.10534 7.43320 7.77653
#
# Compressibility (1/GPa) = 0.01771510
#
# Stress axis : x y z
#
# Youngs Moduli (GPa) = 116.74856 230.63458 59.58624
#
# Poissons Ratio (x) = 0.62593 0.05195
# Poissons Ratio (y) = 0.31685 0.14292
# Poissons Ratio (z) = 0.10179 0.55318
#
# Static dielectric constant tensor:
#      x y z
#    x 2.159870 0.000000 -0.004920 
#    y 0.000000 2.077930 0.000000 
#    z -0.004920 0.000000 2.382450 
# 
# From -- ./inp_files/36638.got.cif
#   From: 2010.05.17/outbox.cif.g08.bks.cpg/sg12_19_cif.got.tgz:36638.got - 2010.06.03 13:09:07.
