data_PCOD9186724
_publ_section_title
;
Structure prediction by ZEFSAII (Michael W. Deem and Ramdas Pophale) SiO2 
 PCOD9186724
Probable space group: C 2/M
;
_chemical_formula_sum "Si O2"
_cell_formula_units_Z 48
_cell_length_a 29.667926
_cell_length_b 7.828040
_cell_length_c 7.900411
_cell_angle_alpha 90.000000
_cell_angle_beta 103.822318
_cell_angle_gamma 90.000000
_cell_volume 1781.671390
_symmetry_space_group_name_H-M "C 2/M"
_symmetry_group_IT_number 12
_symmetry_cell_setting 'monoclinic'
loop_
_space_group_symop_operation_xyz
x,y,z
-x,y,-z
-x,-y,-z
x,-y,z
1/2+x,1/2+y,z
1/2-x,1/2+y,-z
1/2-x,1/2-y,-z
1/2+x,1/2-y,z
loop_
_atom_site_type_symbol
_atom_site_label
_atom_site_fract_x
_atom_site_fract_y
_atom_site_fract_z
Si Si1 0.095174 0.704588 0.013828
Si Si2 0.739540 0.205422 0.266138
Si Si3 0.655781 0.791523 0.400500
Si Si4 0.320047 0.795072 0.116369
Si Si5 0.929721 0.303138 0.477181
Si Si6 0.993450 0.809783 0.231103
O O1 0.091840 0.500000 0.004620
O O2 0.128495 0.763297 0.888430
O O3 0.043034 0.770879 0.950415
O O4 0.124611 0.747234 0.205900
O O5 0.707230 0.271955 0.391745
O O6 0.792045 0.253205 0.262439
O O7 0.737615 0.000000 0.271150
O O8 0.711259 0.263445 0.071843
O O9 0.620488 0.733893 0.514936
O O10 0.658483 0.000000 0.418986
O O11 0.321346 0.000000 0.112256
O O12 0.924722 0.500000 0.415909
O O13 0.958614 0.205991 0.361657
O O14 0.963255 0.304775 0.673232
O O15 0.011622 0.000000 0.233605
#
# Coordination Sequence:
#
# PCOD9186724 Si02
#       6
#     8   8   8   8   8   8
#     4   9  17  32  51  72  98 127 160 196 233 276
#     4   8  13  24  42  66  96 124 150 186 231 274
#     4   8  16  30  51  76  97 121 159 201 234 274
#     4   8  14  24  41  66  95 125 155 186 223 273
#     4  10  19  35  56  72  89 123 165 196 233 286
#     4  11  22  35  49  70  98 125 157 197 241 285
#
# _framework density 26.940996999999999
#
# number of rings (size 3 to 8) (size 9 to 14) (size 15 to 20)
#    0.000    3.000    0.000    5.000    0.000    1.333 
#    0.000    9.167    0.000    1.000    0.000    0.000 
#    0.000    0.000    0.000    0.000    0.000    0.000 
#
# Total GULP energy -134157.711662 kJ/mol
# GULP energy per Si atom -5589.904653 kJ/mol
# Density = 2.687968 g / cm^3
# Si number density = 26.940997 Si / 1000 Ang^3
#
#
#
# Elastic Constant Matrix: (Units=GPa)
#
#
# Indices 1 2 3 4 5 6 
#
# 1 235.9668 -0.5548 17.7533 0.0000 -7.8851 0.0000
# 2 -0.5548 45.6907 -1.6409 0.0000 -2.7055 0.0000
# 3 17.7533 -1.6409 64.4242 0.0000 -23.9004 0.0000
# 4 0.0000 0.0000 0.0000 23.8489 0.0000 16.1981
# 5 -7.8851 -2.7055 -23.9004 0.0000 64.2163 0.0000
# 6 0.0000 0.0000 0.0000 16.1981 0.0000 82.2896
#
#
#
# Elastic Compliance Matrix: (Units=1/GPa)
#
#
# Indices 1 2 3 4 5 6 
#
# 1 0.004328 0.000017 -0.001154 0.000000 0.000103 0.000000
# 2 0.000017 0.022002 0.001045 0.000000 0.001318 0.000000
# 3 -0.001154 0.001045 0.018366 0.000000 0.006738 0.000000
# 4 0.000000 0.000000 0.000000 0.048402 0.000000 -0.009527
# 5 0.000103 0.001318 0.006738 0.000000 0.018148 0.000000
# 6 0.000000 0.000000 0.000000 -0.009527 0.000000 0.014028
#
#
# Mechanical properties :
#
#
# Convention : Reuss Voigt Hill
#
# Bulk Modulus (GPa) = 22.46598 41.91078 32.18838
# Shear Modulus (GPa) = 35.63880 56.10591 45.87235
#
# Velocity S-wave (km/s) = 3.64104 4.56844 4.13085
# Velocity P-wave (km/s) = 5.10228 6.58922 5.89284
#
# Compressibility (1/GPa) = 0.04451176
#
# Stress axis : x y z
#
# Youngs Moduli (GPa) = 231.04334 45.45036 54.44701
#
# Poissons Ratio (x) = -0.00078 0.06284
# Poissons Ratio (y) = -0.00397 -0.05687
# Poissons Ratio (z) = 0.26667 -0.04748
#
# Static dielectric constant tensor:
#      x y z
#    x 2.100750 0.000000 0.019790 
#    y 0.000000 1.932690 0.000000 
#    z 0.019790 0.000000 2.321210 
# 
# From -- ./inp_files/185505.got.cif
#   From: 2010.05.17/outbox.cif.g08.bks.cpg/sg12_93_cif.got.tgz:185505.got - 2010.06.03 13:09:07.
