data_PCOD9186285
_publ_section_title
;
Structure prediction by ZEFSAII (Michael W. Deem and Ramdas Pophale) SiO2 
 PCOD9186285
Probable space group: C 2/M
;
_chemical_formula_sum "Si O2"
_cell_formula_units_Z 64
_cell_length_a 13.875218
_cell_length_b 22.237011
_cell_length_c 16.585475
_cell_angle_alpha 90.000000
_cell_angle_beta 144.497885
_cell_angle_gamma 90.000000
_cell_volume 2971.807340
_symmetry_space_group_name_H-M "C 2/M"
_symmetry_group_IT_number 12
_symmetry_cell_setting 'monoclinic'
loop_
_space_group_symop_operation_xyz
x,y,z
-x,y,-z
-x,-y,-z
x,-y,z
1/2+x,1/2+y,z
1/2-x,1/2+y,-z
1/2-x,1/2-y,-z
1/2+x,1/2-y,z
loop_
_atom_site_type_symbol
_atom_site_label
_atom_site_fract_x
_atom_site_fract_y
_atom_site_fract_z
Si Si1 0.887349 0.844217 0.288768
Si Si2 0.120083 0.929811 0.267391
Si Si3 0.363707 0.247106 0.844743
Si Si4 0.071589 0.246748 0.833067
Si Si5 0.309271 0.621510 0.848551
Si Si6 0.968676 0.385393 0.216106
Si Si7 0.249032 0.928685 0.927828
Si Si8 0.821491 0.930139 0.505877
O O1 0.777585 0.801259 0.269486
O O2 0.930432 0.799897 0.242151
O O3 0.773109 0.896073 0.172045
O O4 0.044256 0.880307 0.429427
O O5 0.212286 0.896047 0.258968
O O6 0.188974 0.921322 0.404198
O O7 0.923837 0.915280 0.141933
O O8 0.130438 0.000000 0.254637
O O9 0.447701 0.270319 0.820737
O O10 0.299153 0.306161 0.846915
O O11 0.500000 0.220494 0.000000
O O12 0.017660 0.313392 0.769756
O O13 0.250000 0.250000 0.000000
O O14 0.170809 0.595179 0.813348
O O15 0.500000 0.604360 0.000000
O O16 0.142504 0.417240 0.348110
O O17 0.896053 0.401565 0.079677
O O18 0.262222 0.000000 0.928533
O O19 0.873036 0.000000 0.527474
#
# Coordination Sequence:
#
# PCOD9186285 Si02
#       8
#     8   8   8   8   8   8   8   8
#     4  11  21  40  65  91 127 170 206 255 315 381
#     4   9  19  35  55  84 121 167 208 251 313 377
#     4  11  20  34  62  94 126 158 205 254 324 372
#     4  12  21  39  64  98 129 161 201 270 317 374
#     4  11  20  34  57  93 128 162 203 264 319 383
#     4  12  22  37  61  90 127 163 212 258 321 375
#     4  10  19  34  60  89 119 161 212 260 310 367
#     4  10  24  43  62  85 126 174 213 259 317 376
#
# _framework density 21.535715
#
# number of rings (size 3 to 8) (size 9 to 14) (size 15 to 20)
#    0.000    1.250    5.000    3.750    0.000    2.250 
#    0.000    1.875    0.000    9.000    0.000    0.000 
#    0.000    0.000    0.000    0.000    0.000    0.000 
#
# Total GULP energy -178836.652370 kJ/mol
# GULP energy per Si atom -5588.645387 kJ/mol
# Density = 2.148670 g / cm^3
# Si number density = 21.535715 Si / 1000 Ang^3
#
#
#
# Elastic Constant Matrix: (Units=GPa)
#
#
# Indices 1 2 3 4 5 6 
#
# 1 33.8003 1.2184 -2.8139 -0.0001 7.7045 0.0000
# 2 1.2184 69.5611 8.6030 0.0000 8.4595 0.0000
# 3 -2.8139 8.6030 83.9754 -0.0004 14.3012 -0.0002
# 4 -0.0001 0.0000 -0.0004 32.4137 -0.0002 0.1589
# 5 7.7045 8.4595 14.3012 -0.0002 15.6907 -0.0001
# 6 0.0000 0.0000 -0.0002 0.1589 -0.0001 22.5216
#
#
#
# Elastic Compliance Matrix: (Units=1/GPa)
#
#
# Indices 1 2 3 4 5 6 
#
# 1 0.035049 0.001516 0.004840 0.000000 -0.022439 0.000000
# 2 0.001516 0.015453 0.000016 0.000000 -0.009090 0.000000
# 3 0.004840 0.000016 0.014767 0.000000 -0.015845 0.000000
# 4 0.000000 0.000000 0.000000 0.030852 0.000000 -0.000218
# 5 -0.022439 -0.009090 -0.015845 0.000000 0.094092 0.000000
# 6 0.000000 0.000000 0.000000 -0.000218 0.000000 0.044403
#
#
# Mechanical properties :
#
#
# Convention : Reuss Voigt Hill
#
# Bulk Modulus (GPa) = 12.81824 22.37243 17.59533
# Shear Modulus (GPa) = 20.17138 26.14716 23.15927
#
# Velocity S-wave (km/s) = 3.06379 3.48822 3.28287
# Velocity P-wave (km/s) = 4.29892 5.16087 4.74949
#
# Compressibility (1/GPa) = 0.07801383
#
# Stress axis : x y z
#
# Youngs Moduli (GPa) = 28.53181 64.71306 67.71762
#
# Poissons Ratio (x) = -0.09813 -0.32779
# Poissons Ratio (y) = -0.04326 -0.00107
# Poissons Ratio (z) = -0.13811 -0.00102
#
# Static dielectric constant tensor:
#      x y z
#    x 1.819700 0.000000 0.014440 
#    y 0.000000 1.786730 0.000000 
#    z 0.014440 0.000000 1.769210 
# 
# From -- ./inp_files/272856.got.cif
#   From: 2010.05.17/outbox.cif.g08.bks.cpg/sg12_137_cif.got.tgz:272856.got - 2010.06.03 13:09:07.
