data_PCOD9186102
_publ_section_title
;
Structure prediction by ZEFSAII (Michael W. Deem and Ramdas Pophale) SiO2 
 PCOD9186102
Probable space group: C 2/M
;
_chemical_formula_sum "Si O2"
_cell_formula_units_Z 56
_cell_length_a 22.146983
_cell_length_b 14.076394
_cell_length_c 9.664283
_cell_angle_alpha 90.000000
_cell_angle_beta 72.546711
_cell_angle_gamma 90.000000
_cell_volume 2874.131299
_symmetry_space_group_name_H-M "C 2/M"
_symmetry_group_IT_number 12
_symmetry_cell_setting 'monoclinic'
loop_
_space_group_symop_operation_xyz
x,y,z
-x,y,-z
-x,-y,-z
x,-y,z
1/2+x,1/2+y,z
1/2-x,1/2+y,-z
1/2-x,1/2-y,-z
1/2+x,1/2-y,z
loop_
_atom_site_type_symbol
_atom_site_label
_atom_site_fract_x
_atom_site_fract_y
_atom_site_fract_z
Si Si1 0.285165 0.782856 0.659591
Si Si2 0.574021 0.114767 0.936853
Si Si3 0.850507 0.737654 0.338817
Si Si4 0.556940 0.613632 0.770127
Si Si5 0.416888 0.385365 0.927297
Si Si6 0.826015 0.613243 0.908342
Si Si7 0.798413 0.112646 0.825298
O O1 0.209399 0.787468 0.695425
O O2 0.319354 0.810790 0.494383
O O3 0.311183 0.839113 0.772955
O O4 0.299061 0.672666 0.685471
O O5 0.611445 0.165684 0.786346
O O6 0.578360 0.000000 0.917531
O O7 0.500000 0.140445 0.000000
O O8 0.610608 0.141320 0.053207
O O9 0.898970 0.820082 0.350968
O O10 0.563593 0.500000 0.745221
O O11 0.483273 0.640703 0.811128
O O12 0.578163 0.637874 0.913871
O O13 0.415504 0.500000 0.926846
O O14 0.355066 0.354803 0.887499
O O15 0.828137 0.500000 0.886378
O O16 0.767304 0.632930 0.051336
O O17 0.803201 0.000000 0.798977
#
# Coordination Sequence:
#
# PCOD9186102 Si02
#       7
#     8   8   8   8   8   8   8
#     4  11  24  38  56  89 124 150 193 247 292 356
#     4  10  23  43  65  87 112 152 209 259 298 347
#     4  11  24  38  58  87 119 161 192 235 306 348
#     4   9  18  33  52  82 119 150 186 225 276 348
#     4   8  16  30  53  83 110 143 186 230 271 328
#     4  10  21  39  63  86 111 153 201 249 299 345
#     4  10  19  34  59  86 114 151 191 232 287 346
#
# _framework density 19.484148999999999
#
# number of rings (size 3 to 8) (size 9 to 14) (size 15 to 20)
#    0.000    2.143    1.429    2.143    4.000    2.857 
#    0.000    5.714    0.000    5.143    0.000    0.000 
#    0.000    0.000    0.000    0.000    0.000    0.000 
#
# Total GULP energy -156304.111212 kJ/mol
# GULP energy per Si atom -5582.289686 kJ/mol
# Density = 1.943980 g / cm^3
# Si number density = 19.484149 Si / 1000 Ang^3
#
#
#
# Elastic Constant Matrix: (Units=GPa)
#
#
# Indices 1 2 3 4 5 6 
#
# 1 146.9574 25.9437 44.7252 0.0000 -11.0167 0.0000
# 2 25.9437 56.0415 30.1972 0.0000 -8.1821 0.0000
# 3 44.7252 30.1972 88.6855 0.0000 -10.8870 0.0000
# 4 0.0000 0.0000 0.0000 16.1376 0.0000 1.3473
# 5 -11.0167 -8.1821 -10.8870 0.0000 26.2389 0.0000
# 6 0.0000 0.0000 0.0000 1.3473 0.0000 26.2579
#
#
#
# Elastic Compliance Matrix: (Units=1/GPa)
#
#
# Indices 1 2 3 4 5 6 
#
# 1 0.008259 -0.001786 -0.003372 0.000000 0.001512 0.000000
# 2 -0.001786 0.022631 -0.006354 0.000000 0.003670 0.000000
# 3 -0.003372 -0.006354 0.015513 0.000000 0.003040 0.000000
# 4 0.000000 0.000000 0.000000 0.062234 0.000000 -0.003193
# 5 0.001512 0.003670 0.003040 0.000000 0.041152 0.000000
# 6 0.000000 0.000000 0.000000 -0.003193 0.000000 0.038248
#
#
# Mechanical properties :
#
#
# Convention : Reuss Voigt Hill
#
# Bulk Modulus (GPa) = 42.77362 54.82407 48.79885
# Shear Modulus (GPa) = 22.84635 26.44809 24.64722
#
# Velocity S-wave (km/s) = 3.42798 3.68831 3.56053
# Velocity P-wave (km/s) = 6.13749 6.80713 6.48096
#
# Compressibility (1/GPa) = 0.02337890
#
# Stress axis : x y z
#
# Youngs Moduli (GPa) = 121.07321 44.18795 64.46253
#
# Poissons Ratio (x) = 0.07893 0.21734
# Poissons Ratio (y) = 0.21625 0.40962
# Poissons Ratio (z) = 0.40821 0.28078
#
# Static dielectric constant tensor:
#      x y z
#    x 1.690060 0.000000 -0.006800 
#    y 0.000000 1.722310 0.000000 
#    z -0.006800 0.000000 1.669640 
# 
# From -- ./inp_files/96234.got.cif
#   From: 2010.05.17/outbox.cif.g08.bks.cpg/sg12_49_cif.got.tgz:96234.got - 2010.06.03 13:09:07.
