data_PCOD9186018
_publ_section_title
;
Structure prediction by ZEFSAII (Michael W. Deem and Ramdas Pophale) SiO2 
 PCOD9186018
Probable space group: C 2/M
;
_chemical_formula_sum "Si O2"
_cell_formula_units_Z 56
_cell_length_a 8.878388
_cell_length_b 14.489327
_cell_length_c 22.202614
_cell_angle_alpha 90.000000
_cell_angle_beta 112.303999
_cell_angle_gamma 90.000000
_cell_volume 2642.495132
_symmetry_space_group_name_H-M "C 2/M"
_symmetry_group_IT_number 12
_symmetry_cell_setting 'monoclinic'
loop_
_space_group_symop_operation_xyz
x,y,z
-x,y,-z
-x,-y,-z
x,-y,z
1/2+x,1/2+y,z
1/2-x,1/2+y,-z
1/2-x,1/2-y,-z
1/2+x,1/2-y,z
loop_
_atom_site_type_symbol
_atom_site_label
_atom_site_fract_x
_atom_site_fract_y
_atom_site_fract_z
Si Si1 0.807236 0.210622 0.165005
Si Si2 0.211266 0.108552 0.092785
Si Si3 0.859149 0.247793 0.742785
Si Si4 0.756821 0.352470 0.528759
Si Si5 0.002302 0.898815 0.597818
Si Si6 0.320334 0.391489 0.047509
Si Si7 0.020780 0.697057 0.653161
O O1 0.800125 0.320043 0.149447
O O2 0.701321 0.196682 0.208114
O O3 0.755845 0.161300 0.095944
O O4 0.990662 0.187044 0.211335
O O5 0.016525 0.121095 0.072881
O O6 0.246747 0.000000 0.106853
O O7 0.248027 0.134103 0.028596
O O8 0.921211 0.315058 0.699554
O O9 0.710886 0.186846 0.694467
O O10 0.750000 0.250000 0.500000
O O11 0.634017 0.373109 0.565539
O O12 0.674065 0.405680 0.461308
O O13 0.936143 0.357695 0.585599
O O14 0.002027 0.807807 0.638435
O O15 0.042095 0.000000 0.629313
O O16 0.290780 0.500000 0.050712
#
# Coordination Sequence:
#
# PCOD9186018 Si02
#       7
#     8   8   8   8   8   8   8
#     4  11  19  37  57  83 110 152 191 238 278 332
#     4   9  18  34  57  85 115 146 183 234 292 346
#     4  10  22  34  57  79 109 151 198 226 262 331
#     4   9  17  30  57  82 109 141 177 216 276 331
#     4  10  19  34  58  91 114 138 179 240 288 327
#     4   9  18  34  58  85 113 146 185 232 293 350
#     4  10  19  38  56  80 108 153 189 222 271 338
#
# _framework density 21.192091999999999
#
# number of rings (size 3 to 8) (size 9 to 14) (size 15 to 20)
#    0.000    2.286    2.857    2.143    0.000    0.000 
#    0.000    5.000    0.000    6.000    0.000    0.000 
#    0.000    0.000    0.000    0.000    0.000    0.000 
#
# Total GULP energy -155983.765358 kJ/mol
# GULP energy per Si atom -5570.848763 kJ/mol
# Density = 2.114386 g / cm^3
# Si number density = 21.192092 Si / 1000 Ang^3
#
#
#
# Elastic Constant Matrix: (Units=GPa)
#
#
# Indices 1 2 3 4 5 6 
#
# 1 53.3403 3.8549 6.6907 0.0000 2.8030 0.0000
# 2 3.8549 64.4504 16.7619 0.0000 2.4706 0.0000
# 3 6.6907 16.7619 65.0726 0.0000 4.1153 0.0000
# 4 0.0000 0.0000 0.0000 2.3922 0.0000 8.0911
# 5 2.8030 2.4706 4.1153 0.0000 30.6387 0.0000
# 6 0.0000 0.0000 0.0000 8.0911 0.0000 5.9934
#
#
#
# Elastic Compliance Matrix: (Units=1/GPa)
#
#
# Indices 1 2 3 4 5 6 
#
# 1 0.019085 -0.000642 -0.001704 0.000000 -0.001465 0.000000
# 2 -0.000642 0.016670 -0.004182 0.000000 -0.000724 0.000000
# 3 -0.001704 -0.004182 0.016731 0.000000 -0.001754 0.000000
# 4 0.000000 0.000000 0.000000 -0.117222 0.000000 0.158251
# 5 -0.001465 -0.000724 -0.001754 0.000000 0.033066 0.000000
# 6 0.000000 0.000000 0.000000 0.158251 0.000000 -0.046788
#
#
# Mechanical properties :
#
#
# Convention : Reuss Voigt Hill
#
# Bulk Modulus (GPa) = 25.36243 26.38647 25.87445
# Shear Modulus (GPa) = -95.67687 18.17525 -38.75081
#
# Velocity S-wave (km/s) = -6.72647 2.93173 -4.28079
# Velocity P-wave (km/s) = 6.95222 4.89267 3.49251
#
# Compressibility (1/GPa) = 0.03942840
#
# Stress axis : x y z
#
# Youngs Moduli (GPa) = 52.39790 59.98942 59.76974
#
# Poissons Ratio (x) = 0.03852 0.10186
# Poissons Ratio (y) = 0.03364 0.24996
# Poissons Ratio (z) = 0.08930 0.25088
#
# Static dielectric constant tensor:
#      x y z
#    x 1.815240 0.000000 0.006950 
#    y 0.000000 1.749480 0.000000 
#    z 0.006950 0.000000 1.795540 
# 
# From -- ./inp_files/332694.got.cif
#   From: 2010.05.17/outbox.cif.g08.bks.cpg/sg12_167_cif.got.tgz:332694.got - 2010.06.03 13:09:07.
