data_PCOD9186963
_publ_section_title
;
Structure prediction by ZEFSAII (Michael W. Deem and Ramdas Pophale) SiO2 
 PCOD9186963
Probable space group: C 2/M
;
_chemical_formula_sum "Si O2"
_cell_formula_units_Z 64
_cell_length_a 33.270682
_cell_length_b 8.947884
_cell_length_c 21.040912
_cell_angle_alpha 90.000000
_cell_angle_beta 143.654603
_cell_angle_gamma 90.000000
_cell_volume 3712.325380
_symmetry_space_group_name_H-M "C 2/M"
_symmetry_group_IT_number 12
_symmetry_cell_setting 'monoclinic'
loop_
_space_group_symop_operation_xyz
x,y,z
-x,y,-z
-x,-y,-z
x,-y,z
1/2+x,1/2+y,z
1/2-x,1/2+y,-z
1/2-x,1/2-y,-z
1/2+x,1/2-y,z
loop_
_atom_site_type_symbol
_atom_site_label
_atom_site_fract_x
_atom_site_fract_y
_atom_site_fract_z
Si Si1 0.168945 0.678073 0.574897
Si Si2 0.676142 0.179456 0.089074
Si Si3 0.468454 0.820500 0.148650
Si Si4 0.466440 0.321475 0.644184
Si Si5 0.677290 0.679034 0.230164
Si Si6 0.047932 0.320410 0.120959
Si Si7 0.181556 0.678463 0.740933
Si Si8 0.047816 0.820167 0.620733
O O1 0.159530 0.500000 0.556053
O O2 0.109474 0.761695 0.463012
O O3 0.245570 0.715738 0.651440
O O4 0.166051 0.713167 0.646737
O O5 0.666376 0.246085 0.147296
O O6 0.746286 0.246300 0.152540
O O7 0.680356 0.000000 0.098967
O O8 0.610099 0.218899 0.963845
O O9 0.499891 0.744157 0.250028
O O10 0.510321 0.780963 0.138327
O O11 0.472248 0.000000 0.160492
O O12 0.465457 0.500000 0.645754
O O13 0.510128 0.277245 0.637618
O O14 0.673097 0.500000 0.218061
O O15 0.619556 0.740183 0.202748
O O16 0.057471 0.500000 0.131469
O O17 0.000000 0.281097 0.000000
O O18 0.186902 0.500000 0.753489
O O19 0.120011 0.742314 0.703458
O O20 0.000000 0.780005 0.500000
O O21 0.056579 0.000000 0.630956
#
# Coordination Sequence:
#
# PCOD9186963 Si02
#       8
#     8   8   8   8   8   8   8   8
#     4   9  19  35  53  78 114 147 179 221 277 333
#     4  10  19  35  57  80 111 151 186 223 276 334
#     4  10  22  39  58  80 112 151 185 224 278 335
#     4  11  23  37  57  83 111 146 187 229 275 331
#     4  10  20  33  54  87 116 142 181 234 282 320
#     4  10  19  36  58  83 111 144 190 230 272 332
#     4  10  20  33  55  87 114 141 182 235 281 322
#     4  10  20  36  56  82 113 144 185 232 277 330
#
# _framework density 17.239867
#
# number of rings (size 3 to 8) (size 9 to 14) (size 15 to 20)
#    0.000    2.000    2.500    2.250    0.000    5.500 
#    0.000    1.250    0.000    0.000    0.000    0.000 
#    0.000    0.000    0.000    0.000    0.000    0.000 
#
# Total GULP energy -178635.828670 kJ/mol
# GULP energy per Si atom -5582.369646 kJ/mol
# Density = 1.720063 g / cm^3
# Si number density = 17.239867 Si / 1000 Ang^3
#
#
#
# Elastic Constant Matrix: (Units=GPa)
#
#
# Indices 1 2 3 4 5 6 
#
# 1 117.3038 47.8982 92.9308 0.0000 16.0761 0.0000
# 2 47.8982 42.5837 64.3804 0.0000 8.5605 0.0000
# 3 92.9308 64.3804 162.1232 0.0000 16.0473 0.0000
# 4 0.0000 0.0000 0.0000 30.1007 0.0000 2.1403
# 5 16.0761 8.5605 16.0473 0.0000 31.7072 0.0000
# 6 0.0000 0.0000 0.0000 2.1403 0.0000 27.4395
#
#
#
# Elastic Compliance Matrix: (Units=1/GPa)
#
#
# Indices 1 2 3 4 5 6 
#
# 1 0.017879 -0.011130 -0.005505 0.000000 -0.003274 0.000000
# 2 -0.011130 0.066245 -0.019702 0.000000 -0.002271 0.000000
# 3 -0.005505 -0.019702 0.017206 0.000000 -0.000598 0.000000
# 4 0.000000 0.000000 0.000000 0.033407 0.000000 -0.002606
# 5 -0.003274 -0.002271 -0.000598 0.000000 0.034114 0.000000
# 6 0.000000 0.000000 0.000000 -0.002606 0.000000 0.036647
#
#
# Mechanical properties :
#
#
# Convention : Reuss Voigt Hill
#
# Bulk Modulus (GPa) = 34.89479 81.38105 58.13792
# Shear Modulus (GPa) = 17.37773 25.63624 21.50698
#
# Velocity S-wave (km/s) = 3.17834 3.86039 3.53585
# Velocity P-wave (km/s) = 5.80980 8.19620 7.10393
#
# Compressibility (1/GPa) = 0.02865757
#
# Stress axis : x y z
#
# Youngs Moduli (GPa) = 55.93088 15.09547 58.11824
#
# Poissons Ratio (x) = 0.16802 0.31991
# Poissons Ratio (y) = 0.62253 1.14502
# Poissons Ratio (z) = 0.30787 0.29741
#
# Static dielectric constant tensor:
#      x y z
#    x 1.575880 0.000000 0.011400 
#    y 0.000000 1.572680 0.000000 
#    z 0.011400 0.000000 1.563800 
# 
# From -- ./inp_files/295745.got.cif
#   From: 2010.05.17/outbox.cif.g08.bks.cpg/sg12_148_cif.got.tgz:295745.got - 2010.06.03 13:09:07.
