data_PCOD9186957
_publ_section_title
;
Structure prediction by ZEFSAII (Michael W. Deem and Ramdas Pophale) SiO2 
 PCOD9186957
Probable space group: C 2/M
;
_chemical_formula_sum "Si O2"
_cell_formula_units_Z 56
_cell_length_a 19.392550
_cell_length_b 7.531765
_cell_length_c 18.379171
_cell_angle_alpha 90.000000
_cell_angle_beta 112.342049
_cell_angle_gamma 90.000000
_cell_volume 2482.944029
_symmetry_space_group_name_H-M "C 2/M"
_symmetry_group_IT_number 12
_symmetry_cell_setting 'monoclinic'
loop_
_space_group_symop_operation_xyz
x,y,z
-x,y,-z
-x,-y,-z
x,-y,z
1/2+x,1/2+y,z
1/2-x,1/2+y,-z
1/2-x,1/2-y,-z
1/2+x,1/2-y,z
loop_
_atom_site_type_symbol
_atom_site_label
_atom_site_fract_x
_atom_site_fract_y
_atom_site_fract_z
Si Si1 0.342972 0.282547 0.237486
Si Si2 0.435710 0.793490 0.527659
Si Si3 0.985119 0.208763 0.210164
Si Si4 0.875363 0.293050 0.653093
Si Si5 0.775121 0.712150 0.928510
Si Si6 0.064485 0.714737 0.973230
Si Si7 0.791031 0.216048 0.376947
O O1 0.344723 0.500000 0.237107
O O2 0.424417 0.221494 0.243965
O O3 0.283006 0.220297 0.153818
O O4 0.316326 0.228635 0.306352
O O5 0.500000 0.716557 0.500000
O O6 0.419656 0.714661 0.601290
O O7 0.355703 0.780439 0.456404
O O8 0.457203 0.000000 0.546899
O O9 0.067294 0.284599 0.256696
O O10 0.951246 0.236247 0.116440
O O11 0.992596 0.000000 0.224253
O O12 0.862950 0.500000 0.630556
O O13 0.792600 0.221562 0.636321
O O14 0.777378 0.500000 0.918849
O O15 0.750000 0.750000 0.000000
O O16 0.858753 0.781555 0.961671
O O17 0.066555 0.500000 0.975069
O O18 0.000000 0.777147 0.000000
O O19 0.790991 0.000000 0.378354
#
# Coordination Sequence:
#
# PCOD9186957 Si02
#       7
#     8   8   8   8   8   8   8
#     4   9  19  35  55  80 110 143 184 231 278 326
#     4  10  21  38  59  85 118 150 181 226 279 329
#     4  11  22  37  57  81 112 147 184 233 282 328
#     4  10  22  38  58  83 114 150 186 226 276 333
#     4  10  19  35  57  80 109 145 185 232 278 325
#     4  10  22  37  58  83 109 148 191 230 277 333
#     4  10  21  37  60  85 110 146 188 231 273 326
#
# _framework density 22.55387
#
# number of rings (size 3 to 8) (size 9 to 14) (size 15 to 20)
#    0.000    2.000    1.429    1.714    2.000    1.714 
#    0.000    1.429    0.000    0.000    0.000    0.000 
#    0.000    0.000    0.000    0.000    0.000    0.000 
#
# Total GULP energy -156404.755987 kJ/mol
# GULP energy per Si atom -5585.884142 kJ/mol
# Density = 2.250254 g / cm^3
# Si number density = 22.553870 Si / 1000 Ang^3
#
#
#
# Elastic Constant Matrix: (Units=GPa)
#
#
# Indices 1 2 3 4 5 6 
#
# 1 145.1737 4.6426 11.8947 0.0000 13.2750 0.0000
# 2 4.6426 58.7045 -7.6295 0.0000 -5.7455 0.0000
# 3 11.8947 -7.6295 80.0474 0.0000 12.6251 0.0000
# 4 0.0000 0.0000 0.0000 20.0004 0.0000 5.2613
# 5 13.2750 -5.7455 12.6251 0.0000 42.7987 0.0000
# 6 0.0000 0.0000 0.0000 5.2613 0.0000 -18.8020
#
#
#
# Elastic Compliance Matrix: (Units=1/GPa)
#
#
# Indices 1 2 3 4 5 6 
#
# 1 0.007176 -0.000880 -0.000819 0.000000 -0.002102 0.000000
# 2 -0.000880 0.017508 0.001453 0.000000 0.002194 0.000000
# 3 -0.000819 0.001453 0.013301 0.000000 -0.003475 0.000000
# 4 0.000000 0.000000 0.000000 0.046571 0.000000 0.013032
# 5 -0.002102 0.002194 -0.003475 0.000000 0.025337 0.000000
# 6 0.000000 0.000000 0.000000 0.013032 0.000000 -0.049539
#
#
# Mechanical properties :
#
#
# Convention : Reuss Voigt Hill
#
# Bulk Modulus (GPa) = 26.67061 33.52678 30.09869
# Shear Modulus (GPa) = 68.17499 27.13394 47.65447
#
# Velocity S-wave (km/s) = 5.50393 3.47230 4.60163
# Velocity P-wave (km/s) = 7.22786 5.56536 6.45040
#
# Compressibility (1/GPa) = 0.03749446
#
# Stress axis : x y z
#
# Youngs Moduli (GPa) = 139.35844 57.11779 75.18368
#
# Poissons Ratio (x) = 0.05024 0.06154
# Poissons Ratio (y) = 0.12258 -0.10926
# Poissons Ratio (z) = 0.11407 -0.08301
#
# Static dielectric constant tensor:
#      x y z
#    x 2.773170 0.000000 0.583010 
#    y 0.000000 1.834620 0.000000 
#    z 0.583010 0.000000 2.160950 
# 
# From -- ./inp_files/275083.got.cif
#   From: 2010.05.17/outbox.cif.g08.bks.cpg/sg12_138_cif.got.tgz:275083.got - 2010.06.03 13:09:07.
