data_PCOD9186842
_publ_section_title
;
Structure prediction by ZEFSAII (Michael W. Deem and Ramdas Pophale) SiO2 
 PCOD9186842
Probable space group: C 2/M
;
_chemical_formula_sum "Si O2"
_cell_formula_units_Z 48
_cell_length_a 13.463590
_cell_length_b 17.509247
_cell_length_c 11.790283
_cell_angle_alpha 90.000000
_cell_angle_beta 75.444533
_cell_angle_gamma 90.000000
_cell_volume 2690.204034
_symmetry_space_group_name_H-M "C 2/M"
_symmetry_group_IT_number 12
_symmetry_cell_setting 'monoclinic'
loop_
_space_group_symop_operation_xyz
x,y,z
-x,y,-z
-x,-y,-z
x,-y,z
1/2+x,1/2+y,z
1/2-x,1/2+y,-z
1/2-x,1/2-y,-z
1/2+x,1/2-y,z
loop_
_atom_site_type_symbol
_atom_site_label
_atom_site_fract_x
_atom_site_fract_y
_atom_site_fract_z
Si Si1 0.702241 0.164305 0.513006
Si Si2 0.529643 0.415796 0.180131
Si Si3 0.714770 0.734776 0.882713
Si Si4 0.000000 0.796240 0.000000
Si Si5 0.786328 0.911857 0.261695
Si Si6 0.659640 0.339951 0.325508
Si Si7 0.500000 0.229441 0.500000
O O1 0.750000 0.250000 0.500000
O O2 0.731384 0.120927 0.389302
O O3 0.763384 0.128109 0.600829
O O4 0.579875 0.178159 0.549434
O O5 0.547581 0.500000 0.126711
O O6 0.549080 0.351564 0.080516
O O7 0.409425 0.409519 0.246192
O O8 0.599603 0.401592 0.268644
O O9 0.592299 0.748721 0.916139
O O10 0.733089 0.647933 0.834390
O O11 0.772791 0.788773 0.778494
O O12 0.750000 0.750000 0.000000
O O13 0.758395 0.000000 0.247074
O O14 0.572449 0.284451 0.404229
#
# Coordination Sequence:
#
# PCOD9186842 Si02
#       7
#     8   8   8   4   8   8   4
#     4  10  19  35  56  82 114 152 193 241 287 342
#     4  10  20  34  54  84 118 148 185 237 295 351
#     4  11  21  37  56  87 115 152 194 238 288 345
#     4  10  21  34  56  80 115 154 192 228 283 352
#     4  10  21  38  59  85 119 154 194 241 297 352
#     4  11  21  34  58  87 116 149 195 243 296 340
#     4  10  20  34  58  82 110 152 194 240 280 344
#
# _framework density 17.842513
#
# number of rings (size 3 to 8) (size 9 to 14) (size 15 to 20)
#    0.000    1.667    5.000    2.250    2.333    1.333 
#    0.000    2.500    0.000    0.000    0.000    1.167 
#    0.000    0.000    0.000    0.000    0.000    0.000 
#
# Total GULP energy -133787.725898 kJ/mol
# GULP energy per Si atom -5574.488579 kJ/mol
# Density = 1.780190 g / cm^3
# Si number density = 17.842513 Si / 1000 Ang^3
#
#
#
# Elastic Constant Matrix: (Units=GPa)
#
#
# Indices 1 2 3 4 5 6 
#
# 1 98.7461 28.3585 42.3502 0.0000 9.2514 0.0000
# 2 28.3585 63.1725 26.7960 0.0000 -1.8220 0.0000
# 3 42.3502 26.7960 102.7614 0.0000 -2.6887 0.0000
# 4 0.0000 0.0000 0.0000 16.0905 0.0000 2.2068
# 5 9.2514 -1.8220 -2.6887 0.0000 43.8922 0.0000
# 6 0.0000 0.0000 0.0000 2.2068 0.0000 20.9630
#
#
#
# Elastic Compliance Matrix: (Units=1/GPa)
#
#
# Indices 1 2 3 4 5 6 
#
# 1 0.013635 -0.004269 -0.004593 0.000000 -0.003333 0.000000
# 2 -0.004269 0.019144 -0.003194 0.000000 0.001499 0.000000
# 3 -0.004593 -0.003194 0.012499 0.000000 0.001601 0.000000
# 4 0.000000 0.000000 0.000000 0.063059 0.000000 -0.006638
# 5 -0.003333 0.001499 0.001601 0.000000 0.023646 0.000000
# 6 0.000000 0.000000 0.000000 -0.006638 0.000000 0.048402
#
#
# Mechanical properties :
#
#
# Convention : Reuss Voigt Hill
#
# Bulk Modulus (GPa) = 47.24404 51.07661 49.16033
# Shear Modulus (GPa) = 23.63495 27.33416 25.48455
#
# Velocity S-wave (km/s) = 3.64351 3.91828 3.78339
# Velocity P-wave (km/s) = 6.65102 7.01135 6.83356
#
# Compressibility (1/GPa) = 0.02116669
#
# Stress axis : x y z
#
# Youngs Moduli (GPa) = 73.34004 52.23660 80.00657
#
# Poissons Ratio (x) = 0.22298 0.36751
# Poissons Ratio (y) = 0.31306 0.25550
# Poissons Ratio (z) = 0.33688 0.16682
#
# Static dielectric constant tensor:
#      x y z
#    x 1.647220 0.000000 0.019090 
#    y 0.000000 1.616150 0.000000 
#    z 0.019090 0.000000 1.632830 
# 
# From -- ./inp_files/144818.got.cif
#   From: 2010.05.17/outbox.cif.g08.bks.cpg/sg12_73_cif.got.tgz:144818.got - 2010.06.03 13:09:07.
