data_PCOD9186864
_publ_section_title
;
Structure prediction by ZEFSAII (Michael W. Deem and Ramdas Pophale) SiO2 
 PCOD9186864
Probable space group: C 2/M
;
_chemical_formula_sum "Si O2"
_cell_formula_units_Z 56
_cell_length_a 17.295670
_cell_length_b 18.867184
_cell_length_c 8.116046
_cell_angle_alpha 90.000000
_cell_angle_beta 104.477143
_cell_angle_gamma 90.000000
_cell_volume 2564.338400
_symmetry_space_group_name_H-M "C 2/M"
_symmetry_group_IT_number 12
_symmetry_cell_setting 'monoclinic'
loop_
_space_group_symop_operation_xyz
x,y,z
-x,y,-z
-x,-y,-z
x,-y,z
1/2+x,1/2+y,z
1/2-x,1/2+y,-z
1/2-x,1/2-y,-z
1/2+x,1/2-y,z
loop_
_atom_site_type_symbol
_atom_site_label
_atom_site_fract_x
_atom_site_fract_y
_atom_site_fract_z
Si Si1 0.050236 0.283120 0.356727
Si Si2 0.551305 0.618247 0.269004
Si Si3 0.697823 0.197988 0.649467
Si Si4 0.707700 0.423466 0.454667
Si Si5 0.261744 0.147683 0.798269
Si Si6 0.904797 0.694617 0.080561
Si Si7 0.387659 0.634908 0.056613
O O1 0.057411 0.201614 0.309616
O O2 0.137732 0.305676 0.461882
O O3 0.000000 0.286046 0.500000
O O4 0.996184 0.319837 0.185991
O O5 0.612229 0.581187 0.423926
O O6 0.456921 0.604785 0.213657
O O7 0.588514 0.603614 0.107622
O O8 0.765470 0.141128 0.647893
O O9 0.730502 0.276731 0.705904
O O10 0.646809 0.179549 0.782790
O O11 0.730133 0.500000 0.398606
O O12 0.749456 0.409747 0.650813
O O13 0.199956 0.128578 0.913291
O O14 0.351289 0.158187 0.912073
O O15 0.901001 0.779658 0.048741
#
# Coordination Sequence:
#
# PCOD9186864 Si02
#       7
#     8   8   8   8   8   8   8
#     4   9  18  32  59  95 118 139 183 239 297 342
#     4  10  19  35  56  84 121 152 178 234 286 338
#     4  10  19  37  61  83 112 151 191 242 293 336
#     4  12  26  38  54  82 118 159 203 234 281 343
#     4  11  20  36  60  84 117 151 195 240 291 336
#     4   9  18  32  58  92 117 137 185 247 295 342
#     4   9  19  33  58  88 117 146 190 233 286 347
#
# _framework density 21.837990000000001
#
# number of rings (size 3 to 8) (size 9 to 14) (size 15 to 20)
#    0.000    2.000    1.429    4.714    2.000    0.000 
#    0.000    5.714    0.000    5.571    0.000    0.000 
#    0.000    0.000    0.000    0.000    0.000    0.000 
#
# Total GULP energy -156276.971881 kJ/mol
# GULP energy per Si atom -5581.320424 kJ/mol
# Density = 2.178829 g / cm^3
# Si number density = 21.837990 Si / 1000 Ang^3
#
#
#
# Elastic Constant Matrix: (Units=GPa)
#
#
# Indices 1 2 3 4 5 6 
#
# 1 119.9473 12.4429 39.1417 0.0000 25.0033 0.0000
# 2 12.4429 36.2566 6.6141 0.0000 8.5516 0.0000
# 3 39.1417 6.6141 117.7260 0.0000 34.3109 0.0000
# 4 0.0000 0.0000 0.0000 -1.2275 0.0000 -2.8841
# 5 25.0033 8.5516 34.3109 0.0000 46.3878 0.0000
# 6 0.0000 0.0000 0.0000 -2.8841 0.0000 -4.4577
#
#
#
# Elastic Compliance Matrix: (Units=1/GPa)
#
#
# Indices 1 2 3 4 5 6 
#
# 1 0.009989 -0.002238 -0.002226 0.000000 -0.003325 0.000000
# 2 -0.002238 0.029337 0.000409 0.000000 -0.004504 0.000000
# 3 -0.002226 0.000409 0.011325 0.000000 -0.007252 0.000000
# 4 0.000000 0.000000 0.000000 1.566365 0.000000 -1.013414
# 5 -0.003325 -0.004504 -0.007252 0.000000 0.029544 0.000000
# 6 0.000000 0.000000 0.000000 -1.013414 0.000000 0.431333
#
#
# Mechanical properties :
#
#
# Convention : Reuss Voigt Hill
#
# Bulk Modulus (GPa) = 23.50737 43.36972 33.43854
# Shear Modulus (GPa) = 2.38074 22.52258 12.45166
#
# Velocity S-wave (km/s) = 1.04525 3.21495 2.39044
# Velocity P-wave (km/s) = 3.49922 5.80380 4.79211
#
# Compressibility (1/GPa) = 0.04253985
#
# Stress axis : x y z
#
# Youngs Moduli (GPa) = 100.11324 34.08660 88.29923
#
# Poissons Ratio (x) = 0.07628 0.19659
# Poissons Ratio (y) = 0.22402 -0.03608
# Poissons Ratio (z) = 0.22289 -0.01393
#
# Static dielectric constant tensor:
#      x y z
#    x 1.840360 0.000000 0.002620 
#    y 0.000000 1.736670 0.000000 
#    z 0.002620 0.000000 1.902100 
# 
# From -- ./inp_files/76013.got.cif
#   From: 2010.05.17/outbox.cif.g08.bks.cpg/sg12_39_cif.got.tgz:76013.got - 2010.06.03 13:09:07.
