data_PCOD9186618
_publ_section_title
;
Structure prediction by ZEFSAII (Michael W. Deem and Ramdas Pophale) SiO2 
 PCOD9186618
Probable space group: C 2/M
;
_chemical_formula_sum "Si O2"
_cell_formula_units_Z 56
_cell_length_a 21.986243
_cell_length_b 13.695790
_cell_length_c 17.877383
_cell_angle_alpha 90.000000
_cell_angle_beta 141.552992
_cell_angle_gamma 90.000000
_cell_volume 3347.234756
_symmetry_space_group_name_H-M "C 2/M"
_symmetry_group_IT_number 12
_symmetry_cell_setting 'monoclinic'
loop_
_space_group_symop_operation_xyz
x,y,z
-x,y,-z
-x,-y,-z
x,-y,z
1/2+x,1/2+y,z
1/2-x,1/2+y,-z
1/2-x,1/2-y,-z
1/2+x,1/2-y,z
loop_
_atom_site_type_symbol
_atom_site_label
_atom_site_fract_x
_atom_site_fract_y
_atom_site_fract_z
Si Si1 0.980877 0.881954 0.896176
Si Si2 0.685227 0.887919 0.912139
Si Si3 0.079384 0.115474 0.399405
Si Si4 0.107172 0.704261 0.519006
Si Si5 0.791345 0.883730 0.620209
Si Si6 0.599865 0.689037 0.872962
Si Si7 0.893798 0.614238 0.326396
O O1 0.060292 0.838435 0.916385
O O2 0.874943 0.853751 0.760704
O O3 0.986968 0.000000 0.896938
O O4 0.000000 0.853876 0.000000
O O5 0.616723 0.804754 0.881179
O O6 0.673130 0.876354 0.810859
O O7 0.660615 0.000000 0.906875
O O8 0.796225 0.862648 0.040474
O O9 0.093105 0.182744 0.484956
O O10 0.164288 0.134954 0.419309
O O11 0.980075 0.149675 0.262495
O O12 0.076712 0.000000 0.411235
O O13 0.189141 0.664500 0.541953
O O14 0.137607 0.678777 0.633080
O O15 0.003273 0.648891 0.410186
O O16 0.779557 0.000000 0.615773
O O17 0.895182 0.500000 0.349897
#
# Coordination Sequence:
#
# PCOD9186618 Si02
#       7
#     8   8   8   8   8   8   8
#     4   9  18  31  51  81 106 132 168 209 260 311
#     4  10  20  34  56  80 102 135 175 212 257 309
#     4  10  20  35  52  74 105 139 175 213 251 308
#     4  11  19  33  51  73 106 138 170 207 258 302
#     4   9  18  31  51  76 101 132 170 214 259 302
#     4  10  19  35  55  76 108 135 169 214 262 303
#     4  10  21  34  51  78 107 131 167 216 263 306
#
# _framework density 16.730228
#
# number of rings (size 3 to 8) (size 9 to 14) (size 15 to 20)
#    0.000    2.143    1.429    4.286    2.000    0.000 
#    0.000    1.429    0.000    0.429    0.000    0.000 
#    0.000    0.000    0.000    0.000    0.000    0.000 
#
# Total GULP energy -156135.505774 kJ/mol
# GULP energy per Si atom -5576.268063 kJ/mol
# Density = 1.669215 g / cm^3
# Si number density = 16.730228 Si / 1000 Ang^3
#
#
#
# Elastic Constant Matrix: (Units=GPa)
#
#
# Indices 1 2 3 4 5 6 
#
# 1 58.3148 49.8031 22.0085 0.0000 -0.0141 0.0000
# 2 49.8031 94.7736 23.7957 0.0000 -4.4699 0.0000
# 3 22.0085 23.7957 19.3451 0.0000 4.6843 0.0000
# 4 0.0000 0.0000 0.0000 18.5762 0.0000 -3.9016
# 5 -0.0141 -4.4699 4.6843 0.0000 24.8462 0.0000
# 6 0.0000 0.0000 0.0000 -3.9016 0.0000 31.9510
#
#
#
# Elastic Compliance Matrix: (Units=1/GPa)
#
#
# Indices 1 2 3 4 5 6 
#
# 1 0.039616 -0.013246 -0.029554 0.000000 0.003211 0.000000
# 2 -0.013246 0.020799 -0.011964 0.000000 0.005990 0.000000
# 3 -0.029554 -0.011964 0.105369 0.000000 -0.022035 0.000000
# 4 0.000000 0.000000 0.000000 0.055249 0.000000 0.006747
# 5 0.003211 0.005990 -0.022035 0.000000 0.045481 0.000000
# 6 0.000000 0.000000 0.000000 0.006747 0.000000 0.032122
#
#
# Mechanical properties :
#
#
# Convention : Reuss Voigt Hill
#
# Bulk Modulus (GPa) = 17.77661 40.40535 29.09098
# Shear Modulus (GPa) = 11.71189 20.19644 15.95417
#
# Velocity S-wave (km/s) = 2.64870 3.47822 3.09141
# Velocity P-wave (km/s) = 4.47244 6.35092 5.49258
#
# Compressibility (1/GPa) = 0.05625371
#
# Stress axis : x y z
#
# Youngs Moduli (GPa) = 25.24248 48.08008 9.49046
#
# Poissons Ratio (x) = 0.63686 0.28049
# Poissons Ratio (y) = 0.33436 0.11355
# Poissons Ratio (z) = 0.74603 0.57525
#
# Static dielectric constant tensor:
#      x y z
#    x 1.556430 0.000000 -0.001710 
#    y 0.000000 1.554760 0.000000 
#    z -0.001710 0.000000 1.580980 
# 
# From -- ./inp_files/325160.got.cif
#   From: 2010.05.17/outbox.cif.g08.bks.cpg/sg12_163_cif.got.tgz:325160.got - 2010.06.03 13:09:07.
