data_PCOD9186055
_publ_section_title
;
Structure prediction by ZEFSAII (Michael W. Deem and Ramdas Pophale) SiO2 
 PCOD9186055
Probable space group: C 2/M
;
_chemical_formula_sum "Si O2"
_cell_formula_units_Z 48
_cell_length_a 17.811585
_cell_length_b 11.178222
_cell_length_c 12.028665
_cell_angle_alpha 90.000000
_cell_angle_beta 118.613304
_cell_angle_gamma 90.000000
_cell_volume 2102.441045
_symmetry_space_group_name_H-M "C 2/M"
_symmetry_group_IT_number 12
_symmetry_cell_setting 'monoclinic'
loop_
_space_group_symop_operation_xyz
x,y,z
-x,y,-z
-x,-y,-z
x,-y,z
1/2+x,1/2+y,z
1/2-x,1/2+y,-z
1/2-x,1/2-y,-z
1/2+x,1/2-y,z
loop_
_atom_site_type_symbol
_atom_site_label
_atom_site_fract_x
_atom_site_fract_y
_atom_site_fract_z
Si Si1 0.661012 0.626652 0.352490
Si Si2 0.822408 0.363700 0.225794
Si Si3 0.406715 0.260750 0.483089
Si Si4 0.557802 0.136053 0.904640
Si Si5 0.881408 0.131663 0.924093
Si Si6 0.629561 0.872732 0.334954
O O1 0.709274 0.500000 0.383946
O O2 0.615079 0.639156 0.439109
O O3 0.605334 0.623927 0.200021
O O4 0.694743 0.762752 0.363696
O O5 0.839734 0.500000 0.277280
O O6 0.848679 0.267160 0.335993
O O7 0.880126 0.348778 0.157545
O O8 0.721177 0.357406 0.132017
O O9 0.500000 0.279022 0.500000
O O10 0.399478 0.144189 0.558051
O O11 0.459285 0.138053 0.794794
O O12 0.573729 0.000000 0.961099
O O13 0.578748 0.249401 0.996150
O O14 0.907223 0.000000 0.988325
O O15 0.668289 0.000000 0.336811
#
# Coordination Sequence:
#
# PCOD9186055 Si02
#       6
#     8   8   8   8   8   8
#     4   9  21  38  53  78 115 148 183 223 269 326
#     4  10  19  34  59  84 110 144 181 225 275 328
#     4  10  19  35  60  84 108 137 180 230 280 324
#     4  10  20  36  58  86 112 138 183 235 273 316
#     4  10  22  39  55  77 112 154 188 216 265 332
#     4   9  19  34  57  84 107 136 180 229 276 321
#
# _framework density 22.830603
#
# number of rings (size 3 to 8) (size 9 to 14) (size 15 to 20)
#    1.000    1.333    1.667    1.000    0.000    3.667 
#    0.000    5.000    0.000    0.000    0.000    0.000 
#    0.000    0.000    0.000    0.000    0.000    0.000 
#
# Total GULP energy -133627.968193 kJ/mol
# GULP energy per Si atom -5567.832008 kJ/mol
# Density = 2.277864 g / cm^3
# Si number density = 22.830603 Si / 1000 Ang^3
#
#
#
# Elastic Constant Matrix: (Units=GPa)
#
#
# Indices 1 2 3 4 5 6 
#
# 1 112.4706 41.5981 45.7639 0.0000 -13.4192 0.0000
# 2 41.5981 213.6751 67.7963 0.0000 0.6640 0.0000
# 3 45.7639 67.7963 110.6300 0.0000 -4.6029 0.0000
# 4 0.0000 0.0000 0.0000 -6.1982 0.0000 -138.6662
# 5 -13.4192 0.6640 -4.6029 0.0000 42.7970 0.0000
# 6 0.0000 0.0000 0.0000 -138.6662 0.0000 -816.3152
#
#
#
# Elastic Compliance Matrix: (Units=1/GPa)
#
#
# Indices 1 2 3 4 5 6 
#
# 1 0.011210 -0.000946 -0.003929 0.000000 0.003107 0.000000
# 2 -0.000946 0.005899 -0.003255 0.000000 -0.000738 0.000000
# 3 -0.003929 -0.003255 0.012666 0.000000 0.000181 0.000000
# 4 0.000000 0.000000 0.000000 0.057614 0.000000 -0.009787
# 5 0.003107 -0.000738 0.000181 0.000000 0.024371 0.000000
# 6 0.000000 0.000000 0.000000 -0.009787 0.000000 0.000437
#
#
# Mechanical properties :
#
#
# Convention : Reuss Voigt Hill
#
# Bulk Modulus (GPa) = 73.97513 83.01024 78.49269
# Shear Modulus (GPa) = 37.60478 -137.16878 -49.78200
#
# Velocity S-wave (km/s) = 4.06288 -7.75961 -4.67464
# Velocity P-wave (km/s) = 7.38115 6.62147 2.30624
#
# Compressibility (1/GPa) = 0.01351806
#
# Stress axis : x y z
#
# Youngs Moduli (GPa) = 89.20472 169.51977 78.95005
#
# Poissons Ratio (x) = 0.16029 0.31016
# Poissons Ratio (y) = 0.08435 0.25695
# Poissons Ratio (z) = 0.35044 0.55172
#
# Static dielectric constant tensor:
#      x y z
#    x 1.817720 0.000000 0.008830 
#    y 0.000000 1.925540 0.000000 
#    z 0.008830 0.000000 1.887700 
# 
# From -- ./inp_files/164323.got.cif
#   From: 2010.05.17/outbox.cif.g08.bks.cpg/sg12_83_cif.got.tgz:164323.got - 2010.06.03 13:09:07.
