data_PCOD9186851
_publ_section_title
;
Structure prediction by ZEFSAII (Michael W. Deem and Ramdas Pophale) SiO2 
 PCOD9186851
Probable space group: C 2/M
;
_chemical_formula_sum "Si O2"
_cell_formula_units_Z 44
_cell_length_a 15.057407
_cell_length_b 14.303209
_cell_length_c 14.808718
_cell_angle_alpha 90.000000
_cell_angle_beta 44.847319
_cell_angle_gamma 90.000000
_cell_volume 2249.187949
_symmetry_space_group_name_H-M "C 2/M"
_symmetry_group_IT_number 12
_symmetry_cell_setting 'monoclinic'
loop_
_space_group_symop_operation_xyz
x,y,z
-x,y,-z
-x,-y,-z
x,-y,z
1/2+x,1/2+y,z
1/2-x,1/2+y,-z
1/2-x,1/2-y,-z
1/2+x,1/2-y,z
loop_
_atom_site_type_symbol
_atom_site_label
_atom_site_fract_x
_atom_site_fract_y
_atom_site_fract_z
Si Si1 0.000000 0.273236 0.000000
Si Si2 0.229085 0.652720 0.734609
Si Si3 0.976258 0.894094 0.665232
Si Si4 0.884632 0.281717 0.519813
Si Si5 0.101665 0.230771 0.115802
Si Si6 0.930145 0.603943 0.317078
O O1 0.120293 0.335596 0.886593
O O2 0.959329 0.219008 0.939131
O O3 0.353901 0.610435 0.688227
O O4 0.268530 0.754912 0.666982
O O5 0.168830 0.601719 0.693126
O O6 0.930310 0.854728 0.794788
O O7 0.071947 0.817008 0.556504
O O8 0.023954 0.000000 0.633984
O O9 0.866094 0.353966 0.452864
O O10 0.000000 0.312922 0.500000
O O11 0.036098 0.321922 0.209082
O O12 0.250000 0.250000 0.000000
O O13 0.979798 0.500000 0.297499
#
# Coordination Sequence:
#
# PCOD9186851 Si02
#       6
#     4   8   8   8   8   8
#     4  10  20  36  60  80 112 148 190 224 278 336
#     4  10  19  35  56  83 113 145 182 235 285 328
#     4  10  20  35  58  83 110 146 188 233 282 333
#     4   9  20  36  57  80 113 150 186 224 285 337
#     4  10  20  38  56  81 114 151 183 229 284 335
#     4  10  21  35  56  86 112 143 190 237 282 332
#
# _framework density 19.562615999999998
#
# number of rings (size 3 to 8) (size 9 to 14) (size 15 to 20)
#    0.000    2.182    1.818    1.091    0.000    5.091 
#    0.000    2.727    0.000    0.000    0.000    0.000 
#    0.000    0.000    0.000    0.000    0.000    0.000 
#
# Total GULP energy -122779.989402 kJ/mol
# GULP energy per Si atom -5580.908609 kJ/mol
# Density = 1.951809 g / cm^3
# Si number density = 19.562616 Si / 1000 Ang^3
#
#
#
# Elastic Constant Matrix: (Units=GPa)
#
#
# Indices 1 2 3 4 5 6 
#
# 1 55.4665 28.6693 6.6068 0.0000 14.6159 0.0000
# 2 28.6693 85.9074 13.5983 0.0000 15.1864 0.0000
# 3 6.6068 13.5983 71.8663 0.0000 4.1023 0.0000
# 4 0.0000 0.0000 0.0000 -4.0186 0.0000 -7.6070
# 5 14.6159 15.1864 4.1023 0.0000 40.0938 0.0000
# 6 0.0000 0.0000 0.0000 -7.6070 0.0000 -4.7292
#
#
#
# Elastic Compliance Matrix: (Units=1/GPa)
#
#
# Indices 1 2 3 4 5 6 
#
# 1 0.023029 -0.006565 -0.000541 0.000000 -0.005853 0.000000
# 2 -0.006565 0.014672 -0.002004 0.000000 -0.002959 0.000000
# 3 -0.000541 -0.002004 0.014373 0.000000 -0.000515 0.000000
# 4 0.000000 0.000000 0.000000 0.121692 0.000000 -0.195745
# 5 -0.005853 -0.002959 -0.000515 0.000000 0.028249 0.000000
# 6 0.000000 0.000000 0.000000 -0.195745 0.000000 0.103407
#
#
# Mechanical properties :
#
#
# Convention : Reuss Voigt Hill
#
# Bulk Modulus (GPa) = 29.53812 34.55432 32.04622
# Shear Modulus (GPa) = 14.92869 17.22693 16.07781
#
# Velocity S-wave (km/s) = 2.76547 2.97072 2.86993
# Velocity P-wave (km/s) = 5.03280 5.42851 5.23440
#
# Compressibility (1/GPa) = 0.03385456
#
# Stress axis : x y z
#
# Youngs Moduli (GPa) = 43.42359 68.15896 69.57522
#
# Poissons Ratio (x) = 0.44746 0.03762
# Poissons Ratio (y) = 0.28508 0.13941
# Poissons Ratio (z) = 0.02348 0.13657
#
# Static dielectric constant tensor:
#      x y z
#    x 1.703910 0.000000 0.000330 
#    y 0.000000 1.665380 0.000000 
#    z 0.000330 0.000000 1.718110 
# 
# From -- ./inp_files/214053.got.cif
#   From: 2010.05.17/outbox.cif.g08.bks.cpg/sg12_108_cif.got.tgz:214053.got - 2010.06.03 13:09:07.
