data_PCOD9186751
_publ_section_title
;
Structure prediction by ZEFSAII (Michael W. Deem and Ramdas Pophale) SiO2 
 PCOD9186751
Probable space group: C 2/M
;
_chemical_formula_sum "Si O2"
_cell_formula_units_Z 40
_cell_length_a 29.088242
_cell_length_b 9.231037
_cell_length_c 10.371841
_cell_angle_alpha 90.000000
_cell_angle_beta 119.865945
_cell_angle_gamma 90.000000
_cell_volume 2415.124490
_symmetry_space_group_name_H-M "C 2/M"
_symmetry_group_IT_number 12
_symmetry_cell_setting 'monoclinic'
loop_
_space_group_symop_operation_xyz
x,y,z
-x,y,-z
-x,-y,-z
x,-y,z
1/2+x,1/2+y,z
1/2-x,1/2+y,-z
1/2-x,1/2-y,-z
1/2+x,1/2-y,z
loop_
_atom_site_type_symbol
_atom_site_label
_atom_site_fract_x
_atom_site_fract_y
_atom_site_fract_z
Si Si1 0.249556 0.172894 0.638707
Si Si2 0.966745 0.826929 0.083000
Si Si3 0.525904 0.827220 0.398628
Si Si4 0.353067 0.672383 0.813884
Si Si5 0.131332 0.171649 0.469906
O O1 0.250000 0.250000 0.500000
O O2 0.300630 0.239773 0.779452
O O3 0.190228 0.200705 0.607559
O O4 0.255037 0.000000 0.631479
O O5 0.991187 0.742331 0.236287
O O6 0.971701 0.000000 0.111651
O O7 0.905322 0.793647 0.968644
O O8 0.000000 0.793862 0.000000
O O9 0.500000 0.792010 0.500000
O O10 0.584715 0.762072 0.467941
O O11 0.527669 0.000000 0.386605
O O12 0.342559 0.500000 0.806996
O O13 0.366289 0.702475 0.681146
O O14 0.120431 0.000000 0.467296
#
# Coordination Sequence:
#
# PCOD9186751 Si02
#       5
#     8   8   8   8   8
#     4   9  17  28  45  72 104 134 166 207 254 303
#     4  10  19  35  56  77 104 136 172 215 258 308
#     4  11  24  37  50  75 108 139 174 216 260 306
#     4   9  17  30  50  77 105 130 164 211 258 304
#     4   9  17  32  51  72 101 137 173 210 251 304
#
# _framework density 16.562294000000001
#
# number of rings (size 3 to 8) (size 9 to 14) (size 15 to 20)
#    0.000    2.400    2.000    2.400    0.000    6.800 
#    0.000    0.000    0.000    1.200    0.000    0.000 
#    0.000    0.000    0.000    0.000    0.000    0.000 
#
# Total GULP energy -111487.440945 kJ/mol
# GULP energy per Si atom -5574.372047 kJ/mol
# Density = 1.652460 g / cm^3
# Si number density = 16.562294 Si / 1000 Ang^3
#
#
#
# Elastic Constant Matrix: (Units=GPa)
#
#
# Indices 1 2 3 4 5 6 
#
# 1 143.1330 81.1875 81.4998 0.0000 30.0299 0.0000
# 2 81.1875 63.4057 57.3551 0.0000 12.9175 0.0000
# 3 81.4998 57.3551 83.5310 0.0000 15.1724 0.0000
# 4 0.0000 0.0000 0.0000 24.8756 0.0000 7.5879
# 5 30.0299 12.9175 15.1724 0.0000 27.4222 0.0000
# 6 0.0000 0.0000 0.0000 7.5879 0.0000 31.5046
#
#
#
# Elastic Compliance Matrix: (Units=1/GPa)
#
#
# Indices 1 2 3 4 5 6 
#
# 1 0.032661 -0.032542 -0.006459 0.000000 -0.016864 0.000000
# 2 -0.032542 0.074492 -0.021676 0.000000 0.012539 0.000000
# 3 -0.006459 -0.021676 0.033371 0.000000 -0.001180 0.000000
# 4 0.000000 0.000000 0.000000 0.043388 0.000000 -0.010450
# 5 -0.016864 0.012539 -0.001180 0.000000 0.049680 0.000000
# 6 0.000000 0.000000 0.000000 -0.010450 0.000000 0.034258
#
#
# Mechanical properties :
#
#
# Convention : Reuss Voigt Hill
#
# Bulk Modulus (GPa) = 52.16296 81.12828 66.64562
# Shear Modulus (GPa) = 12.63920 21.42895 17.03408
#
# Velocity S-wave (km/s) = 2.76548 3.60090 3.21048
# Velocity P-wave (km/s) = 6.46224 8.14731 7.35321
#
# Compressibility (1/GPa) = 0.01917069
#
# Stress axis : x y z
#
# Youngs Moduli (GPa) = 30.61777 13.42421 29.96585
#
# Poissons Ratio (x) = 0.43685 0.19356
# Poissons Ratio (y) = 0.99636 0.64953
# Poissons Ratio (z) = 0.19777 0.29098
#
# Static dielectric constant tensor:
#      x y z
#    x 1.569010 0.000000 0.035000 
#    y 0.000000 1.547410 0.000000 
#    z 0.035000 0.000000 1.550660 
# 
# From -- ./inp_files/101028.got.cif
#   From: 2010.05.17/outbox.cif.g08.bks.cpg/sg12_51_cif.got.tgz:101028.got - 2010.06.03 13:09:07.
