data_PCOD9186203
_publ_section_title
;
Structure prediction by ZEFSAII (Michael W. Deem and Ramdas Pophale) SiO2 
 PCOD9186203
Probable space group: C 2/M
;
_chemical_formula_sum "Si O2"
_cell_formula_units_Z 64
_cell_length_a 9.005136
_cell_length_b 30.992881
_cell_length_c 19.027627
_cell_angle_alpha 90.000000
_cell_angle_beta 141.487154
_cell_angle_gamma 90.000000
_cell_volume 3306.806672
_symmetry_space_group_name_H-M "C 2/M"
_symmetry_group_IT_number 12
_symmetry_cell_setting 'monoclinic'
loop_
_space_group_symop_operation_xyz
x,y,z
-x,y,-z
-x,-y,-z
x,-y,z
1/2+x,1/2+y,z
1/2-x,1/2+y,-z
1/2-x,1/2-y,-z
1/2+x,1/2-y,z
loop_
_atom_site_type_symbol
_atom_site_label
_atom_site_fract_x
_atom_site_fract_y
_atom_site_fract_z
Si Si1 0.421097 0.286679 0.597385
Si Si2 0.875578 0.950293 0.791919
Si Si3 0.917703 0.877826 0.393938
Si Si4 0.631836 0.296996 0.121881
Si Si5 0.866318 0.386979 0.206170
Si Si6 0.875373 0.049432 0.262350
Si Si7 0.822921 0.549900 0.059868
Si Si8 0.916101 0.240307 0.747729
O O1 0.250000 0.250000 0.500000
O O2 0.432199 0.334629 0.568867
O O3 0.682956 0.267832 0.678806
O O4 0.370351 0.289507 0.662353
O O5 0.672184 0.917788 0.741391
O O6 0.954480 0.945369 0.741134
O O7 0.805296 0.000000 0.778228
O O8 0.116038 0.942136 0.926875
O O9 0.633311 0.869273 0.295122
O O10 0.935120 0.914859 0.342010
O O11 0.000000 0.893991 0.500000
O O12 0.688102 0.347335 0.146425
O O13 0.517452 0.282554 0.153804
O O14 0.878055 0.271521 0.203304
O O15 0.500000 0.287855 0.000000
O O16 0.803456 0.417172 0.116763
O O17 0.597073 0.054271 0.135550
O O18 0.896049 0.000000 0.296473
O O19 0.795205 0.500000 0.073236
#
# Coordination Sequence:
#
# PCOD9186203 Si02
#       8
#     8   8   8   8   8   8   8   8
#     4  11  22  42  67  93 116 150 203 265 320 352
#     4  10  19  34  59  91 126 163 203 250 294 345
#     4  11  24  42  62  85 116 156 199 258 310 372
#     4  11  22  39  59  86 125 165 197 235 296 375
#     4  11  22  36  57  88 124 154 205 250 296 356
#     4   9  20  37  59  89 127 163 203 248 297 362
#     4   9  17  33  58  89 125 168 205 243 295 345
#     4  10  23  39  62  88 119 157 195 251 301 371
#
# _framework density 19.354019999999998
#
# number of rings (size 3 to 8) (size 9 to 14) (size 15 to 20)
#    0.000    1.750    1.250    3.375    3.500    3.250 
#    0.000    0.625    0.000    1.500    0.000    0.000 
#    0.000    0.000    0.000    0.000    0.000    0.000 
#
# Total GULP energy -178529.492682 kJ/mol
# GULP energy per Si atom -5579.046646 kJ/mol
# Density = 1.930997 g / cm^3
# Si number density = 19.354020 Si / 1000 Ang^3
#
#
#
# Elastic Constant Matrix: (Units=GPa)
#
#
# Indices 1 2 3 4 5 6 
#
# 1 93.4882 43.4231 11.0797 0.0000 -18.8068 0.0000
# 2 43.4231 98.0021 25.8078 0.0000 -5.5241 0.0000
# 3 11.0797 25.8078 56.5073 0.0000 -17.1088 0.0000
# 4 0.0000 0.0000 0.0000 -4.8661 0.0000 -7.2663
# 5 -18.8068 -5.5241 -17.1088 0.0000 21.4527 0.0000
# 6 0.0000 0.0000 0.0000 -7.2663 0.0000 24.1768
#
#
#
# Elastic Compliance Matrix: (Units=1/GPa)
#
#
# Indices 1 2 3 4 5 6 
#
# 1 0.017388 -0.008206 0.005687 0.000000 0.017666 0.000000
# 2 -0.008206 0.015515 -0.008497 0.000000 -0.009976 0.000000
# 3 0.005687 -0.008497 0.028093 0.000000 0.025203 0.000000
# 4 0.000000 0.000000 0.000000 -0.141844 0.000000 -0.042631
# 5 0.017666 -0.009976 0.025203 0.000000 0.079632 0.000000
# 6 0.000000 0.000000 0.000000 -0.042631 0.000000 0.028549
#
#
# Mechanical properties :
#
#
# Convention : Reuss Voigt Hill
#
# Bulk Modulus (GPa) = 25.66476 45.40206 35.53341
# Shear Modulus (GPa) = 80.18683 19.33182 49.75932
#
# Velocity S-wave (km/s) = 6.44372 3.16389 5.07601
# Velocity P-wave (km/s) = 8.28562 6.07096 7.26320
#
# Compressibility (1/GPa) = 0.03896393
#
# Stress axis : x y z
#
# Youngs Moduli (GPa) = 57.51105 64.45242 35.59573
#
# Poissons Ratio (x) = 0.52891 -0.20245
# Poissons Ratio (y) = 0.47195 0.30247
# Poissons Ratio (z) = -0.32709 0.54768
#
# Static dielectric constant tensor:
#      x y z
#    x 1.682370 0.000000 0.000530 
#    y 0.000000 1.667560 0.000000 
#    z 0.000530 0.000000 1.699640 
# 
# From -- ./inp_files/260348.got.cif
#   From: 2010.05.17/outbox.cif.g08.bks.cpg/sg12_131_cif.got.tgz:260348.got - 2010.06.03 13:09:07.
