data_PCOD9186357
_publ_section_title
;
Structure prediction by ZEFSAII (Michael W. Deem and Ramdas Pophale) SiO2 
 PCOD9186357
Probable space group: C 2/M
;
_chemical_formula_sum "Si O2"
_cell_formula_units_Z 52
_cell_length_a 19.096307
_cell_length_b 19.039145
_cell_length_c 13.792568
_cell_angle_alpha 90.000000
_cell_angle_beta 152.861302
_cell_angle_gamma 90.000000
_cell_volume 2287.419878
_symmetry_space_group_name_H-M "C 2/M"
_symmetry_group_IT_number 12
_symmetry_cell_setting 'monoclinic'
loop_
_space_group_symop_operation_xyz
x,y,z
-x,y,-z
-x,-y,-z
x,-y,z
1/2+x,1/2+y,z
1/2-x,1/2+y,-z
1/2-x,1/2-y,-z
1/2+x,1/2-y,z
loop_
_atom_site_type_symbol
_atom_site_label
_atom_site_fract_x
_atom_site_fract_y
_atom_site_fract_z
Si Si1 0.816624 0.632022 0.507733
Si Si2 0.941902 0.327704 0.037703
Si Si3 0.053388 0.500000 0.441762
Si Si4 0.279525 0.892876 0.103398
Si Si5 0.482585 0.662663 0.093454
Si Si6 0.492701 0.230899 0.376444
Si Si7 0.375743 0.380968 0.274918
O O1 0.646582 0.641013 0.338653
O O2 0.943527 0.631713 0.748811
O O3 0.838467 0.562898 0.470277
O O4 0.857868 0.700799 0.493030
O O5 0.950962 0.244861 0.073375
O O6 0.768622 0.353548 0.840123
O O7 0.000000 0.336755 0.000000
O O8 0.921629 0.440319 0.308180
O O9 0.197953 0.921028 0.906082
O O10 0.155507 0.882056 0.033400
O O11 0.353169 0.817227 0.167114
O O12 0.500000 0.652984 0.000000
O O13 0.500000 0.216054 0.500000
O O14 0.459430 0.313062 0.329459
O O15 0.500000 0.414129 0.500000
#
# Coordination Sequence:
#
# PCOD9186357 Si02
#       7
#     8   8   4   8   8   8   8
#     4  11  23  42  63  89 130 166 211 255 317 365
#     4  11  23  39  63  99 133 158 199 257 328 388
#     4  10  24  44  67  82 116 176 228 260 289 368
#     4  11  21  42  63  86 125 168 211 260 303 355
#     4  11  24  39  63 100 130 158 198 262 325 385
#     4  10  19  34  61  89 122 161 200 250 311 377
#     4  11  22  36  64  96 128 160 209 255 315 380
#
# _framework density 22.733035000000001
#
# number of rings (size 3 to 8) (size 9 to 14) (size 15 to 20)
#    0.000    1.231    4.615    2.769    8.615    0.615 
#    0.000   15.385    0.000    0.000    0.000    0.000 
#    0.000    0.000    0.000    0.000    0.000    0.000 
#
# Total GULP energy -145021.351198 kJ/mol
# GULP energy per Si atom -5577.744277 kJ/mol
# Density = 2.268129 g / cm^3
# Si number density = 22.733035 Si / 1000 Ang^3
#
#
#
# Elastic Constant Matrix: (Units=GPa)
#
#
# Indices 1 2 3 4 5 6 
#
# 1 85.5293 19.3033 28.2455 0.0000 23.2663 0.0000
# 2 19.3033 75.6916 13.0388 0.0000 10.2050 0.0000
# 3 28.2455 13.0388 119.0054 0.0000 1.0719 0.0000
# 4 0.0000 0.0000 0.0000 -4.6575 0.0000 8.1255
# 5 23.2663 10.2050 1.0719 0.0000 46.7231 0.0000
# 6 0.0000 0.0000 0.0000 8.1255 0.0000 -15.4147
#
#
#
# Elastic Compliance Matrix: (Units=1/GPa)
#
#
# Indices 1 2 3 4 5 6 
#
# 1 0.015212 -0.002372 -0.003288 0.000000 -0.006982 0.000000
# 2 -0.002372 0.014242 -0.000980 0.000000 -0.001907 0.000000
# 3 -0.003288 -0.000980 0.009276 0.000000 0.001639 0.000000
# 4 0.000000 0.000000 0.000000 -2.671450 0.000000 -1.408185
# 5 -0.006982 -0.001907 0.001639 0.000000 0.025258 0.000000
# 6 0.000000 0.000000 0.000000 -1.408185 0.000000 -0.807161
#
#
# Mechanical properties :
#
#
# Convention : Reuss Voigt Hill
#
# Bulk Modulus (GPa) = 39.29183 44.60017 41.94600
# Shear Modulus (GPa) = -1.47368 19.97276 9.24954
#
# Velocity S-wave (km/s) = -0.80602 2.96730 2.01931
# Velocity P-wave (km/s) = 4.05652 5.60370 4.89167
#
# Compressibility (1/GPa) = 0.02545058
#
# Stress axis : x y z
#
# Youngs Moduli (GPa) = 65.73684 70.21296 107.80528
#
# Poissons Ratio (x) = 0.16653 0.35444
# Poissons Ratio (y) = 0.15592 0.10569
# Poissons Ratio (z) = 0.21613 0.06883
#
# Static dielectric constant tensor:
#      x y z
#    x 1.893920 0.000000 -0.073260 
#    y 0.000000 1.853720 0.000000 
#    z -0.073260 0.000000 1.912510 
# 
# From -- ./inp_files/77949.got.cif
#   From: 2010.05.17/outbox.cif.g08.bks.cpg/sg12_39_cif.got.tgz:77949.got - 2010.06.03 13:09:07.
