data_PCOD9186843
_publ_section_title
;
Structure prediction by ZEFSAII (Michael W. Deem and Ramdas Pophale) SiO2 
 PCOD9186843
Probable space group: C 2/M
;
_chemical_formula_sum "Si O2"
_cell_formula_units_Z 44
_cell_length_a 12.414038
_cell_length_b 14.124280
_cell_length_c 9.989441
_cell_angle_alpha 90.000000
_cell_angle_beta 86.839933
_cell_angle_gamma 90.000000
_cell_volume 1748.878731
_symmetry_space_group_name_H-M "C 2/M"
_symmetry_group_IT_number 12
_symmetry_cell_setting 'monoclinic'
loop_
_space_group_symop_operation_xyz
x,y,z
-x,y,-z
-x,-y,-z
x,-y,z
1/2+x,1/2+y,z
1/2-x,1/2+y,-z
1/2-x,1/2-y,-z
1/2+x,1/2-y,z
loop_
_atom_site_type_symbol
_atom_site_label
_atom_site_fract_x
_atom_site_fract_y
_atom_site_fract_z
Si Si1 0.500000 0.248572 0.500000
Si Si2 0.734819 0.634371 0.881498
Si Si3 0.151504 0.102331 0.425486
Si Si4 0.298356 0.856921 0.163326
Si Si5 0.499324 0.398011 0.191428
Si Si6 0.967922 0.321504 0.796148
O O1 0.384746 0.305894 0.490210
O O2 0.514452 0.190637 0.363411
O O3 0.718035 0.745879 0.858374
O O4 0.628682 0.597674 0.816513
O O5 0.857450 0.622785 0.824990
O O6 0.739119 0.604128 0.036277
O O7 0.244877 0.115665 0.308109
O O8 0.044523 0.098273 0.338727
O O9 0.166669 0.000000 0.491097
O O10 0.426381 0.871492 0.152515
O O11 0.538554 0.500000 0.131768
O O12 0.535175 0.289609 0.148059
#
# Coordination Sequence:
#
# PCOD9186843 Si02
#       6
#     4   8   8   8   8   8
#     4  10  19  36  56  82 113 150 194 246 281 340
#     4  10  19  35  56  82 116 151 190 237 288 344
#     4  10  20  37  55  85 120 152 190 238 294 343
#     4  10  20  34  56  82 114 151 191 236 290 347
#     4   9  19  35  56  84 116 150 189 232 287 346
#     4  10  20  37  58  84 114 150 197 238 290 338
#
# _framework density 25.158978000000001
#
# number of rings (size 3 to 8) (size 9 to 14) (size 15 to 20)
#    0.000    2.182    3.636    0.818    0.000    2.909 
#    3.273    2.727    0.000    2.182    0.000    1.273 
#    0.000    0.000    0.000    0.000    0.000    0.000 
#
# Total GULP energy -122646.783152 kJ/mol
# GULP energy per Si atom -5574.853780 kJ/mol
# Density = 2.510172 g / cm^3
# Si number density = 25.158978 Si / 1000 Ang^3
#
#
#
# Elastic Constant Matrix: (Units=GPa)
#
#
# Indices 1 2 3 4 5 6 
#
# 1 188.1831 18.9944 15.6021 0.0000 -21.1194 0.0000
# 2 18.9944 85.3617 6.9880 0.0000 -4.0819 0.0000
# 3 15.6021 6.9880 70.9383 0.0000 -18.3686 0.0000
# 4 0.0000 0.0000 0.0000 71.3710 0.0000 12.2507
# 5 -21.1194 -4.0819 -18.3686 0.0000 37.8884 0.0000
# 6 0.0000 0.0000 0.0000 12.2507 0.0000 15.7067
#
#
#
# Elastic Compliance Matrix: (Units=1/GPa)
#
#
# Indices 1 2 3 4 5 6 
#
# 1 0.005787 -0.001115 -0.000410 0.000000 0.002907 0.000000
# 2 -0.001115 0.012047 -0.000876 0.000000 0.000251 0.000000
# 3 -0.000410 -0.000876 0.016227 0.000000 0.007544 0.000000
# 4 0.000000 0.000000 0.000000 0.016177 0.000000 -0.012617
# 5 0.002907 0.000251 0.007544 0.000000 0.031698 0.000000
# 6 0.000000 0.000000 0.000000 -0.012617 0.000000 0.073508
#
#
# Mechanical properties :
#
#
# Convention : Reuss Voigt Hill
#
# Bulk Modulus (GPa) = 34.18017 47.51692 40.84855
# Shear Modulus (GPa) = 29.41197 45.18647 37.29922
#
# Velocity S-wave (km/s) = 3.42284 4.24257 3.85456
# Velocity P-wave (km/s) = 5.40706 6.55186 6.00679
#
# Compressibility (1/GPa) = 0.02925673
#
# Stress axis : x y z
#
# Youngs Moduli (GPa) = 172.80905 83.01000 61.62700
#
# Poissons Ratio (x) = 0.09256 0.02528
# Poissons Ratio (y) = 0.19269 0.05401
# Poissons Ratio (z) = 0.07090 0.07275
#
# Static dielectric constant tensor:
#      x y z
#    x 1.996820 0.000000 -0.030660 
#    y 0.000000 2.120430 0.000000 
#    z -0.030660 0.000000 2.077960 
# 
# From -- ./inp_files/129705.got.cif
#   From: 2010.05.17/outbox.cif.g08.bks.cpg/sg12_65_cif.got.tgz:129705.got - 2010.06.03 13:09:07.
