data_PCOD9186541
_publ_section_title
;
Structure prediction by ZEFSAII (Michael W. Deem and Ramdas Pophale) SiO2 
 PCOD9186541
Probable space group: C 2/M
;
_chemical_formula_sum "Si O2"
_cell_formula_units_Z 48
_cell_length_a 28.072839
_cell_length_b 20.842089
_cell_length_c 22.536147
_cell_angle_alpha 90.000000
_cell_angle_beta 167.764405
_cell_angle_gamma 90.000000
_cell_volume 2794.497553
_symmetry_space_group_name_H-M "C 2/M"
_symmetry_group_IT_number 12
_symmetry_cell_setting 'monoclinic'
loop_
_space_group_symop_operation_xyz
x,y,z
-x,y,-z
-x,-y,-z
x,-y,z
1/2+x,1/2+y,z
1/2-x,1/2+y,-z
1/2-x,1/2-y,-z
1/2+x,1/2-y,z
loop_
_atom_site_type_symbol
_atom_site_label
_atom_site_fract_x
_atom_site_fract_y
_atom_site_fract_z
Si Si1 0.432031 0.694446 0.218738
Si Si2 0.895392 0.571216 0.717763
Si Si3 0.420379 0.573554 0.548427
Si Si4 0.258776 0.367703 0.230023
Si Si5 0.072519 0.248024 0.153002
Si Si6 0.367386 0.317864 0.658183
O O1 0.400730 0.629777 0.218948
O O2 0.672572 0.724152 0.533143
O O3 0.451076 0.674665 0.172837
O O4 0.250000 0.750000 0.000000
O O5 0.871259 0.500000 0.664300
O O6 0.747288 0.575383 0.598536
O O7 0.806331 0.624963 0.564628
O O8 0.146063 0.585587 0.044764
O O9 0.499252 0.500000 0.638461
O O10 0.291272 0.595892 0.331978
O O11 0.500000 0.346299 0.500000
O O12 0.091248 0.307758 0.031950
O O13 0.049419 0.193053 0.174306
O O14 0.000000 0.225656 0.000000
O O15 0.250000 0.250000 0.500000
#
# Coordination Sequence:
#
# PCOD9186541 Si02
#       6
#     8   8   8   8   8   8
#     4  10  20  34  56  79 104 142 182 222 266 316
#     4  10  19  35  54  74 106 149 180 214 266 322
#     4  10  20  35  53  76 112 148 177 211 264 329
#     4  12  22  31  49  79 114 147 176 214 262 327
#     4  11  20  37  53  76 107 143 182 225 267 314
#     4   9  18  33  53  74 103 137 179 224 259 307
#
# _framework density 17.176611000000001
#
# number of rings (size 3 to 8) (size 9 to 14) (size 15 to 20)
#    0.000    1.667    6.667    1.000    2.333    2.667 
#    0.000    0.000    0.000    0.500    0.000    0.000 
#    0.000    6.000    0.000    0.000    0.000    0.000 
#
# Total GULP energy -133841.482777 kJ/mol
# GULP energy per Si atom -5576.728449 kJ/mol
# Density = 1.713752 g / cm^3
# Si number density = 17.176611 Si / 1000 Ang^3
#
#
#
# Elastic Constant Matrix: (Units=GPa)
#
#
# Indices 1 2 3 4 5 6 
#
# 1 84.9112 43.3448 31.6188 -0.0598 -33.8807 -0.0249
# 2 43.3448 142.8347 58.8397 -0.0527 -22.3617 -0.0281
# 3 31.6188 58.8397 85.2948 -0.1207 -3.6658 -0.1444
# 4 -0.0598 -0.0527 -0.1207 18.1908 -0.0957 -3.6431
# 5 -33.8807 -22.3617 -3.6658 -0.0957 26.3268 -0.0685
# 6 -0.0249 -0.0281 -0.1444 -3.6431 -0.0685 26.2825
#
#
#
# Elastic Compliance Matrix: (Units=1/GPa)
#
#
# Indices 1 2 3 4 5 6 
#
# 1 0.030618 0.001093 -0.010433 0.000261 0.038880 0.000110
# 2 0.001093 0.011505 -0.007909 0.000038 0.010078 0.000001
# 3 -0.010433 -0.007909 0.020303 -0.000004 -0.017317 0.000047
# 4 0.000261 0.000038 -0.000004 0.056547 0.000594 0.007840
# 5 0.038880 0.010078 -0.017317 0.000594 0.094172 0.000280
# 6 0.000110 0.000001 0.000047 0.007840 0.000280 0.039136
#
#
# Mechanical properties :
#
#
# Convention : Reuss Voigt Hill
#
# Bulk Modulus (GPa) = 35.80417 64.51636 50.16027
# Shear Modulus (GPa) = 16.88692 26.10918 21.49805
#
# Velocity S-wave (km/s) = 3.13890 3.90300 3.54162
# Velocity P-wave (km/s) = 5.83326 7.61271 6.78160
#
# Compressibility (1/GPa) = 0.02792971
#
# Stress axis : x y z
#
# Youngs Moduli (GPa) = 32.66097 86.91787 49.25361
#
# Poissons Ratio (x) = -0.09504 0.51385
# Poissons Ratio (y) = -0.03571 0.38954
# Poissons Ratio (z) = 0.34074 0.68742
#
# Static dielectric constant tensor:
#      x y z
#    x 1.655950 -0.000040 0.031060 
#    y -0.000040 1.606110 0.000000 
#    z 0.031060 0.000000 1.597510 
# 
# From -- ./inp_files/113173.got.cif
#   From: 2010.05.17/outbox.cif.g08.bks.cpg/sg12_57_cif.got.tgz:113173.got - 2010.06.03 13:09:07.
