data_PCOD9186870
_publ_section_title
;
Structure prediction by ZEFSAII (Michael W. Deem and Ramdas Pophale) SiO2 
 PCOD9186870
Probable space group: C 2/M
;
_chemical_formula_sum "Si O2"
_cell_formula_units_Z 64
_cell_length_a 12.679182
_cell_length_b 20.578795
_cell_length_c 11.528950
_cell_angle_alpha 90.000000
_cell_angle_beta 88.459276
_cell_angle_gamma 90.000000
_cell_volume 3007.072452
_symmetry_space_group_name_H-M "C 2/M"
_symmetry_group_IT_number 12
_symmetry_cell_setting 'monoclinic'
loop_
_space_group_symop_operation_xyz
x,y,z
-x,y,-z
-x,-y,-z
x,-y,z
1/2+x,1/2+y,z
1/2-x,1/2+y,-z
1/2-x,1/2-y,-z
1/2+x,1/2-y,z
loop_
_atom_site_type_symbol
_atom_site_label
_atom_site_fract_x
_atom_site_fract_y
_atom_site_fract_z
Si Si1 0.331013 0.578844 0.297044
Si Si2 0.886916 0.235206 0.964279
Si Si3 0.579437 0.922857 0.743281
Si Si4 0.782383 0.316241 0.163348
Si Si5 0.048294 0.884771 0.378298
Si Si6 0.179124 0.758305 0.388909
Si Si7 0.761717 0.574639 0.449955
Si Si8 0.135086 0.351257 0.221727
O O1 0.330965 0.500000 0.287732
O O2 0.452204 0.604079 0.292699
O O3 0.282576 0.599316 0.425717
O O4 0.248545 0.613091 0.212355
O O5 0.829456 0.177753 0.897069
O O6 0.887162 0.299115 0.880119
O O7 0.832802 0.260167 0.083090
O O8 0.000000 0.214238 0.000000
O O9 0.646328 0.879345 0.831218
O O10 0.632163 0.902865 0.617517
O O11 0.458660 0.902749 0.762833
O O12 0.593221 0.000000 0.756620
O O13 0.758331 0.286597 0.289088
O O14 0.084332 0.810447 0.397603
O O15 0.163160 0.918253 0.362898
O O16 0.000000 0.911937 0.500000
O O17 0.250000 0.750000 0.500000
O O18 0.133987 0.692669 0.337400
O O19 0.781767 0.500000 0.473608
#
# Coordination Sequence:
#
# PCOD9186870 Si02
#       8
#     8   8   8   8   8   8   8   8
#     4  10  21  39  58  84 121 166 215 257 301 367
#     4  10  21  44  67  92 118 162 213 264 315 372
#     4  11  22  39  63  92 129 170 208 258 314 381
#     4  10  22  42  67  92 123 165 210 256 318 381
#     4  10  19  35  56  85 123 164 201 244 309 370
#     4  11  23  40  61  96 130 161 198 264 323 376
#     4   9  18  34  57  85 123 166 210 246 304 380
#     4  11  24  39  62  91 125 162 210 256 312 370
#
# _framework density 21.283159000000001
#
# number of rings (size 3 to 8) (size 9 to 14) (size 15 to 20)
#    0.000    1.750    2.500    2.250    0.000    5.000 
#    2.250    3.750    0.000    0.375    0.000    0.000 
#    0.000    0.000    0.000    0.000    0.000    0.000 
#
# Total GULP energy -178368.794044 kJ/mol
# GULP energy per Si atom -5574.024814 kJ/mol
# Density = 2.123472 g / cm^3
# Si number density = 21.283159 Si / 1000 Ang^3
#
#
#
# Elastic Constant Matrix: (Units=GPa)
#
#
# Indices 1 2 3 4 5 6 
#
# 1 94.5694 17.9617 24.2258 0.0000 20.6270 0.0000
# 2 17.9617 77.9224 14.0973 0.0000 18.4552 0.0000
# 3 24.2258 14.0973 64.6136 0.0000 8.2265 0.0000
# 4 0.0000 0.0000 0.0000 5.7694 0.0000 -0.1613
# 5 20.6270 18.4552 8.2265 0.0000 33.3005 0.0000
# 6 0.0000 0.0000 0.0000 -0.1613 0.0000 37.2827
#
#
#
# Elastic Compliance Matrix: (Units=1/GPa)
#
#
# Indices 1 2 3 4 5 6 
#
# 1 0.013202 -0.000720 -0.003926 0.000000 -0.006808 0.000000
# 2 -0.000720 0.015136 -0.002087 0.000000 -0.007427 0.000000
# 3 -0.003926 -0.002087 0.017497 0.000000 -0.000734 0.000000
# 4 0.000000 0.000000 0.000000 0.173348 0.000000 0.000750
# 5 -0.006808 -0.007427 -0.000734 0.000000 0.038544 0.000000
# 6 0.000000 0.000000 0.000000 0.000750 0.000000 0.026825
#
#
# Mechanical properties :
#
#
# Convention : Reuss Voigt Hill
#
# Bulk Modulus (GPa) = 30.89361 38.85277 34.87319
# Shear Modulus (GPa) = 16.19130 27.32522 21.75826
#
# Velocity S-wave (km/s) = 2.76117 3.58703 3.20085
# Velocity P-wave (km/s) = 4.97116 5.95403 5.48466
#
# Compressibility (1/GPa) = 0.03236915
#
# Stress axis : x y z
#
# Youngs Moduli (GPa) = 75.74757 66.06870 57.15167
#
# Poissons Ratio (x) = 0.04759 0.22437
# Poissons Ratio (y) = 0.05457 0.11926
# Poissons Ratio (z) = 0.29737 0.13786
#
# Static dielectric constant tensor:
#      x y z
#    x 1.901700 0.000000 0.007630 
#    y 0.000000 1.799080 0.000000 
#    z 0.007630 0.000000 1.814220 
# 
# From -- ./inp_files/135367.got.cif
#   From: 2010.05.17/outbox.cif.g08.bks.cpg/sg12_68_cif.got.tgz:135367.got - 2010.06.03 13:09:07.
