data_PCOD9186674
_publ_section_title
;
Structure prediction by ZEFSAII (Michael W. Deem and Ramdas Pophale) SiO2 
 PCOD9186674
Probable space group: C 2/M
;
_chemical_formula_sum "Si O2"
_cell_formula_units_Z 40
_cell_length_a 14.178206
_cell_length_b 12.887481
_cell_length_c 25.035522
_cell_angle_alpha 90.000000
_cell_angle_beta 20.405632
_cell_angle_gamma 90.000000
_cell_volume 1594.972871
_symmetry_space_group_name_H-M "C 2/M"
_symmetry_group_IT_number 12
_symmetry_cell_setting 'monoclinic'
loop_
_space_group_symop_operation_xyz
x,y,z
-x,y,-z
-x,-y,-z
x,-y,z
1/2+x,1/2+y,z
1/2-x,1/2+y,-z
1/2-x,1/2-y,-z
1/2+x,1/2-y,z
loop_
_atom_site_type_symbol
_atom_site_label
_atom_site_fract_x
_atom_site_fract_y
_atom_site_fract_z
Si Si1 0.108448 0.119602 0.123535
Si Si2 0.356228 0.332791 0.518697
Si Si3 0.007052 0.611332 0.431383
Si Si4 0.696739 0.112648 0.800083
Si Si5 0.208230 0.711566 0.163131
O O1 0.125795 0.211716 0.157616
O O2 0.818441 0.129661 0.249348
O O3 0.096956 0.000000 0.151917
O O4 0.387970 0.124482 0.942215
O O5 0.500000 0.334406 0.500000
O O6 0.342573 0.212937 0.505935
O O7 0.568471 0.386435 0.367677
O O8 0.043849 0.362452 0.690131
O O9 0.910823 0.500000 0.462137
O O10 0.000000 0.605932 0.500000
O O11 0.738900 0.205414 0.818244
O O12 0.701356 0.000000 0.825399
O O13 0.500000 0.659647 0.000000
#
# Coordination Sequence:
#
# PCOD9186674 Si02
#       5
#     8   8   8   8   8
#     4   9  16  31  53  80 106 132 170 223 277 314
#     4  11  21  36  55  82 108 145 183 217 263 316
#     4   9  16  28  50  79 109 132 166 219 274 315
#     4  10  22  35  54  80 111 146 181 216 261 322
#     4  10  19  35  55  81 106 137 174 226 282 319
#
# _framework density 25.078797000000002
#
# number of rings (size 3 to 8) (size 9 to 14) (size 15 to 20)
#    0.000    2.200    4.000    1.200    0.000    4.400 
#    0.000    0.000    0.000    0.600    0.000    0.000 
#    0.000    0.000    0.000    0.000    0.000    0.000 
#
# Total GULP energy -111762.300621 kJ/mol
# GULP energy per Si atom -5588.115031 kJ/mol
# Density = 2.502172 g / cm^3
# Si number density = 25.078797 Si / 1000 Ang^3
#
#
#
# Elastic Constant Matrix: (Units=GPa)
#
#
# Indices 1 2 3 4 5 6 
#
# 1 49.4021 7.9441 29.6215 -0.0098 -10.9961 0.0040
# 2 7.9441 48.5321 12.0571 0.0138 4.5726 0.0001
# 3 29.6215 12.0571 213.6957 0.0203 -41.3846 0.0477
# 4 -0.0098 0.0138 0.0203 22.4733 0.0340 -0.0955
# 5 -10.9961 4.5726 -41.3846 0.0340 38.2567 -0.0328
# 6 0.0040 0.0001 0.0477 -0.0955 -0.0328 -2.2831
#
#
#
# Elastic Compliance Matrix: (Units=1/GPa)
#
#
# Indices 1 2 3 4 5 6 
#
# 1 0.023162 -0.003741 -0.002054 0.000007 0.004883 -0.000072
# 2 -0.003741 0.022215 -0.001843 -0.000005 -0.005725 0.000038
# 3 -0.002054 -0.001843 0.006321 -0.000015 0.006468 0.000036
# 4 0.000007 -0.000005 -0.000015 0.044489 -0.000055 -0.001861
# 5 0.004883 -0.005725 0.006468 -0.000055 0.035223 -0.000360
# 6 -0.000072 0.000038 0.000036 -0.001861 -0.000360 -0.437913
#
#
# Mechanical properties :
#
#
# Convention : Reuss Voigt Hill
#
# Bulk Modulus (GPa) = 27.45713 45.65281 36.55497
# Shear Modulus (GPa) = -17.91562 29.15653 5.62045
#
# Velocity S-wave (km/s) = -2.67568 3.41339 1.49866
# Velocity P-wave (km/s) = 1.19434 5.81190 4.19551
#
# Compressibility (1/GPa) = 0.03642042
#
# Stress axis : x y z
#
# Youngs Moduli (GPa) = 43.17421 45.01537 158.20820
#
# Poissons Ratio (x) = 0.16841 0.32495
# Poissons Ratio (y) = 0.16152 0.29165
# Poissons Ratio (z) = 0.08868 0.08298
#
# Static dielectric constant tensor:
#      x y z
#    x 1.996750 -0.000010 0.001710 
#    y -0.000010 1.958710 0.000040 
#    z 0.001710 0.000040 2.046390 
# 
# From -- ./inp_files/142533.got.cif
#   From: 2010.05.17/outbox.cif.g08.bks.cpg/sg12_72_cif.got.tgz:142533.got - 2010.06.03 13:09:07.
