data_PCOD9186770
_publ_section_title
;
Structure prediction by ZEFSAII (Michael W. Deem and Ramdas Pophale) SiO2 
 PCOD9186770
Probable space group: C 2/M
;
_chemical_formula_sum "Si O2"
_cell_formula_units_Z 64
_cell_length_a 21.260985
_cell_length_b 8.244150
_cell_length_c 19.314156
_cell_angle_alpha 90.000000
_cell_angle_beta 82.835277
_cell_angle_gamma 90.000000
_cell_volume 3358.927131
_symmetry_space_group_name_H-M "C 2/M"
_symmetry_group_IT_number 12
_symmetry_cell_setting 'monoclinic'
loop_
_space_group_symop_operation_xyz
x,y,z
-x,y,-z
-x,-y,-z
x,-y,z
1/2+x,1/2+y,z
1/2-x,1/2+y,-z
1/2-x,1/2-y,-z
1/2+x,1/2-y,z
loop_
_atom_site_type_symbol
_atom_site_label
_atom_site_fract_x
_atom_site_fract_y
_atom_site_fract_z
Si Si1 0.594484 0.693173 0.726160
Si Si2 0.060935 0.696075 0.582002
Si Si3 0.194365 0.305818 0.956655
Si Si4 0.060471 0.196091 0.036213
Si Si5 0.214324 0.304904 0.797069
Si Si6 0.541280 0.698320 0.197031
Si Si7 0.846733 0.804544 0.716132
Si Si8 0.583584 0.195372 0.424919
O O1 0.595708 0.500000 0.733187
O O2 0.594402 0.737764 0.645336
O O3 0.653540 0.762569 0.759766
O O4 0.527506 0.752757 0.766992
O O5 0.061901 0.500000 0.584342
O O6 0.089919 0.747153 0.504047
O O7 0.986803 0.747753 0.590619
O O8 0.194862 0.500000 0.954755
O O9 0.206265 0.244347 0.876833
O O10 0.250000 0.250000 0.000000
O O11 0.126359 0.249614 0.993807
O O12 0.054245 0.250234 0.116660
O O13 0.059526 0.000000 0.036571
O O14 0.000000 0.252273 0.000000
O O15 0.219061 0.500000 0.800089
O O16 0.279106 0.244414 0.752855
O O17 0.541255 0.500000 0.197828
O O18 0.596817 0.752870 0.240961
O O19 0.864658 0.755766 0.635977
O O20 0.846225 0.000000 0.719368
O O21 0.583530 0.000000 0.424503
#
# Coordination Sequence:
#
# PCOD9186770 Si02
#       8
#     8   8   8   8   8   8   8   8
#     4  11  21  35  58  86 113 145 188 232 271 325
#     4   9  18  34  55  81 116 150 177 217 279 335
#     4  11  23  40  61  83 111 149 193 237 283 339
#     4  10  20  36  58  82 113 150 185 229 286 341
#     4  10  23  40  57  78 113 154 183 222 284 340
#     4   9  18  33  54  81 110 141 179 226 281 330
#     4  10  19  35  56  78 107 144 185 229 274 325
#     4   9  18  33  55  83 113 145 181 224 273 326
#
# _framework density 19.053704
#
# number of rings (size 3 to 8) (size 9 to 14) (size 15 to 20)
#    0.000    2.125    1.250    3.000    0.000    5.250 
#    0.000    5.000    0.000    0.000    0.000    0.000 
#    0.000    0.000    0.000    0.000    0.000    0.000 
#
# Total GULP energy -178690.047131 kJ/mol
# GULP energy per Si atom -5584.063973 kJ/mol
# Density = 1.901034 g / cm^3
# Si number density = 19.053704 Si / 1000 Ang^3
#
#
#
# Elastic Constant Matrix: (Units=GPa)
#
#
# Indices 1 2 3 4 5 6 
#
# 1 168.5984 10.2220 104.3750 0.0000 -10.0097 0.0000
# 2 10.2220 5.7344 10.5149 0.0000 -2.4815 0.0000
# 3 104.3750 10.5149 189.5925 0.0000 -12.6939 0.0000
# 4 0.0000 0.0000 0.0000 24.7240 0.0000 -2.6835
# 5 -10.0097 -2.4815 -12.6939 0.0000 26.5541 0.0000
# 6 0.0000 0.0000 0.0000 -2.6835 0.0000 26.3713
#
#
#
# Elastic Compliance Matrix: (Units=1/GPa)
#
#
# Indices 1 2 3 4 5 6 
#
# 1 0.009325 -0.007834 -0.004662 0.000000 0.000554 0.000000
# 2 -0.007834 0.205456 -0.006192 0.000000 0.013287 0.000000
# 3 -0.004662 -0.006192 0.008294 0.000000 0.001629 0.000000
# 4 0.000000 0.000000 0.000000 0.040898 0.000000 0.004162
# 5 0.000554 0.013287 0.001629 0.000000 0.039888 0.000000
# 6 0.000000 0.000000 0.000000 0.004162 0.000000 0.038344
#
#
# Mechanical properties :
#
#
# Convention : Reuss Voigt Hill
#
# Bulk Modulus (GPa) = 5.38510 68.23879 36.81194
# Shear Modulus (GPa) = 11.32550 31.45078 21.38814
#
# Velocity S-wave (km/s) = 2.44067 4.06721 3.35404
# Velocity P-wave (km/s) = 3.28252 7.61236 5.86186
#
# Compressibility (1/GPa) = 0.18569758
#
# Stress axis : x y z
#
# Youngs Moduli (GPa) = 107.23352 4.86722 120.57500
#
# Poissons Ratio (x) = 0.03813 0.56215
# Poissons Ratio (y) = 0.84012 0.74661
# Poissons Ratio (z) = 0.49995 0.03014
#
# Static dielectric constant tensor:
#      x y z
#    x 1.638090 0.000000 -0.004910 
#    y 0.000000 1.673150 0.000000 
#    z -0.004910 0.000000 1.659370 
# 
# From -- ./inp_files/281410.got.cif
#   From: 2010.05.17/outbox.cif.g08.bks.cpg/sg12_141_cif.got.tgz:281410.got - 2010.06.03 13:09:07.
