data_PCOD9186048
_publ_section_title
;
Structure prediction by ZEFSAII (Michael W. Deem and Ramdas Pophale) SiO2 
 PCOD9186048
Probable space group: C 2/M
;
_chemical_formula_sum "Si O2"
_cell_formula_units_Z 64
_cell_length_a 21.013142
_cell_length_b 8.586308
_cell_length_c 22.137029
_cell_angle_alpha 90.000000
_cell_angle_beta 61.737030
_cell_angle_gamma 90.000000
_cell_volume 3517.920311
_symmetry_space_group_name_H-M "C 2/M"
_symmetry_group_IT_number 12
_symmetry_cell_setting 'monoclinic'
loop_
_space_group_symop_operation_xyz
x,y,z
-x,y,-z
-x,-y,-z
x,-y,z
1/2+x,1/2+y,z
1/2-x,1/2+y,-z
1/2-x,1/2-y,-z
1/2+x,1/2-y,z
loop_
_atom_site_type_symbol
_atom_site_label
_atom_site_fract_x
_atom_site_fract_y
_atom_site_fract_z
Si Si1 0.418057 0.187135 0.553004
Si Si2 0.332521 0.188451 0.077920
Si Si3 0.670684 0.186565 0.160794
Si Si4 0.777325 0.813911 0.551629
Si Si5 0.918227 0.311884 0.161440
Si Si6 0.843223 0.814362 0.703893
Si Si7 0.415625 0.810344 0.919461
Si Si8 0.797147 0.814463 0.296976
O O1 0.500000 0.231889 0.500000
O O2 0.356936 0.253090 0.535169
O O3 0.396582 0.248279 0.628969
O O4 0.412738 0.000000 0.554728
O O5 0.253480 0.261353 0.116579
O O6 0.377930 0.229070 0.117160
O O7 0.325344 0.000000 0.079980
O O8 0.374849 0.239071 0.998673
O O9 0.640315 0.258838 0.236139
O O10 0.626968 0.238230 0.121269
O O11 0.667022 0.000000 0.166813
O O12 0.750000 0.750000 0.500000
O O13 0.724048 0.755444 0.628680
O O14 0.778473 0.000000 0.550437
O O15 0.916225 0.500000 0.168113
O O16 0.873625 0.239170 0.236490
O O17 0.001195 0.260905 0.120629
O O18 0.764262 0.749648 0.720975
O O19 0.841460 0.000000 0.701341
O O20 0.415860 0.000000 0.920591
O O21 0.792183 0.000000 0.301794
#
# Coordination Sequence:
#
# PCOD9186048 Si02
#       8
#     8   8   8   8   8   8   8   8
#     4  10  21  39  63  91 121 153 190 234 288 344
#     4  10  19  34  59  83 107 144 194 236 280 342
#     4  11  21  35  55  80 114 149 188 235 287 339
#     4  11  22  39  63  90 121 155 195 237 284 338
#     4  10  19  35  58  82 111 148 192 235 280 339
#     4  11  21  36  59  84 111 150 196 237 278 332
#     4   9  20  36  54  81 113 150 187 232 287 341
#     4  11  21  36  59  86 116 149 190 236 285 338
#
# _framework density 18.192567
#
# number of rings (size 3 to 8) (size 9 to 14) (size 15 to 20)
#    0.000    1.625    1.250    6.375    0.000    2.500 
#    2.250    2.500    0.000    1.500    0.000    0.000 
#    0.000    0.000    0.000    0.000    0.000    0.000 
#
# Total GULP energy -178788.194569 kJ/mol
# GULP energy per Si atom -5587.131080 kJ/mol
# Density = 1.815116 g / cm^3
# Si number density = 18.192567 Si / 1000 Ang^3
#
#
#
# Elastic Constant Matrix: (Units=GPa)
#
#
# Indices 1 2 3 4 5 6 
#
# 1 136.2906 48.1052 96.1252 0.0000 0.0003 -0.0001
# 2 48.1052 84.0526 51.1951 0.0000 1.4073 0.0001
# 3 96.1252 51.1951 155.7695 0.0000 0.8182 0.0001
# 4 0.0000 0.0000 0.0000 24.6334 0.0000 1.2850
# 5 0.0003 1.4073 0.8182 0.0000 33.3268 -0.0001
# 6 -0.0001 0.0001 0.0001 1.2850 -0.0001 20.6415
#
#
#
# Elastic Compliance Matrix: (Units=1/GPa)
#
#
# Indices 1 2 3 4 5 6 
#
# 1 0.013718 -0.003375 -0.007358 0.000000 0.000323 0.000000
# 2 -0.003375 0.015714 -0.003079 0.000000 -0.000588 0.000000
# 3 -0.007358 -0.003079 0.011973 0.000000 -0.000164 0.000000
# 4 0.000000 0.000000 0.000000 0.040728 0.000000 -0.002535
# 5 0.000323 -0.000588 -0.000164 0.000000 0.030035 0.000000
# 6 0.000000 0.000000 0.000000 -0.002535 0.000000 0.048604
#
#
# Mechanical properties :
#
#
# Convention : Reuss Voigt Hill
#
# Bulk Modulus (GPa) = 72.55959 85.21821 78.88890
# Shear Modulus (GPa) = 25.90834 27.76614 26.83724
#
# Velocity S-wave (km/s) = 3.77784 3.91094 3.84497
# Velocity P-wave (km/s) = 7.68116 8.20597 7.94790
#
# Compressibility (1/GPa) = 0.01378178
#
# Stress axis : x y z
#
# Youngs Moduli (GPa) = 72.89738 63.63771 83.52157
#
# Poissons Ratio (x) = 0.21478 0.61453
# Poissons Ratio (y) = 0.24603 0.25714
# Poissons Ratio (z) = 0.53636 0.19593
#
# Static dielectric constant tensor:
#      x y z
#    x 1.603650 0.000000 0.000730 
#    y 0.000000 1.616080 0.000000 
#    z 0.000730 0.000000 1.613590 
# 
# From -- ./inp_files/319765.got.cif
#   From: 2010.05.17/outbox.cif.g08.bks.cpg/sg12_160_cif.got.tgz:319765.got - 2010.06.03 13:09:07.
