data_PCOD9186704
_publ_section_title
;
Structure prediction by ZEFSAII (Michael W. Deem and Ramdas Pophale) SiO2 
 PCOD9186704
Probable space group: C 2/M
;
_chemical_formula_sum "Si O2"
_cell_formula_units_Z 64
_cell_length_a 17.898047
_cell_length_b 26.437090
_cell_length_c 14.935580
_cell_angle_alpha 90.000000
_cell_angle_beta 31.373574
_cell_angle_gamma 90.000000
_cell_volume 3679.245901
_symmetry_space_group_name_H-M "C 2/M"
_symmetry_group_IT_number 12
_symmetry_cell_setting 'monoclinic'
loop_
_space_group_symop_operation_xyz
x,y,z
-x,y,-z
-x,-y,-z
x,-y,z
1/2+x,1/2+y,z
1/2-x,1/2+y,-z
1/2-x,1/2-y,-z
1/2+x,1/2-y,z
loop_
_atom_site_type_symbol
_atom_site_label
_atom_site_fract_x
_atom_site_fract_y
_atom_site_fract_z
Si Si1 0.082196 0.261528 0.158611
Si Si2 0.743475 0.441965 0.493246
Si Si3 0.080408 0.708822 0.510683
Si Si4 0.469713 0.582167 0.133131
Si Si5 0.918857 0.797731 0.172248
Si Si6 0.504005 0.128286 0.269272
Si Si7 0.493023 0.561259 0.609689
Si Si8 0.219330 0.060291 0.018628
O O1 0.055311 0.321077 0.164749
O O2 0.997753 0.254795 0.338397
O O3 0.002832 0.227429 0.167890
O O4 0.250000 0.250000 0.000000
O O5 0.790583 0.500000 0.429808
O O6 0.658805 0.440602 0.675081
O O7 0.631410 0.427311 0.529557
O O8 0.872769 0.402586 0.362474
O O9 0.250984 0.715808 0.337339
O O10 0.000000 0.714271 0.500000
O O11 0.047972 0.652853 0.583858
O O12 0.435521 0.641809 0.163041
O O13 0.500000 0.564626 0.000000
O O14 0.609680 0.571946 0.050207
O O15 0.000000 0.781220 0.000000
O O16 0.636581 0.091019 0.143717
O O17 0.500000 0.579942 0.500000
O O18 0.486905 0.500000 0.611832
O O19 0.357355 0.576604 0.809633
O O20 0.243160 0.000000 0.997574
#
# Coordination Sequence:
#
# PCOD9186704 Si02
#       8
#     8   8   8   8   8   8   8   8
#     4  10  21  38  61  83 111 149 193 249 295 352
#     4  10  19  35  55  83 118 154 194 239 286 336
#     4  10  22  37  59  86 114 151 197 234 285 357
#     4  10  20  33  55  83 114 156 202 238 282 346
#     4  11  21  37  63  88 116 154 195 247 300 354
#     4  10  22  35  56  80 120 146 195 232 294 347
#     4   8  16  33  57  79 103 143 196 237 281 340
#     4  10  20  34  54  81 115 154 194 241 286 341
#
# _framework density 17.394869
#
# number of rings (size 3 to 8) (size 9 to 14) (size 15 to 20)
#    0.750    1.375    1.250    3.375    3.500    1.000 
#    0.000    1.875    0.000   14.250    0.000    0.000 
#    0.000    0.000    0.000    0.000    0.000    0.000 
#
# Total GULP energy -178222.515161 kJ/mol
# GULP energy per Si atom -5569.453599 kJ/mol
# Density = 1.735528 g / cm^3
# Si number density = 17.394869 Si / 1000 Ang^3
#
#
#
# Elastic Constant Matrix: (Units=GPa)
#
#
# Indices 1 2 3 4 5 6 
#
# 1 120.5099 35.5318 75.8378 -0.0215 8.1475 -0.0046
# 2 35.5318 41.7194 34.6247 -0.0155 -5.5125 0.0011
# 3 75.8378 34.6247 138.0798 0.0098 -12.5138 0.0021
# 4 -0.0215 -0.0155 0.0098 61.8746 0.0066 16.9598
# 5 8.1475 -5.5125 -12.5138 0.0066 34.3207 -0.0013
# 6 -0.0046 0.0011 0.0021 16.9598 -0.0013 39.7900
#
#
#
# Elastic Compliance Matrix: (Units=1/GPa)
#
#
# Indices 1 2 3 4 5 6 
#
# 1 0.015963 -0.008543 -0.007335 0.000005 -0.007836 0.000000
# 2 -0.008543 0.034997 -0.003507 0.000007 0.006371 -0.000005
# 3 -0.007335 -0.003507 0.012676 -0.000006 0.005800 0.000001
# 4 0.000005 0.000007 -0.000006 0.018300 -0.000006 -0.007800
# 5 -0.007836 0.006371 0.005800 -0.000006 0.034135 0.000002
# 6 0.000000 -0.000005 0.000001 -0.007800 0.000002 0.028456
#
#
# Mechanical properties :
#
#
# Convention : Reuss Voigt Hill
#
# Bulk Modulus (GPa) = 40.21423 65.81086 53.01254
# Shear Modulus (GPa) = 26.09797 37.48472 31.79135
#
# Velocity S-wave (km/s) = 3.87761 4.64716 4.27971
# Velocity P-wave (km/s) = 6.57392 8.16764 7.41373
#
# Compressibility (1/GPa) = 0.02486682
#
# Stress axis : x y z
#
# Youngs Moduli (GPa) = 62.64555 28.57353 78.88995
#
# Poissons Ratio (x) = 0.24410 0.57868
# Poissons Ratio (y) = 0.53517 0.27663
# Poissons Ratio (z) = 0.45952 0.10019
#
# Static dielectric constant tensor:
#      x y z
#    x 1.699800 -0.000010 0.034150 
#    y -0.000010 1.599540 0.000010 
#    z 0.034150 0.000010 1.600710 
# 
# From -- ./inp_files/228502.got.cif
#   From: 2010.05.17/outbox.cif.g08.bks.cpg/sg12_115_cif.got.tgz:228502.got - 2010.06.03 13:09:07.
