data_PCOD9186430
_publ_section_title
;
Structure prediction by ZEFSAII (Michael W. Deem and Ramdas Pophale) SiO2 
 PCOD9186430
Probable space group: C 2/M
;
_chemical_formula_sum "Si O2"
_cell_formula_units_Z 52
_cell_length_a 25.107526
_cell_length_b 12.333518
_cell_length_c 8.948821
_cell_angle_alpha 90.000000
_cell_angle_beta 77.421701
_cell_angle_gamma 90.000000
_cell_volume 2704.619823
_symmetry_space_group_name_H-M "C 2/M"
_symmetry_group_IT_number 12
_symmetry_cell_setting 'monoclinic'
loop_
_space_group_symop_operation_xyz
x,y,z
-x,y,-z
-x,-y,-z
x,-y,z
1/2+x,1/2+y,z
1/2-x,1/2+y,-z
1/2-x,1/2-y,-z
1/2+x,1/2-y,z
loop_
_atom_site_type_symbol
_atom_site_label
_atom_site_fract_x
_atom_site_fract_y
_atom_site_fract_z
Si Si1 0.500000 0.808182 0.000000
Si Si2 0.384483 0.875397 0.602519
Si Si3 0.258423 0.869723 0.582226
Si Si4 0.405782 0.876524 0.268818
Si Si5 0.424757 0.500000 0.171646
Si Si6 0.956743 0.000000 0.796914
Si Si7 0.156819 0.814269 0.831035
Si Si8 0.591853 0.710569 0.154390
O O1 0.539889 0.870768 0.863724
O O2 0.458418 0.739089 0.925287
O O3 0.320667 0.867676 0.598776
O O4 0.415560 0.839219 0.432644
O O5 0.396936 0.805539 0.738840
O O6 0.398693 0.000000 0.624429
O O7 0.250000 0.750000 0.500000
O O8 0.215206 0.855358 0.743224
O O9 0.250318 0.000000 0.530368
O O10 0.359401 0.803431 0.221443
O O11 0.386673 0.000000 0.289660
O O12 0.478291 0.500000 0.239500
O O13 0.387717 0.394743 0.215330
O O14 0.440891 0.500000 0.985054
O O15 0.928521 0.894984 0.747481
O O16 0.143363 0.813236 0.015405
#
# Coordination Sequence:
#
# PCOD9186430 Si02
#       8
#     4   8   8   8   4   4   8   8
#     4  10  21  37  62  88 118 159 213 246 304 376
#     4  10  23  40  57  83 127 162 203 257 317 364
#     4  11  22  41  66  93 122 168 211 262 321 382
#     4  10  20  36  58  87 120 157 199 252 302 368
#     4   9  16  32  57  91 109 155 196 249 294 365
#     4   9  16  32  57  81 127 150 194 242 304 355
#     4  10  19  34  63  88 115 152 208 249 304 369
#     4  10  21  37  58  90 121 159 199 255 304 372
#
# _framework density 19.226364
#
# number of rings (size 3 to 8) (size 9 to 14) (size 15 to 20)
#    0.000    2.000    2.308    3.000    0.000    4.308 
#    1.385    2.308    0.000    1.846    0.000    0.000 
#    0.000    0.000    0.000    0.000    0.000    0.000 
#
# Total GULP energy -144757.527568 kJ/mol
# GULP energy per Si atom -5567.597214 kJ/mol
# Density = 1.918260 g / cm^3
# Si number density = 19.226364 Si / 1000 Ang^3
#
#
#
# Elastic Constant Matrix: (Units=GPa)
#
#
# Indices 1 2 3 4 5 6 
#
# 1 53.1703 16.4909 37.5687 0.0000 -19.7355 0.0000
# 2 16.4909 103.1183 35.7466 0.0000 4.4261 0.0000
# 3 37.5687 35.7466 71.6712 0.0000 -14.8078 0.0000
# 4 0.0000 0.0000 0.0000 17.6440 0.0000 11.5878
# 5 -19.7355 4.4261 -14.8078 0.0000 24.7248 0.0000
# 6 0.0000 0.0000 0.0000 11.5878 0.0000 13.1258
#
#
#
# Elastic Compliance Matrix: (Units=1/GPa)
#
#
# Indices 1 2 3 4 5 6 
#
# 1 0.037555 -0.002039 -0.014151 0.000000 0.021866 0.000000
# 2 -0.002039 0.012793 -0.006986 0.000000 -0.008101 0.000000
# 3 -0.014151 -0.006986 0.025996 0.000000 0.005524 0.000000
# 4 0.000000 0.000000 0.000000 0.134883 0.000000 -0.119078
# 5 0.021866 -0.008101 0.005524 0.000000 0.062658 0.000000
# 6 0.000000 0.000000 0.000000 -0.119078 0.000000 0.181312
#
#
# Mechanical properties :
#
#
# Convention : Reuss Voigt Hill
#
# Bulk Modulus (GPa) = 33.34155 45.28583 39.31369
# Shear Modulus (GPa) = 9.77434 20.30916 15.04175
#
# Velocity S-wave (km/s) = 2.25718 3.25363 2.80009
# Velocity P-wave (km/s) = 4.91654 6.14166 5.56293
#
# Compressibility (1/GPa) = 0.02999260
#
# Stress axis : x y z
#
# Youngs Moduli (GPa) = 26.62790 78.16767 38.46796
#
# Poissons Ratio (x) = 0.15938 0.54435
# Poissons Ratio (y) = 0.05429 0.26872
# Poissons Ratio (z) = 0.37681 0.54605
#
# Static dielectric constant tensor:
#      x y z
#    x 1.660280 0.000000 -0.032210 
#    y 0.000000 1.778010 0.000000 
#    z -0.032210 0.000000 1.677210 
# 
# From -- ./inp_files/102650.got.cif
#   From: 2010.05.17/outbox.cif.g08.bks.cpg/sg12_52_cif.got.tgz:102650.got - 2010.06.03 13:09:07.
