data_PCOD9186118
_publ_section_title
;
Structure prediction by ZEFSAII (Michael W. Deem and Ramdas Pophale) SiO2 
 PCOD9186118
Probable space group: C 2/M
;
_chemical_formula_sum "Si O2"
_cell_formula_units_Z 56
_cell_length_a 14.078934
_cell_length_b 30.280889
_cell_length_c 9.998760
_cell_angle_alpha 90.000000
_cell_angle_beta 138.895348
_cell_angle_gamma 90.000000
_cell_volume 2802.452772
_symmetry_space_group_name_H-M "C 2/M"
_symmetry_group_IT_number 12
_symmetry_cell_setting 'monoclinic'
loop_
_space_group_symop_operation_xyz
x,y,z
-x,y,-z
-x,-y,-z
x,-y,z
1/2+x,1/2+y,z
1/2-x,1/2+y,-z
1/2-x,1/2-y,-z
1/2+x,1/2-y,z
loop_
_atom_site_type_symbol
_atom_site_label
_atom_site_fract_x
_atom_site_fract_y
_atom_site_fract_z
Si Si1 0.952796 0.551227 0.106343
Si Si2 0.554301 0.187662 0.870226
Si Si3 0.838802 0.312857 0.300946
Si Si4 0.344330 0.116500 0.516846
Si Si5 0.375580 0.727746 0.718114
Si Si6 0.431411 0.635959 0.637731
Si Si7 0.277940 0.622162 0.190456
O O1 0.939503 0.500000 0.128296
O O2 0.060642 0.576167 0.324809
O O3 0.804514 0.578105 0.940853
O O4 0.000000 0.553693 0.000000
O O5 0.662404 0.190762 0.858353
O O6 0.418511 0.157942 0.675907
O O7 0.496476 0.234557 0.854408
O O8 0.651880 0.159058 0.072079
O O9 0.846500 0.363003 0.369054
O O10 0.706131 0.289879 0.235715
O O11 0.000000 0.292770 0.500000
O O12 0.176600 0.110533 0.376316
O O13 0.250000 0.750000 0.500000
O O14 0.425874 0.685800 0.686330
O O15 0.356737 0.625187 0.416303
O O16 0.598699 0.627222 0.790303
#
# Coordination Sequence:
#
# PCOD9186118 Si02
#       7
#     8   8   8   8   8   8   8
#     4  10  19  34  59  87 113 141 184 233 284 352
#     4  10  20  36  57  79 107 152 195 231 274 331
#     4   9  17  31  55  78 107 147 187 229 279 327
#     4   9  17  34  56  76 110 141 180 220 288 326
#     4  11  19  34  54  78 109 150 192 240 275 317
#     4  10  20  36  53  78 110 155 181 229 289 334
#     4  10  22  37  55  77 115 149 183 231 290 336
#
# _framework density 19.982496000000001
#
# number of rings (size 3 to 8) (size 9 to 14) (size 15 to 20)
#    0.000    2.143    5.714    0.000    0.000    2.857 
#    0.000    6.429    0.000   10.714    0.000    0.000 
#    0.000   57.143    0.000    0.000    0.000    0.000 
#
# Total GULP energy -155976.668977 kJ/mol
# GULP energy per Si atom -5570.595321 kJ/mol
# Density = 1.993701 g / cm^3
# Si number density = 19.982496 Si / 1000 Ang^3
#
#
#
# Elastic Constant Matrix: (Units=GPa)
#
#
# Indices 1 2 3 4 5 6 
#
# 1 129.0762 56.3495 22.1434 0.0000 21.0047 0.0000
# 2 56.3495 152.5323 50.1151 0.0000 18.3770 0.0000
# 3 22.1434 50.1151 54.8757 0.0000 14.7383 0.0000
# 4 0.0000 0.0000 0.0000 10.1358 0.0000 0.3571
# 5 21.0047 18.3770 14.7383 0.0000 36.4597 0.0000
# 6 0.0000 0.0000 0.0000 0.3571 0.0000 16.4898
#
#
#
# Elastic Compliance Matrix: (Units=1/GPa)
#
#
# Indices 1 2 3 4 5 6 
#
# 1 0.009770 -0.003119 -0.000005 0.000000 -0.004054 0.000000
# 2 -0.003119 0.010428 -0.008229 0.000000 -0.000133 0.000000
# 3 -0.000005 -0.008229 0.027625 0.000000 -0.007016 0.000000
# 4 0.000000 0.000000 0.000000 0.098735 0.000000 -0.002138
# 5 -0.004054 -0.000133 -0.007016 0.000000 0.032666 0.000000
# 6 0.000000 0.000000 0.000000 -0.002138 0.000000 0.060690
#
#
# Mechanical properties :
#
#
# Convention : Reuss Voigt Hill
#
# Bulk Modulus (GPa) = 39.81506 65.96668 52.89087
# Shear Modulus (GPa) = 18.45074 26.47546 22.46310
#
# Velocity S-wave (km/s) = 3.04196 3.64391 3.35646
# Velocity P-wave (km/s) = 5.68386 7.12657 6.44571
#
# Compressibility (1/GPa) = 0.02511613
#
# Stress axis : x y z
#
# Youngs Moduli (GPa) = 102.35802 95.89623 36.19971
#
# Poissons Ratio (x) = 0.29911 0.00017
# Poissons Ratio (y) = 0.31927 0.29789
# Poissons Ratio (z) = 0.00049 0.78913
#
# Static dielectric constant tensor:
#      x y z
#    x 1.826260 0.000000 -0.012030 
#    y 0.000000 1.698860 0.000000 
#    z -0.012030 0.000000 1.758190 
# 
# From -- ./inp_files/150128.got.cif
#   From: 2010.05.17/outbox.cif.g08.bks.cpg/sg12_76_cif.got.tgz:150128.got - 2010.06.03 13:09:07.
