data_PCOD9186490
_publ_section_title
;
Structure prediction by ZEFSAII (Michael W. Deem and Ramdas Pophale) SiO2 
 PCOD9186490
Probable space group: C 2/M
;
_chemical_formula_sum "Si O2"
_cell_formula_units_Z 64
_cell_length_a 15.232224
_cell_length_b 11.946604
_cell_length_c 18.624230
_cell_angle_alpha 90.000000
_cell_angle_beta 94.336600
_cell_angle_gamma 90.000000
_cell_volume 3379.410575
_symmetry_space_group_name_H-M "C 2/M"
_symmetry_group_IT_number 12
_symmetry_cell_setting 'monoclinic'
loop_
_space_group_symop_operation_xyz
x,y,z
-x,y,-z
-x,-y,-z
x,-y,z
1/2+x,1/2+y,z
1/2-x,1/2+y,-z
1/2-x,1/2-y,-z
1/2+x,1/2-y,z
loop_
_atom_site_type_symbol
_atom_site_label
_atom_site_fract_x
_atom_site_fract_y
_atom_site_fract_z
Si Si1 0.615758 0.291555 0.697938
Si Si2 0.486470 0.632523 0.083984
Si Si3 0.307672 0.371201 0.149501
Si Si4 0.151929 0.292633 0.428338
Si Si5 0.222221 0.128610 0.314523
Si Si6 0.137758 0.749983 0.182982
Si Si7 0.851047 0.874540 0.454225
Si Si8 0.041272 0.375695 0.296461
O O1 0.650887 0.360331 0.767950
O O2 0.686962 0.194419 0.688340
O O3 0.613819 0.361494 0.624602
O O4 0.526783 0.226553 0.710276
O O5 0.498452 0.500000 0.102610
O O6 0.387145 0.662344 0.101674
O O7 0.557152 0.707239 0.130618
O O8 0.500000 0.645317 0.000000
O O9 0.283834 0.500000 0.133902
O O10 0.221517 0.293694 0.143495
O O11 0.173528 0.188987 0.376820
O O12 0.116197 0.231102 0.496845
O O13 0.244410 0.356171 0.447648
O O14 0.088029 0.368150 0.376892
O O15 0.168950 0.151282 0.238169
O O16 0.235397 0.000000 0.329622
O O17 0.109884 0.651203 0.236756
O O18 0.871275 0.000000 0.481980
O O19 0.003423 0.500000 0.284312
#
# Coordination Sequence:
#
# PCOD9186490 Si02
#       8
#     8   8   8   8   8   8   8   8
#     4  10  20  33  52  80 107 143 188 236 284 341
#     4  10  21  38  61  90 124 157 188 229 284 342
#     4  10  20  37  60  86 116 153 196 236 284 339
#     4   9  20  33  51  76 102 140 188 230 289 344
#     4   9  17  31  51  76 107 141 184 231 281 337
#     4  10  20  35  59  86 113 151 197 237 279 337
#     4  10  19  35  53  72 104 142 187 238 287 338
#     4  11  21  36  55  78 108 143 186 237 291 337
#
# _framework density 18.938212
#
# number of rings (size 3 to 8) (size 9 to 14) (size 15 to 20)
#    0.000    2.125    1.250    3.000    0.000    1.000 
#    0.000    5.000    0.000    1.500    0.000    0.000 
#    0.000    0.000    0.000    0.000    0.000    0.000 
#
# Total GULP energy -178535.163574 kJ/mol
# GULP energy per Si atom -5579.223862 kJ/mol
# Density = 1.889511 g / cm^3
# Si number density = 18.938212 Si / 1000 Ang^3
#
#
#
# Elastic Constant Matrix: (Units=GPa)
#
#
# Indices 1 2 3 4 5 6 
#
# 1 54.5000 6.6780 12.2788 0.0000 -9.0914 0.0000
# 2 6.6780 69.5198 10.4308 0.0000 -4.0065 0.0000
# 3 12.2788 10.4308 51.5568 0.0000 -14.1685 0.0000
# 4 0.0000 0.0000 0.0000 10.0064 0.0000 -5.2366
# 5 -9.0914 -4.0065 -14.1685 0.0000 30.1435 0.0000
# 6 0.0000 0.0000 0.0000 -5.2366 0.0000 7.6255
#
#
#
# Elastic Compliance Matrix: (Units=1/GPa)
#
#
# Indices 1 2 3 4 5 6 
#
# 1 0.019960 -0.001169 -0.003337 0.000000 0.004296 0.000000
# 2 -0.001169 0.014914 -0.002631 0.000000 0.000393 0.000000
# 3 -0.003337 -0.002631 0.023369 0.000000 0.009628 0.000000
# 4 0.000000 0.000000 0.000000 0.155999 0.000000 0.107128
# 5 0.004296 0.000393 0.009628 0.000000 0.039048 0.000000
# 6 0.000000 0.000000 0.000000 0.107128 0.000000 0.204707
#
#
# Mechanical properties :
#
#
# Convention : Reuss Voigt Hill
#
# Bulk Modulus (GPa) = 22.74269 26.03910 24.39089
# Shear Modulus (GPa) = 10.26848 19.30103 14.78476
#
# Velocity S-wave (km/s) = 2.33107 3.19589 2.79710
# Velocity P-wave (km/s) = 4.39091 5.23427 4.83103
#
# Compressibility (1/GPa) = 0.04397018
#
# Stress axis : x y z
#
# Youngs Moduli (GPa) = 50.09943 67.05073 42.79190
#
# Poissons Ratio (x) = 0.07839 0.14278
# Poissons Ratio (y) = 0.05857 0.11258
# Poissons Ratio (z) = 0.16716 0.17640
#
# Static dielectric constant tensor:
#      x y z
#    x 1.690690 0.000000 -0.008420 
#    y 0.000000 1.623750 0.000000 
#    z -0.008420 0.000000 1.668560 
# 
# From -- ./inp_files/269311.got.cif
#   From: 2010.05.17/outbox.cif.g08.bks.cpg/sg12_135_cif.got.tgz:269311.got - 2010.06.03 13:09:07.
