data_PCOD9186507
_publ_section_title
;
Structure prediction by ZEFSAII (Michael W. Deem and Ramdas Pophale) SiO2 
 PCOD9186507
Probable space group: C 2/M
;
_chemical_formula_sum "Si O2"
_cell_formula_units_Z 56
_cell_length_a 18.367483
_cell_length_b 13.203538
_cell_length_c 15.838155
_cell_angle_alpha 90.000000
_cell_angle_beta 55.766938
_cell_angle_gamma 90.000000
_cell_volume 3175.571961
_symmetry_space_group_name_H-M "C 2/M"
_symmetry_group_IT_number 12
_symmetry_cell_setting 'monoclinic'
loop_
_space_group_symop_operation_xyz
x,y,z
-x,y,-z
-x,-y,-z
x,-y,z
1/2+x,1/2+y,z
1/2-x,1/2+y,-z
1/2-x,1/2-y,-z
1/2+x,1/2-y,z
loop_
_atom_site_type_symbol
_atom_site_label
_atom_site_fract_x
_atom_site_fract_y
_atom_site_fract_z
Si Si1 0.957245 0.283944 0.943800
Si Si2 0.828399 0.703370 0.893977
Si Si3 0.138866 0.786854 0.749324
Si Si4 0.824311 0.113683 0.105671
Si Si5 0.884053 0.880092 0.415910
Si Si6 0.717841 0.382084 0.348159
Si Si7 0.908770 0.883196 0.731012
O O1 0.896922 0.344372 0.916301
O O2 0.038358 0.237873 0.838830
O O3 0.893399 0.194499 0.021049
O O4 0.000000 0.333642 0.000000
O O5 0.774496 0.634575 0.863663
O O6 0.875937 0.797035 0.816253
O O7 0.750000 0.750000 0.000000
O O8 0.171470 0.867918 0.796908
O O9 0.144912 0.823944 0.649819
O O10 0.198618 0.687934 0.722592
O O11 0.851048 0.000000 0.066073
O O12 0.831821 0.849234 0.533876
O O13 0.989040 0.866460 0.357688
O O14 0.869480 0.000000 0.414026
O O15 0.743011 0.500000 0.340330
O O16 0.650692 0.375128 0.313772
O O17 0.899999 0.000000 0.769115
#
# Coordination Sequence:
#
# PCOD9186507 Si02
#       7
#     8   8   8   8   8   8   8
#     4   9  20  34  55  77 107 138 175 217 261 317
#     4  10  19  35  53  79 110 138 175 214 263 324
#     4  11  19  34  56  79 113 143 174 219 270 321
#     4  10  21  35  55  82 109 140 175 220 271 318
#     4  10  20  33  55  85 108 136 181 230 272 308
#     4  10  21  36  54  79 110 143 182 222 265 317
#     4  10  19  35  58  80 105 139 181 226 267 309
#
# _framework density 17.634619000000001
#
# number of rings (size 3 to 8) (size 9 to 14) (size 15 to 20)
#    0.000    2.000    2.857    1.286    0.000    7.143 
#    0.000    0.714    0.000    5.143    0.000    1.000 
#    0.000    0.000    0.000    0.000    0.000    0.000 
#
# Total GULP energy -156056.633306 kJ/mol
# GULP energy per Si atom -5573.451190 kJ/mol
# Density = 1.759448 g / cm^3
# Si number density = 17.634619 Si / 1000 Ang^3
#
#
#
# Elastic Constant Matrix: (Units=GPa)
#
#
# Indices 1 2 3 4 5 6 
#
# 1 121.1550 17.0084 14.7284 0.0000 7.2834 0.0000
# 2 17.0084 27.2172 12.4783 0.0000 -8.6079 0.0000
# 3 14.7284 12.4783 57.7019 0.0000 3.7924 0.0000
# 4 0.0000 0.0000 0.0000 10.1477 0.0000 -10.3609
# 5 7.2834 -8.6079 3.7924 0.0000 22.5458 0.0000
# 6 0.0000 0.0000 0.0000 -10.3609 0.0000 8.0997
#
#
#
# Elastic Compliance Matrix: (Units=1/GPa)
#
#
# Indices 1 2 3 4 5 6 
#
# 1 0.009770 -0.007848 -0.000397 0.000000 -0.006086 0.000000
# 2 -0.007848 0.055009 -0.011568 0.000000 0.025483 0.000000
# 3 -0.000397 -0.011568 0.020441 0.000000 -0.007727 0.000000
# 4 0.000000 0.000000 0.000000 -0.322003 0.000000 -0.411895
# 5 -0.006086 0.025483 -0.007727 0.000000 0.057349 0.000000
# 6 0.000000 0.000000 0.000000 -0.411895 0.000000 -0.403421
#
#
# Mechanical properties :
#
#
# Convention : Reuss Voigt Hill
#
# Bulk Modulus (GPa) = 21.93219 32.72271 27.32745
# Shear Modulus (GPa) = -9.46913 18.94925 4.74006
#
# Velocity S-wave (km/s) = -2.31976 3.28159 1.64127
# Velocity P-wave (km/s) = 2.29978 5.74061 4.37285
#
# Compressibility (1/GPa) = 0.04559508
#
# Stress axis : x y z
#
# Youngs Moduli (GPa) = 102.35703 18.17891 48.92120
#
# Poissons Ratio (x) = 0.14267 0.01940
# Poissons Ratio (y) = 0.80332 0.56590
# Poissons Ratio (z) = 0.04059 0.21028
#
# Static dielectric constant tensor:
#      x y z
#    x 1.637970 0.000000 0.030980 
#    y 0.000000 1.584430 0.000000 
#    z 0.030980 0.000000 1.588630 
# 
# From -- ./inp_files/223721.got.cif
#   From: 2010.05.17/outbox.cif.g08.bks.cpg/sg12_112_cif.got.tgz:223721.got - 2010.06.03 13:09:07.
