data_PCOD9186593
_publ_section_title
;
Structure prediction by ZEFSAII (Michael W. Deem and Ramdas Pophale) SiO2 
 PCOD9186593
Probable space group: C 2/M
;
_chemical_formula_sum "Si O2"
_cell_formula_units_Z 60
_cell_length_a 23.540164
_cell_length_b 9.347773
_cell_length_c 22.264166
_cell_angle_alpha 90.000000
_cell_angle_beta 148.749167
_cell_angle_gamma 90.000000
_cell_volume 2541.628426
_symmetry_space_group_name_H-M "C 2/M"
_symmetry_group_IT_number 12
_symmetry_cell_setting 'monoclinic'
loop_
_space_group_symop_operation_xyz
x,y,z
-x,y,-z
-x,-y,-z
x,-y,z
1/2+x,1/2+y,z
1/2-x,1/2+y,-z
1/2-x,1/2-y,-z
1/2+x,1/2-y,z
loop_
_atom_site_type_symbol
_atom_site_label
_atom_site_fract_x
_atom_site_fract_y
_atom_site_fract_z
Si Si1 0.489166 0.159572 0.715893
Si Si2 0.401496 0.329787 0.289859
Si Si3 0.713387 0.500000 0.953475
Si Si4 0.378274 0.333062 0.446801
Si Si5 0.739341 0.671029 0.221269
Si Si6 0.318968 0.166952 0.653438
Si Si7 0.541263 0.671109 0.121883
Si Si8 0.857126 0.272013 0.033417
O O1 0.541326 0.273396 0.718896
O O2 0.367683 0.188469 0.631258
O O3 0.563013 0.160204 0.842976
O O4 0.494693 0.000000 0.693979
O O5 0.389403 0.500000 0.279100
O O6 0.496951 0.298934 0.425959
O O7 0.294370 0.243657 0.213348
O O8 0.755408 0.376812 0.943843
O O9 0.679059 0.622831 0.971356
O O10 0.369744 0.500000 0.419295
O O11 0.315445 0.231640 0.343928
O O12 0.308387 0.321606 0.445687
O O13 0.745392 0.500000 0.221851
O O14 0.615032 0.706292 0.130218
O O15 0.380568 0.279138 0.752186
O O16 0.347848 0.000000 0.695203
O O17 0.523950 0.500000 0.106390
O O18 0.429170 0.749058 0.039156
#
# Coordination Sequence:
#
# PCOD9186593 Si02
#       8
#     8   8   4   8   8   8   8   8
#     4  10  20  34  51  73 107 139 170 206 249 308
#     4  11  23  34  48  71 100 142 182 216 263 301
#     4  10  20  32  58  86 114 132 156 192 254 308
#     4   9  18  34  51  71 101 132 175 229 266 299
#     4  10  20  34  52  74  98 135 182 225 259 290
#     4   8  16  30  50  71  96 135 172 209 259 303
#     4   9  17  30  50  75 106 133 164 208 252 296
#     4  10  19  35  54  87 113 133 158 200 246 310
#
# _framework density 23.606914
#
# number of rings (size 3 to 8) (size 9 to 14) (size 15 to 20)
#    0.000    2.400    1.333    1.200    1.867    4.267 
#    0.000    0.000    0.000    0.000    0.000    5.600 
#    0.000    0.000    0.000    0.000    0.000    0.000 
#
# Total GULP energy -167118.386195 kJ/mol
# GULP energy per Si atom -5570.612873 kJ/mol
# Density = 2.355318 g / cm^3
# Si number density = 23.606914 Si / 1000 Ang^3
#
#
#
# Elastic Constant Matrix: (Units=GPa)
#
#
# Indices 1 2 3 4 5 6 
#
# 1 172.7214 61.0121 34.1204 0.0000 35.8068 0.0000
# 2 61.0121 104.9664 26.9318 0.0000 23.6233 0.0000
# 3 34.1204 26.9318 87.6643 0.0000 27.9049 0.0000
# 4 0.0000 0.0000 0.0000 4.4138 0.0000 -5.2122
# 5 35.8068 23.6233 27.9049 0.0000 48.2616 0.0000
# 6 0.0000 0.0000 0.0000 -5.2122 0.0000 27.7194
#
#
#
# Elastic Compliance Matrix: (Units=1/GPa)
#
#
# Indices 1 2 3 4 5 6 
#
# 1 0.007990 -0.003602 -0.000830 0.000000 -0.003685 0.000000
# 2 -0.003602 0.012620 -0.001666 0.000000 -0.002542 0.000000
# 3 -0.000830 -0.001666 0.014445 0.000000 -0.006921 0.000000
# 4 0.000000 0.000000 0.000000 0.291227 0.000000 0.054760
# 5 -0.003685 -0.002542 -0.006921 0.000000 0.028700 0.000000
# 6 0.000000 0.000000 0.000000 0.054760 0.000000 0.046373
#
#
# Mechanical properties :
#
#
# Convention : Reuss Voigt Hill
#
# Bulk Modulus (GPa) = 43.74758 67.72009 55.73383
# Shear Modulus (GPa) = 11.87167 32.29816 22.08492
#
# Velocity S-wave (km/s) = 2.24495 3.70288 3.06196
# Velocity P-wave (km/s) = 5.02908 6.85789 6.01341
#
# Compressibility (1/GPa) = 0.02285841
#
# Stress axis : x y z
#
# Youngs Moduli (GPa) = 125.15795 79.23988 69.22751
#
# Poissons Ratio (x) = 0.28541 0.05748
# Poissons Ratio (y) = 0.45080 0.11534
# Poissons Ratio (z) = 0.10392 0.13202
#
# Static dielectric constant tensor:
#      x y z
#    x 1.928290 0.000000 -0.020630 
#    y 0.000000 1.790830 0.000000 
#    z -0.020630 0.000000 2.016630 
# 
# From -- ./inp_files/365480.got.cif
#   From: 2010.05.17/outbox.cif.g08.bks.cpg/sg12_183_cif.got.tgz:365480.got - 2010.06.03 13:09:07.
