data_PCOD9186317
_publ_section_title
;
Structure prediction by ZEFSAII (Michael W. Deem and Ramdas Pophale) SiO2 
 PCOD9186317
Probable space group: C 2/M
;
_chemical_formula_sum "Si O2"
_cell_formula_units_Z 64
_cell_length_a 13.269697
_cell_length_b 12.906641
_cell_length_c 28.914748
_cell_angle_alpha 90.000000
_cell_angle_beta 40.685704
_cell_angle_gamma 90.000000
_cell_volume 3228.351182
_symmetry_space_group_name_H-M "C 2/M"
_symmetry_group_IT_number 12
_symmetry_cell_setting 'monoclinic'
loop_
_space_group_symop_operation_xyz
x,y,z
-x,y,-z
-x,-y,-z
x,-y,z
1/2+x,1/2+y,z
1/2-x,1/2+y,-z
1/2-x,1/2-y,-z
1/2+x,1/2-y,z
loop_
_atom_site_type_symbol
_atom_site_label
_atom_site_fract_x
_atom_site_fract_y
_atom_site_fract_z
Si Si1 0.317513 0.880493 0.692831
Si Si2 0.618354 0.620536 0.997714
Si Si3 0.632466 0.679406 0.850467
Si Si4 0.590831 0.383168 0.423851
Si Si5 0.935437 0.382114 0.784036
Si Si6 0.100968 0.782555 0.582328
Si Si7 0.355289 0.718213 0.328753
Si Si8 0.026632 0.379478 0.122803
O O1 0.214218 0.851876 0.773702
O O2 0.471448 0.809059 0.633227
O O3 0.206591 0.862292 0.687123
O O4 0.364407 0.000000 0.679773
O O5 0.639353 0.500000 0.977825
O O6 0.528754 0.629122 0.077679
O O7 0.500000 0.667135 0.000000
O O8 0.794601 0.658775 0.942142
O O9 0.752104 0.635322 0.846841
O O10 0.589804 0.801128 0.861918
O O11 0.500000 0.342147 0.500000
O O12 0.635950 0.500000 0.417696
O O13 0.482684 0.371957 0.417355
O O14 0.736884 0.313240 0.366010
O O15 0.966613 0.500000 0.755399
O O16 0.005849 0.376840 0.810710
O O17 0.989877 0.279960 0.737705
O O18 0.250000 0.750000 0.500000
O O19 0.144393 0.817544 0.618624
O O20 0.015752 0.500000 0.111569
#
# Coordination Sequence:
#
# PCOD9186317 Si02
#       8
#     8   8   8   8   8   8   8   8
#     4  11  25  40  61  91 121 158 201 247 299 362
#     4  10  19  34  60  92 122 157 206 254 296 349
#     4  12  21  37  63  92 122 158 206 252 297 353
#     4  10  21  37  59  86 111 142 191 241 289 348
#     4  11  21  37  62  89 117 155 203 249 296 351
#     4  11  23  40  61  85 119 153 192 243 303 358
#     4  11  22  40  59  84 122 152 189 245 300 360
#     4  10  22  39  59  89 125 160 199 247 303 355
#
# _framework density 19.824362000000001
#
# number of rings (size 3 to 8) (size 9 to 14) (size 15 to 20)
#    0.000    1.250    5.000    1.875    0.000    1.500 
#    0.000    1.250    0.000    0.375    0.000    0.000 
#    0.000    0.000    0.000    0.000    0.000    0.000 
#
# Total GULP energy -178303.099217 kJ/mol
# GULP energy per Si atom -5571.971851 kJ/mol
# Density = 1.977924 g / cm^3
# Si number density = 19.824362 Si / 1000 Ang^3
#
#
#
# Elastic Constant Matrix: (Units=GPa)
#
#
# Indices 1 2 3 4 5 6 
#
# 1 63.0430 6.2656 3.2467 0.0000 9.8386 0.0000
# 2 6.2656 60.6757 6.2435 0.0000 -4.2850 0.0000
# 3 3.2467 6.2435 92.3676 0.0000 4.9916 0.0000
# 4 0.0000 0.0000 0.0000 22.1194 0.0000 2.3013
# 5 9.8386 -4.2850 4.9916 0.0000 21.2615 0.0000
# 6 0.0000 0.0000 0.0000 2.3013 0.0000 17.0789
#
#
#
# Elastic Compliance Matrix: (Units=1/GPa)
#
#
# Indices 1 2 3 4 5 6 
#
# 1 0.017436 -0.002406 0.000012 0.000000 -0.008556 0.000000
# 2 -0.002406 0.017214 -0.001344 0.000000 0.004898 0.000000
# 3 0.000012 -0.001344 0.011072 0.000000 -0.002876 0.000000
# 4 0.000000 0.000000 0.000000 0.045852 0.000000 -0.006178
# 5 -0.008556 0.004898 -0.002876 0.000000 0.052655 0.000000
# 6 0.000000 0.000000 0.000000 -0.006178 0.000000 0.059384
#
#
# Mechanical properties :
#
#
# Convention : Reuss Voigt Hill
#
# Bulk Modulus (GPa) = 26.14602 27.51087 26.82844
# Shear Modulus (GPa) = 22.33769 25.44733 23.89251
#
# Velocity S-wave (km/s) = 3.36040 3.58668 3.47538
# Velocity P-wave (km/s) = 5.31731 5.57313 5.44672
#
# Compressibility (1/GPa) = 0.03824674
#
# Stress axis : x y z
#
# Youngs Moduli (GPa) = 57.35268 58.09336 90.31701
#
# Poissons Ratio (x) = 0.13977 -0.00110
# Poissons Ratio (y) = 0.13799 0.12136
# Poissons Ratio (z) = -0.00070 0.07806
#
# Static dielectric constant tensor:
#      x y z
#    x 1.748910 0.000000 -0.017300 
#    y 0.000000 1.677210 0.000000 
#    z -0.017300 0.000000 1.753490 
# 
# From -- ./inp_files/376068.got.cif
#   From: 2010.05.17/outbox.cif.g08.bks.cpg/sg12_189_cif.got.tgz:376068.got - 2010.06.03 13:09:07.
