data_PCOD9186769
_publ_section_title
;
Structure prediction by ZEFSAII (Michael W. Deem and Ramdas Pophale) SiO2 
 PCOD9186769
Probable space group: C 2/M
;
_chemical_formula_sum "Si O2"
_cell_formula_units_Z 48
_cell_length_a 9.857024
_cell_length_b 16.666941
_cell_length_c 21.713180
_cell_angle_alpha 90.000000
_cell_angle_beta 131.485556
_cell_angle_gamma 90.000000
_cell_volume 2672.256397
_symmetry_space_group_name_H-M "C 2/M"
_symmetry_group_IT_number 12
_symmetry_cell_setting 'monoclinic'
loop_
_space_group_symop_operation_xyz
x,y,z
-x,y,-z
-x,-y,-z
x,-y,z
1/2+x,1/2+y,z
1/2-x,1/2+y,-z
1/2-x,1/2-y,-z
1/2+x,1/2-y,z
loop_
_atom_site_type_symbol
_atom_site_label
_atom_site_fract_x
_atom_site_fract_y
_atom_site_fract_z
Si Si1 0.420578 0.091934 0.695127
Si Si2 0.650491 0.408804 0.185493
Si Si3 0.290505 0.729024 0.442177
Si Si4 0.962185 0.761689 0.060288
Si Si5 0.901269 0.176984 0.711252
Si Si6 0.802911 0.677461 0.775009
O O1 0.636373 0.107876 0.762183
O O2 0.328707 0.156063 0.621491
O O3 0.339468 0.104441 0.739482
O O4 0.393655 0.000000 0.667118
O O5 0.611680 0.500000 0.155189
O O6 0.532675 0.343945 0.112954
O O7 0.616371 0.398001 0.248537
O O8 0.500000 0.707607 0.500000
O O9 0.250000 0.750000 0.500000
O O10 0.242004 0.806622 0.385777
O O11 0.066103 0.690304 0.127513
O O12 0.750000 0.750000 0.000000
O O13 0.000000 0.762913 0.000000
O O14 0.856734 0.248944 0.745840
O O15 0.098826 0.181717 0.739304
#
# Coordination Sequence:
#
# PCOD9186769 Si02
#       6
#     8   8   8   8   8   8
#     4  10  21  38  57  78 109 149 188 223 266 326
#     4  10  21  38  57  77 107 147 187 222 265 327
#     4  11  20  33  55  82 110 139 179 231 278 320
#     4  11  20  33  55  82 108 134 174 226 276 320
#     4  10  19  35  56  78 106 144 188 222 261 322
#     4  10  19  35  56  78 106 143 185 220 260 325
#
# _framework density 17.962347999999999
#
# number of rings (size 3 to 8) (size 9 to 14) (size 15 to 20)
#    0.000    1.667    0.000   10.000    0.000    1.333 
#    0.000    1.667    0.000    5.000    0.000    0.000 
#    0.000    0.000    0.000    0.000    0.000    0.000 
#
# Total GULP energy -133780.061238 kJ/mol
# GULP energy per Si atom -5574.169218 kJ/mol
# Density = 1.792146 g / cm^3
# Si number density = 17.962348 Si / 1000 Ang^3
#
#
#
# Elastic Constant Matrix: (Units=GPa)
#
#
# Indices 1 2 3 4 5 6 
#
# 1 141.7229 35.5005 43.3652 0.0000 1.6196 0.0000
# 2 35.5005 58.5862 35.3347 0.0000 -0.7032 0.0000
# 3 43.3652 35.3347 117.4776 0.0000 -10.5936 0.0000
# 4 0.0000 0.0000 0.0000 25.8285 0.0000 0.0365
# 5 1.6196 -0.7032 -10.5936 0.0000 45.1776 0.0000
# 6 0.0000 0.0000 0.0000 0.0365 0.0000 17.2314
#
#
#
# Elastic Compliance Matrix: (Units=1/GPa)
#
#
# Indices 1 2 3 4 5 6 
#
# 1 0.008713 -0.004035 -0.002080 0.000000 -0.000863 0.000000
# 2 -0.004035 0.022781 -0.005432 0.000000 -0.000775 0.000000
# 3 -0.002080 -0.005432 0.011149 0.000000 0.002604 0.000000
# 4 0.000000 0.000000 0.000000 0.038717 0.000000 -0.000082
# 5 -0.000863 -0.000775 0.002604 0.000000 0.022764 0.000000
# 6 0.000000 0.000000 0.000000 -0.000082 0.000000 0.058034
#
#
# Mechanical properties :
#
#
# Convention : Reuss Voigt Hill
#
# Bulk Modulus (GPa) = 51.15847 60.68749 55.92298
# Shear Modulus (GPa) = 26.07277 31.21992 28.64634
#
# Velocity S-wave (km/s) = 3.81402 4.17355 3.99783
# Velocity P-wave (km/s) = 6.92376 7.55539 7.24646
#
# Compressibility (1/GPa) = 0.01954711
#
# Stress axis : x y z
#
# Youngs Moduli (GPa) = 114.76681 43.89585 89.69420
#
# Poissons Ratio (x) = 0.17714 0.18660
# Poissons Ratio (y) = 0.46314 0.48725
# Poissons Ratio (z) = 0.23877 0.23846
#
# Static dielectric constant tensor:
#      x y z
#    x 1.615560 0.000000 -0.014350 
#    y 0.000000 1.653700 0.000000 
#    z -0.014350 0.000000 1.610700 
# 
# From -- ./inp_files/256204.got.cif
#   From: 2010.05.17/outbox.cif.g08.bks.cpg/sg12_129_cif.got.tgz:256204.got - 2010.06.03 13:09:07.
