data_PCOD9186358
_publ_section_title
;
Structure prediction by ZEFSAII (Michael W. Deem and Ramdas Pophale) SiO2 
 PCOD9186358
Probable space group: C 2/M
;
_chemical_formula_sum "Si O2"
_cell_formula_units_Z 48
_cell_length_a 20.469969
_cell_length_b 27.075163
_cell_length_c 11.848372
_cell_angle_alpha 90.000000
_cell_angle_beta 160.898502
_cell_angle_gamma 90.000000
_cell_volume 2148.902874
_symmetry_space_group_name_H-M "C 2/M"
_symmetry_group_IT_number 12
_symmetry_cell_setting 'monoclinic'
loop_
_space_group_symop_operation_xyz
x,y,z
-x,y,-z
-x,-y,-z
x,-y,z
1/2+x,1/2+y,z
1/2-x,1/2+y,-z
1/2-x,1/2-y,-z
1/2+x,1/2-y,z
loop_
_atom_site_type_symbol
_atom_site_label
_atom_site_fract_x
_atom_site_fract_y
_atom_site_fract_z
Si Si1 0.766878 0.055589 0.092526
Si Si2 0.934146 0.214737 0.271974
Si Si3 0.674508 0.213097 0.207936
Si Si4 0.791962 0.117820 0.911973
Si Si5 0.138208 0.870952 0.330615
Si Si6 0.492286 0.126718 0.764172
O O1 0.000000 0.053861 0.500000
O O2 0.684668 0.000000 0.959143
O O3 0.736038 0.080921 0.920316
O O4 0.670312 0.089838 0.030266
O O5 0.000000 0.193415 0.500000
O O6 0.133519 0.238234 0.538692
O O7 0.750000 0.250000 0.000000
O O8 0.853303 0.169997 0.066050
O O9 0.777930 0.175362 0.463768
O O10 0.500000 0.238101 0.000000
O O11 0.571242 0.178412 0.944031
O O12 0.624614 0.129175 0.545387
O O13 0.990245 0.099229 0.169857
O O14 0.333912 0.894703 0.595662
O O15 0.000000 0.855010 0.000000
#
# Coordination Sequence:
#
# PCOD9186358 Si02
#       6
#     8   8   8   8   8   8
#     4  11  23  37  55  83 119 157 196 237 285 343
#     4  11  24  40  59  86 119 154 197 244 293 348
#     4   9  18  36  62  87 115 152 192 239 292 347
#     4  10  20  38  62  87 117 152 189 238 295 347
#     4   8  16  32  58  89 114 147 190 233 286 345
#     4  10  19  34  61  90 115 151 193 236 289 343
#
# _framework density 22.336978999999999
#
# number of rings (size 3 to 8) (size 9 to 14) (size 15 to 20)
#    0.000    2.167    0.000    4.000    0.000    4.000 
#    0.000    1.667    0.000   12.500    0.000    0.000 
#    0.000    0.000    0.000    0.000    0.000    0.000 
#
# Total GULP energy -134045.931446 kJ/mol
# GULP energy per Si atom -5585.247144 kJ/mol
# Density = 2.228614 g / cm^3
# Si number density = 22.336979 Si / 1000 Ang^3
#
#
#
# Elastic Constant Matrix: (Units=GPa)
#
#
# Indices 1 2 3 4 5 6 
#
# 1 138.0106 40.2372 50.9422 -0.0001 29.7245 -0.0002
# 2 40.2372 64.0040 22.3779 0.0000 15.6102 -0.0001
# 3 50.9422 22.3779 94.6397 -0.0002 17.6674 -0.0007
# 4 -0.0001 0.0000 -0.0002 23.7920 -0.0002 10.9189
# 5 29.7245 15.6102 17.6674 -0.0002 57.3627 -0.0004
# 6 -0.0002 -0.0001 -0.0007 10.9189 -0.0004 38.0804
#
#
#
# Elastic Compliance Matrix: (Units=1/GPa)
#
#
# Indices 1 2 3 4 5 6 
#
# 1 0.010768 -0.004575 -0.004143 0.000000 -0.003059 0.000000
# 2 -0.004575 0.019707 -0.001739 0.000000 -0.002457 0.000000
# 3 -0.004143 -0.001739 0.013495 0.000000 -0.001536 0.000000
# 4 0.000000 0.000000 0.000000 0.048400 0.000000 -0.013878
# 5 -0.003059 -0.002457 -0.001536 0.000000 0.020160 0.000000
# 6 0.000000 0.000000 0.000000 -0.013878 0.000000 0.030239
#
#
# Mechanical properties :
#
#
# Convention : Reuss Voigt Hill
#
# Bulk Modulus (GPa) = 43.37285 58.19654 50.78469
# Shear Modulus (GPa) = 29.17716 36.05348 32.61532
#
# Velocity S-wave (km/s) = 3.61810 4.02191 3.82534
# Velocity P-wave (km/s) = 6.07567 6.90494 6.50354
#
# Compressibility (1/GPa) = 0.02305590
#
# Stress axis : x y z
#
# Youngs Moduli (GPa) = 92.87026 50.74314 74.10418
#
# Poissons Ratio (x) = 0.23213 0.30704
# Poissons Ratio (y) = 0.42485 0.12885
# Poissons Ratio (z) = 0.38479 0.08823
#
# Static dielectric constant tensor:
#      x y z
#    x 1.896700 0.000000 0.052030 
#    y 0.000000 1.767070 0.000000 
#    z 0.052030 0.000000 1.882410 
# 
# From -- ./inp_files/170706.got.cif
#   From: 2010.05.17/outbox.cif.g08.bks.cpg/sg12_86_cif.got.tgz:170706.got - 2010.06.03 13:09:07.
