data_PCOD9186029
_publ_section_title
;
Structure prediction by ZEFSAII (Michael W. Deem and Ramdas Pophale) SiO2 
 PCOD9186029
Probable space group: C 2/M
;
_chemical_formula_sum "Si O2"
_cell_formula_units_Z 52
_cell_length_a 28.318866
_cell_length_b 11.574051
_cell_length_c 27.414048
_cell_angle_alpha 90.000000
_cell_angle_beta 164.615583
_cell_angle_gamma 90.000000
_cell_volume 2383.755347
_symmetry_space_group_name_H-M "C 2/M"
_symmetry_group_IT_number 12
_symmetry_cell_setting 'monoclinic'
loop_
_space_group_symop_operation_xyz
x,y,z
-x,y,-z
-x,-y,-z
x,-y,z
1/2+x,1/2+y,z
1/2-x,1/2+y,-z
1/2-x,1/2-y,-z
1/2+x,1/2-y,z
loop_
_atom_site_type_symbol
_atom_site_label
_atom_site_fract_x
_atom_site_fract_y
_atom_site_fract_z
Si Si1 0.805134 0.622735 0.714067
Si Si2 0.726002 0.370711 0.168429
Si Si3 0.500000 0.804380 0.000000
Si Si4 0.876981 0.374303 0.471993
Si Si5 0.368954 0.636842 0.038783
Si Si6 0.486150 0.187478 0.687503
Si Si7 0.143647 0.318421 0.340189
O O1 0.700284 0.500000 0.613402
O O2 0.714397 0.749905 0.626240
O O3 0.890722 0.622059 0.745502
O O4 0.939021 0.625426 0.892431
O O5 0.673351 0.500000 0.130459
O O6 0.657298 0.278566 0.138039
O O7 0.937944 0.369399 0.372809
O O8 0.644468 0.347848 0.033209
O O9 0.788236 0.500000 0.372486
O O10 0.929211 0.376760 0.581294
O O11 0.358079 0.500000 0.037517
O O12 0.546474 0.694268 0.236196
O O13 0.197425 0.699185 0.891760
O O14 0.356001 0.299494 0.556940
O O15 0.436656 0.132283 0.690118
#
# Coordination Sequence:
#
# PCOD9186029 Si02
#       7
#     8   8   4   8   8   8   8
#     4  11  25  42  61  87 123 165 211 256 305 367
#     4   9  19  36  62  94 122 153 201 262 314 369
#     4  12  22  40  60  84 123 162 207 252 315 368
#     4   9  20  41  66  92 123 157 199 254 316 371
#     4  10  19  34  58  92 126 158 202 255 314 370
#     4   9  19  35  61  92 126 162 200 255 306 372
#     4  10  20  38  60  86 124 167 211 243 308 371
#
# _framework density 21.814319000000001
#
# number of rings (size 3 to 8) (size 9 to 14) (size 15 to 20)
#    0.000    2.154    1.538    2.308    0.000    6.154 
#    0.000   10.000    0.000    0.000    0.000    0.000 
#    0.000    0.000    0.000    0.000    0.000    0.000 
#
# Total GULP energy -144931.245264 kJ/mol
# GULP energy per Si atom -5574.278664 kJ/mol
# Density = 2.176467 g / cm^3
# Si number density = 21.814319 Si / 1000 Ang^3
#
#
#
# Elastic Constant Matrix: (Units=GPa)
#
#
# Indices 1 2 3 4 5 6 
#
# 1 143.2608 41.2058 30.9022 -0.0019 -7.9551 -0.0063
# 2 41.2058 126.1016 30.8451 0.0044 -1.9445 -0.0047
# 3 30.9022 30.8451 55.2091 0.0101 1.2365 -0.0029
# 4 -0.0019 0.0044 0.0101 10.0039 0.0080 8.1664
# 5 -7.9551 -1.9445 1.2365 0.0080 39.8900 -0.0016
# 6 -0.0063 -0.0047 -0.0029 8.1664 -0.0016 -26.3053
#
#
#
# Elastic Compliance Matrix: (Units=1/GPa)
#
#
# Indices 1 2 3 4 5 6 
#
# 1 0.008399 -0.001806 -0.003730 0.000005 0.001703 0.000000
# 2 -0.001806 0.009588 -0.004352 0.000000 0.000242 -0.000001
# 3 -0.003730 -0.004352 0.022669 -0.000016 -0.001659 -0.000006
# 4 0.000005 0.000000 -0.000016 0.079750 -0.000014 0.024758
# 5 0.001703 0.000242 -0.001659 -0.000014 0.025472 -0.000006
# 6 0.000000 -0.000001 -0.000006 0.024758 -0.000006 -0.030329
#
#
# Mechanical properties :
#
#
# Convention : Reuss Voigt Hill
#
# Bulk Modulus (GPa) = 47.89037 58.94196 53.41617
# Shear Modulus (GPa) = 35.14062 19.49229 27.31645
#
# Velocity S-wave (km/s) = 4.01795 2.99248 3.54252
# Velocity P-wave (km/s) = 6.59747 6.24647 6.42437
#
# Compressibility (1/GPa) = 0.02088102
#
# Stress axis : x y z
#
# Youngs Moduli (GPa) = 119.06378 104.29324 44.11240
#
# Poissons Ratio (x) = 0.18833 0.16456
# Poissons Ratio (y) = 0.21500 0.19196
# Poissons Ratio (z) = 0.44415 0.45385
#
# Static dielectric constant tensor:
#      x y z
#    x 1.809970 0.000000 -0.017640 
#    y 0.000000 1.820370 0.000000 
#    z -0.017640 0.000000 1.806740 
# 
# From -- ./inp_files/369408.got.cif
#   From: 2010.05.17/outbox.cif.g08.bks.cpg/sg12_185_cif.got.tgz:369408.got - 2010.06.03 13:09:07.
