data_PCOD9186586
_publ_section_title
;
Structure prediction by ZEFSAII (Michael W. Deem and Ramdas Pophale) SiO2 
 PCOD9186586
Probable space group: C 2/M
;
_chemical_formula_sum "Si O2"
_cell_formula_units_Z 64
_cell_length_a 17.319323
_cell_length_b 22.940107
_cell_length_c 18.223177
_cell_angle_alpha 90.000000
_cell_angle_beta 148.894621
_cell_angle_gamma 90.000000
_cell_volume 3740.385590
_symmetry_space_group_name_H-M "C 2/M"
_symmetry_group_IT_number 12
_symmetry_cell_setting 'monoclinic'
loop_
_space_group_symop_operation_xyz
x,y,z
-x,y,-z
-x,-y,-z
x,-y,z
1/2+x,1/2+y,z
1/2-x,1/2+y,-z
1/2-x,1/2-y,-z
1/2+x,1/2-y,z
loop_
_atom_site_type_symbol
_atom_site_label
_atom_site_fract_x
_atom_site_fract_y
_atom_site_fract_z
Si Si1 0.655468 0.569112 0.166581
Si Si2 0.605154 0.430970 0.656817
Si Si3 0.132364 0.872543 0.445202
Si Si4 0.654622 0.728339 0.580149
Si Si5 0.544550 0.068356 0.678681
Si Si6 0.433494 0.068503 0.747757
Si Si7 0.113441 0.644551 0.156019
Si Si8 0.263269 0.860007 0.392867
O O1 0.656164 0.500000 0.185856
O O2 0.794371 0.579702 0.224841
O O3 0.683033 0.607284 0.260904
O O4 0.500000 0.582257 0.000000
O O5 0.500000 0.417910 0.500000
O O6 0.618664 0.500000 0.673584
O O7 0.520566 0.404073 0.657523
O O8 0.763612 0.401307 0.773148
O O9 0.137197 0.811999 0.493830
O O10 0.266088 0.913299 0.585867
O O11 0.164689 0.863290 0.386391
O O12 0.500000 0.726545 0.500000
O O13 0.788683 0.698238 0.734597
O O14 0.697206 0.793899 0.594852
O O15 0.534634 0.078256 0.758083
O O16 0.418062 0.106623 0.536914
O O17 0.508136 0.000000 0.637231
O O18 0.467970 0.111050 0.843213
O O19 0.436980 0.000000 0.770328
O O20 0.000000 0.660859 0.000000
#
# Coordination Sequence:
#
# PCOD9186586 Si02
#       8
#     8   8   8   8   8   8   8   8
#     4  10  21  38  55  77 113 146 174 225 288 338
#     4  11  19  34  60  83 113 153 185 224 281 338
#     4  10  19  35  54  85 114 137 179 237 280 321
#     4  11  20  38  58  78 109 149 188 233 282 320
#     4   9  18  35  57  83 109 136 178 233 283 330
#     4   9  17  31  54  80 110 143 176 221 277 333
#     4  11  22  36  53  79 118 153 189 229 271 327
#     4  11  22  34  61  86 105 139 194 233 275 333
#
# _framework density 17.110536
#
# number of rings (size 3 to 8) (size 9 to 14) (size 15 to 20)
#    0.000    1.750    3.750    2.625    0.000    4.000 
#    2.250    0.000    0.000    0.750    0.000    0.000 
#    0.000    0.000    0.000    0.000    0.000    0.000 
#
# Total GULP energy -178650.629929 kJ/mol
# GULP energy per Si atom -5582.832185 kJ/mol
# Density = 1.707159 g / cm^3
# Si number density = 17.110536 Si / 1000 Ang^3
#
#
#
# Elastic Constant Matrix: (Units=GPa)
#
#
# Indices 1 2 3 4 5 6 
#
# 1 133.5120 66.9118 57.5529 0.0001 -2.6891 -0.0003
# 2 66.9118 92.6218 46.2779 0.0000 1.0856 -0.0002
# 3 57.5529 46.2779 71.4565 0.0006 -0.8220 -0.0011
# 4 0.0001 0.0000 0.0006 6.4317 0.0002 -1.4538
# 5 -2.6891 1.0856 -0.8220 0.0002 14.6860 -0.0006
# 6 -0.0003 -0.0002 -0.0011 -1.4538 -0.0006 20.1390
#
#
#
# Elastic Compliance Matrix: (Units=1/GPa)
#
#
# Indices 1 2 3 4 5 6 
#
# 1 0.013773 -0.006584 -0.006799 0.000000 0.002628 0.000000
# 2 -0.006584 0.019154 -0.007137 0.000001 -0.003021 0.000000
# 3 -0.006799 -0.007137 0.024100 -0.000002 0.000632 0.000001
# 4 0.000000 0.000001 -0.000002 0.158060 -0.000002 0.011410
# 5 0.002628 -0.003021 0.000632 -0.000002 0.068832 0.000002
# 6 0.000000 0.000000 0.000001 0.011410 0.000002 0.050479
#
#
# Mechanical properties :
#
#
# Convention : Reuss Voigt Hill
#
# Bulk Modulus (GPa) = 62.54784 71.00839 66.77812
# Shear Modulus (GPa) = 13.13136 16.70783 14.91959
#
# Velocity S-wave (km/s) = 2.77328 3.12823 2.95609
# Velocity P-wave (km/s) = 6.84758 7.39173 7.12485
#
# Compressibility (1/GPa) = 0.01598776
#
# Stress axis : x y z
#
# Youngs Moduli (GPa) = 72.60336 52.20778 41.49313
#
# Poissons Ratio (x) = 0.34372 0.28213
# Poissons Ratio (y) = 0.47800 0.29614
# Poissons Ratio (z) = 0.49366 0.37261
#
# Static dielectric constant tensor:
#      x y z
#    x 1.593830 0.000000 -0.007830 
#    y 0.000000 1.562300 0.000000 
#    z -0.007830 0.000000 1.552260 
# 
# From -- ./inp_files/99128.got.cif
#   From: 2010.05.17/outbox.cif.g08.bks.cpg/sg12_50_cif.got.tgz:99128.got - 2010.06.03 13:09:07.
