data_PCOD9186094
_publ_section_title
;
Structure prediction by ZEFSAII (Michael W. Deem and Ramdas Pophale) SiO2 
 PCOD9186094
Probable space group: C 2/M
;
_chemical_formula_sum "Si O2"
_cell_formula_units_Z 56
_cell_length_a 29.079445
_cell_length_b 12.890139
_cell_length_c 11.294072
_cell_angle_alpha 90.000000
_cell_angle_beta 37.914067
_cell_angle_gamma 90.000000
_cell_volume 2601.364748
_symmetry_space_group_name_H-M "C 2/M"
_symmetry_group_IT_number 12
_symmetry_cell_setting 'monoclinic'
loop_
_space_group_symop_operation_xyz
x,y,z
-x,y,-z
-x,-y,-z
x,-y,z
1/2+x,1/2+y,z
1/2-x,1/2+y,-z
1/2-x,1/2-y,-z
1/2+x,1/2-y,z
loop_
_atom_site_type_symbol
_atom_site_label
_atom_site_fract_x
_atom_site_fract_y
_atom_site_fract_z
Si Si1 0.924217 0.886035 0.223734
Si Si2 0.717890 0.117451 0.956580
Si Si3 0.041521 0.624227 0.295955
Si Si4 0.191244 0.830066 0.737224
Si Si5 0.078152 0.322996 0.648049
Si Si6 0.843684 0.381901 0.288062
Si Si7 0.773182 0.337031 0.789393
O O1 0.862770 0.884781 0.245308
O O2 0.909059 0.797700 0.349087
O O3 0.929695 0.000000 0.265765
O O4 0.000000 0.860893 0.000000
O O5 0.629843 0.144562 0.122207
O O6 0.733737 0.121305 0.065039
O O7 0.731253 0.000000 0.885052
O O8 0.765749 0.211377 0.805971
O O9 0.033369 0.500000 0.310981
O O10 0.000000 0.663013 0.500000
O O11 0.998499 0.662764 0.266575
O O12 0.161685 0.710679 0.795770
O O13 0.272944 0.848296 0.513315
O O14 0.205973 0.870352 0.838811
O O15 0.087488 0.373459 0.759450
O O16 0.145575 0.364825 0.428653
O O17 0.837170 0.500000 0.258043
#
# Coordination Sequence:
#
# PCOD9186094 Si02
#       7
#     8   8   8   8   8   8   8
#     4  10  22  38  55  78 107 144 186 225 271 328
#     4  10  22  37  54  82 115 146 184 228 275 328
#     4  10  19  34  59  86 111 144 183 225 279 334
#     4   9  19  32  52  77 104 141 174 221 272 316
#     4  10  20  35  59  83 110 145 181 229 276 325
#     4   9  17  31  52  81 108 132 175 222 269 327
#     4  10  21  36  55  82 110 144 184 226 277 320
#
# _framework density 21.527163000000002
#
# number of rings (size 3 to 8) (size 9 to 14) (size 15 to 20)
#    0.000    2.286    1.429    1.714    2.000    4.000 
#    0.000    0.000    0.000    2.571    0.000    0.000 
#    0.000    0.000    0.000    0.000    0.000    0.000 
#
# Total GULP energy -156251.751447 kJ/mol
# GULP energy per Si atom -5580.419695 kJ/mol
# Density = 2.147817 g / cm^3
# Si number density = 21.527163 Si / 1000 Ang^3
#
#
#
# Elastic Constant Matrix: (Units=GPa)
#
#
# Indices 1 2 3 4 5 6 
#
# 1 156.2440 -3.4102 18.9697 0.0000 -2.2265 0.0000
# 2 -3.4102 97.2143 11.5852 0.0000 -3.2728 0.0000
# 3 18.9697 11.5852 26.7891 0.0000 -3.9425 0.0000
# 4 0.0000 0.0000 0.0000 10.1450 0.0000 -11.2012
# 5 -2.2265 -3.2728 -3.9425 0.0000 21.8807 0.0000
# 6 0.0000 0.0000 0.0000 -11.2012 0.0000 -6.7729
#
#
#
# Elastic Compliance Matrix: (Units=1/GPa)
#
#
# Indices 1 2 3 4 5 6 
#
# 1 0.007075 0.000889 -0.005412 0.000000 -0.000122 0.000000
# 2 0.000889 0.010971 -0.005259 0.000000 0.000784 0.000000
# 3 -0.005412 -0.005259 0.044416 0.000000 0.006666 0.000000
# 4 0.000000 0.000000 0.000000 0.034880 0.000000 -0.057685
# 5 -0.000122 0.000784 0.006666 0.000000 0.047008 0.000000
# 6 0.000000 0.000000 0.000000 -0.057685 0.000000 -0.052246
#
#
# Mechanical properties :
#
#
# Convention : Reuss Voigt Hill
#
# Bulk Modulus (GPa) = 23.31095 37.17075 30.24085
# Shear Modulus (GPa) = 39.69261 21.92407 30.80834
#
# Velocity S-wave (km/s) = 4.29865 3.19476 3.78714
# Velocity P-wave (km/s) = 5.95735 5.55995 5.76208
#
# Compressibility (1/GPa) = 0.04289830
#
# Stress axis : x y z
#
# Youngs Moduli (GPa) = 141.34205 91.15092 22.51419
#
# Poissons Ratio (x) = -0.08104 0.12186
# Poissons Ratio (y) = -0.12566 0.11839
# Poissons Ratio (z) = 0.76500 0.47933
#
# Static dielectric constant tensor:
#      x y z
#    x 1.850330 0.000000 -0.005680 
#    y 0.000000 1.794460 0.000000 
#    z -0.005680 0.000000 1.775810 
# 
# From -- ./inp_files/182468.got.cif
#   From: 2010.05.17/outbox.cif.g08.bks.cpg/sg12_92_cif.got.tgz:182468.got - 2010.06.03 13:09:07.
