data_PCOD9186788
_publ_section_title
;
Structure prediction by ZEFSAII (Michael W. Deem and Ramdas Pophale) SiO2 
 PCOD9186788
Probable space group: C 2/M
;
_chemical_formula_sum "Si O2"
_cell_formula_units_Z 56
_cell_length_a 24.509108
_cell_length_b 18.718107
_cell_length_c 8.395657
_cell_angle_alpha 90.000000
_cell_angle_beta 128.028556
_cell_angle_gamma 90.000000
_cell_volume 3033.940546
_symmetry_space_group_name_H-M "C 2/M"
_symmetry_group_IT_number 12
_symmetry_cell_setting 'monoclinic'
loop_
_space_group_symop_operation_xyz
x,y,z
-x,y,-z
-x,-y,-z
x,-y,z
1/2+x,1/2+y,z
1/2-x,1/2+y,-z
1/2-x,1/2-y,-z
1/2+x,1/2-y,z
loop_
_atom_site_type_symbol
_atom_site_label
_atom_site_fract_x
_atom_site_fract_y
_atom_site_fract_z
Si Si1 0.172692 0.583058 0.563675
Si Si2 0.921888 0.576607 0.292696
Si Si3 0.946732 0.277598 0.258930
Si Si4 0.826031 0.917389 0.982306
Si Si5 0.064864 0.827158 0.025480
Si Si6 0.815365 0.207654 0.186030
Si Si7 0.326559 0.761144 0.564854
O O1 0.159611 0.500000 0.484699
O O2 0.127821 0.591564 0.645783
O O3 0.157933 0.653664 0.430869
O O4 0.253777 0.587951 0.755563
O O5 0.901790 0.500000 0.187609
O O6 0.924085 0.642205 0.176289
O O7 0.000000 0.571281 0.500000
O O8 0.971085 0.230064 0.157745
O O9 0.879955 0.239971 0.209392
O O10 0.000000 0.280684 0.500000
O O11 0.887386 0.881309 0.989744
O O12 0.813487 0.873849 0.123292
O O13 0.840864 0.000000 0.038807
O O14 0.117352 0.780636 0.228054
O O15 0.000000 0.861886 0.000000
O O16 0.824065 0.224639 0.386294
O O17 0.750000 0.250000 0.000000
O O18 0.250000 0.750000 0.500000
#
# Coordination Sequence:
#
# PCOD9186788 Si02
#       7
#     8   8   8   8   8   8   8
#     4  10  19  35  58  84 117 156 195 240 295 350
#     4   9  17  29  52  82 108 146 195 241 286 336
#     4  10  19  35  56  79 111 152 198 245 282 350
#     4  10  21  40  62  85 115 157 205 250 298 356
#     4  11  24  37  58  91 122 157 198 249 312 358
#     4  11  19  35  59  85 110 149 197 244 285 347
#     4  12  21  37  59  90 123 159 196 248 300 358
#
# _framework density 18.457841999999999
#
# number of rings (size 3 to 8) (size 9 to 14) (size 15 to 20)
#    0.000    1.571    4.286    1.714    2.000    0.286 
#    0.000    2.143    0.000   15.429    0.000    0.000 
#    0.000    0.000    0.000    0.000    0.000    0.000 
#
# Total GULP energy -156041.478165 kJ/mol
# GULP energy per Si atom -5572.909934 kJ/mol
# Density = 1.841583 g / cm^3
# Si number density = 18.457842 Si / 1000 Ang^3
#
#
#
# Elastic Constant Matrix: (Units=GPa)
#
#
# Indices 1 2 3 4 5 6 
#
# 1 95.7682 24.9106 -1.2582 0.0000 10.1474 0.0000
# 2 24.9106 151.6921 27.9010 0.0000 -8.8167 0.0000
# 3 -1.2582 27.9010 52.0106 0.0000 -1.8159 0.0000
# 4 0.0000 0.0000 0.0000 21.7889 0.0000 -4.7009
# 5 10.1474 -8.8167 -1.8159 0.0000 26.1951 0.0000
# 6 0.0000 0.0000 0.0000 -4.7009 0.0000 32.6939
#
#
#
# Elastic Compliance Matrix: (Units=1/GPa)
#
#
# Indices 1 2 3 4 5 6 
#
# 1 0.011664 -0.002484 0.001431 0.000000 -0.005255 0.000000
# 2 -0.002484 0.007971 -0.004219 0.000000 0.003353 0.000000
# 3 0.001431 -0.004219 0.021508 0.000000 -0.000483 0.000000
# 4 0.000000 0.000000 0.000000 0.047364 0.000000 0.006810
# 5 -0.005255 0.003353 -0.000483 0.000000 0.041306 0.000000
# 6 0.000000 0.000000 0.000000 0.006810 0.000000 0.031566
#
#
# Mechanical properties :
#
#
# Convention : Reuss Voigt Hill
#
# Bulk Modulus (GPa) = 32.68102 44.73086 38.70594
# Shear Modulus (GPa) = 27.45409 32.66340 30.05875
#
# Velocity S-wave (km/s) = 3.86086 4.21125 4.03986
# Velocity P-wave (km/s) = 6.13345 6.92336 6.54034
#
# Compressibility (1/GPa) = 0.03059880
#
# Stress axis : x y z
#
# Youngs Moduli (GPa) = 85.73644 125.45280 46.49450
#
# Poissons Ratio (x) = 0.31163 -0.06655
# Poissons Ratio (y) = 0.21298 0.19617
# Poissons Ratio (z) = -0.12271 0.52930
#
# Static dielectric constant tensor:
#      x y z
#    x 1.636670 0.000000 0.000850 
#    y 0.000000 1.702520 0.000000 
#    z 0.000850 0.000000 1.619710 
# 
# From -- ./inp_files/97828.got.cif
#   From: 2010.05.17/outbox.cif.g08.bks.cpg/sg12_49_cif.got.tgz:97828.got - 2010.06.03 13:09:07.
