data_PCOD9186614
_publ_section_title
;
Structure prediction by ZEFSAII (Michael W. Deem and Ramdas Pophale) SiO2 
 PCOD9186614
Probable space group: C 2/M
;
_chemical_formula_sum "Si O2"
_cell_formula_units_Z 56
_cell_length_a 14.975737
_cell_length_b 26.064820
_cell_length_c 12.032813
_cell_angle_alpha 90.000000
_cell_angle_beta 143.198601
_cell_angle_gamma 90.000000
_cell_volume 2813.637920
_symmetry_space_group_name_H-M "C 2/M"
_symmetry_group_IT_number 12
_symmetry_cell_setting 'monoclinic'
loop_
_space_group_symop_operation_xyz
x,y,z
-x,y,-z
-x,-y,-z
x,-y,z
1/2+x,1/2+y,z
1/2-x,1/2+y,-z
1/2-x,1/2-y,-z
1/2+x,1/2-y,z
loop_
_atom_site_type_symbol
_atom_site_label
_atom_site_fract_x
_atom_site_fract_y
_atom_site_fract_z
Si Si1 0.145839 0.093061 0.102637
Si Si2 0.856522 0.800113 0.010925
Si Si3 0.823952 0.226748 0.338284
Si Si4 0.594874 0.785084 0.296016
Si Si5 0.626573 0.941175 0.854409
Si Si6 0.676541 0.846068 0.037742
Si Si7 0.399675 0.132985 0.507673
O O1 0.094646 0.145980 0.992014
O O2 0.246728 0.063471 0.114384
O O3 0.248798 0.110627 0.307563
O O4 0.000000 0.065019 0.000000
O O5 0.767870 0.768064 0.828127
O O6 0.742979 0.815998 0.995416
O O7 0.992655 0.766168 0.192736
O O8 0.748326 0.224977 0.384124
O O9 0.780719 0.172161 0.240321
O O10 0.000000 0.234500 0.500000
O O11 0.613698 0.817523 0.427600
O O12 0.489905 0.823705 0.118246
O O13 0.486373 0.911064 0.661701
O O14 0.596975 0.000000 0.850915
O O15 0.674802 0.905591 0.005596
O O16 0.500000 0.145823 0.500000
#
# Coordination Sequence:
#
# PCOD9186614 Si02
#       7
#     8   8   8   8   8   8   8
#     4  10  20  33  51  78 111 139 171 217 268 316
#     4  10  20  36  53  74 109 150 184 217 259 312
#     4  11  22  33  52  81 112 145 183 219 258 314
#     4  10  19  35  55  75 106 148 182 215 260 311
#     4   9  19  36  58  79  99 134 178 219 268 321
#     4   9  19  36  55  75 106 140 176 224 269 316
#     4   9  20  36  56  79 105 138 178 225 265 311
#
# _framework density 19.903058000000001
#
# number of rings (size 3 to 8) (size 9 to 14) (size 15 to 20)
#    0.000    2.286    0.000    5.143    0.000   10.286 
#    0.000    7.143    0.000    7.286    0.000    0.000 
#    0.000    0.000    0.000    0.000    0.000    0.000 
#
# Total GULP energy -156456.645732 kJ/mol
# GULP energy per Si atom -5587.737348 kJ/mol
# Density = 1.985776 g / cm^3
# Si number density = 19.903058 Si / 1000 Ang^3
#
#
#
# Elastic Constant Matrix: (Units=GPa)
#
#
# Indices 1 2 3 4 5 6 
#
# 1 89.2070 27.1705 20.6247 0.0000 14.2699 0.0000
# 2 27.1705 145.1710 29.0780 0.0000 -2.6732 0.0000
# 3 20.6247 29.0780 61.2654 0.0000 14.2860 0.0000
# 4 0.0000 0.0000 0.0000 12.0443 0.0000 -1.7562
# 5 14.2699 -2.6732 14.2860 0.0000 35.5702 0.0000
# 6 0.0000 0.0000 0.0000 -1.7562 0.0000 4.4077
#
#
#
# Elastic Compliance Matrix: (Units=1/GPa)
#
#
# Indices 1 2 3 4 5 6 
#
# 1 0.013101 -0.002053 -0.002399 0.000000 -0.004447 0.000000
# 2 -0.002053 0.008098 -0.003846 0.000000 0.002977 0.000000
# 3 -0.002399 -0.003846 0.020741 0.000000 -0.007657 0.000000
# 4 0.000000 0.000000 0.000000 0.088148 0.000000 0.035121
# 5 -0.004447 0.002977 -0.007657 0.000000 0.033196 0.000000
# 6 0.000000 0.000000 0.000000 0.035121 0.000000 0.240869
#
#
# Mechanical properties :
#
#
# Convention : Reuss Voigt Hill
#
# Bulk Modulus (GPa) = 39.45916 49.93219 44.69568
# Shear Modulus (GPa) = 11.64960 24.98913 18.31937
#
# Velocity S-wave (km/s) = 2.42196 3.54721 3.03715
# Velocity P-wave (km/s) = 5.26212 6.47449 5.89953
#
# Compressibility (1/GPa) = 0.02534266
#
# Stress axis : x y z
#
# Youngs Moduli (GPa) = 76.32843 123.48680 48.21347
#
# Poissons Ratio (x) = 0.25357 0.11566
# Poissons Ratio (y) = 0.15674 0.18545
# Poissons Ratio (z) = 0.18311 0.47499
#
# Static dielectric constant tensor:
#      x y z
#    x 1.763860 0.000000 -0.011580 
#    y 0.000000 1.693820 0.000000 
#    z -0.011580 0.000000 1.747970 
# 
# From -- ./inp_files/149508.got.cif
#   From: 2010.05.17/outbox.cif.g08.bks.cpg/sg12_75_cif.got.tgz:149508.got - 2010.06.03 13:09:07.
