data_PCOD9186464
_publ_section_title
;
Structure prediction by ZEFSAII (Michael W. Deem and Ramdas Pophale) SiO2 
 PCOD9186464
Probable space group: C 2/M
;
_chemical_formula_sum "Si O2"
_cell_formula_units_Z 56
_cell_length_a 23.197230
_cell_length_b 7.478486
_cell_length_c 18.209737
_cell_angle_alpha 90.000000
_cell_angle_beta 122.695126
_cell_angle_gamma 90.000000
_cell_volume 2658.501363
_symmetry_space_group_name_H-M "C 2/M"
_symmetry_group_IT_number 12
_symmetry_cell_setting 'monoclinic'
loop_
_space_group_symop_operation_xyz
x,y,z
-x,y,-z
-x,-y,-z
x,-y,z
1/2+x,1/2+y,z
1/2-x,1/2+y,-z
1/2-x,1/2-y,-z
1/2+x,1/2-y,z
loop_
_atom_site_type_symbol
_atom_site_label
_atom_site_fract_x
_atom_site_fract_y
_atom_site_fract_z
Si Si1 0.714906 0.304301 0.551625
Si Si2 0.072893 0.281289 0.213592
Si Si3 0.450290 0.209091 0.037423
Si Si4 0.460299 0.715745 0.399264
Si Si5 0.167260 0.281642 0.141320
Si Si6 0.917042 0.291307 0.614346
Si Si7 0.695899 0.280094 0.698083
O O1 0.743920 0.500000 0.585312
O O2 0.750000 0.250000 0.500000
O O3 0.634484 0.304849 0.476599
O O4 0.719791 0.213252 0.633871
O O5 0.071410 0.500000 0.213354
O O6 0.127200 0.229671 0.188523
O O7 0.090610 0.223959 0.307850
O O8 0.997765 0.217902 0.135068
O O9 0.438962 0.000000 0.046745
O O10 0.500000 0.215721 0.000000
O O11 0.378247 0.283270 0.958711
O O12 0.500000 0.778354 0.500000
O O13 0.459464 0.500000 0.401020
O O14 0.506221 0.771454 0.361925
O O15 0.381896 0.777858 0.342241
O O16 0.165022 0.500000 0.137775
O O17 0.245972 0.227942 0.203837
O O18 0.897791 0.500000 0.599092
O O19 0.694337 0.500000 0.695136
#
# Coordination Sequence:
#
# PCOD9186464 Si02
#       7
#     8   8   8   8   8   8   8
#     4  11  21  34  49  70  99 128 154 188 236 284
#     4   8  14  24  39  64  97 122 143 182 238 284
#     4   7  10  18  35  60  90 119 144 178 226 279
#     4  10  19  35  51  63  85 124 166 204 240 275
#     4   8  12  21  40  65  89 116 150 185 227 283
#     4  11  21  32  48  70  95 125 159 196 235 280
#     4   9  17  29  46  64  88 121 156 195 238 277
#
# _framework density 21.064498
#
# number of rings (size 3 to 8) (size 9 to 14) (size 15 to 20)
#    0.000    2.857    1.429    3.429    0.000    2.571 
#    0.000    0.000    0.000    0.857    0.000    0.000 
#    0.000   41.143    0.000    0.000    0.000    0.143 
#
# Total GULP energy -156099.026827 kJ/mol
# GULP energy per Si atom -5574.965244 kJ/mol
# Density = 2.101655 g / cm^3
# Si number density = 21.064498 Si / 1000 Ang^3
#
#
#
# Elastic Constant Matrix: (Units=GPa)
#
#
# Indices 1 2 3 4 5 6 
#
# 1 73.4941 -2.8276 2.2829 0.0000 30.0992 0.0000
# 2 -2.8276 57.9642 -3.8000 0.0000 1.4877 0.0000
# 3 2.2829 -3.8000 81.8334 0.0000 38.1907 0.0000
# 4 0.0000 0.0000 0.0000 -1.9553 0.0000 -3.6668
# 5 30.0992 1.4877 38.1907 0.0000 39.5289 0.0000
# 6 0.0000 0.0000 0.0000 -3.6668 0.0000 9.9086
#
#
#
# Elastic Compliance Matrix: (Units=1/GPa)
#
#
# Indices 1 2 3 4 5 6 
#
# 1 0.029657 0.003667 0.018113 0.000000 -0.040221 0.000000
# 2 0.003667 0.017906 0.004274 0.000000 -0.007595 0.000000
# 3 0.018113 0.004274 0.033554 0.000000 -0.046372 0.000000
# 4 0.000000 0.000000 0.000000 -0.301909 0.000000 -0.111725
# 5 -0.040221 -0.007595 -0.046372 0.000000 0.101011 0.000000
# 6 0.000000 0.000000 0.000000 -0.111725 0.000000 0.059577
#
#
# Mechanical properties :
#
#
# Convention : Reuss Voigt Hill
#
# Bulk Modulus (GPa) = 7.50615 22.73359 15.11987
# Shear Modulus (GPa) = -73.63598 24.00553 -24.81523
#
# Velocity S-wave (km/s) = -5.91889 3.37949 -3.43601
# Velocity P-wave (km/s) = 6.56810 5.10331 2.92371
#
# Compressibility (1/GPa) = 0.13322415
#
# Stress axis : x y z
#
# Youngs Moduli (GPa) = 33.71872 55.84730 29.80256
#
# Poissons Ratio (x) = -0.20477 -0.53983
# Poissons Ratio (y) = -0.12363 -0.12736
# Poissons Ratio (z) = -0.61076 -0.23866
#
# Static dielectric constant tensor:
#      x y z
#    x 1.757360 0.000000 0.039320 
#    y 0.000000 1.860700 0.000000 
#    z 0.039320 0.000000 1.767630 
# 
# From -- ./inp_files/281682.got.cif
#   From: 2010.05.17/outbox.cif.g08.bks.cpg/sg12_141_cif.got.tgz:281682.got - 2010.06.03 13:09:07.
