data_PCOD9186900
_publ_section_title
;
Structure prediction by ZEFSAII (Michael W. Deem and Ramdas Pophale) SiO2 
 PCOD9186900
Probable space group: C 2/M
;
_chemical_formula_sum "Si O2"
_cell_formula_units_Z 40
_cell_length_a 8.506129
_cell_length_b 19.716188
_cell_length_c 12.715075
_cell_angle_alpha 90.000000
_cell_angle_beta 58.422539
_cell_angle_gamma 90.000000
_cell_volume 1816.683533
_symmetry_space_group_name_H-M "C 2/M"
_symmetry_group_IT_number 12
_symmetry_cell_setting 'monoclinic'
loop_
_space_group_symop_operation_xyz
x,y,z
-x,y,-z
-x,-y,-z
x,-y,z
1/2+x,1/2+y,z
1/2-x,1/2+y,-z
1/2-x,1/2-y,-z
1/2+x,1/2-y,z
loop_
_atom_site_type_symbol
_atom_site_label
_atom_site_fract_x
_atom_site_fract_y
_atom_site_fract_z
Si Si1 0.768508 0.782038 0.272264
Si Si2 0.821503 0.192525 0.895896
Si Si3 0.888602 0.660223 0.364320
Si Si4 0.605684 0.426660 0.574373
Si Si5 0.713819 0.079659 0.811603
O O1 0.709513 0.727536 0.205441
O O2 0.810930 0.733932 0.356726
O O3 0.595913 0.831970 0.332993
O O4 0.959431 0.815122 0.166313
O O5 0.705016 0.123448 0.922696
O O6 0.750000 0.250000 0.000000
O O7 0.758188 0.628929 0.499123
O O8 0.878765 0.613671 0.260546
O O9 0.500000 0.430094 0.500000
O O10 0.691589 0.500000 0.566160
O O11 0.435905 0.415498 0.711578
O O12 0.666288 0.000000 0.836153
#
# Coordination Sequence:
#
# PCOD9186900 Si02
#       5
#     8   8   8   8   8
#     4   9  19  32  51  78 106 137 177 224 269 320
#     4  10  19  35  57  77 102 138 179 227 278 319
#     4   9  16  31  51  77 110 142 175 215 266 319
#     4   8  14  28  51  75 105 145 180 211 255 314
#     4   9  18  34  55  79 107 143 185 221 259 318
#
# _framework density 22.018146000000002
#
# number of rings (size 3 to 8) (size 9 to 14) (size 15 to 20)
#    0.000    3.000    0.000    2.400    0.000    0.000 
#    0.000   30.000    0.000   31.200    0.000    0.000 
#    0.000    0.000    0.000    0.000    0.000    0.000 
#
# Total GULP energy -111488.443923 kJ/mol
# GULP energy per Si atom -5574.422196 kJ/mol
# Density = 2.196803 g / cm^3
# Si number density = 22.018146 Si / 1000 Ang^3
#
#
#
# Elastic Constant Matrix: (Units=GPa)
#
#
# Indices 1 2 3 4 5 6 
#
# 1 124.1149 60.1143 43.1956 0.0000 -30.0224 0.0000
# 2 60.1143 141.2678 34.1986 0.0000 -6.9882 0.0000
# 3 43.1956 34.1986 47.8748 0.0000 -14.1037 0.0000
# 4 0.0000 0.0000 0.0000 24.0733 0.0000 3.5112
# 5 -30.0224 -6.9882 -14.1037 0.0000 39.2010 0.0000
# 6 0.0000 0.0000 0.0000 3.5112 0.0000 17.1471
#
#
#
# Elastic Compliance Matrix: (Units=1/GPa)
#
#
# Indices 1 2 3 4 5 6 
#
# 1 0.014604 -0.003856 -0.008198 0.000000 0.007547 0.000000
# 2 -0.003856 0.009597 -0.004186 0.000000 -0.002749 0.000000
# 3 -0.008198 -0.004186 0.032668 0.000000 0.004728 0.000000
# 4 0.000000 0.000000 0.000000 0.042819 0.000000 -0.008768
# 5 0.007547 -0.002749 0.004728 0.000000 0.032501 0.000000
# 6 0.000000 0.000000 0.000000 -0.008768 0.000000 0.060114
#
#
# Mechanical properties :
#
#
# Convention : Reuss Voigt Hill
#
# Bulk Modulus (GPa) = 41.00411 65.36385 53.18398
# Shear Modulus (GPa) = 21.46727 27.80087 24.63407
#
# Velocity S-wave (km/s) = 3.12586 3.55721 3.34849
# Velocity P-wave (km/s) = 5.62950 6.82807 6.25755
#
# Compressibility (1/GPa) = 0.02438780
#
# Stress axis : x y z
#
# Youngs Moduli (GPa) = 68.47563 104.19791 30.61122
#
# Poissons Ratio (x) = 0.40183 0.25096
# Poissons Ratio (y) = 0.26407 0.12813
# Poissons Ratio (z) = 0.56138 0.43615
#
# Static dielectric constant tensor:
#      x y z
#    x 1.802130 0.000000 0.016180 
#    y 0.000000 1.945520 0.000000 
#    z 0.016180 0.000000 1.911610 
# 
# From -- ./inp_files/177841.got.cif
#   From: 2010.05.17/outbox.cif.g08.bks.cpg/sg12_89_cif.got.tgz:177841.got - 2010.06.03 13:09:07.
