data_PCOD9186557
_publ_section_title
;
Structure prediction by ZEFSAII (Michael W. Deem and Ramdas Pophale) SiO2 
 PCOD9186557
Probable space group: C 2/M
;
_chemical_formula_sum "Si O2"
_cell_formula_units_Z 40
_cell_length_a 13.047964
_cell_length_b 19.172009
_cell_length_c 9.112007
_cell_angle_alpha 90.000000
_cell_angle_beta 109.610399
_cell_angle_gamma 90.000000
_cell_volume 2147.206102
_symmetry_space_group_name_H-M "C 2/M"
_symmetry_group_IT_number 12
_symmetry_cell_setting 'monoclinic'
loop_
_space_group_symop_operation_xyz
x,y,z
-x,y,-z
-x,-y,-z
x,-y,z
1/2+x,1/2+y,z
1/2-x,1/2+y,-z
1/2-x,1/2-y,-z
1/2+x,1/2-y,z
loop_
_atom_site_type_symbol
_atom_site_label
_atom_site_fract_x
_atom_site_fract_y
_atom_site_fract_z
Si Si1 0.645456 0.204202 0.001077
Si Si2 0.285710 0.579305 0.035013
Si Si3 0.904396 0.281179 0.345406
Si Si4 0.971112 0.875539 0.332851
Si Si5 0.161882 0.824114 0.217640
O O1 0.691477 0.128070 0.059927
O O2 0.610607 0.254305 0.117139
O O3 0.750000 0.250000 0.000000
O O4 0.580140 0.196479 0.817471
O O5 0.252134 0.500000 0.994387
O O6 0.390427 0.583066 0.189722
O O7 0.320380 0.618059 0.900961
O O8 0.783078 0.305102 0.332102
O O9 0.000000 0.305228 0.500000
O O10 0.910510 0.197212 0.344087
O O11 0.079240 0.853203 0.297330
O O12 0.000000 0.910875 0.500000
#
# Coordination Sequence:
#
# PCOD9186557 Si02
#       5
#     8   8   8   8   8
#     4   8  15  33  52  75 105 138 180 219 251 311
#     4  10  19  35  56  79 111 143 174 214 268 326
#     4   9  17  31  50  77 110 131 173 222 265 304
#     4  11  21  31  51  82 113 138 171 220 270 318
#     4  10  19  35  54  77 109 142 183 213 259 320
#
# _framework density 18.62886
#
# number of rings (size 3 to 8) (size 9 to 14) (size 15 to 20)
#    0.000    2.800    6.000    0.600    0.000    5.200 
#    0.000    0.000    0.000    9.600    0.000   11.200 
#    0.000    0.800    0.000    0.000    0.000    0.000 
#
# Total GULP energy -111364.154880 kJ/mol
# GULP energy per Si atom -5568.207744 kJ/mol
# Density = 1.858646 g / cm^3
# Si number density = 18.628860 Si / 1000 Ang^3
#
#
#
# Elastic Constant Matrix: (Units=GPa)
#
#
# Indices 1 2 3 4 5 6 
#
# 1 40.9949 18.9903 41.8198 0.0000 5.6217 0.0000
# 2 18.9903 114.3041 25.1463 0.0000 1.8992 0.0000
# 3 41.8198 25.1463 122.1036 0.0000 25.1632 0.0000
# 4 0.0000 0.0000 0.0000 7.0881 0.0000 8.0476
# 5 5.6217 1.8992 25.1632 0.0000 31.7163 0.0000
# 6 0.0000 0.0000 0.0000 8.0476 0.0000 7.4265
#
#
#
# Elastic Compliance Matrix: (Units=1/GPa)
#
#
# Indices 1 2 3 4 5 6 
#
# 1 0.039351 -0.003622 -0.013555 0.000000 0.003996 0.000000
# 2 -0.003622 0.009531 -0.000881 0.000000 0.000770 0.000000
# 3 -0.013555 -0.000881 0.014953 0.000000 -0.009408 0.000000
# 4 0.000000 0.000000 0.000000 -0.612526 0.000000 0.663758
# 5 0.003996 0.000770 -0.009408 0.000000 0.038239 0.000000
# 6 0.000000 0.000000 0.000000 0.663758 0.000000 -0.584621
#
#
# Mechanical properties :
#
#
# Convention : Reuss Voigt Hill
#
# Bulk Modulus (GPa) = 36.07727 49.92393 43.00060
# Shear Modulus (GPa) = -4.76319 22.00926 8.62303
#
# Velocity S-wave (km/s) = -1.60076 3.44097 2.15381
# Velocity P-wave (km/s) = 3.99897 6.53027 5.41462
#
# Compressibility (1/GPa) = 0.02771828
#
# Stress axis : x y z
#
# Youngs Moduli (GPa) = 25.41231 104.91631 66.87831
#
# Poissons Ratio (x) = 0.38001 0.90654
# Poissons Ratio (y) = 0.09204 0.05893
# Poissons Ratio (z) = 0.34447 0.09245
#
# Static dielectric constant tensor:
#      x y z
#    x 1.720680 0.000000 -0.005560 
#    y 0.000000 1.642750 0.000000 
#    z -0.005560 0.000000 1.720100 
# 
# From -- ./inp_files/61376.got.cif
#   From: 2010.05.17/outbox.cif.g08.bks.cpg/sg12_31_cif.got.tgz:61376.got - 2010.06.03 13:09:07.
