data_PCOD9186516
_publ_section_title
;
Structure prediction by ZEFSAII (Michael W. Deem and Ramdas Pophale) SiO2 
 PCOD9186516
Probable space group: C 2/M
;
_chemical_formula_sum "Si O2"
_cell_formula_units_Z 64
_cell_length_a 19.645086
_cell_length_b 18.480908
_cell_length_c 19.377798
_cell_angle_alpha 90.000000
_cell_angle_beta 29.005860
_cell_angle_gamma 90.000000
_cell_volume 3411.402909
_symmetry_space_group_name_H-M "C 2/M"
_symmetry_group_IT_number 12
_symmetry_cell_setting 'monoclinic'
loop_
_space_group_symop_operation_xyz
x,y,z
-x,y,-z
-x,-y,-z
x,-y,z
1/2+x,1/2+y,z
1/2-x,1/2+y,-z
1/2-x,1/2-y,-z
1/2+x,1/2-y,z
loop_
_atom_site_type_symbol
_atom_site_label
_atom_site_fract_x
_atom_site_fract_y
_atom_site_fract_z
Si Si1 0.131222 0.419103 0.242998
Si Si2 0.344718 0.316413 0.658013
Si Si3 0.857816 0.587709 0.406803
Si Si4 0.217202 0.698428 0.922587
Si Si5 0.659748 0.144835 0.355208
Si Si6 0.605393 0.825174 0.764114
Si Si7 0.321204 0.354933 0.974051
Si Si8 0.646007 0.343202 0.691999
O O1 0.104756 0.500000 0.290116
O O2 0.207712 0.378764 0.237296
O O3 0.982830 0.388137 0.348327
O O4 0.229454 0.416650 0.089575
O O5 0.500000 0.345267 0.500000
O O6 0.298473 0.317929 0.779400
O O7 0.348599 0.231202 0.636620
O O8 0.220965 0.346069 0.718773
O O9 0.849573 0.500000 0.414451
O O10 0.893040 0.619043 0.300541
O O11 0.719041 0.626330 0.558794
O O12 0.284018 0.655328 0.927231
O O13 0.223407 0.781678 0.944409
O O14 0.051003 0.680855 0.065446
O O15 0.500000 0.116081 0.500000
O O16 0.763449 0.124963 0.324649
O O17 0.642707 0.744627 0.701075
O O18 0.485277 0.366141 0.838256
#
# Coordination Sequence:
#
# PCOD9186516 Si02
#       8
#     8   8   8   8   8   8   8   8
#     4  11  22  37  58  80 118 161 196 232 281 358
#     4  10  21  33  59  91 117 145 187 247 300 341
#     4  11  23  39  59  84 119 158 202 243 290 351
#     4  10  19  36  58  85 119 150 185 245 299 340
#     4  10  19  35  53  81 118 150 191 237 283 346
#     4  10  21  37  60  88 117 153 194 246 292 352
#     4  10  21  35  57  85 117 149 193 242 288 341
#     4  10  22  35  59  88 114 156 195 248 292 343
#
# _framework density 18.760608999999999
#
# number of rings (size 3 to 8) (size 9 to 14) (size 15 to 20)
#    0.000    1.750    3.750    0.750    1.750    1.750 
#    0.000    0.625    0.000    2.625    0.000    0.000 
#    0.000    0.000    0.000    0.000    0.000    0.000 
#
# Total GULP energy -178385.577493 kJ/mol
# GULP energy per Si atom -5574.549297 kJ/mol
# Density = 1.871791 g / cm^3
# Si number density = 18.760609 Si / 1000 Ang^3
#
#
#
# Elastic Constant Matrix: (Units=GPa)
#
#
# Indices 1 2 3 4 5 6 
#
# 1 106.5253 8.3222 41.4587 -0.0022 -7.1904 0.0007
# 2 8.3222 18.3090 19.5578 -0.0024 -5.6432 0.0009
# 3 41.4587 19.5578 110.2608 -0.0045 2.2448 0.0024
# 4 -0.0022 -0.0024 -0.0045 12.8237 0.0020 3.2297
# 5 -7.1904 -5.6432 2.2448 0.0020 29.9412 -0.0006
# 6 0.0007 0.0009 0.0024 3.2297 -0.0006 12.0579
#
#
#
# Elastic Compliance Matrix: (Units=1/GPa)
#
#
# Indices 1 2 3 4 5 6 
#
# 1 0.011268 0.000542 -0.004397 0.000000 0.003138 0.000000
# 2 0.000542 0.073453 -0.013538 0.000007 0.014989 -0.000004
# 3 -0.004397 -0.013538 0.013218 0.000003 -0.004598 -0.000002
# 4 0.000000 0.000007 0.000003 0.083622 -0.000005 -0.022398
# 5 0.003138 0.014989 -0.004598 -0.000005 0.037322 0.000003
# 6 0.000000 -0.000004 -0.000002 -0.022398 0.000003 0.088933
#
#
# Mechanical properties :
#
#
# Convention : Reuss Voigt Hill
#
# Bulk Modulus (GPa) = 15.83455 41.53030 28.68242
# Shear Modulus (GPa) = 13.74944 22.01499 17.88221
#
# Velocity S-wave (km/s) = 2.71013 3.42931 3.09071
# Velocity P-wave (km/s) = 4.27220 6.15347 5.29702
#
# Compressibility (1/GPa) = 0.06315305
#
# Stress axis : x y z
#
# Youngs Moduli (GPa) = 88.74581 13.61422 75.65659
#
# Poissons Ratio (x) = -0.00738 0.33266
# Poissons Ratio (y) = -0.04811 1.02423
# Poissons Ratio (z) = 0.39021 0.18431
#
# Static dielectric constant tensor:
#      x y z
#    x 1.656890 0.000000 0.004140 
#    y 0.000000 1.660300 0.000000 
#    z 0.004140 0.000000 1.677710 
# 
# From -- ./inp_files/279096.got.cif
#   From: 2010.05.17/outbox.cif.g08.bks.cpg/sg12_140_cif.got.tgz:279096.got - 2010.06.03 13:09:07.
