data_PCOD9186619
_publ_section_title
;
Structure prediction by ZEFSAII (Michael W. Deem and Ramdas Pophale) SiO2 
 PCOD9186619
Probable space group: C 2/M
;
_chemical_formula_sum "Si O2"
_cell_formula_units_Z 64
_cell_length_a 29.790993
_cell_length_b 7.727559
_cell_length_c 15.679047
_cell_angle_alpha 90.000000
_cell_angle_beta 120.793768
_cell_angle_gamma 90.000000
_cell_volume 3100.616222
_symmetry_space_group_name_H-M "C 2/M"
_symmetry_group_IT_number 12
_symmetry_cell_setting 'monoclinic'
loop_
_space_group_symop_operation_xyz
x,y,z
-x,y,-z
-x,-y,-z
x,-y,z
1/2+x,1/2+y,z
1/2-x,1/2+y,-z
1/2-x,1/2-y,-z
1/2+x,1/2-y,z
loop_
_atom_site_type_symbol
_atom_site_label
_atom_site_fract_x
_atom_site_fract_y
_atom_site_fract_z
Si Si1 0.464080 0.212820 0.238603
Si Si2 0.104100 0.301203 0.983926
Si Si3 0.780867 0.798780 0.945301
Si Si4 0.644792 0.297632 0.542684
Si Si5 0.443271 0.790361 0.407837
Si Si6 0.919183 0.297202 0.682887
Si Si7 0.250463 0.709249 0.269389
Si Si8 0.866997 0.287127 0.804801
O O1 0.431539 0.274758 0.125227
O O2 0.440616 0.265911 0.306863
O O3 0.524107 0.271672 0.288931
O O4 0.462979 0.000000 0.238936
O O5 0.086659 0.500000 0.976419
O O6 0.164257 0.299083 0.011749
O O7 0.105588 0.226647 0.080910
O O8 0.747629 0.763508 0.827643
O O9 0.794101 0.000000 0.961047
O O10 0.750000 0.750000 0.000000
O O11 0.651601 0.500000 0.531179
O O12 0.602859 0.276694 0.577649
O O13 0.620571 0.217761 0.434116
O O14 0.700278 0.226310 0.628869
O O15 0.500000 0.739631 0.500000
O O16 0.441030 0.000000 0.409052
O O17 0.927847 0.500000 0.707912
O O18 0.895177 0.225401 0.746822
O O19 0.251570 0.500000 0.271777
O O20 0.193868 0.764927 0.249521
O O21 0.867052 0.500000 0.806101
#
# Coordination Sequence:
#
# PCOD9186619 Si02
#       8
#     8   8   8   8   8   8   8   8
#     4   9  18  32  54  82 110 142 181 224 267 316
#     4   9  18  35  55  80 112 144 178 222 272 321
#     4  11  22  36  55  80 108 142 182 223 268 322
#     4  11  23  36  53  80 112 145 180 225 276 326
#     4  10  19  35  55  76 108 145 180 226 270 318
#     4  10  19  35  57  81 107 143 188 226 267 322
#     4   9  20  39  56  78 111 142 178 225 274 320
#     4   8  16  33  58  80 106 141 179 229 275 313
#
# _framework density 20.641058999999998
#
# number of rings (size 3 to 8) (size 9 to 14) (size 15 to 20)
#    0.000    2.375    1.250    2.250    1.750    2.250 
#    0.000    5.625    0.000    0.000    0.000    4.375 
#    0.000    0.000    0.000    0.000    0.000    0.000 
#
# Total GULP energy -178623.967627 kJ/mol
# GULP energy per Si atom -5581.998988 kJ/mol
# Density = 2.059408 g / cm^3
# Si number density = 20.641059 Si / 1000 Ang^3
#
#
#
# Elastic Constant Matrix: (Units=GPa)
#
#
# Indices 1 2 3 4 5 6 
#
# 1 42.5267 -4.6428 45.4294 0.0000 -33.5328 0.0000
# 2 -4.6428 32.8942 -7.8102 0.0000 0.1401 0.0000
# 3 45.4294 -7.8102 149.1278 0.0000 -9.9841 0.0000
# 4 0.0000 0.0000 0.0000 6.7856 0.0000 3.7646
# 5 -33.5328 0.1401 -9.9841 0.0000 38.9467 0.0000
# 6 0.0000 0.0000 0.0000 3.7646 0.0000 9.1835
#
#
#
# Elastic Compliance Matrix: (Units=1/GPa)
#
#
# Indices 1 2 3 4 5 6 
#
# 1 0.238334 0.018847 -0.058895 0.000000 0.190038 0.000000
# 2 0.018847 0.032277 -0.003024 0.000000 0.015335 0.000000
# 3 -0.058895 -0.003024 0.021463 0.000000 -0.045195 0.000000
# 4 0.000000 0.000000 0.000000 0.190754 0.000000 -0.078196
# 5 0.190038 0.015335 -0.045195 0.000000 0.177657 0.000000
# 6 0.000000 0.000000 0.000000 -0.078196 0.000000 0.140946
#
#
# Mechanical properties :
#
#
# Convention : Reuss Voigt Hill
#
# Bulk Modulus (GPa) = 4.85602 32.27793 18.56698
# Shear Modulus (GPa) = 5.22893 23.75466 14.49179
#
# Velocity S-wave (km/s) = 1.59335 3.39609 2.65256
# Velocity P-wave (km/s) = 2.39640 5.57222 4.28907
#
# Compressibility (1/GPa) = 0.20592982
#
# Stress axis : x y z
#
# Youngs Moduli (GPa) = 4.19579 30.98162 46.59236
#
# Poissons Ratio (x) = -0.58390 2.74403
# Poissons Ratio (y) = -0.07908 0.14090
# Poissons Ratio (z) = 0.24711 0.09369
#
# Static dielectric constant tensor:
#      x y z
#    x 1.715410 0.000000 0.006880 
#    y 0.000000 1.783670 0.000000 
#    z 0.006880 0.000000 1.726780 
# 
# From -- ./inp_files/249116.got.cif
#   From: 2010.05.17/outbox.cif.g08.bks.cpg/sg12_125_cif.got.tgz:249116.got - 2010.06.03 13:09:07.
