data_PCOD9186038
_publ_section_title
;
Structure prediction by ZEFSAII (Michael W. Deem and Ramdas Pophale) SiO2 
 PCOD9186038
Probable space group: C 2/M
;
_chemical_formula_sum "Si O2"
_cell_formula_units_Z 64
_cell_length_a 11.267661
_cell_length_b 18.879429
_cell_length_c 16.630893
_cell_angle_alpha 90.000000
_cell_angle_beta 93.016600
_cell_angle_gamma 90.000000
_cell_volume 3532.937793
_symmetry_space_group_name_H-M "C 2/M"
_symmetry_group_IT_number 12
_symmetry_cell_setting 'monoclinic'
loop_
_space_group_symop_operation_xyz
x,y,z
-x,y,-z
-x,-y,-z
x,-y,z
1/2+x,1/2+y,z
1/2-x,1/2+y,-z
1/2-x,1/2-y,-z
1/2+x,1/2-y,z
loop_
_atom_site_type_symbol
_atom_site_label
_atom_site_fract_x
_atom_site_fract_y
_atom_site_fract_z
Si Si1 0.608677 0.583535 0.393061
Si Si2 0.163963 0.325835 0.887055
Si Si3 0.585981 0.330150 0.854191
Si Si4 0.340091 0.316556 0.754162
Si Si5 0.330408 0.583538 0.427148
Si Si6 0.284796 0.418763 0.022077
Si Si7 0.784586 0.655488 0.724988
Si Si8 0.935060 0.580648 0.860586
O O1 0.629303 0.500000 0.378678
O O2 0.644968 0.630900 0.319513
O O3 0.467805 0.591939 0.404802
O O4 0.673832 0.603122 0.478942
O O5 0.135560 0.242621 0.895332
O O6 0.222761 0.333019 0.801445
O O7 0.041243 0.368072 0.888440
O O8 0.254161 0.362469 0.952155
O O9 0.453060 0.321991 0.817652
O O10 0.606232 0.391986 0.919462
O O11 0.668649 0.344996 0.779152
O O12 0.331307 0.235545 0.724929
O O13 0.302819 0.500000 0.419395
O O14 0.249974 0.627118 0.363316
O O15 0.298694 0.500000 0.994739
O O16 0.170646 0.416394 0.077912
O O17 0.879254 0.606640 0.774716
O O18 0.977879 0.500000 0.857789
#
# Coordination Sequence:
#
# PCOD9186038 Si02
#       8
#     8   8   8   8   8   8   8   8
#     4   9  19  34  55  83 112 141 176 223 272 320
#     4  11  22  37  55  80 111 147 181 221 275 334
#     4  10  21  38  54  80 111 142 181 229 274 321
#     4  11  22  36  56  80 113 147 178 219 277 328
#     4   9  17  33  58  84 108 139 180 224 269 314
#     4  10  22  39  59  80 104 141 189 233 269 313
#     4  10  19  34  59  81 109 144 184 226 264 321
#     4  10  20  36  58  83 109 141 185 230 267 313
#
# _framework density 18.115234999999998
#
# number of rings (size 3 to 8) (size 9 to 14) (size 15 to 20)
#    0.000    2.000    2.500    2.250    0.000    4.000 
#    2.250    0.625    0.000    0.750    0.000    2.625 
#    0.000    0.000    0.000    0.000    0.000    0.000 
#
# Total GULP energy -178631.189549 kJ/mol
# GULP energy per Si atom -5582.224673 kJ/mol
# Density = 1.807400 g / cm^3
# Si number density = 18.115235 Si / 1000 Ang^3
#
#
#
# Elastic Constant Matrix: (Units=GPa)
#
#
# Indices 1 2 3 4 5 6 
#
# 1 22.6345 -1.2001 3.7160 0.0000 10.1913 0.0000
# 2 -1.2001 55.1743 42.8466 0.0000 -1.3454 0.0000
# 3 3.7160 42.8466 86.0682 0.0000 17.8778 0.0000
# 4 0.0000 0.0000 0.0000 34.8430 0.0000 1.3036
# 5 10.1913 -1.3454 17.8778 0.0000 25.4623 0.0000
# 6 0.0000 0.0000 0.0000 1.3036 0.0000 20.7383
#
#
#
# Elastic Compliance Matrix: (Units=1/GPa)
#
#
# Indices 1 2 3 4 5 6 
#
# 1 0.054561 -0.002609 0.004107 0.000000 -0.024859 0.000000
# 2 -0.002609 0.034586 -0.020724 0.000000 0.017423 0.000000
# 3 0.004107 -0.020724 0.026139 0.000000 -0.021092 0.000000
# 4 0.000000 0.000000 0.000000 0.028768 0.000000 -0.001808
# 5 -0.024859 0.017423 -0.021092 0.000000 0.064954 0.000000
# 6 0.000000 0.000000 0.000000 -0.001808 0.000000 0.048334
#
#
# Mechanical properties :
#
#
# Convention : Reuss Voigt Hill
#
# Bulk Modulus (GPa) = 13.01498 28.28911 20.65205
# Shear Modulus (GPa) = 15.55669 24.10969 19.83319
#
# Velocity S-wave (km/s) = 2.93364 3.65212 3.31242
# Velocity P-wave (km/s) = 4.32148 5.78222 5.10437
#
# Compressibility (1/GPa) = 0.07683451
#
# Stress axis : x y z
#
# Youngs Moduli (GPa) = 18.32816 28.91332 38.25634
#
# Poissons Ratio (x) = 0.07542 -0.15710
# Poissons Ratio (y) = 0.04781 0.79283
# Poissons Ratio (z) = -0.07527 0.59920
#
# Static dielectric constant tensor:
#      x y z
#    x 1.613240 0.000000 0.005470 
#    y 0.000000 1.606670 0.000000 
#    z 0.005470 0.000000 1.610000 
# 
# From -- ./inp_files/206656.got.cif
#   From: 2010.05.17/outbox.cif.g08.bks.cpg/sg12_104_cif.got.tgz:206656.got - 2010.06.03 13:09:07.
