data_PCOD9186401
_publ_section_title
;
Structure prediction by ZEFSAII (Michael W. Deem and Ramdas Pophale) SiO2 
 PCOD9186401
Probable space group: C 2/M
;
_chemical_formula_sum "Si O2"
_cell_formula_units_Z 64
_cell_length_a 18.260792
_cell_length_b 14.608231
_cell_length_c 16.304038
_cell_angle_alpha 90.000000
_cell_angle_beta 133.738650
_cell_angle_gamma 90.000000
_cell_volume 3142.323032
_symmetry_space_group_name_H-M "C 2/M"
_symmetry_group_IT_number 12
_symmetry_cell_setting 'monoclinic'
loop_
_space_group_symop_operation_xyz
x,y,z
-x,y,-z
-x,-y,-z
x,-y,z
1/2+x,1/2+y,z
1/2-x,1/2+y,-z
1/2-x,1/2-y,-z
1/2+x,1/2-y,z
loop_
_atom_site_type_symbol
_atom_site_label
_atom_site_fract_x
_atom_site_fract_y
_atom_site_fract_z
Si Si1 0.565686 0.902463 0.809431
Si Si2 0.090991 0.214828 0.729223
Si Si3 0.283840 0.644339 0.030111
Si Si4 0.971614 0.139910 0.069565
Si Si5 0.538769 0.153234 0.113367
Si Si6 0.762353 0.222880 0.307562
Si Si7 0.888341 0.107628 0.534048
Si Si8 0.672517 0.602236 0.325784
O O1 0.561077 0.809054 0.753061
O O2 0.484923 0.896037 0.820245
O O3 0.552320 0.000000 0.754353
O O4 0.676627 0.903916 0.937995
O O5 0.148848 0.144759 0.835636
O O6 0.167749 0.239820 0.716524
O O7 0.992766 0.163739 0.619116
O O8 0.360659 0.616283 0.016891
O O9 0.250000 0.750000 0.000000
O O10 0.977700 0.250415 0.072940
O O11 0.059295 0.108458 0.199440
O O12 0.000000 0.108670 0.000000
O O13 0.655822 0.179650 0.197399
O O14 0.500000 0.107736 0.000000
O O15 0.817743 0.153508 0.411589
O O16 0.736119 0.317333 0.333465
O O17 0.837957 0.116076 0.585117
O O18 0.905512 0.000000 0.531510
O O19 0.712031 0.500000 0.340246
#
# Coordination Sequence:
#
# PCOD9186401 Si02
#       8
#     8   8   8   8   8   8   8   8
#     4  11  24  38  59  92 132 176 211 248 309 392
#     4  11  22  42  64  91 129 166 207 265 321 376
#     4  10  19  36  59  89 125 169 213 253 315 368
#     4  10  19  34  62  90 125 167 213 265 311 362
#     4  10  20  39  62  89 125 169 214 261 316 370
#     4  11  24  39  67  95 124 164 208 265 321 374
#     4  11  24  46  71  93 118 155 215 275 323 373
#     4  10  22  40  62  92 128 167 209 258 313 375
#
# _framework density 20.367097999999999
#
# number of rings (size 3 to 8) (size 9 to 14) (size 15 to 20)
#    0.000    1.500    3.750    2.250    8.750    3.500 
#    0.000    3.125    0.000    1.500    0.000    0.000 
#    0.000    0.000    0.000    0.000    0.000    0.000 
#
# Total GULP energy -178742.171002 kJ/mol
# GULP energy per Si atom -5585.692844 kJ/mol
# Density = 2.032074 g / cm^3
# Si number density = 20.367098 Si / 1000 Ang^3
#
#
#
# Elastic Constant Matrix: (Units=GPa)
#
#
# Indices 1 2 3 4 5 6 
#
# 1 124.5534 46.1787 23.7165 0.0000 -5.7987 0.0000
# 2 46.1787 110.6951 16.4185 0.0000 9.5436 0.0000
# 3 23.7165 16.4185 69.8072 0.0000 3.7182 0.0000
# 4 0.0000 0.0000 0.0000 2.2364 0.0000 -19.1949
# 5 -5.7987 9.5436 3.7182 0.0000 25.8266 0.0000
# 6 0.0000 0.0000 0.0000 -19.1949 0.0000 16.7838
#
#
#
# Elastic Compliance Matrix: (Units=1/GPa)
#
#
# Indices 1 2 3 4 5 6 
#
# 1 0.010335 -0.004276 -0.002734 0.000000 0.004294 0.000000
# 2 -0.004276 0.011394 -0.000959 0.000000 -0.005032 0.000000
# 3 -0.002734 -0.000959 0.015613 0.000000 -0.002507 0.000000
# 4 0.000000 0.000000 0.000000 -0.050720 0.000000 -0.058007
# 5 0.004294 -0.005032 -0.002507 0.000000 0.041904 0.000000
# 6 0.000000 0.000000 0.000000 -0.058007 0.000000 -0.006758
#
#
# Mechanical properties :
#
#
# Convention : Reuss Voigt Hill
#
# Bulk Modulus (GPa) = 46.72182 53.07590 49.89886
# Shear Modulus (GPa) = 111.50744 23.55214 67.52979
#
# Velocity S-wave (km/s) = 7.40727 3.40425 5.76440
# Velocity P-wave (km/s) = 9.80543 6.44733 8.29803
#
# Compressibility (1/GPa) = 0.02140328
#
# Stress axis : x y z
#
# Youngs Moduli (GPa) = 96.76303 87.76764 64.04852
#
# Poissons Ratio (x) = 0.37529 0.17512
# Poissons Ratio (y) = 0.41375 0.06142
# Poissons Ratio (z) = 0.26456 0.08417
#
# Static dielectric constant tensor:
#      x y z
#    x 1.714950 0.000000 -0.014700 
#    y 0.000000 1.769650 0.000000 
#    z -0.014700 0.000000 1.723280 
# 
# From -- ./inp_files/225760.got.cif
#   From: 2010.05.17/outbox.cif.g08.bks.cpg/sg12_113_cif.got.tgz:225760.got - 2010.06.03 13:09:07.
