data_PCOD9186801
_publ_section_title
;
Structure prediction by ZEFSAII (Michael W. Deem and Ramdas Pophale) SiO2 
 PCOD9186801
Probable space group: C 2/M
;
_chemical_formula_sum "Si O2"
_cell_formula_units_Z 48
_cell_length_a 9.849069
_cell_length_b 17.182359
_cell_length_c 16.542017
_cell_angle_alpha 90.000000
_cell_angle_beta 110.795210
_cell_angle_gamma 90.000000
_cell_volume 2617.042974
_symmetry_space_group_name_H-M "C 2/M"
_symmetry_group_IT_number 12
_symmetry_cell_setting 'monoclinic'
loop_
_space_group_symop_operation_xyz
x,y,z
-x,y,-z
-x,-y,-z
x,-y,z
1/2+x,1/2+y,z
1/2-x,1/2+y,-z
1/2-x,1/2-y,-z
1/2+x,1/2-y,z
loop_
_atom_site_type_symbol
_atom_site_label
_atom_site_fract_x
_atom_site_fract_y
_atom_site_fract_z
Si Si1 0.834722 0.913249 0.492572
Si Si2 0.469526 0.592563 0.901713
Si Si3 0.659262 0.867350 0.304515
Si Si4 0.877548 0.166024 0.216326
Si Si5 0.681950 0.314265 0.359423
Si Si6 0.333252 0.151943 0.230622
O O1 0.735520 0.913660 0.392217
O O2 0.786477 0.847268 0.545654
O O3 0.000000 0.896945 0.500000
O O4 0.831736 0.000000 0.529570
O O5 0.487966 0.500000 0.899990
O O6 0.578831 0.632439 0.861151
O O7 0.304765 0.613903 0.841806
O O8 0.500000 0.617365 0.000000
O O9 0.747347 0.871760 0.239394
O O10 0.673202 0.777979 0.340840
O O11 0.491007 0.885299 0.253964
O O12 0.845692 0.258210 0.204555
O O13 0.022050 0.155544 0.301254
O O14 0.795722 0.345709 0.317954
#
# Coordination Sequence:
#
# PCOD9186801 Si02
#       6
#     8   8   8   8   8   8
#     4  11  22  33  49  78 112 148 193 231 270 328
#     4  10  22  40  61  86 117 151 181 218 284 359
#     4  10  19  35  56  80 109 144 189 239 276 313
#     4   9  18  36  60  83 110 148 191 228 277 338
#     4   9  18  35  54  77 110 149 189 227 276 331
#     4   9  20  36  59  85 109 143 190 239 279 327
#
# _framework density 18.341311999999999
#
# number of rings (size 3 to 8) (size 9 to 14) (size 15 to 20)
#    0.000    2.333    1.667    1.500    0.000    5.333 
#    0.000    1.667    0.000    2.000    0.000    0.000 
#    0.000    0.000    0.000    0.000    0.000    0.000 
#
# Total GULP energy -133841.100497 kJ/mol
# GULP energy per Si atom -5576.712521 kJ/mol
# Density = 1.829957 g / cm^3
# Si number density = 18.341312 Si / 1000 Ang^3
#
#
#
# Elastic Constant Matrix: (Units=GPa)
#
#
# Indices 1 2 3 4 5 6 
#
# 1 136.1187 29.1043 47.8187 0.0000 -10.8847 0.0000
# 2 29.1043 34.5864 32.1656 0.0000 -13.5563 0.0000
# 3 47.8187 32.1656 103.6849 0.0000 -18.2148 0.0000
# 4 0.0000 0.0000 0.0000 17.0973 0.0000 5.0680
# 5 -10.8847 -13.5563 -18.2148 0.0000 19.8364 0.0000
# 6 0.0000 0.0000 0.0000 5.0680 0.0000 9.1392
#
#
#
# Elastic Compliance Matrix: (Units=1/GPa)
#
#
# Indices 1 2 3 4 5 6 
#
# 1 0.009481 -0.005951 -0.002774 0.000000 -0.001413 0.000000
# 2 -0.005951 0.051695 -0.009133 0.000000 0.023677 0.000000
# 3 -0.002774 -0.009133 0.014777 0.000000 0.005805 0.000000
# 4 0.000000 0.000000 0.000000 0.069994 0.000000 -0.038815
# 5 -0.001413 0.023677 0.005805 0.000000 0.071149 0.000000
# 6 0.000000 0.000000 0.000000 -0.038815 0.000000 0.130944
#
#
# Mechanical properties :
#
#
# Convention : Reuss Voigt Hill
#
# Bulk Modulus (GPa) = 24.85360 54.72969 39.79164
# Shear Modulus (GPa) = 12.58910 20.23467 16.41188
#
# Velocity S-wave (km/s) = 2.62273 3.32509 2.99457
# Velocity P-wave (km/s) = 4.76987 6.68177 5.80507
#
# Compressibility (1/GPa) = 0.04023562
#
# Stress axis : x y z
#
# Youngs Moduli (GPa) = 105.47744 19.34422 67.67189
#
# Poissons Ratio (x) = 0.11513 0.18774
# Poissons Ratio (y) = 0.62775 0.61804
# Poissons Ratio (z) = 0.29262 0.17667
#
# Static dielectric constant tensor:
#      x y z
#    x 1.633340 0.000000 -0.009760 
#    y 0.000000 1.651710 0.000000 
#    z -0.009760 0.000000 1.606530 
# 
# From -- ./inp_files/195988.got.cif
#   From: 2010.05.17/outbox.cif.g08.bks.cpg/sg12_98_cif.got.tgz:195988.got - 2010.06.03 13:09:07.
