data_PCOD9186052
_publ_section_title
;
Structure prediction by ZEFSAII (Michael W. Deem and Ramdas Pophale) SiO2 
 PCOD9186052
Probable space group: C 2/M
;
_chemical_formula_sum "Si O2"
_cell_formula_units_Z 48
_cell_length_a 16.861304
_cell_length_b 18.211443
_cell_length_c 10.128291
_cell_angle_alpha 90.000000
_cell_angle_beta 117.652619
_cell_angle_gamma 90.000000
_cell_volume 2754.840401
_symmetry_space_group_name_H-M "C 2/M"
_symmetry_group_IT_number 12
_symmetry_cell_setting 'monoclinic'
loop_
_space_group_symop_operation_xyz
x,y,z
-x,y,-z
-x,-y,-z
x,-y,z
1/2+x,1/2+y,z
1/2-x,1/2+y,-z
1/2-x,1/2-y,-z
1/2+x,1/2-y,z
loop_
_atom_site_type_symbol
_atom_site_label
_atom_site_fract_x
_atom_site_fract_y
_atom_site_fract_z
Si Si1 0.765467 0.839218 0.638912
Si Si2 0.919006 0.411657 0.838044
Si Si3 0.073127 0.914038 0.672843
Si Si4 0.451900 0.585024 0.822849
Si Si5 0.761943 0.173765 0.318012
Si Si6 0.077801 0.412003 0.465613
O O1 0.857948 0.874000 0.756836
O O2 0.774935 0.836311 0.486328
O O3 0.751082 0.761086 0.698258
O O4 0.674617 0.884839 0.586944
O O5 0.904151 0.500000 0.833279
O O6 0.827587 0.368554 0.796336
O O7 0.939692 0.392275 0.701009
O O8 0.000000 0.393870 0.000000
O O9 0.154873 0.862115 0.694038
O O10 0.000000 0.912925 0.500000
O O11 0.020623 0.888690 0.763245
O O12 0.102235 0.000000 0.711634
O O13 0.432486 0.500000 0.773355
O O14 0.500000 0.588214 0.000000
O O15 0.077595 0.500000 0.471407
O O16 0.000000 0.382853 0.500000
#
# Coordination Sequence:
#
# PCOD9186052 Si02
#       6
#     8   8   8   8   8   8
#     4  10  20  35  54  80 111 144 176 218 272 322
#     4   9  18  34  55  77 104 136 173 221 267 307
#     4  10  19  34  59  84 106 139 187 232 264 315
#     4  10  21  38  58  82 112 144 179 225 278 323
#     4  10  20  34  54  83 109 140 180 220 269 320
#     4   9  18  34  55  77 100 136 182 218 255 311
#
# _framework density 17.423877999999998
#
# number of rings (size 3 to 8) (size 9 to 14) (size 15 to 20)
#    0.000    2.333    1.667    1.000    0.000    2.667 
#    6.000    0.833    0.000    0.000    0.000    0.000 
#    0.000    0.000    0.000    0.000    0.000    0.000 
#
# Total GULP energy -133773.162533 kJ/mol
# GULP energy per Si atom -5573.881772 kJ/mol
# Density = 1.738422 g / cm^3
# Si number density = 17.423878 Si / 1000 Ang^3
#
#
#
# Elastic Constant Matrix: (Units=GPa)
#
#
# Indices 1 2 3 4 5 6 
#
# 1 171.8617 64.7692 54.7756 0.0000 4.2689 0.0000
# 2 64.7692 47.4193 34.4770 0.0000 10.9348 0.0000
# 3 54.7756 34.4770 60.4183 0.0000 13.1475 0.0000
# 4 0.0000 0.0000 0.0000 -8.9464 0.0000 -25.1094
# 5 4.2689 10.9348 13.1475 0.0000 30.1292 0.0000
# 6 0.0000 0.0000 0.0000 -25.1094 0.0000 -7.4357
#
#
#
# Elastic Compliance Matrix: (Units=1/GPa)
#
#
# Indices 1 2 3 4 5 6 
#
# 1 0.013065 -0.016491 -0.003684 0.000000 0.005741 0.000000
# 2 -0.016491 0.057427 -0.015239 0.000000 -0.011855 0.000000
# 3 -0.003684 -0.015239 0.030131 0.000000 -0.007096 0.000000
# 4 0.000000 0.000000 0.000000 0.013185 0.000000 -0.044524
# 5 0.005741 -0.011855 -0.007096 0.000000 0.039776 0.000000
# 6 0.000000 0.000000 0.000000 -0.044524 0.000000 0.015864
#
#
# Mechanical properties :
#
#
# Convention : Reuss Voigt Hill
#
# Bulk Modulus (GPa) = 33.56280 65.30476 49.43378
# Shear Modulus (GPa) = 19.98343 11.12792 15.55567
#
# Velocity S-wave (km/s) = 3.39026 2.52991 2.99118
# Velocity P-wave (km/s) = 5.88469 6.78936 6.35314
#
# Compressibility (1/GPa) = 0.02979489
#
# Stress axis : x y z
#
# Youngs Moduli (GPa) = 76.54038 17.41351 33.18793
#
# Poissons Ratio (x) = 0.28716 0.12226
# Poissons Ratio (y) = 1.26221 0.50577
# Poissons Ratio (z) = 0.28197 0.26537
#
# Static dielectric constant tensor:
#      x y z
#    x 1.580340 0.000000 -0.022760 
#    y 0.000000 1.602110 0.000000 
#    z -0.022760 0.000000 1.575200 
# 
# From -- ./inp_files/63611.got.cif
#   From: 2010.05.17/outbox.cif.g08.bks.cpg/sg12_32_cif.got.tgz:63611.got - 2010.06.03 13:09:07.
