data_PCOD9186583
_publ_section_title
;
Structure prediction by ZEFSAII (Michael W. Deem and Ramdas Pophale) SiO2 
 PCOD9186583
Probable space group: C 2/M
;
_chemical_formula_sum "Si O2"
_cell_formula_units_Z 44
_cell_length_a 12.348791
_cell_length_b 18.708307
_cell_length_c 9.575174
_cell_angle_alpha 90.000000
_cell_angle_beta 64.415109
_cell_angle_gamma 90.000000
_cell_volume 1995.199606
_symmetry_space_group_name_H-M "C 2/M"
_symmetry_group_IT_number 12
_symmetry_cell_setting 'monoclinic'
loop_
_space_group_symop_operation_xyz
x,y,z
-x,y,-z
-x,-y,-z
x,-y,z
1/2+x,1/2+y,z
1/2-x,1/2+y,-z
1/2-x,1/2-y,-z
1/2+x,1/2-y,z
loop_
_atom_site_type_symbol
_atom_site_label
_atom_site_fract_x
_atom_site_fract_y
_atom_site_fract_z
Si Si1 0.704889 0.084836 0.097705
Si Si2 0.504033 0.802547 0.196183
Si Si3 0.000000 0.239606 0.500000
Si Si4 0.052547 0.143132 0.119391
Si Si5 0.250306 0.183396 0.391297
Si Si6 0.810844 0.915436 0.344831
O O1 0.588657 0.130568 0.123854
O O2 0.744657 0.104587 0.236053
O O3 0.685715 0.000000 0.102877
O O4 0.818649 0.106932 0.938993
O O5 0.490717 0.789649 0.369946
O O6 0.560657 0.728693 0.110647
O O7 0.365077 0.809961 0.227859
O O8 0.118068 0.192188 0.401691
O O9 0.941882 0.121727 0.279768
O O10 0.000000 0.116762 0.000000
O O11 0.250000 0.250000 0.500000
O O12 0.258849 0.113202 0.481787
O O13 0.825570 0.000000 0.336182
#
# Coordination Sequence:
#
# PCOD9186583 Si02
#       6
#     8   8   4   8   8   8
#     4  10  21  35  55  85 116 147 183 232 285 328
#     4  11  21  35  59  85 113 144 189 232 278 330
#     4  10  20  34  60  82 112 146 184 230 278 328
#     4  10  20  35  57  83 111 148 188 228 274 329
#     4  10  19  35  54  82 111 146 180 229 275 330
#     4  10  19  35  57  84 115 144 184 234 284 330
#
# _framework density 22.05293
#
# number of rings (size 3 to 8) (size 9 to 14) (size 15 to 20)
#    0.000    1.818    3.636    3.273    2.545    2.909 
#    0.000    2.727    0.000    0.545    0.000    0.000 
#    0.000    0.000    0.000    0.000    0.000    0.000 
#
# Total GULP energy -122841.494876 kJ/mol
# GULP energy per Si atom -5583.704313 kJ/mol
# Density = 2.200274 g / cm^3
# Si number density = 22.052930 Si / 1000 Ang^3
#
#
#
# Elastic Constant Matrix: (Units=GPa)
#
#
# Indices 1 2 3 4 5 6 
#
# 1 95.0952 42.1631 18.2183 0.0000 -39.7706 0.0000
# 2 42.1631 100.0773 17.6562 0.0000 -30.8520 0.0000
# 3 18.2183 17.6562 42.7958 0.0000 -10.5639 0.0000
# 4 0.0000 0.0000 0.0000 36.1062 0.0000 -3.5121
# 5 -39.7706 -30.8520 -10.5639 0.0000 39.9571 0.0000
# 6 0.0000 0.0000 0.0000 -3.5121 0.0000 24.4843
#
#
#
# Elastic Compliance Matrix: (Units=1/GPa)
#
#
# Indices 1 2 3 4 5 6 
#
# 1 0.018949 -0.002465 -0.003064 0.000000 0.016147 0.000000
# 2 -0.002465 0.013834 -0.002811 0.000000 0.007485 0.000000
# 3 -0.003064 -0.002811 0.026256 0.000000 0.001722 0.000000
# 4 0.000000 0.000000 0.000000 0.028088 0.000000 0.004029
# 5 0.016147 0.007485 0.001722 0.000000 0.047333 0.000000
# 6 0.000000 0.000000 0.000000 0.004029 0.000000 0.041420
#
#
# Mechanical properties :
#
#
# Convention : Reuss Voigt Hill
#
# Bulk Modulus (GPa) = 23.60707 43.78259 33.69483
# Shear Modulus (GPa) = 24.19221 30.77159 27.48190
#
# Velocity S-wave (km/s) = 3.31570 3.73949 3.53396
# Velocity P-wave (km/s) = 5.03850 6.20819 5.65367
#
# Compressibility (1/GPa) = 0.04236018
#
# Stress axis : x y z
#
# Youngs Moduli (GPa) = 52.77458 72.28483 38.08712
#
# Poissons Ratio (x) = 0.17817 0.11669
# Poissons Ratio (y) = 0.13008 0.10705
# Poissons Ratio (z) = 0.16169 0.20316
#
# Static dielectric constant tensor:
#      x y z
#    x 1.922590 0.000000 0.020350 
#    y 0.000000 1.765960 0.000000 
#    z 0.020350 0.000000 1.856070 
# 
# From -- ./inp_files/131587.got.cif
#   From: 2010.05.17/outbox.cif.g08.bks.cpg/sg12_66_cif.got.tgz:131587.got - 2010.06.03 13:09:07.
