data_PCOD9186832
_publ_section_title
;
Structure prediction by ZEFSAII (Michael W. Deem and Ramdas Pophale) SiO2 
 PCOD9186832
Probable space group: C 2/M
;
_chemical_formula_sum "Si O2"
_cell_formula_units_Z 64
_cell_length_a 15.633931
_cell_length_b 18.850943
_cell_length_c 11.633401
_cell_angle_alpha 90.000000
_cell_angle_beta 88.283717
_cell_angle_gamma 90.000000
_cell_volume 3426.992046
_symmetry_space_group_name_H-M "C 2/M"
_symmetry_group_IT_number 12
_symmetry_cell_setting 'monoclinic'
loop_
_space_group_symop_operation_xyz
x,y,z
-x,y,-z
-x,-y,-z
x,-y,z
1/2+x,1/2+y,z
1/2-x,1/2+y,-z
1/2-x,1/2-y,-z
1/2+x,1/2-y,z
loop_
_atom_site_type_symbol
_atom_site_label
_atom_site_fract_x
_atom_site_fract_y
_atom_site_fract_z
Si Si1 0.248032 0.419382 0.403034
Si Si2 0.587786 0.656957 0.530433
Si Si3 0.950814 0.796729 0.211514
Si Si4 0.847164 0.219662 0.835658
Si Si5 0.401644 0.180980 0.042129
Si Si6 0.746683 0.919235 0.918263
Si Si7 0.320860 0.774312 0.591273
Si Si8 0.158332 0.922893 0.845298
O O1 0.223188 0.500000 0.428690
O O2 0.330068 0.394052 0.474681
O O3 0.176262 0.359069 0.419876
O O4 0.283730 0.415199 0.270927
O O5 0.500000 0.619160 0.500000
O O6 0.578389 0.688181 0.658263
O O7 0.600711 0.724545 0.447553
O O8 0.912372 0.862685 0.143056
O O9 0.052542 0.793069 0.194770
O O10 0.908777 0.727706 0.157008
O O11 0.851435 0.272110 0.946668
O O12 0.800588 0.144421 0.857208
O O13 0.804220 0.256241 0.725603
O O14 0.500000 0.169704 0.000000
O O15 0.349714 0.109893 0.069290
O O16 0.753460 0.000000 0.871104
O O17 0.782985 0.921457 0.045918
O O18 0.250000 0.750000 0.500000
O O19 0.115718 0.000000 0.837712
#
# Coordination Sequence:
#
# PCOD9186832 Si02
#       8
#     8   8   8   8   8   8   8   8
#     4   9  19  34  55  82 110 144 189 235 283 328
#     4  10  19  35  56  82 109 150 190 233 279 338
#     4  10  20  35  57  83 116 149 190 236 283 340
#     4  11  21  36  58  88 112 144 195 236 286 334
#     4  10  22  37  59  86 111 151 191 237 277 330
#     4  11  23  36  56  84 120 152 182 230 291 344
#     4  10  21  35  58  82 110 152 191 233 275 328
#     4   9  18  33  54  83 116 153 185 226 285 349
#
# _framework density 18.675270000000001
#
# number of rings (size 3 to 8) (size 9 to 14) (size 15 to 20)
#    0.000    2.000    2.500    1.125    5.250    1.000 
#    0.000    3.750    0.000    1.125    0.000    0.000 
#    0.000    0.000    0.000    0.000    0.000    0.000 
#
# Total GULP energy -178316.258767 kJ/mol
# GULP energy per Si atom -5572.383086 kJ/mol
# Density = 1.863276 g / cm^3
# Si number density = 18.675270 Si / 1000 Ang^3
#
#
#
# Elastic Constant Matrix: (Units=GPa)
#
#
# Indices 1 2 3 4 5 6 
#
# 1 43.0310 25.9934 9.0015 0.0000 11.5090 0.0000
# 2 25.9934 128.7821 15.2598 0.0000 3.7240 0.0000
# 3 9.0015 15.2598 48.9419 0.0000 15.6462 0.0000
# 4 0.0000 0.0000 0.0000 21.2338 0.0000 -0.7144
# 5 11.5090 3.7240 15.6462 0.0000 19.7073 0.0000
# 6 0.0000 0.0000 0.0000 -0.7144 0.0000 17.6866
#
#
#
# Elastic Compliance Matrix: (Units=1/GPa)
#
#
# Indices 1 2 3 4 5 6 
#
# 1 0.031532 -0.006072 0.002163 0.000000 -0.018984 0.000000
# 2 -0.006072 0.009238 -0.003135 0.000000 0.004289 0.000000
# 3 0.002163 -0.003135 0.028446 0.000000 -0.023255 0.000000
# 4 0.000000 0.000000 0.000000 0.047159 0.000000 0.001905
# 5 -0.018984 0.004289 -0.023255 0.000000 0.079482 0.000000
# 6 0.000000 0.000000 0.000000 0.001905 0.000000 0.056617
#
#
# Mechanical properties :
#
#
# Convention : Reuss Voigt Hill
#
# Bulk Modulus (GPa) = 18.13939 35.69605 26.91772
# Shear Modulus (GPa) = 17.54774 23.09224 20.31999
#
# Velocity S-wave (km/s) = 3.06866 3.52023 3.30217
# Velocity P-wave (km/s) = 4.72119 5.97312 5.38367
#
# Compressibility (1/GPa) = 0.05512864
#
# Stress axis : x y z
#
# Youngs Moduli (GPa) = 31.71406 108.24871 35.15390
#
# Poissons Ratio (x) = 0.65725 -0.07603
# Poissons Ratio (y) = 0.19256 0.11020
# Poissons Ratio (z) = -0.06859 0.33933
#
# Static dielectric constant tensor:
#      x y z
#    x 1.667790 0.000000 0.004720 
#    y 0.000000 1.670280 0.000000 
#    z 0.004720 0.000000 1.676930 
# 
# From -- ./inp_files/157831.got.cif
#   From: 2010.05.17/outbox.cif.g08.bks.cpg/sg12_79_cif.got.tgz:157831.got - 2010.06.03 13:09:07.
