data_PCOD9186749
_publ_section_title
;
Structure prediction by ZEFSAII (Michael W. Deem and Ramdas Pophale) SiO2 
 PCOD9186749
Probable space group: C 2/M
;
_chemical_formula_sum "Si O2"
_cell_formula_units_Z 48
_cell_length_a 25.084784
_cell_length_b 7.599571
_cell_length_c 20.969608
_cell_angle_alpha 90.000000
_cell_angle_beta 143.865346
_cell_angle_gamma 90.000000
_cell_volume 2357.272519
_symmetry_space_group_name_H-M "C 2/M"
_symmetry_group_IT_number 12
_symmetry_cell_setting 'monoclinic'
loop_
_space_group_symop_operation_xyz
x,y,z
-x,y,-z
-x,-y,-z
x,-y,z
1/2+x,1/2+y,z
1/2-x,1/2+y,-z
1/2-x,1/2-y,-z
1/2+x,1/2-y,z
loop_
_atom_site_type_symbol
_atom_site_label
_atom_site_fract_x
_atom_site_fract_y
_atom_site_fract_z
Si Si1 0.954533 0.788295 0.390578
Si Si2 0.262198 0.797064 0.631928
Si Si3 0.240839 0.708178 0.755735
Si Si4 0.078333 0.216477 0.393088
Si Si5 0.541040 0.297380 0.216656
Si Si6 0.933359 0.784564 0.992895
O O1 0.849366 0.741822 0.291548
O O2 0.000000 0.722255 0.500000
O O3 0.009849 0.727270 0.382472
O O4 0.961403 0.000000 0.397771
O O5 0.232853 0.788876 0.677477
O O6 0.179679 0.726651 0.509786
O O7 0.357900 0.704818 0.714741
O O8 0.277219 0.000000 0.629005
O O9 0.250573 0.500000 0.754986
O O10 0.331965 0.771476 0.878201
O O11 0.048386 0.279003 0.294566
O O12 0.080739 0.000000 0.395117
O O13 0.512884 0.500000 0.198062
O O14 0.473977 0.219950 0.099055
O O15 0.934782 0.000000 0.995848
O O16 0.000000 0.731503 0.000000
#
# Coordination Sequence:
#
# PCOD9186749 Si02
#       6
#     8   8   8   8   8   8
#     4  10  19  36  56  75 106 140 171 212 260 310
#     4  11  20  33  52  80 112 137 166 214 269 312
#     4  11  21  34  54  81 105 134 179 219 254 300
#     4   9  19  34  54  77 104 141 174 205 261 320
#     4  10  19  35  56  77 103 139 179 212 252 313
#     4   9  17  32  53  76 103 135 172 215 256 300
#
# _framework density 20.362517
#
# number of rings (size 3 to 8) (size 9 to 14) (size 15 to 20)
#    0.000    2.000    3.333    1.500    0.000    0.333 
#    0.000    5.000    0.000    0.000    0.000    0.000 
#    0.000    0.000    0.000    0.000    0.000    0.000 
#
# Total GULP energy -134061.557684 kJ/mol
# GULP energy per Si atom -5585.898237 kJ/mol
# Density = 2.031617 g / cm^3
# Si number density = 20.362517 Si / 1000 Ang^3
#
#
#
# Elastic Constant Matrix: (Units=GPa)
#
#
# Indices 1 2 3 4 5 6 
#
# 1 60.5096 -4.8018 41.2694 0.0000 -4.1000 0.0000
# 2 -4.8018 46.8462 1.4453 0.0000 -4.5219 0.0000
# 3 41.2694 1.4453 168.2240 0.0000 -10.6525 0.0000
# 4 0.0000 0.0000 0.0000 11.7468 0.0000 7.7044
# 5 -4.1000 -4.5219 -10.6525 0.0000 39.8994 0.0000
# 6 0.0000 0.0000 0.0000 7.7044 0.0000 8.6219
#
#
#
# Elastic Compliance Matrix: (Units=1/GPa)
#
#
# Indices 1 2 3 4 5 6 
#
# 1 0.020114 0.002311 -0.004889 0.000000 0.001023 0.000000
# 2 0.002311 0.021848 -0.000593 0.000000 0.002555 0.000000
# 3 -0.004889 -0.000593 0.007235 0.000000 0.001362 0.000000
# 4 0.000000 0.000000 0.000000 0.205666 0.000000 -0.183780
# 5 0.001023 0.002555 0.001362 0.000000 0.025821 0.000000
# 6 0.000000 0.000000 0.000000 -0.183780 0.000000 0.280206
#
#
# Mechanical properties :
#
#
# Convention : Reuss Voigt Hill
#
# Bulk Modulus (GPa) = 23.33430 39.04506 31.18968
# Shear Modulus (GPa) = 8.59819 27.89808 18.24813
#
# Velocity S-wave (km/s) = 2.05712 3.70546 2.99685
# Velocity P-wave (km/s) = 4.13843 6.12567 5.22735
#
# Compressibility (1/GPa) = 0.04285536
#
# Stress axis : x y z
#
# Youngs Moduli (GPa) = 49.71707 45.77012 138.21125
#
# Poissons Ratio (x) = -0.10579 0.67578
# Poissons Ratio (y) = -0.11491 0.08195
# Poissons Ratio (z) = 0.24309 0.02714
#
# Static dielectric constant tensor:
#      x y z
#    x 1.685620 0.000000 -0.017470 
#    y 0.000000 1.768030 0.000000 
#    z -0.017470 0.000000 1.715460 
# 
# From -- ./inp_files/291692.got.cif
#   From: 2010.05.17/outbox.cif.g08.bks.cpg/sg12_146_cif.got.tgz:291692.got - 2010.06.03 13:09:07.
