data_PCOD9186087
_publ_section_title
;
Structure prediction by ZEFSAII (Michael W. Deem and Ramdas Pophale) SiO2 
 PCOD9186087
Probable space group: C 2/M
;
_chemical_formula_sum "Si O2"
_cell_formula_units_Z 48
_cell_length_a 24.434303
_cell_length_b 7.479057
_cell_length_c 11.834204
_cell_angle_alpha 90.000000
_cell_angle_beta 117.396744
_cell_angle_gamma 90.000000
_cell_volume 1920.088774
_symmetry_space_group_name_H-M "C 2/M"
_symmetry_group_IT_number 12
_symmetry_cell_setting 'monoclinic'
loop_
_space_group_symop_operation_xyz
x,y,z
-x,y,-z
-x,-y,-z
x,-y,z
1/2+x,1/2+y,z
1/2-x,1/2+y,-z
1/2-x,1/2-y,-z
1/2+x,1/2-y,z
loop_
_atom_site_type_symbol
_atom_site_label
_atom_site_fract_x
_atom_site_fract_y
_atom_site_fract_z
Si Si1 0.309034 0.702946 0.238314
Si Si2 0.096361 0.795614 0.127814
Si Si3 0.279253 0.786195 0.649853
Si Si4 0.566329 0.793063 0.526562
Si Si5 0.621674 0.718526 0.903853
Si Si6 0.982334 0.216185 0.751891
O O1 0.287972 0.500000 0.198368
O O2 0.262391 0.784144 0.285033
O O3 0.374881 0.699444 0.365117
O O4 0.325944 0.784710 0.132384
O O5 0.153444 0.793212 0.268028
O O6 0.040128 0.718914 0.146900
O O7 0.078801 0.000000 0.083176
O O8 0.120944 0.719149 0.032924
O O9 0.250000 0.750000 0.500000
O O10 0.283956 0.000000 0.664199
O O11 0.500000 0.716414 0.500000
O O12 0.562658 0.783867 0.388078
O O13 0.569369 0.000000 0.564762
O O14 0.626236 0.500000 0.905850
O O15 0.553025 0.767032 0.795814
O O16 0.979579 0.000000 0.749224
#
# Coordination Sequence:
#
# PCOD9186087 Si02
#       6
#     8   8   8   8   8   8
#     4  10  21  38  60  83 109 148 194 231 270 329
#     4  10  21  37  59  87 114 146 187 228 277 333
#     4  11  24  41  60  83 111 147 191 233 277 330
#     4  11  22  34  52  83 118 146 179 228 285 333
#     4   9  18  35  59  85 113 144 185 234 275 323
#     4  10  19  34  59  85 112 149 190 228 271 330
#
# _framework density 24.998843000000001
#
# number of rings (size 3 to 8) (size 9 to 14) (size 15 to 20)
#    0.000    1.833    1.667    2.500    0.000    9.333 
#    0.000    1.667    0.000    2.000    0.000    0.000 
#    0.000    0.000    0.000    0.000    0.000    0.000 
#
# Total GULP energy -134179.344629 kJ/mol
# GULP energy per Si atom -5590.806026 kJ/mol
# Density = 2.494194 g / cm^3
# Si number density = 24.998843 Si / 1000 Ang^3
#
#
#
# Elastic Constant Matrix: (Units=GPa)
#
#
# Indices 1 2 3 4 5 6 
#
# 1 121.4794 1.5346 8.0141 0.0000 -40.6234 0.0000
# 2 1.5346 90.6634 -6.7597 0.0000 -5.6927 0.0000
# 3 8.0141 -6.7597 90.7359 0.0000 -29.5699 0.0000
# 4 0.0000 0.0000 0.0000 43.9091 0.0000 -0.7255
# 5 -40.6234 -5.6927 -29.5699 0.0000 55.9265 0.0000
# 6 0.0000 0.0000 0.0000 -0.7255 0.0000 8.2034
#
#
#
# Elastic Compliance Matrix: (Units=1/GPa)
#
#
# Indices 1 2 3 4 5 6 
#
# 1 0.011193 0.000548 0.002078 0.000000 0.009285 0.000000
# 2 0.000548 0.011286 0.001567 0.000000 0.002375 0.000000
# 3 0.002078 0.001567 0.013892 0.000000 0.009014 0.000000
# 4 0.000000 0.000000 0.000000 0.022808 0.000000 0.002017
# 5 0.009285 0.002375 0.009014 0.000000 0.029632 0.000000
# 6 0.000000 0.000000 0.000000 0.002017 0.000000 0.122079
#
#
# Mechanical properties :
#
#
# Convention : Reuss Voigt Hill
#
# Bulk Modulus (GPa) = 22.34300 34.27299 28.30799
# Shear Modulus (GPa) = 22.99672 41.61377 32.30525
#
# Velocity S-wave (km/s) = 3.03629 4.08441 3.59872
# Velocity P-wave (km/s) = 4.60968 5.99857 5.34939
#
# Compressibility (1/GPa) = 0.04475676
#
# Stress axis : x y z
#
# Youngs Moduli (GPa) = 89.34445 88.60161 71.98564
#
# Poissons Ratio (x) = -0.04859 -0.14959
# Poissons Ratio (y) = -0.04900 -0.11277
# Poissons Ratio (z) = -0.18566 -0.13880
#
# Static dielectric constant tensor:
#      x y z
#    x 1.992230 0.000000 -0.061510 
#    y 0.000000 1.983870 0.000000 
#    z -0.061510 0.000000 1.986820 
# 
# From -- ./inp_files/172867.got.cif
#   From: 2010.05.17/outbox.cif.g08.bks.cpg/sg12_87_cif.got.tgz:172867.got - 2010.06.03 13:09:07.
