data_PCOD9186500
_publ_section_title
;
Structure prediction by ZEFSAII (Michael W. Deem and Ramdas Pophale) SiO2 
 PCOD9186500
Probable space group: C 2/M
;
_chemical_formula_sum "Si O2"
_cell_formula_units_Z 48
_cell_length_a 15.711904
_cell_length_b 31.475548
_cell_length_c 5.468863
_cell_angle_alpha 90.000000
_cell_angle_beta 121.559584
_cell_angle_gamma 90.000000
_cell_volume 2304.559152
_symmetry_space_group_name_H-M "C 2/M"
_symmetry_group_IT_number 12
_symmetry_cell_setting 'monoclinic'
loop_
_space_group_symop_operation_xyz
x,y,z
-x,y,-z
-x,-y,-z
x,-y,z
1/2+x,1/2+y,z
1/2-x,1/2+y,-z
1/2-x,1/2-y,-z
1/2+x,1/2-y,z
loop_
_atom_site_type_symbol
_atom_site_label
_atom_site_fract_x
_atom_site_fract_y
_atom_site_fract_z
Si Si1 0.811683 0.618144 0.221071
Si Si2 0.110480 0.860603 0.657043
Si Si3 0.063269 0.451341 0.341823
Si Si4 0.587872 0.726248 0.934291
Si Si5 0.770140 0.183520 0.537877
Si Si6 0.413294 0.181771 0.072455
O O1 0.846960 0.580094 0.447951
O O2 0.794478 0.658464 0.365160
O O3 0.901562 0.636493 0.187663
O O4 0.705254 0.614125 0.917346
O O5 0.097249 0.814988 0.777124
O O6 0.142066 0.847220 0.430734
O O7 0.000000 0.880865 0.500000
O O8 0.097421 0.500000 0.348929
O O9 0.000000 0.452031 0.500000
O O10 0.000000 0.439739 0.000000
O O11 0.576342 0.771750 0.787798
O O12 0.500000 0.722510 0.000000
O O13 0.683881 0.722913 0.254063
O O14 0.696883 0.187947 0.203517
O O15 0.500000 0.179291 0.000000
#
# Coordination Sequence:
#
# PCOD9186500 Si02
#       6
#     8   8   8   8   8   8
#     4  10  24  37  60  91 123 157 209 264 320 383
#     4  10  20  37  59  83 118 167 217 270 314 367
#     4  10  24  45  73 100 131 170 203 249 317 402
#     4  10  19  35  53  76 113 166 225 265 313 367
#     4  10  21  34  54  79 112 163 209 273 311 371
#     4  10  23  36  51  83 120 170 209 269 323 369
#
# _framework density 20.828277
#
# number of rings (size 3 to 8) (size 9 to 14) (size 15 to 20)
#    0.000    2.000    1.667    0.500    7.000    7.333 
#    0.000    0.000    0.000    0.500    0.000    1.167 
#    0.000    0.000    0.000    0.000    0.000    0.000 
#
# Total GULP energy -133675.720094 kJ/mol
# GULP energy per Si atom -5569.821671 kJ/mol
# Density = 2.078087 g / cm^3
# Si number density = 20.828277 Si / 1000 Ang^3
#
#
#
# Elastic Constant Matrix: (Units=GPa)
#
#
# Indices 1 2 3 4 5 6 
#
# 1 75.5775 25.2115 14.6555 0.0000 10.8502 0.0000
# 2 25.2115 91.4882 47.9333 0.0000 17.2354 0.0000
# 3 14.6555 47.9333 131.8958 0.0000 25.9289 0.0000
# 4 0.0000 0.0000 0.0000 28.1864 0.0000 -1.8087
# 5 10.8502 17.2354 25.9289 0.0000 34.7088 0.0000
# 6 0.0000 0.0000 0.0000 -1.8087 0.0000 20.6562
#
#
#
# Elastic Compliance Matrix: (Units=1/GPa)
#
#
# Indices 1 2 3 4 5 6 
#
# 1 0.014834 -0.003663 0.000278 0.000000 -0.003026 0.000000
# 2 -0.003663 0.014792 -0.004395 0.000000 -0.002917 0.000000
# 3 0.000278 -0.004395 0.010240 0.000000 -0.005554 0.000000
# 4 0.000000 0.000000 0.000000 0.035679 0.000000 0.003124
# 5 -0.003026 -0.002917 -0.005554 0.000000 0.035354 0.000000
# 6 0.000000 0.000000 0.000000 0.003124 0.000000 0.048685
#
#
# Mechanical properties :
#
#
# Convention : Reuss Voigt Hill
#
# Bulk Modulus (GPa) = 41.14452 52.72914 46.93683
# Shear Modulus (GPa) = 27.28548 30.78769 29.03658
#
# Velocity S-wave (km/s) = 3.62335 3.84887 3.73781
# Velocity P-wave (km/s) = 6.10753 6.71735 6.41968
#
# Compressibility (1/GPa) = 0.02430458
#
# Stress axis : x y z
#
# Youngs Moduli (GPa) = 67.41264 67.60316 97.65578
#
# Poissons Ratio (x) = 0.24766 -0.02714
# Poissons Ratio (y) = 0.24696 0.42923
# Poissons Ratio (z) = -0.01873 0.29714
#
# Static dielectric constant tensor:
#      x y z
#    x 1.828240 0.000000 -0.020530 
#    y 0.000000 1.742590 0.000000 
#    z -0.020530 0.000000 1.917230 
# 
# From -- ./inp_files/13252.got.cif
#   From: 2010.05.17/outbox.cif.g08.bks.cpg/sg12_7_cif.got.tgz:13252.got - 2010.06.03 13:09:07.
