data_PCOD9186292
_publ_section_title
;
Structure prediction by ZEFSAII (Michael W. Deem and Ramdas Pophale) SiO2 
 PCOD9186292
Probable space group: C 2/M
;
_chemical_formula_sum "Si O2"
_cell_formula_units_Z 40
_cell_length_a 18.317027
_cell_length_b 13.636599
_cell_length_c 12.885467
_cell_angle_alpha 90.000000
_cell_angle_beta 36.238020
_cell_angle_gamma 90.000000
_cell_volume 1902.621113
_symmetry_space_group_name_H-M "C 2/M"
_symmetry_group_IT_number 12
_symmetry_cell_setting 'monoclinic'
loop_
_space_group_symop_operation_xyz
x,y,z
-x,y,-z
-x,-y,-z
x,-y,z
1/2+x,1/2+y,z
1/2-x,1/2+y,-z
1/2-x,1/2-y,-z
1/2+x,1/2-y,z
loop_
_atom_site_type_symbol
_atom_site_label
_atom_site_fract_x
_atom_site_fract_y
_atom_site_fract_z
Si Si1 0.220913 0.618979 0.148168
Si Si2 0.191036 0.149547 0.529639
Si Si3 0.632218 0.609807 0.829590
Si Si4 0.042673 0.393438 0.833589
Si Si5 0.943383 0.234097 0.784613
O O1 0.199660 0.500000 0.162037
O O2 0.257560 0.647490 0.224974
O O3 0.110666 0.689221 0.236555
O O4 0.338520 0.658445 0.945608
O O5 0.250000 0.250000 0.500000
O O6 0.157610 0.103266 0.679224
O O7 0.307941 0.104605 0.338541
O O8 0.064640 0.171895 0.614906
O O9 0.618088 0.500000 0.889582
O O10 0.500000 0.659580 0.000000
O O11 0.000559 0.500000 0.839990
O O12 0.988374 0.306130 0.826224
O O13 0.000000 0.384705 0.000000
#
# Coordination Sequence:
#
# PCOD9186292 Si02
#       5
#     8   8   8   8   8
#     4  10  21  36  61  93 127 165 200 248 313 369
#     4  10  21  34  58  88 121 160 199 253 299 361
#     4  10  19  34  60  90 120 153 199 255 307 364
#     4  10  22  39  62  88 121 165 210 258 304 361
#     4  10  21  37  60  91 126 165 199 253 302 373
#
# _framework density 21.023630000000001
#
# number of rings (size 3 to 8) (size 9 to 14) (size 15 to 20)
#    0.000    2.000    2.000    1.200    5.600    0.800 
#    0.000    4.000    0.000   10.800    0.000    7.000 
#    0.000    0.000    0.000    0.000    0.000    0.000 
#
# Total GULP energy -111368.394468 kJ/mol
# GULP energy per Si atom -5568.419723 kJ/mol
# Density = 2.097578 g / cm^3
# Si number density = 21.023630 Si / 1000 Ang^3
#
#
#
# Elastic Constant Matrix: (Units=GPa)
#
#
# Indices 1 2 3 4 5 6 
#
# 1 138.2862 26.1326 49.8293 0.0000 -16.4583 0.0000
# 2 26.1326 96.7899 9.4108 0.0000 3.3405 0.0000
# 3 49.8293 9.4108 111.0617 0.0000 -0.0973 0.0000
# 4 0.0000 0.0000 0.0000 19.7858 0.0000 2.1269
# 5 -16.4583 3.3405 -0.0973 0.0000 10.6065 0.0000
# 6 0.0000 0.0000 0.0000 2.1269 0.0000 23.3110
#
#
#
# Elastic Compliance Matrix: (Units=1/GPa)
#
#
# Indices 1 2 3 4 5 6 
#
# 1 0.012078 -0.003447 -0.005110 0.000000 0.019781 0.000000
# 2 -0.003447 0.011517 0.000563 0.000000 -0.008971 0.000000
# 3 -0.005110 0.000563 0.011242 0.000000 -0.008003 0.000000
# 4 0.000000 0.000000 0.000000 0.051042 0.000000 -0.004657
# 5 0.019781 -0.008971 -0.008003 0.000000 0.127728 0.000000
# 6 0.000000 0.000000 0.000000 -0.004657 0.000000 0.043323
#
#
# Mechanical properties :
#
#
# Convention : Reuss Voigt Hill
#
# Bulk Modulus (GPa) = 53.05161 57.43146 55.24153
# Shear Modulus (GPa) = 17.90826 28.12499 23.01663
#
# Velocity S-wave (km/s) = 2.92175 3.66154 3.31236
# Velocity P-wave (km/s) = 6.05568 6.72701 6.40015
#
# Compressibility (1/GPa) = 0.01884957
#
# Stress axis : x y z
#
# Youngs Moduli (GPa) = 82.79430 86.82675 88.95378
#
# Poissons Ratio (x) = 0.29928 0.45452
# Poissons Ratio (y) = 0.28538 -0.05006
# Poissons Ratio (z) = 0.42305 -0.04886
#
# Static dielectric constant tensor:
#      x y z
#    x 1.799140 0.000000 -0.037870 
#    y 0.000000 1.794540 0.000000 
#    z -0.037870 0.000000 1.784820 
# 
# From -- ./inp_files/143341.got.cif
#   From: 2010.05.17/outbox.cif.g08.bks.cpg/sg12_72_cif.got.tgz:143341.got - 2010.06.03 13:09:07.
