data_PCOD9186242
_publ_section_title
;
Structure prediction by ZEFSAII (Michael W. Deem and Ramdas Pophale) SiO2 
 PCOD9186242
Probable space group: C 2/M
;
_chemical_formula_sum "Si O2"
_cell_formula_units_Z 64
_cell_length_a 26.730556
_cell_length_b 14.511036
_cell_length_c 9.404607
_cell_angle_alpha 90.000000
_cell_angle_beta 67.906670
_cell_angle_gamma 90.000000
_cell_volume 3380.075754
_symmetry_space_group_name_H-M "C 2/M"
_symmetry_group_IT_number 12
_symmetry_cell_setting 'monoclinic'
loop_
_space_group_symop_operation_xyz
x,y,z
-x,y,-z
-x,-y,-z
x,-y,z
1/2+x,1/2+y,z
1/2-x,1/2+y,-z
1/2-x,1/2-y,-z
1/2+x,1/2-y,z
loop_
_atom_site_type_symbol
_atom_site_label
_atom_site_fract_x
_atom_site_fract_y
_atom_site_fract_z
Si Si1 0.980201 0.221143 0.356420
Si Si2 0.116423 0.605261 0.209649
Si Si3 0.754075 0.751913 0.663798
Si Si4 0.417374 0.390122 0.835142
Si Si5 0.991771 0.605074 0.843708
Si Si6 0.191753 0.110512 0.916332
Si Si7 0.273378 0.108784 0.075933
Si Si8 0.878463 0.218896 0.608685
O O1 0.917930 0.192020 0.436901
O O2 0.000000 0.220695 0.500000
O O3 0.024537 0.160315 0.224624
O O4 0.980222 0.321386 0.287022
O O5 0.117304 0.500000 0.264731
O O6 0.070661 0.609266 0.137639
O O7 0.104322 0.683075 0.338633
O O8 0.173593 0.625787 0.075535
O O9 0.750000 0.750000 0.500000
O O10 0.725512 0.661576 0.759368
O O11 0.725413 0.834548 0.780643
O O12 0.816930 0.765809 0.633644
O O13 0.424450 0.500000 0.829669
O O14 0.389718 0.357172 0.717444
O O15 0.371572 0.364172 0.000387
O O16 0.010482 0.500000 0.800857
O O17 0.000000 0.627504 0.000000
O O18 0.195168 0.000000 0.898142
O O19 0.222902 0.135688 0.029769
O O20 0.270074 0.000000 0.107752
#
# Coordination Sequence:
#
# PCOD9186242 Si02
#       8
#     8   8   8   8   8   8   8   8
#     4  10  21  36  57  86 115 156 197 240 291 355
#     4  10  19  34  60  86 111 148 196 244 286 352
#     4  12  25  37  57  91 127 155 187 246 314 366
#     4  10  20  37  64  90 111 149 211 263 290 333
#     4  10  21  36  55  84 117 151 190 238 297 355
#     4  10  20  38  65  88 113 156 206 251 295 356
#     4  10  20  36  60  84 109 153 204 242 285 355
#     4  11  21  37  55  87 120 154 197 237 300 361
#
# _framework density 18.934487000000001
#
# number of rings (size 3 to 8) (size 9 to 14) (size 15 to 20)
#    0.000    1.625    5.000    1.125    0.000    4.500 
#    0.000    0.000    0.000    0.375    0.000    0.000 
#    0.000    0.000    0.000    0.000    0.000    0.000 
#
# Total GULP energy -178441.226304 kJ/mol
# GULP energy per Si atom -5576.288322 kJ/mol
# Density = 1.889139 g / cm^3
# Si number density = 18.934487 Si / 1000 Ang^3
#
#
#
# Elastic Constant Matrix: (Units=GPa)
#
#
# Indices 1 2 3 4 5 6 
#
# 1 47.0272 7.2797 21.6798 0.0000 -20.1738 0.0000
# 2 7.2797 47.4767 25.6204 0.0000 -0.3029 0.0000
# 3 21.6798 25.6204 73.1154 0.0000 -12.8870 0.0000
# 4 0.0000 0.0000 0.0000 -8.5480 0.0000 0.9266
# 5 -20.1738 -0.3029 -12.8870 0.0000 35.9214 0.0000
# 6 0.0000 0.0000 0.0000 0.9266 0.0000 9.1151
#
#
#
# Elastic Compliance Matrix: (Units=1/GPa)
#
#
# Indices 1 2 3 4 5 6 
#
# 1 0.030700 -0.001399 -0.005952 0.000000 0.015094 0.000000
# 2 -0.001399 0.026399 -0.009538 0.000000 -0.003985 0.000000
# 3 -0.005952 -0.009538 0.019408 0.000000 0.003539 0.000000
# 4 0.000000 0.000000 0.000000 -0.115711 0.000000 0.011763
# 5 0.015094 -0.003985 0.003539 0.000000 0.037552 0.000000
# 6 0.000000 0.000000 0.000000 0.011763 0.000000 0.108512
#
#
# Mechanical properties :
#
#
# Convention : Reuss Voigt Hill
#
# Bulk Modulus (GPa) = 23.40355 30.75323 27.07839
# Shear Modulus (GPa) = 32.28271 14.83367 23.55819
#
# Velocity S-wave (km/s) = 4.13361 2.80200 3.53114
# Velocity P-wave (km/s) = 5.93038 5.17160 5.56394
#
# Compressibility (1/GPa) = 0.04272856
#
# Stress axis : x y z
#
# Youngs Moduli (GPa) = 32.57331 37.87994 51.52498
#
# Poissons Ratio (x) = 0.05299 0.30670
# Poissons Ratio (y) = 0.04556 0.49145
# Poissons Ratio (z) = 0.19389 0.36130
#
# Static dielectric constant tensor:
#      x y z
#    x 1.682720 0.000000 -0.047320 
#    y 0.000000 1.676190 0.000000 
#    z -0.047320 0.000000 1.657310 
# 
# From -- ./inp_files/111635.got.cif
#   From: 2010.05.17/outbox.cif.g08.bks.cpg/sg12_56_cif.got.tgz:111635.got - 2010.06.03 13:09:07.
