data_PCOD9186702
_publ_section_title
;
Structure prediction by ZEFSAII (Michael W. Deem and Ramdas Pophale) SiO2 
 PCOD9186702
Probable space group: C 2/M
;
_chemical_formula_sum "Si O2"
_cell_formula_units_Z 56
_cell_length_a 23.589226
_cell_length_b 16.475147
_cell_length_c 9.497895
_cell_angle_alpha 90.000000
_cell_angle_beta 55.481856
_cell_angle_gamma 90.000000
_cell_volume 3041.371805
_symmetry_space_group_name_H-M "C 2/M"
_symmetry_group_IT_number 12
_symmetry_cell_setting 'monoclinic'
loop_
_space_group_symop_operation_xyz
x,y,z
-x,y,-z
-x,-y,-z
x,-y,z
1/2+x,1/2+y,z
1/2-x,1/2+y,-z
1/2-x,1/2-y,-z
1/2+x,1/2-y,z
loop_
_atom_site_type_symbol
_atom_site_label
_atom_site_fract_x
_atom_site_fract_y
_atom_site_fract_z
Si Si1 0.328766 0.787296 0.566931
Si Si2 0.976226 0.094276 0.689270
Si Si3 0.757607 0.589593 0.455655
Si Si4 0.216493 0.667607 0.857148
Si Si5 0.133846 0.173141 0.963546
Si Si6 0.896390 0.148348 0.312992
Si Si7 0.221975 0.595799 0.159611
O O1 0.286702 0.835362 0.505102
O O2 0.281963 0.721484 0.715142
O O3 0.386491 0.735129 0.406520
O O4 0.338063 0.857280 0.670181
O O5 0.000000 0.119847 0.500000
O O6 0.040440 0.103572 0.704151
O O7 0.954828 0.000000 0.711207
O O8 0.914557 0.145749 0.841530
O O9 0.773508 0.500000 0.490791
O O10 0.789198 0.600813 0.256199
O O11 0.675476 0.600958 0.562946
O O12 0.155466 0.733079 0.943605
O O13 0.225539 0.629693 0.996691
O O14 0.098572 0.158645 0.862028
O O15 0.204857 0.121437 0.872926
O O16 0.213725 0.500000 0.172966
#
# Coordination Sequence:
#
# PCOD9186702 Si02
#       7
#     8   8   8   8   8   8   8
#     4  10  19  35  55  83 112 146 186 229 277 337
#     4  11  27  41  55  82 112 148 192 231 271 323
#     4  11  19  32  57  87 118 143 179 232 284 329
#     4  10  20  35  53  82 114 152 184 227 278 337
#     4  11  21  39  57  78 113 154 189 226 269 333
#     4  11  21  38  58  80 112 153 189 223 274 334
#     4  11  22  33  55  88 118 148 183 228 285 330
#
# _framework density 18.412744
#
# number of rings (size 3 to 8) (size 9 to 14) (size 15 to 20)
#    0.000    1.286    4.286    4.714    6.000    2.286 
#    0.000    0.000    0.000    0.000    0.000    6.000 
#    0.000    0.000    0.000    0.000    0.000    0.000 
#
# Total GULP energy -156233.852051 kJ/mol
# GULP energy per Si atom -5579.780430 kJ/mol
# Density = 1.837084 g / cm^3
# Si number density = 18.412744 Si / 1000 Ang^3
#
#
#
# Elastic Constant Matrix: (Units=GPa)
#
#
# Indices 1 2 3 4 5 6 
#
# 1 21.8711 -4.0094 13.9144 0.0000 15.5257 0.0000
# 2 -4.0094 91.2183 25.9673 0.0000 6.3114 0.0000
# 3 13.9144 25.9673 110.7775 0.0000 19.0843 0.0000
# 4 0.0000 0.0000 0.0000 24.1483 0.0000 6.2049
# 5 15.5257 6.3114 19.0843 0.0000 34.3898 0.0000
# 6 0.0000 0.0000 0.0000 6.2049 0.0000 20.1326
#
#
#
# Elastic Compliance Matrix: (Units=1/GPa)
#
#
# Indices 1 2 3 4 5 6 
#
# 1 0.072359 0.006848 -0.005362 0.000000 -0.030948 0.000000
# 2 0.006848 0.012410 -0.003145 0.000000 -0.003624 0.000000
# 3 -0.005362 -0.003145 0.010970 0.000000 -0.003090 0.000000
# 4 0.000000 0.000000 0.000000 0.044972 0.000000 -0.013860
# 5 -0.030948 -0.003624 -0.003090 0.000000 0.045430 0.000000
# 6 0.000000 0.000000 0.000000 -0.013860 0.000000 0.053942
#
#
# Mechanical properties :
#
#
# Convention : Reuss Voigt Hill
#
# Bulk Modulus (GPa) = 10.82003 32.84570 21.83287
# Shear Modulus (GPa) = 18.23430 28.26713 23.25071
#
# Velocity S-wave (km/s) = 3.15033 3.92241 3.55738
# Velocity P-wave (km/s) = 4.37286 6.19605 5.36250
#
# Compressibility (1/GPa) = 0.09242117
#
# Stress axis : x y z
#
# Youngs Moduli (GPa) = 13.81995 80.58203 91.15675
#
# Poissons Ratio (x) = -0.55185 0.48882
# Poissons Ratio (y) = -0.09464 0.28667
# Poissons Ratio (z) = 0.07411 0.25341
#
# Static dielectric constant tensor:
#      x y z
#    x 1.629460 0.000000 0.024080 
#    y 0.000000 1.641710 0.000000 
#    z 0.024080 0.000000 1.667210 
# 
# From -- ./inp_files/97620.got.cif
#   From: 2010.05.17/outbox.cif.g08.bks.cpg/sg12_49_cif.got.tgz:97620.got - 2010.06.03 13:09:07.
