data_PCOD9186216
_publ_section_title
;
Structure prediction by ZEFSAII (Michael W. Deem and Ramdas Pophale) SiO2 
 PCOD9186216
Probable space group: C 2/M
;
_chemical_formula_sum "Si O2"
_cell_formula_units_Z 44
_cell_length_a 10.044496
_cell_length_b 21.403004
_cell_length_c 9.935482
_cell_angle_alpha 90.000000
_cell_angle_beta 82.539136
_cell_angle_gamma 90.000000
_cell_volume 2117.870207
_symmetry_space_group_name_H-M "C 2/M"
_symmetry_group_IT_number 12
_symmetry_cell_setting 'monoclinic'
loop_
_space_group_symop_operation_xyz
x,y,z
-x,y,-z
-x,-y,-z
x,-y,z
1/2+x,1/2+y,z
1/2-x,1/2+y,-z
1/2-x,1/2-y,-z
1/2+x,1/2-y,z
loop_
_atom_site_type_symbol
_atom_site_label
_atom_site_fract_x
_atom_site_fract_y
_atom_site_fract_z
Si Si1 0.500000 0.107934 0.000000
Si Si2 0.812730 0.116299 0.284352
Si Si3 0.227247 0.925312 0.430415
Si Si4 0.587254 0.429540 0.158725
Si Si5 0.228494 0.178457 0.965947
Si Si6 0.491923 0.929622 0.706769
O O1 0.626155 0.148815 0.026014
O O2 0.469344 0.070906 0.140185
O O3 0.837393 0.114149 0.440365
O O4 0.817098 0.175502 0.184441
O O5 0.657651 0.095564 0.291552
O O6 0.927119 0.072845 0.203707
O O7 0.153441 0.921131 0.297229
O O8 0.380310 0.901903 0.387505
O O9 0.224692 0.000000 0.467138
O O10 0.624454 0.500000 0.104046
O O11 0.635042 0.370254 0.063097
O O12 0.250000 0.250000 0.000000
O O13 0.485124 0.000000 0.660516
#
# Coordination Sequence:
#
# PCOD9186216 Si02
#       6
#     4   8   8   8   8   8
#     4  10  21  38  62  84 115 168 216 262 310 372
#     4  11  23  37  62  97 125 169 208 263 322 381
#     4  10  20  37  61  95 137 170 203 260 329 388
#     4  11  23  41  66  98 132 165 210 268 327 386
#     4  11  26  44  65  90 126 172 220 266 320 382
#     4  10  19  34  59  93 129 162 207 256 312 381
#
# _framework density 20.775587999999999
#
# number of rings (size 3 to 8) (size 9 to 14) (size 15 to 20)
#    0.000    1.455    1.818    3.545    2.545    8.000 
#    0.000    0.909    0.000    2.182    0.000    0.000 
#    0.000    0.000    0.000    0.000    0.000    0.000 
#
# Total GULP energy -122552.322548 kJ/mol
# GULP energy per Si atom -5570.560116 kJ/mol
# Density = 2.072830 g / cm^3
# Si number density = 20.775588 Si / 1000 Ang^3
#
#
#
# Elastic Constant Matrix: (Units=GPa)
#
#
# Indices 1 2 3 4 5 6 
#
# 1 91.7781 20.7534 26.2377 0.0000 -6.5613 0.0000
# 2 20.7534 102.7172 60.2211 0.0000 -9.3282 0.0000
# 3 26.2377 60.2211 144.9173 0.0000 2.3827 0.0000
# 4 0.0000 0.0000 0.0000 21.7821 0.0000 7.3987
# 5 -6.5613 -9.3282 2.3827 0.0000 39.0726 0.0000
# 6 0.0000 0.0000 0.0000 7.3987 0.0000 3.1709
#
#
#
# Elastic Compliance Matrix: (Units=1/GPa)
#
#
# Indices 1 2 3 4 5 6 
#
# 1 0.011776 -0.001257 -0.001639 0.000000 0.001777 0.000000
# 2 -0.001257 0.013474 -0.005426 0.000000 0.003337 0.000000
# 3 -0.001639 -0.005426 0.009488 0.000000 -0.002149 0.000000
# 4 0.000000 0.000000 0.000000 0.221294 0.000000 -0.516342
# 5 0.001777 0.003337 -0.002149 0.000000 0.026819 0.000000
# 6 0.000000 0.000000 0.000000 -0.516342 0.000000 1.520143
#
#
# Mechanical properties :
#
#
# Convention : Reuss Voigt Hill
#
# Bulk Modulus (GPa) = 55.27149 61.53744 58.40446
# Shear Modulus (GPa) = 2.73872 28.28516 15.51194
#
# Velocity S-wave (km/s) = 1.14939 3.69380 2.73544
# Velocity P-wave (km/s) = 5.33135 6.91929 6.17656
#
# Compressibility (1/GPa) = 0.01809251
#
# Stress axis : x y z
#
# Youngs Moduli (GPa) = 84.92091 74.21792 105.40162
#
# Poissons Ratio (x) = 0.09329 0.17274
# Poissons Ratio (y) = 0.10674 0.57195
# Poissons Ratio (z) = 0.13918 0.40274
#
# Static dielectric constant tensor:
#      x y z
#    x 1.812310 0.000000 -0.005940 
#    y 0.000000 1.772360 0.000000 
#    z -0.005940 0.000000 1.834830 
# 
# From -- ./inp_files/49290.got.cif
#   From: 2010.05.17/outbox.cif.g08.bks.cpg/sg12_25_cif.got.tgz:49290.got - 2010.06.03 13:09:07.
