data_PCOD9186342
_publ_section_title
;
Structure prediction by ZEFSAII (Michael W. Deem and Ramdas Pophale) SiO2 
 PCOD9186342
Probable space group: C 2/M
;
_chemical_formula_sum "Si O2"
_cell_formula_units_Z 52
_cell_length_a 14.869316
_cell_length_b 18.389525
_cell_length_c 9.866554
_cell_angle_alpha 90.000000
_cell_angle_beta 87.605536
_cell_angle_gamma 90.000000
_cell_volume 2695.551535
_symmetry_space_group_name_H-M "C 2/M"
_symmetry_group_IT_number 12
_symmetry_cell_setting 'monoclinic'
loop_
_space_group_symop_operation_xyz
x,y,z
-x,y,-z
-x,-y,-z
x,-y,z
1/2+x,1/2+y,z
1/2-x,1/2+y,-z
1/2-x,1/2-y,-z
1/2+x,1/2-y,z
loop_
_atom_site_type_symbol
_atom_site_label
_atom_site_fract_x
_atom_site_fract_y
_atom_site_fract_z
Si Si1 0.173320 0.224461 0.193339
Si Si2 0.237449 0.164901 0.463399
Si Si3 0.500000 0.314778 0.500000
Si Si4 0.091511 0.086185 0.666626
Si Si5 0.477266 0.217130 0.262048
Si Si6 0.152043 0.815334 0.893656
Si Si7 0.918245 0.417063 0.398659
O O1 0.204162 0.171385 0.310924
O O2 0.252433 0.283326 0.163287
O O3 0.082375 0.265824 0.241825
O O4 0.156404 0.182004 0.054589
O O5 0.250000 0.250000 0.500000
O O6 0.163135 0.123554 0.558372
O O7 0.329347 0.120151 0.465286
O O8 0.501236 0.374881 0.376605
O O9 0.449130 0.254446 0.408113
O O10 0.122380 0.113489 0.812622
O O11 0.088528 0.000000 0.655658
O O12 0.421623 0.255937 0.148183
O O13 0.450975 0.133628 0.273929
O O14 0.899403 0.500000 0.362319
O O15 0.000000 0.415953 0.500000
#
# Coordination Sequence:
#
# PCOD9186342 Si02
#       7
#     8   8   4   8   8   8   8
#     4  11  21  38  64  88 118 153 218 255 295 357
#     4  12  20  39  63  91 116 159 213 256 298 361
#     4  10  19  34  61  86 114 152 198 250 297 362
#     4  11  22  37  58  89 123 154 194 253 319 364
#     4  11  19  37  63  87 119 159 211 250 305 363
#     4  10  23  38  60  89 117 162 207 256 302 368
#     4  11  23  36  55  92 133 159 194 259 322 363
#
# _framework density 19.291042999999998
#
# number of rings (size 3 to 8) (size 9 to 14) (size 15 to 20)
#    0.000    1.077    5.385    3.000    0.000    0.000 
#    0.000    1.538    0.000    3.692    0.000    0.000 
#    0.000    0.000    0.000    0.000    0.000    0.000 
#
# Total GULP energy -144826.562990 kJ/mol
# GULP energy per Si atom -5570.252423 kJ/mol
# Density = 1.924714 g / cm^3
# Si number density = 19.291043 Si / 1000 Ang^3
#
#
#
# Elastic Constant Matrix: (Units=GPa)
#
#
# Indices 1 2 3 4 5 6 
#
# 1 105.2144 25.0056 10.3138 0.0000 -2.9553 0.0000
# 2 25.0056 153.2578 33.8997 0.0000 3.6880 0.0000
# 3 10.3138 33.8997 105.7352 0.0000 26.4018 0.0000
# 4 0.0000 0.0000 0.0000 15.6133 0.0000 -1.1954
# 5 -2.9553 3.6880 26.4018 0.0000 32.0214 0.0000
# 6 0.0000 0.0000 0.0000 -1.1954 0.0000 18.1002
#
#
#
# Elastic Compliance Matrix: (Units=1/GPa)
#
#
# Indices 1 2 3 4 5 6 
#
# 1 0.010001 -0.001460 -0.000982 0.000000 0.001901 0.000000
# 2 -0.001460 0.007281 -0.002454 0.000000 0.001050 0.000000
# 3 -0.000982 -0.002454 0.012960 0.000000 -0.010494 0.000000
# 4 0.000000 0.000000 0.000000 0.064374 0.000000 0.004252
# 5 0.001901 0.001050 -0.010494 0.000000 0.039936 0.000000
# 6 0.000000 0.000000 0.000000 0.004252 0.000000 0.055529
#
#
# Mechanical properties :
#
#
# Convention : Reuss Voigt Hill
#
# Bulk Modulus (GPa) = 48.90055 55.84953 52.37504
# Shear Modulus (GPa) = 24.19082 32.81285 28.50183
#
# Velocity S-wave (km/s) = 3.54502 4.12872 3.84795
# Velocity P-wave (km/s) = 6.49308 7.19321 6.85209
#
# Compressibility (1/GPa) = 0.02044967
#
# Stress axis : x y z
#
# Youngs Moduli (GPa) = 99.98883 137.34813 77.15758
#
# Poissons Ratio (x) = 0.20057 0.07577
# Poissons Ratio (y) = 0.14602 0.18935
# Poissons Ratio (z) = 0.09819 0.33706
#
# Static dielectric constant tensor:
#      x y z
#    x 1.836060 0.000000 -0.030290 
#    y 0.000000 1.665560 0.000000 
#    z -0.030290 0.000000 1.695870 
# 
# From -- ./inp_files/75279.got.cif
#   From: 2010.05.17/outbox.cif.g08.bks.cpg/sg12_38_cif.got.tgz:75279.got - 2010.06.03 13:09:07.
