data_PCOD9186562
_publ_section_title
;
Structure prediction by ZEFSAII (Michael W. Deem and Ramdas Pophale) SiO2 
 PCOD9186562
Probable space group: C 2/M
;
_chemical_formula_sum "Si O2"
_cell_formula_units_Z 64
_cell_length_a 14.425999
_cell_length_b 27.098547
_cell_length_c 10.265825
_cell_angle_alpha 90.000000
_cell_angle_beta 110.830245
_cell_angle_gamma 90.000000
_cell_volume 3750.846034
_symmetry_space_group_name_H-M "C 2/M"
_symmetry_group_IT_number 12
_symmetry_cell_setting 'monoclinic'
loop_
_space_group_symop_operation_xyz
x,y,z
-x,y,-z
-x,-y,-z
x,-y,z
1/2+x,1/2+y,z
1/2-x,1/2+y,-z
1/2-x,1/2-y,-z
1/2+x,1/2-y,z
loop_
_atom_site_type_symbol
_atom_site_label
_atom_site_fract_x
_atom_site_fract_y
_atom_site_fract_z
Si Si1 0.557270 0.836852 0.901256
Si Si2 0.942680 0.058911 0.604265
Si Si3 0.230688 0.862160 0.085653
Si Si4 0.573326 0.172695 0.418381
Si Si5 0.546555 0.711299 0.386843
Si Si6 0.081149 0.220141 0.932292
Si Si7 0.784865 0.135543 0.608715
Si Si8 0.576989 0.557205 0.919142
O O1 0.657788 0.863659 0.910879
O O2 0.480774 0.838943 0.743599
O O3 0.588225 0.779449 0.942237
O O4 0.500000 0.855025 0.000000
O O5 0.840712 0.087590 0.579907
O O6 0.000000 0.071688 0.500000
O O7 0.016442 0.071321 0.759953
O O8 0.925960 0.000000 0.597074
O O9 0.227544 0.866279 0.241004
O O10 0.178573 0.810861 0.014958
O O11 0.165538 0.905850 0.992496
O O12 0.500000 0.159161 0.500000
O O13 0.581924 0.232289 0.424045
O O14 0.678816 0.147243 0.492318
O O15 0.500000 0.694318 0.500000
O O16 0.463536 0.709093 0.232411
O O17 0.639024 0.679250 0.387859
O O18 0.000000 0.204684 0.000000
O O19 0.608769 0.500000 0.923637
O O20 0.500000 0.560520 0.000000
#
# Coordination Sequence:
#
# PCOD9186562 Si02
#       8
#     8   8   8   8   8   8   8   8
#     4  10  23  38  53  76 109 147 189 234 272 312
#     4  10  22  39  59  88 121 142 168 223 286 336
#     4  12  21  34  59  83 107 146 192 227 268 332
#     4  10  21  38  53  73 110 152 188 228 272 315
#     4  10  21  34  51  79 112 141 180 229 274 328
#     4  10  19  35  54  78 111 143 179 227 281 329
#     4  12  21  34  59  82 107 149 192 221 270 333
#     4  10  20  36  59  88 116 139 171 221 281 338
#
# _framework density 17.062816000000002
#
# number of rings (size 3 to 8) (size 9 to 14) (size 15 to 20)
#    0.000    1.500    3.750    2.250    0.000    2.000 
#    0.000    0.000    0.000    1.500    0.000    0.000 
#    0.000    0.000    0.000    0.000    0.000    0.000 
#
# Total GULP energy -178688.995185 kJ/mol
# GULP energy per Si atom -5584.031100 kJ/mol
# Density = 1.702398 g / cm^3
# Si number density = 17.062816 Si / 1000 Ang^3
#
#
#
# Elastic Constant Matrix: (Units=GPa)
#
#
# Indices 1 2 3 4 5 6 
#
# 1 133.4398 49.1106 53.6073 0.0000 -7.0162 0.0000
# 2 49.1106 57.3707 32.2975 0.0000 9.2453 0.0000
# 3 53.6073 32.2975 101.3996 0.0000 -17.2045 0.0000
# 4 0.0000 0.0000 0.0000 50.4648 0.0000 -34.5485
# 5 -7.0162 9.2453 -17.2045 0.0000 34.0408 0.0000
# 6 0.0000 0.0000 0.0000 -34.5485 0.0000 60.9941
#
#
#
# Elastic Compliance Matrix: (Units=1/GPa)
#
#
# Indices 1 2 3 4 5 6 
#
# 1 0.012357 -0.009565 -0.002858 0.000000 0.003700 0.000000
# 2 -0.009565 0.032331 -0.007728 0.000000 -0.014659 0.000000
# 3 -0.002858 -0.007728 0.015413 0.000000 0.009299 0.000000
# 4 0.000000 0.000000 0.000000 0.032367 0.000000 0.018333
# 5 0.003700 -0.014659 0.009299 0.000000 0.038820 0.000000
# 6 0.000000 0.000000 0.000000 0.018333 0.000000 0.026780
#
#
# Mechanical properties :
#
#
# Convention : Reuss Voigt Hill
#
# Bulk Modulus (GPa) = 50.51190 62.47121 56.49156
# Shear Modulus (GPa) = 24.39365 39.57959 31.98662
#
# Velocity S-wave (km/s) = 3.78516 4.82149 4.33441
# Velocity P-wave (km/s) = 6.98362 8.22725 7.63081
#
# Compressibility (1/GPa) = 0.01979731
#
# Stress axis : x y z
#
# Youngs Moduli (GPa) = 80.92432 30.92962 64.88173
#
# Poissons Ratio (x) = 0.29585 0.18546
# Poissons Ratio (y) = 0.77405 0.50143
# Poissons Ratio (z) = 0.23132 0.23904
#
# Static dielectric constant tensor:
#      x y z
#    x 1.550990 0.000000 -0.014230 
#    y 0.000000 1.586340 0.000000 
#    z -0.014230 0.000000 1.575550 
# 
# From -- ./inp_files/67032.got.cif
#   From: 2010.05.17/outbox.cif.g08.bks.cpg/sg12_34_cif.got.tgz:67032.got - 2010.06.03 13:09:07.
