data_PCOD9186926
_publ_section_title
;
Structure prediction by ZEFSAII (Michael W. Deem and Ramdas Pophale) SiO2 
 PCOD9186926
Probable space group: C 2/M
;
_chemical_formula_sum "Si O2"
_cell_formula_units_Z 64
_cell_length_a 28.320362
_cell_length_b 14.919924
_cell_length_c 9.337649
_cell_angle_alpha 90.000000
_cell_angle_beta 119.010456
_cell_angle_gamma 90.000000
_cell_volume 3450.470141
_symmetry_space_group_name_H-M "C 2/M"
_symmetry_group_IT_number 12
_symmetry_cell_setting 'monoclinic'
loop_
_space_group_symop_operation_xyz
x,y,z
-x,y,-z
-x,-y,-z
x,-y,z
1/2+x,1/2+y,z
1/2-x,1/2+y,-z
1/2-x,1/2-y,-z
1/2+x,1/2-y,z
loop_
_atom_site_type_symbol
_atom_site_label
_atom_site_fract_x
_atom_site_fract_y
_atom_site_fract_z
Si Si1 0.364404 0.733277 0.764452
Si Si2 0.694347 0.237576 0.618544
Si Si3 0.604162 0.901029 0.527682
Si Si4 0.044451 0.602109 0.725082
Si Si5 0.735868 0.348737 0.921371
Si Si6 0.793750 0.897345 0.813850
Si Si7 0.035497 0.330977 0.185253
Si Si8 0.344494 0.902226 0.937217
O O1 0.327936 0.735074 0.568511
O O2 0.348341 0.645998 0.831301
O O3 0.427406 0.749074 0.815540
O O4 0.347351 0.819995 0.832630
O O5 0.647846 0.175044 0.616585
O O6 0.703732 0.324880 0.729779
O O7 0.746693 0.172275 0.693641
O O8 0.557347 0.889194 0.576608
O O9 0.580035 0.891431 0.332446
O O10 0.627414 0.000000 0.582415
O O11 0.023012 0.500000 0.720010
O O12 0.008705 0.675996 0.753471
O O13 0.102974 0.604216 0.886190
O O14 0.791191 0.394912 0.955373
O O15 0.750000 0.250000 0.000000
O O16 0.707537 0.394468 0.014553
O O17 0.784844 0.000000 0.754434
O O18 0.000000 0.366849 0.000000
O O19 0.345167 0.000000 0.866203
#
# Coordination Sequence:
#
# PCOD9186926 Si02
#       8
#     8   8   8   8   8   8   8   8
#     4  11  23  39  53  84 116 152 191 229 274 333
#     4  10  21  36  57  82 119 149 184 228 279 334
#     4  10  21  34  52  81 115 149 190 229 273 336
#     4  10  20  34  52  77 110 150 191 227 270 332
#     4  10  19  35  57  78 109 145 189 234 268 329
#     4  11  22  38  61  83 111 150 192 234 280 327
#     4  11  22  35  53  75 109 151 187 228 279 328
#     4  11  21  33  55  84 116 150 186 227 276 331
#
# _framework density 18.548196000000001
#
# number of rings (size 3 to 8) (size 9 to 14) (size 15 to 20)
#    0.000    1.500    3.750    3.375    0.000    6.000 
#    0.000    0.625    0.000    0.375    0.000    0.000 
#    0.000    4.000    0.000    0.000    0.000    0.000 
#
# Total GULP energy -178376.671873 kJ/mol
# GULP energy per Si atom -5574.270996 kJ/mol
# Density = 1.850598 g / cm^3
# Si number density = 18.548196 Si / 1000 Ang^3
#
#
#
# Elastic Constant Matrix: (Units=GPa)
#
#
# Indices 1 2 3 4 5 6 
#
# 1 115.2457 35.1091 22.6538 0.0000 -5.1519 0.0000
# 2 35.1091 54.3278 12.2689 0.0000 -1.4268 0.0000
# 3 22.6538 12.2689 89.4259 0.0000 -6.7633 0.0000
# 4 0.0000 0.0000 0.0000 13.2052 0.0000 1.9694
# 5 -5.1519 -1.4268 -6.7633 0.0000 24.4573 0.0000
# 6 0.0000 0.0000 0.0000 1.9694 0.0000 20.6326
#
#
#
# Elastic Compliance Matrix: (Units=1/GPa)
#
#
# Indices 1 2 3 4 5 6 
#
# 1 0.011155 -0.006767 -0.001787 0.000000 0.001461 0.000000
# 2 -0.006767 0.023104 -0.001493 0.000000 -0.000490 0.000000
# 3 -0.001787 -0.001493 0.012057 0.000000 0.002871 0.000000
# 4 0.000000 0.000000 0.000000 0.076821 0.000000 -0.007333
# 5 0.001461 -0.000490 0.002871 0.000000 0.041961 0.000000
# 6 0.000000 0.000000 0.000000 -0.007333 0.000000 0.049167
#
#
# Mechanical properties :
#
#
# Convention : Reuss Voigt Hill
#
# Bulk Modulus (GPa) = 38.13443 44.34034 41.23739
# Shear Modulus (GPa) = 20.56772 24.25687 22.41229
#
# Velocity S-wave (km/s) = 3.33360 3.62024 3.47987
# Velocity P-wave (km/s) = 5.95159 6.43679 6.19894
#
# Compressibility (1/GPa) = 0.02622302
#
# Stress axis : x y z
#
# Youngs Moduli (GPa) = 89.64386 43.28217 82.93919
#
# Poissons Ratio (x) = 0.29289 0.14821
# Poissons Ratio (y) = 0.60663 0.12380
# Poissons Ratio (z) = 0.16019 0.06460
#
# Static dielectric constant tensor:
#      x y z
#    x 1.700120 0.000000 0.001320 
#    y 0.000000 1.634480 0.000000 
#    z 0.001320 0.000000 1.716840 
# 
# From -- ./inp_files/104692.got.cif
#   From: 2010.05.17/outbox.cif.g08.bks.cpg/sg12_53_cif.got.tgz:104692.got - 2010.06.03 13:09:07.
