data_PCOD9186775
_publ_section_title
;
Structure prediction by ZEFSAII (Michael W. Deem and Ramdas Pophale) SiO2 
 PCOD9186775
Probable space group: C 2/M
;
_chemical_formula_sum "Si O2"
_cell_formula_units_Z 48
_cell_length_a 14.542498
_cell_length_b 8.550363
_cell_length_c 30.687353
_cell_angle_alpha 90.000000
_cell_angle_beta 45.051506
_cell_angle_gamma 90.000000
_cell_volume 2700.586266
_symmetry_space_group_name_H-M "C 2/M"
_symmetry_group_IT_number 12
_symmetry_cell_setting 'monoclinic'
loop_
_space_group_symop_operation_xyz
x,y,z
-x,y,-z
-x,-y,-z
x,-y,z
1/2+x,1/2+y,z
1/2-x,1/2+y,-z
1/2-x,1/2-y,-z
1/2+x,1/2-y,z
loop_
_atom_site_type_symbol
_atom_site_label
_atom_site_fract_x
_atom_site_fract_y
_atom_site_fract_z
Si Si1 0.646384 0.313104 0.500122
Si Si2 0.151690 0.311949 0.732614
Si Si3 0.143919 0.811505 0.832262
Si Si4 0.643202 0.188132 0.069018
Si Si5 0.858501 0.313478 0.594779
Si Si6 0.144934 0.310261 0.168141
O O1 0.646230 0.500000 0.500368
O O2 0.750000 0.250000 0.500000
O O3 0.676314 0.253263 0.441280
O O4 0.501197 0.251947 0.558710
O O5 0.159126 0.500000 0.728321
O O6 0.175446 0.256239 0.774057
O O7 0.253603 0.239430 0.665224
O O8 0.003004 0.263514 0.771686
O O9 0.249458 0.757431 0.832340
O O10 0.999980 0.754044 0.892887
O O11 0.144771 0.000000 0.829911
O O12 0.673929 0.237172 0.108669
O O13 0.638808 0.000000 0.069193
O O14 0.750000 0.250000 0.000000
O O15 0.865505 0.500000 0.589885
O O16 0.146722 0.500000 0.167971
#
# Coordination Sequence:
#
# PCOD9186775 Si02
#       6
#     8   8   8   8   8   8
#     4  11  22  39  60  84 113 148 186 231 281 332
#     4  10  20  37  56  79 110 145 180 222 272 325
#     4  10  19  35  56  79 104 138 180 224 268 321
#     4  10  20  36  54  77 106 140 176 218 268 323
#     4  11  22  38  58  84 114 148 188 231 276 330
#     4   8  18  35  55  75 104 141 177 214 265 323
#
# _framework density 17.773918999999999
#
# number of rings (size 3 to 8) (size 9 to 14) (size 15 to 20)
#    0.000    2.000    0.000    6.500    0.000    2.000 
#    0.000   18.333    0.000    0.000    0.000    0.000 
#    0.000    0.000    0.000    0.000    0.000    0.000 
#
# Total GULP energy -134012.938351 kJ/mol
# GULP energy per Si atom -5583.872431 kJ/mol
# Density = 1.773346 g / cm^3
# Si number density = 17.773919 Si / 1000 Ang^3
#
#
#
# Elastic Constant Matrix: (Units=GPa)
#
#
# Indices 1 2 3 4 5 6 
#
# 1 198.7805 56.8879 99.9342 0.0000 -5.8969 0.0000
# 2 56.8879 121.9758 56.4505 -0.0001 -2.0513 0.0000
# 3 99.9342 56.4505 185.6252 0.0001 -4.0642 0.0001
# 4 0.0000 -0.0001 0.0001 34.9330 0.0000 0.8219
# 5 -5.8969 -2.0513 -4.0642 0.0000 4.5712 0.0000
# 6 0.0000 0.0000 0.0001 0.8219 0.0000 29.6678
#
#
#
# Elastic Compliance Matrix: (Units=1/GPa)
#
#
# Indices 1 2 3 4 5 6 
#
# 1 0.007378 -0.001820 -0.003292 0.000000 0.005774 0.000000
# 2 -0.001820 0.010004 -0.002055 0.000000 0.000314 0.000000
# 3 -0.003292 -0.002055 0.007824 0.000000 0.001787 0.000000
# 4 0.000000 0.000000 0.000000 0.028645 0.000000 -0.000794
# 5 0.005774 0.000314 0.001787 0.000000 0.227939 0.000000
# 6 0.000000 0.000000 0.000000 -0.000794 0.000000 0.033729
#
#
# Mechanical properties :
#
#
# Convention : Reuss Voigt Hill
#
# Bulk Modulus (GPa) = 91.99657 103.65852 97.82755
# Shear Modulus (GPa) = 14.99353 33.37499 24.18426
#
# Velocity S-wave (km/s) = 2.90758 4.33800 3.69271
# Velocity P-wave (km/s) = 7.94630 9.13992 8.56393
#
# Compressibility (1/GPa) = 0.01086997
#
# Stress axis : x y z
#
# Youngs Moduli (GPa) = 135.53953 99.96169 127.81664
#
# Poissons Ratio (x) = 0.18196 0.42078
# Poissons Ratio (y) = 0.24672 0.26272
# Poissons Ratio (z) = 0.44620 0.20546
#
# Static dielectric constant tensor:
#      x y z
#    x 1.594970 0.000000 -0.000560 
#    y 0.000000 1.603320 0.000000 
#    z -0.000560 0.000000 1.575480 
# 
# From -- ./inp_files/374910.got.cif
#   From: 2010.05.17/outbox.cif.g08.bks.cpg/sg12_188_cif.got.tgz:374910.got - 2010.06.03 13:09:07.
