data_PCOD9186082
_publ_section_title
;
Structure prediction by ZEFSAII (Michael W. Deem and Ramdas Pophale) SiO2 
 PCOD9186082
Probable space group: C 2/M
;
_chemical_formula_sum "Si O2"
_cell_formula_units_Z 56
_cell_length_a 20.637834
_cell_length_b 16.532767
_cell_length_c 16.518037
_cell_angle_alpha 90.000000
_cell_angle_beta 152.395846
_cell_angle_gamma 90.000000
_cell_volume 2611.481187
_symmetry_space_group_name_H-M "C 2/M"
_symmetry_group_IT_number 12
_symmetry_cell_setting 'monoclinic'
loop_
_space_group_symop_operation_xyz
x,y,z
-x,y,-z
-x,-y,-z
x,-y,z
1/2+x,1/2+y,z
1/2-x,1/2+y,-z
1/2-x,1/2-y,-z
1/2+x,1/2-y,z
loop_
_atom_site_type_symbol
_atom_site_label
_atom_site_fract_x
_atom_site_fract_y
_atom_site_fract_z
Si Si1 0.691845 0.403218 0.268071
Si Si2 0.865751 0.908575 0.147447
Si Si3 0.044029 0.595699 0.189951
Si Si4 0.367938 0.202791 0.577670
Si Si5 0.254426 0.403019 0.193106
Si Si6 0.117196 0.098831 0.012987
Si Si7 0.356301 0.639792 0.474941
O O1 0.695013 0.500000 0.271433
O O2 0.801724 0.367427 0.450738
O O3 0.540649 0.378323 0.136436
O O4 0.705819 0.376004 0.189928
O O5 0.798042 0.871810 0.152867
O O6 0.848866 0.871042 0.039505
O O7 0.029971 0.913602 0.352204
O O8 0.807890 0.000000 0.077597
O O9 0.040450 0.500000 0.207983
O O10 0.027647 0.658036 0.246330
O O11 0.198929 0.615702 0.328274
O O12 0.912541 0.609312 0.985271
O O13 0.250000 0.250000 0.500000
O O14 0.408625 0.272089 0.560270
O O15 0.279193 0.500000 0.222902
O O16 0.344162 0.368024 0.365486
O O17 0.119780 0.000000 0.012458
#
# Coordination Sequence:
#
# PCOD9186082 Si02
#       7
#     8   8   8   8   8   8   8
#     4   9  16  31  54  81 109 140 185 233 274 319
#     4  10  19  34  59  85 111 145 185 230 276 329
#     4  10  20  37  60  83 111 146 191 236 277 329
#     4  10  21  34  50  81 112 145 183 225 280 335
#     4  10  21  37  59  85 112 147 189 233 281 334
#     4   8  15  28  51  82 107 132 177 232 277 316
#     4  11  21  35  54  85 118 146 183 229 283 341
#
# _framework density 21.443767999999999
#
# number of rings (size 3 to 8) (size 9 to 14) (size 15 to 20)
#    0.000    2.286    0.000    5.143    0.000    3.429 
#   12.857    0.714    3.143    0.000    0.000    5.000 
#    0.000    0.000    0.000    0.000    0.000    0.000 
#
# Total GULP energy -156033.191644 kJ/mol
# GULP energy per Si atom -5572.613987 kJ/mol
# Density = 2.139496 g / cm^3
# Si number density = 21.443768 Si / 1000 Ang^3
#
#
#
# Elastic Constant Matrix: (Units=GPa)
#
#
# Indices 1 2 3 4 5 6 
#
# 1 106.0045 13.2415 30.1250 0.0000 -34.3471 0.0000
# 2 13.2415 39.6654 18.2706 0.0000 -13.7882 0.0000
# 3 30.1250 18.2706 69.7917 0.0000 -27.2058 -0.0001
# 4 0.0000 0.0000 0.0000 -8.5752 -0.0001 -3.0945
# 5 -34.3471 -13.7882 -27.2058 -0.0001 42.0525 -0.0001
# 6 0.0000 0.0000 -0.0001 -3.0945 -0.0001 16.5489
#
#
#
# Elastic Compliance Matrix: (Units=1/GPa)
#
#
# Indices 1 2 3 4 5 6 
#
# 1 0.013030 -0.000219 -0.001934 0.000000 0.009319 0.000000
# 2 -0.000219 0.029882 -0.005320 0.000000 0.006177 0.000000
# 3 -0.001934 -0.005320 0.020406 0.000000 0.009878 0.000000
# 4 0.000000 0.000000 0.000000 -0.109243 0.000000 -0.020428
# 5 0.009319 0.006177 0.009878 0.000000 0.039807 0.000000
# 6 0.000000 0.000000 0.000000 -0.020428 0.000000 0.056607
#
#
# Mechanical properties :
#
#
# Convention : Reuss Voigt Hill
#
# Bulk Modulus (GPa) = 20.67355 37.63730 29.15542
# Shear Modulus (GPa) = 61.30391 20.26022 40.78206
#
# Velocity S-wave (km/s) = 5.35260 3.07711 4.36571
# Velocity P-wave (km/s) = 6.91825 5.49677 6.24806
#
# Compressibility (1/GPa) = 0.04837099
#
# Stress axis : x y z
#
# Youngs Moduli (GPa) = 76.74440 33.46523 49.00407
#
# Poissons Ratio (x) = 0.00734 0.09478
# Poissons Ratio (y) = 0.01684 0.26071
# Poissons Ratio (z) = 0.14843 0.17804
#
# Static dielectric constant tensor:
#      x y z
#    x 1.857020 0.000000 -0.013400 
#    y 0.000000 1.833790 0.000000 
#    z -0.013400 0.000000 1.764130 
# 
# From -- ./inp_files/234695.got.cif
#   From: 2010.05.17/outbox.cif.g08.bks.cpg/sg12_118_cif.got.tgz:234695.got - 2010.06.03 13:09:07.
