data_PCOD9186477
_publ_section_title
;
Structure prediction by ZEFSAII (Michael W. Deem and Ramdas Pophale) SiO2 
 PCOD9186477
Probable space group: C 2/M
;
_chemical_formula_sum "Si O2"
_cell_formula_units_Z 44
_cell_length_a 28.517329
_cell_length_b 7.222847
_cell_length_c 9.956733
_cell_angle_alpha 90.000000
_cell_angle_beta 57.977577
_cell_angle_gamma 90.000000
_cell_volume 1738.794889
_symmetry_space_group_name_H-M "C 2/M"
_symmetry_group_IT_number 12
_symmetry_cell_setting 'monoclinic'
loop_
_space_group_symop_operation_xyz
x,y,z
-x,y,-z
-x,-y,-z
x,-y,z
1/2+x,1/2+y,z
1/2-x,1/2+y,-z
1/2-x,1/2-y,-z
1/2+x,1/2-y,z
loop_
_atom_site_type_symbol
_atom_site_label
_atom_site_fract_x
_atom_site_fract_y
_atom_site_fract_z
Si Si1 0.855929 0.225138 0.527816
Si Si2 0.250000 0.250000 0.500000
Si Si3 0.185213 0.781704 0.118777
Si Si4 0.952046 0.774797 0.975425
Si Si5 0.833010 0.225817 0.150765
Si Si6 0.982270 0.774729 0.378307
O O1 0.810942 0.279289 0.483618
O O2 0.835470 0.288257 0.706819
O O3 0.920616 0.280462 0.423815
O O4 0.855102 0.000000 0.522012
O O5 0.220567 0.291953 0.689438
O O6 0.172941 0.000000 0.140753
O O7 0.250000 0.750000 0.000000
O O8 0.162113 0.716171 0.011542
O O9 0.970902 0.719205 0.798621
O O10 0.950737 0.000000 0.977436
O O11 0.892170 0.719232 0.117953
O O12 0.000000 0.714124 0.000000
O O13 0.827181 0.000000 0.168594
O O14 0.000000 0.714885 0.500000
O O15 0.981033 0.000000 0.382502
#
# Coordination Sequence:
#
# PCOD9186477 Si02
#       6
#     8   4   8   8   8   8
#     4  10  20  32  49  74 106 138 171 214 260 313
#     4  12  20  30  46  68 108 136 174 206 252 312
#     4  10  19  35  52  72 104 139 176 214 256 310
#     4   9  16  27  43  65  96 130 162 198 256 321
#     4  10  20  32  48  70 101 138 171 213 260 310
#     4   9  16  28  47  70  95 128 165 205 260 320
#
# _framework density 25.304881000000002
#
# number of rings (size 3 to 8) (size 9 to 14) (size 15 to 20)
#    0.000    2.182    1.818    2.727    0.000    7.273 
#    0.000    0.000    0.000    0.000    0.000    0.000 
#    0.000   65.455    0.000    0.000    0.000    0.000 
#
# Total GULP energy -122471.271640 kJ/mol
# GULP energy per Si atom -5566.875984 kJ/mol
# Density = 2.524729 g / cm^3
# Si number density = 25.304881 Si / 1000 Ang^3
#
#
#
# Elastic Constant Matrix: (Units=GPa)
#
#
# Indices 1 2 3 4 5 6 
#
# 1 182.7613 -3.1590 58.7245 0.0000 -19.6566 0.0000
# 2 -3.1590 115.6583 -1.5113 0.0000 2.9182 0.0000
# 3 58.7245 -1.5113 148.7986 0.0000 -16.2500 0.0000
# 4 0.0000 0.0000 0.0000 -33.0536 0.0000 -8.7274
# 5 -19.6566 2.9182 -16.2500 0.0000 53.6438 0.0000
# 6 0.0000 0.0000 0.0000 -8.7274 0.0000 -8.1876
#
#
#
# Elastic Compliance Matrix: (Units=1/GPa)
#
#
# Indices 1 2 3 4 5 6 
#
# 1 0.006403 0.000103 -0.002348 0.000000 0.001629 0.000000
# 2 0.000103 0.008660 0.000000 0.000000 -0.000433 0.000000
# 3 -0.002348 0.000000 0.007812 0.000000 0.001506 0.000000
# 4 0.000000 0.000000 0.000000 -0.042104 0.000000 0.044880
# 5 0.001629 -0.000433 0.001506 0.000000 0.019718 0.000000
# 6 0.000000 0.000000 0.000000 0.044880 0.000000 -0.169974
#
#
# Mechanical properties :
#
#
# Convention : Reuss Voigt Hill
#
# Bulk Modulus (GPa) = 54.39325 61.70296 58.04811
# Shear Modulus (GPa) = -31.47297 28.69145 -1.39076
#
# Velocity S-wave (km/s) = -3.53051 3.37089 -0.74215
# Velocity P-wave (km/s) = 2.21867 6.29185 4.71751
#
# Compressibility (1/GPa) = 0.01838463
#
# Stress axis : x y z
#
# Youngs Moduli (GPa) = 156.17390 115.47473 128.01433
#
# Poissons Ratio (x) = -0.01191 0.30058
# Poissons Ratio (y) = -0.01610 0.00001
# Poissons Ratio (z) = 0.36670 0.00001
#
# Static dielectric constant tensor:
#      x y z
#    x 1.973340 0.000000 0.048980 
#    y 0.000000 2.142360 0.000000 
#    z 0.048980 0.000000 1.994270 
# 
# From -- ./inp_files/94208.got.cif
#   From: 2010.05.17/outbox.cif.g08.bks.cpg/sg12_48_cif.got.tgz:94208.got - 2010.06.03 13:09:07.
