data_PCOD9186526
_publ_section_title
;
Structure prediction by ZEFSAII (Michael W. Deem and Ramdas Pophale) SiO2 
 PCOD9186526
Probable space group: C 2/M
;
_chemical_formula_sum "Si O2"
_cell_formula_units_Z 64
_cell_length_a 19.477562
_cell_length_b 13.933704
_cell_length_c 13.973779
_cell_angle_alpha 90.000000
_cell_angle_beta 126.969407
_cell_angle_gamma 90.000000
_cell_volume 3029.969857
_symmetry_space_group_name_H-M "C 2/M"
_symmetry_group_IT_number 12
_symmetry_cell_setting 'monoclinic'
loop_
_space_group_symop_operation_xyz
x,y,z
-x,y,-z
-x,-y,-z
x,-y,z
1/2+x,1/2+y,z
1/2-x,1/2+y,-z
1/2-x,1/2-y,-z
1/2+x,1/2-y,z
loop_
_atom_site_type_symbol
_atom_site_label
_atom_site_fract_x
_atom_site_fract_y
_atom_site_fract_z
Si Si1 0.407358 0.614070 0.448342
Si Si2 0.428121 0.888821 0.602408
Si Si3 0.238399 0.708444 0.596409
Si Si4 0.387547 0.107524 0.985372
Si Si5 0.818203 0.888899 0.173019
Si Si6 0.894103 0.890195 0.658356
Si Si7 0.163395 0.391451 0.265383
Si Si8 0.547286 0.752619 0.802972
O O1 0.500000 0.657497 0.500000
O O2 0.417722 0.500000 0.461979
O O3 0.349666 0.629512 0.307476
O O4 0.379270 0.636648 0.533237
O O5 0.356269 0.837725 0.474578
O O6 0.384508 0.889425 0.672722
O O7 0.513092 0.825024 0.690911
O O8 0.443218 0.000000 0.588513
O O9 0.250000 0.750000 0.500000
O O10 0.309624 0.624318 0.651378
O O11 0.276894 0.796909 0.688965
O O12 0.284596 0.117160 0.917599
O O13 0.396343 0.114031 0.878108
O O14 0.413996 0.000000 0.037363
O O15 0.433262 0.185494 0.087595
O O16 0.870559 0.811365 0.155980
O O17 0.841982 0.000000 0.169131
O O18 0.968601 0.819759 0.753908
O O19 0.921833 0.000000 0.684045
O O20 0.205066 0.500000 0.295249
#
# Coordination Sequence:
#
# PCOD9186526 Si02
#       8
#     8   8   8   8   8   8   8   8
#     4   9  17  30  52  85 115 137 169 228 293 336
#     4  10  21  36  56  85 118 148 185 229 279 340
#     4  10  19  35  53  87 117 151 179 217 288 350
#     4  10  23  39  59  83 111 149 193 242 286 327
#     4  10  21  37  58  87 115 144 187 237 289 338
#     4  11  21  34  56  84 118 150 184 231 284 337
#     4   9  19  37  59  87 116 143 183 236 283 331
#     4  12  21  36  54  83 116 152 193 230 283 332
#
# _framework density 21.122322
#
# number of rings (size 3 to 8) (size 9 to 14) (size 15 to 20)
#    0.000    1.875    3.750    1.500    3.500    1.000 
#    0.000    1.875    0.000    3.750    0.000   20.125 
#    0.000    0.000    0.000    0.000    0.000    0.000 
#
# Total GULP energy -178567.576070 kJ/mol
# GULP energy per Si atom -5580.236752 kJ/mol
# Density = 2.107425 g / cm^3
# Si number density = 21.122322 Si / 1000 Ang^3
#
#
#
# Elastic Constant Matrix: (Units=GPa)
#
#
# Indices 1 2 3 4 5 6 
#
# 1 47.5121 17.2790 5.1722 0.0000 -1.0973 0.0000
# 2 17.2790 139.6785 55.3769 0.0000 -1.4744 0.0000
# 3 5.1722 55.3769 88.7365 0.0000 -0.7634 0.0000
# 4 0.0000 0.0000 0.0000 45.1558 0.0000 0.2393
# 5 -1.0973 -1.4744 -0.7634 0.0000 18.9133 0.0000
# 6 0.0000 0.0000 0.0000 0.2393 0.0000 23.0220
#
#
#
# Elastic Compliance Matrix: (Units=1/GPa)
#
#
# Indices 1 2 3 4 5 6 
#
# 1 0.022081 -0.002941 0.000558 0.000000 0.001074 0.000000
# 2 -0.002941 0.009910 -0.006010 0.000000 0.000359 0.000000
# 3 0.000558 -0.006010 0.014989 0.000000 0.000169 0.000000
# 4 0.000000 0.000000 0.000000 0.022147 0.000000 -0.000230
# 5 0.001074 0.000359 0.000169 0.000000 0.052970 0.000000
# 6 0.000000 0.000000 0.000000 -0.000230 0.000000 0.043439
#
#
# Mechanical properties :
#
#
# Convention : Reuss Voigt Hill
#
# Bulk Modulus (GPa) = 33.12043 47.95369 40.53706
# Shear Modulus (GPa) = 25.98946 30.62482 28.30714
#
# Velocity S-wave (km/s) = 3.51155 3.81186 3.66478
# Velocity P-wave (km/s) = 5.67059 6.49044 6.09432
#
# Compressibility (1/GPa) = 0.03019284
#
# Stress axis : x y z
#
# Youngs Moduli (GPa) = 45.28772 100.91316 66.71732
#
# Poissons Ratio (x) = 0.29682 -0.03721
# Poissons Ratio (y) = 0.13321 0.40094
# Poissons Ratio (z) = -0.02526 0.60645
#
# Static dielectric constant tensor:
#      x y z
#    x 1.863630 0.000000 0.066980 
#    y 0.000000 1.785680 0.000000 
#    z 0.066980 0.000000 1.776880 
# 
# From -- ./inp_files/240711.got.cif
#   From: 2010.05.17/outbox.cif.g08.bks.cpg/sg12_121_cif.got.tgz:240711.got - 2010.06.03 13:09:07.
