data_PCOD9186372
_publ_section_title
;
Structure prediction by ZEFSAII (Michael W. Deem and Ramdas Pophale) SiO2 
 PCOD9186372
Probable space group: C 2/M
;
_chemical_formula_sum "Si O2"
_cell_formula_units_Z 48
_cell_length_a 20.702153
_cell_length_b 8.052747
_cell_length_c 17.605974
_cell_angle_alpha 90.000000
_cell_angle_beta 55.465562
_cell_angle_gamma 90.000000
_cell_volume 2417.874860
_symmetry_space_group_name_H-M "C 2/M"
_symmetry_group_IT_number 12
_symmetry_cell_setting 'monoclinic'
loop_
_space_group_symop_operation_xyz
x,y,z
-x,y,-z
-x,-y,-z
x,-y,z
1/2+x,1/2+y,z
1/2-x,1/2+y,-z
1/2-x,1/2-y,-z
1/2+x,1/2-y,z
loop_
_atom_site_type_symbol
_atom_site_label
_atom_site_fract_x
_atom_site_fract_y
_atom_site_fract_z
Si Si1 0.412012 0.307293 0.061215
Si Si2 0.294545 0.700653 0.546394
Si Si3 0.618487 0.298030 0.236232
Si Si4 0.260832 0.198450 0.251237
Si Si5 0.838529 0.306548 0.956090
Si Si6 0.972690 0.797535 0.435026
O O1 0.419760 0.500000 0.076963
O O2 0.347265 0.234657 0.161734
O O3 0.500000 0.233355 0.000000
O O4 0.376186 0.289688 0.001033
O O5 0.295508 0.500000 0.549412
O O6 0.250000 0.750000 0.500000
O O7 0.256949 0.760389 0.651420
O O8 0.384423 0.759304 0.480400
O O9 0.621686 0.500000 0.229206
O O10 0.694071 0.242658 0.235826
O O11 0.619427 0.226042 0.151514
O O12 0.539032 0.247840 0.331532
O O13 0.251516 0.000000 0.259801
O O14 0.839063 0.500000 0.976206
O O15 0.750000 0.250000 0.000000
O O16 0.000000 0.744787 0.500000
O O17 0.971765 0.000000 0.435339
#
# Coordination Sequence:
#
# PCOD9186372 Si02
#       6
#     8   8   8   8   8   8
#     4  11  25  43  63  88 120 158 202 249 301 362
#     4  10  21  37  58  87 121 158 197 240 293 352
#     4  10  19  34  61  92 118 151 200 250 294 347
#     4  10  20  36  61  88 117 157 200 245 300 357
#     4  12  24  39  61  89 121 156 198 247 299 355
#     4   9  16  32  59  86 111 147 197 241 280 337
#
# _framework density 19.852143000000002
#
# number of rings (size 3 to 8) (size 9 to 14) (size 15 to 20)
#    0.000    1.667    3.333    2.000    0.000    3.333 
#    0.000    5.833    0.000    1.000    0.000    0.000 
#    0.000    0.000    0.000    0.000    0.000    0.000 
#
# Total GULP energy -134026.732875 kJ/mol
# GULP energy per Si atom -5584.447203 kJ/mol
# Density = 1.980696 g / cm^3
# Si number density = 19.852143 Si / 1000 Ang^3
#
#
#
# Elastic Constant Matrix: (Units=GPa)
#
#
# Indices 1 2 3 4 5 6 
#
# 1 123.1290 -11.8575 55.6116 0.0000 -20.8859 0.0001
# 2 -11.8575 16.7424 -5.4821 -0.0002 -4.4123 0.0006
# 3 55.6116 -5.4821 155.4779 -0.0001 -17.3264 0.0000
# 4 0.0000 -0.0002 -0.0001 16.6589 0.0000 10.8700
# 5 -20.8859 -4.4123 -17.3264 0.0000 33.9401 0.0000
# 6 0.0001 0.0006 0.0000 10.8700 0.0000 15.9148
#
#
#
# Elastic Compliance Matrix: (Units=1/GPa)
#
#
# Indices 1 2 3 4 5 6 
#
# 1 0.011488 0.008893 -0.003052 0.000001 0.006667 -0.000001
# 2 0.008893 0.070334 0.000984 0.000005 0.015119 -0.000006
# 3 -0.003052 0.000984 0.007807 0.000000 0.002235 0.000000
# 4 0.000001 0.000005 0.000000 0.108288 0.000001 -0.073962
# 5 0.006667 0.015119 0.002235 0.000001 0.036673 -0.000002
# 6 -0.000001 -0.000006 0.000000 -0.073962 -0.000002 0.113351
#
#
# Mechanical properties :
#
#
# Convention : Reuss Voigt Hill
#
# Bulk Modulus (GPa) = 9.68260 41.32148 25.50204
# Shear Modulus (GPa) = 13.56051 30.44125 22.00088
#
# Velocity S-wave (km/s) = 2.61641 3.92011 3.33263
# Velocity P-wave (km/s) = 3.74371 6.43036 5.26141
#
# Compressibility (1/GPa) = 0.10327807
#
# Stress axis : x y z
#
# Youngs Moduli (GPa) = 87.05104 14.21796 128.08500
#
# Poissons Ratio (x) = -0.12645 0.39096
# Poissons Ratio (y) = -0.77418 -0.12600
# Poissons Ratio (z) = 0.26571 -0.01399
#
# Static dielectric constant tensor:
#      x y z
#    x 1.684850 0.000000 -0.050880 
#    y 0.000000 1.719950 0.000000 
#    z -0.050880 0.000000 1.714370 
# 
# From -- ./inp_files/244726.got.cif
#   From: 2010.05.17/outbox.cif.g08.bks.cpg/sg12_123_cif.got.tgz:244726.got - 2010.06.03 13:09:07.
