data_PCOD9186386
_publ_section_title
;
Structure prediction by ZEFSAII (Michael W. Deem and Ramdas Pophale) SiO2 
 PCOD9186386
Probable space group: C 2/M
;
_chemical_formula_sum "Si O2"
_cell_formula_units_Z 44
_cell_length_a 29.565929
_cell_length_b 7.725902
_cell_length_c 14.726217
_cell_angle_alpha 90.000000
_cell_angle_beta 136.376388
_cell_angle_gamma 90.000000
_cell_volume 2320.755278
_symmetry_space_group_name_H-M "C 2/M"
_symmetry_group_IT_number 12
_symmetry_cell_setting 'monoclinic'
loop_
_space_group_symop_operation_xyz
x,y,z
-x,y,-z
-x,-y,-z
x,-y,z
1/2+x,1/2+y,z
1/2-x,1/2+y,-z
1/2-x,1/2-y,-z
1/2+x,1/2-y,z
loop_
_atom_site_type_symbol
_atom_site_label
_atom_site_fract_x
_atom_site_fract_y
_atom_site_fract_z
Si Si1 0.273470 0.707865 0.635791
Si Si2 0.649212 0.196940 0.573008
Si Si3 0.880818 0.500000 0.800493
Si Si4 0.687056 0.698912 0.810488
Si Si5 0.665498 0.699095 0.979938
Si Si6 0.585337 0.000000 0.954542
Si Si7 0.060533 0.500000 0.316951
O O1 0.284266 0.500000 0.660506
O O2 0.250000 0.750000 0.500000
O O3 0.213261 0.761646 0.613408
O O4 0.335337 0.829328 0.743045
O O5 0.640596 0.291436 0.655458
O O6 0.664427 0.000000 0.623553
O O7 0.590469 0.164751 0.416093
O O8 0.911028 0.500000 0.743690
O O9 0.927038 0.500000 0.955430
O O10 0.705565 0.500000 0.853624
O O11 0.656881 0.757648 0.862055
O O12 0.756099 0.790957 0.890681
O O13 0.644161 0.500000 0.960628
O O14 0.627467 0.832124 0.987921
O O15 0.516961 0.000000 0.802020
#
# Coordination Sequence:
#
# PCOD9186386 Si02
#       7
#     8   8   4   8   8   4   4
#     4  11  19  34  59  90 124 143 189 249 307 355
#     4   9  19  34  56  86 120 155 191 242 302 345
#     4  12  23  40  60  92 116 161 200 256 308 343
#     4  10  19  34  61  95 124 148 190 251 313 363
#     4  10  22  39  59  92 124 150 198 254 296 358
#     4  12  25  41  66  79 117 177 212 228 306 365
#     4  10  23  43  56  85 123 163 209 253 277 364
#
# _framework density 18.959343000000001
#
# number of rings (size 3 to 8) (size 9 to 14) (size 15 to 20)
#    0.545    1.091    3.636    1.909    3.818    2.182 
#    0.000    3.636    0.000    4.364    0.000    0.000 
#    0.000    0.000    0.000    0.000    0.000    0.000 
#
# Total GULP energy -122609.846830 kJ/mol
# GULP energy per Si atom -5573.174856 kJ/mol
# Density = 1.891619 g / cm^3
# Si number density = 18.959343 Si / 1000 Ang^3
#
#
#
# Elastic Constant Matrix: (Units=GPa)
#
#
# Indices 1 2 3 4 5 6 
#
# 1 56.9916 20.3435 41.2956 0.0000 -23.6641 0.0000
# 2 20.3435 72.7207 16.2392 0.0000 -0.1197 0.0000
# 3 41.2956 16.2392 86.4271 0.0000 -26.1950 0.0000
# 4 0.0000 0.0000 0.0000 15.3005 0.0000 -10.6711
# 5 -23.6641 -0.1197 -26.1950 0.0000 32.1638 0.0000
# 6 0.0000 0.0000 0.0000 -10.6711 0.0000 10.7136
#
#
#
# Elastic Compliance Matrix: (Units=1/GPa)
#
#
# Indices 1 2 3 4 5 6 
#
# 1 0.034548 -0.007438 -0.009844 0.000000 0.017373 0.000000
# 2 -0.007438 0.016154 -0.001489 0.000000 -0.006625 0.000000
# 3 -0.009844 -0.001489 0.019063 0.000000 0.008277 0.000000
# 4 0.000000 0.000000 0.000000 0.214049 0.000000 0.213199
# 5 0.017373 -0.006625 0.008277 0.000000 0.050589 0.000000
# 6 0.000000 0.000000 0.000000 0.213199 0.000000 0.305691
#
#
# Mechanical properties :
#
#
# Convention : Reuss Voigt Hill
#
# Bulk Modulus (GPa) = 31.03521 41.32179 36.17850
# Shear Modulus (GPa) = 7.26346 20.85299 14.05822
#
# Velocity S-wave (km/s) = 1.95944 3.32004 2.72599
# Velocity P-wave (km/s) = 4.63940 6.04476 5.38810
#
# Compressibility (1/GPa) = 0.03222146
#
# Stress axis : x y z
#
# Youngs Moduli (GPa) = 28.94508 61.90546 52.45899
#
# Poissons Ratio (x) = 0.46045 0.51642
# Poissons Ratio (y) = 0.21529 0.07813
# Poissons Ratio (z) = 0.28494 0.09220
#
# Static dielectric constant tensor:
#      x y z
#    x 1.669740 0.000000 -0.053780 
#    y 0.000000 1.721910 0.000000 
#    z -0.053780 0.000000 1.672980 
# 
# From -- ./inp_files/244490.got.cif
#   From: 2010.05.17/outbox.cif.g08.bks.cpg/sg12_123_cif.got.tgz:244490.got - 2010.06.03 13:09:07.
