data_PCOD9186076
_publ_section_title
;
Structure prediction by ZEFSAII (Michael W. Deem and Ramdas Pophale) SiO2 
 PCOD9186076
Probable space group: C 2/M
;
_chemical_formula_sum "Si O2"
_cell_formula_units_Z 56
_cell_length_a 19.454479
_cell_length_b 7.517380
_cell_length_c 25.743713
_cell_angle_alpha 90.000000
_cell_angle_beta 39.925625
_cell_angle_gamma 90.000000
_cell_volume 2416.306654
_symmetry_space_group_name_H-M "C 2/M"
_symmetry_group_IT_number 12
_symmetry_cell_setting 'monoclinic'
loop_
_space_group_symop_operation_xyz
x,y,z
-x,y,-z
-x,-y,-z
x,-y,z
1/2+x,1/2+y,z
1/2-x,1/2+y,-z
1/2-x,1/2-y,-z
1/2+x,1/2-y,z
loop_
_atom_site_type_symbol
_atom_site_label
_atom_site_fract_x
_atom_site_fract_y
_atom_site_fract_z
Si Si1 0.834276 0.213291 0.497107
Si Si2 0.077542 0.785394 0.345792
Si Si3 0.474867 0.781736 0.181477
Si Si4 0.472377 0.798839 0.070939
Si Si5 0.734666 0.282568 0.348156
Si Si6 0.698236 0.212634 0.085825
Si Si7 0.253911 0.708808 0.164268
O O1 0.750000 0.250000 0.500000
O O2 0.796372 0.276119 0.575883
O O3 0.955219 0.279078 0.416964
O O4 0.841076 0.000000 0.496775
O O5 0.149108 0.725301 0.353864
O O6 0.140153 0.733051 0.257438
O O7 0.075623 0.000000 0.349220
O O8 0.505295 0.716760 0.106003
O O9 0.356107 0.724558 0.265404
O O10 0.574566 0.726873 0.158764
O O11 0.472969 0.000000 0.180866
O O12 0.343665 0.803641 0.146407
O O13 0.515224 0.000000 0.044700
O O14 0.500000 0.711936 0.000000
O O15 0.734469 0.500000 0.347630
O O16 0.756668 0.278790 0.103695
O O17 0.696795 0.000000 0.091870
O O18 0.750000 0.250000 0.000000
O O19 0.279654 0.500000 0.149953
#
# Coordination Sequence:
#
# PCOD9186076 Si02
#       7
#     8   8   8   8   8   8   8
#     4  10  22  37  60  90 117 146 182 231 283 336
#     4  10  20  38  61  85 111 146 195 234 270 329
#     4   9  17  32  56  82 105 141 191 230 265 322
#     4  10  19  34  59  85 109 144 192 238 273 322
#     4   9  17  34  61  85 108 143 191 238 273 320
#     4  10  22  38  56  80 110 148 192 232 281 335
#     4  11  23  36  55  85 119 151 182 228 291 343
#
# _framework density 23.175865999999999
#
# number of rings (size 3 to 8) (size 9 to 14) (size 15 to 20)
#    0.000    2.143    1.429    1.714    2.000    4.857 
#    0.000    1.429    0.000    1.714    0.000    0.000 
#    0.000    0.000    0.000    0.000    0.000    0.000 
#
# Total GULP energy -156450.318357 kJ/mol
# GULP energy per Si atom -5587.511370 kJ/mol
# Density = 2.312312 g / cm^3
# Si number density = 23.175866 Si / 1000 Ang^3
#
#
#
# Elastic Constant Matrix: (Units=GPa)
#
#
# Indices 1 2 3 4 5 6 
#
# 1 123.3274 8.8133 32.9794 -0.0003 -5.4924 0.0005
# 2 8.8133 71.3193 5.4621 -0.0005 -2.5559 -0.0004
# 3 32.9794 5.4621 121.4260 -0.0002 -4.3791 0.0008
# 4 -0.0003 -0.0005 -0.0002 11.8452 0.0002 -1.7449
# 5 -5.4924 -2.5559 -4.3791 0.0002 45.2672 -0.0002
# 6 0.0005 -0.0004 0.0008 -1.7449 -0.0002 14.0364
#
#
#
# Elastic Compliance Matrix: (Units=1/GPa)
#
#
# Indices 1 2 3 4 5 6 
#
# 1 0.008830 -0.000884 -0.002330 0.000000 0.000796 0.000000
# 2 -0.000884 0.014183 -0.000374 0.000001 0.000657 0.000001
# 3 -0.002330 -0.000374 0.008905 0.000000 0.000558 0.000000
# 4 0.000000 0.000001 0.000000 0.085997 0.000000 0.010691
# 5 0.000796 0.000657 0.000558 0.000000 0.022279 0.000000
# 6 0.000000 0.000001 0.000000 0.010691 0.000000 0.072572
#
#
# Mechanical properties :
#
#
# Convention : Reuss Voigt Hill
#
# Bulk Modulus (GPa) = 40.41714 45.62025 43.01869
# Shear Modulus (GPa) = 21.91153 32.15094 27.03124
#
# Velocity S-wave (km/s) = 3.07815 3.72863 3.41890
# Velocity P-wave (km/s) = 5.48730 6.18580 5.84699
#
# Compressibility (1/GPa) = 0.02474198
#
# Stress axis : x y z
#
# Youngs Moduli (GPa) = 113.24823 70.50725 112.29419
#
# Poissons Ratio (x) = 0.06234 0.26162
# Poissons Ratio (y) = 0.10014 0.04201
# Poissons Ratio (z) = 0.26384 0.02638
#
# Static dielectric constant tensor:
#      x y z
#    x 1.853490 0.000000 -0.005160 
#    y 0.000000 1.890840 0.000000 
#    z -0.005160 0.000000 1.872940 
# 
# From -- ./inp_files/230884.got.cif
#   From: 2010.05.17/outbox.cif.g08.bks.cpg/sg12_116_cif.got.tgz:230884.got - 2010.06.03 13:09:07.
