data_PCOD9186193
_publ_section_title
;
Structure prediction by ZEFSAII (Michael W. Deem and Ramdas Pophale) SiO2 
 PCOD9186193
Probable space group: C 2/M
;
_chemical_formula_sum "Si O2"
_cell_formula_units_Z 56
_cell_length_a 18.744256
_cell_length_b 16.576286
_cell_length_c 13.209982
_cell_angle_alpha 90.000000
_cell_angle_beta 44.627582
_cell_angle_gamma 90.000000
_cell_volume 2883.376524
_symmetry_space_group_name_H-M "C 2/M"
_symmetry_group_IT_number 12
_symmetry_cell_setting 'monoclinic'
loop_
_space_group_symop_operation_xyz
x,y,z
-x,y,-z
-x,-y,-z
x,-y,z
1/2+x,1/2+y,z
1/2-x,1/2+y,-z
1/2-x,1/2-y,-z
1/2+x,1/2-y,z
loop_
_atom_site_type_symbol
_atom_site_label
_atom_site_fract_x
_atom_site_fract_y
_atom_site_fract_z
Si Si1 0.791739 0.255853 0.124358
Si Si2 0.976686 0.408731 0.405324
Si Si3 0.381420 0.905722 0.144974
Si Si4 0.222715 0.322294 0.382805
Si Si5 0.761148 0.908785 0.532109
Si Si6 0.571437 0.331551 0.526151
Si Si7 0.912669 0.742692 0.801702
O O1 0.813696 0.342988 0.150951
O O2 0.792017 0.189837 0.214351
O O3 0.684226 0.250276 0.175104
O O4 0.875264 0.247515 0.953075
O O5 0.004435 0.500000 0.349488
O O6 0.856100 0.395840 0.527595
O O7 0.000000 0.393960 0.500000
O O8 0.034321 0.342862 0.279120
O O9 0.343928 0.894644 0.299312
O O10 0.362923 0.000000 0.139547
O O11 0.500000 0.889648 0.000000
O O12 0.279689 0.338286 0.430698
O O13 0.146662 0.246183 0.446310
O O14 0.852062 0.901854 0.522018
O O15 0.762636 0.000000 0.491504
O O16 0.500000 0.339668 0.500000
O O17 0.492415 0.311435 0.693982
#
# Coordination Sequence:
#
# PCOD9186193 Si02
#       7
#     8   8   8   8   8   8   8
#     4  11  21  37  60  85 125 159 199 255 305 369
#     4  10  19  34  59  90 125 164 204 256 314 365
#     4  10  23  39  55  85 122 156 196 249 316 372
#     4  11  20  37  59  89 120 159 203 255 308 365
#     4  11  24  39  61  89 122 164 204 252 311 373
#     4  11  20  39  64  88 118 157 208 258 298 364
#     4  10  21  36  58  92 119 161 209 248 307 362
#
# _framework density 19.421675
#
# number of rings (size 3 to 8) (size 9 to 14) (size 15 to 20)
#    0.000    1.429    4.286    1.714    4.000    0.857 
#    0.000    0.714    0.000    3.429    0.000    0.000 
#    0.000    0.000    0.000    0.000    0.000    0.000 
#
# Total GULP energy -156034.547193 kJ/mol
# GULP energy per Si atom -5572.662400 kJ/mol
# Density = 1.937747 g / cm^3
# Si number density = 19.421675 Si / 1000 Ang^3
#
#
#
# Elastic Constant Matrix: (Units=GPa)
#
#
# Indices 1 2 3 4 5 6 
#
# 1 86.4565 40.9943 33.8124 0.0000 9.1645 0.0000
# 2 40.9943 78.6627 51.6792 0.0000 2.2912 0.0000
# 3 33.8124 51.6792 160.1804 0.0000 7.7882 0.0000
# 4 0.0000 0.0000 0.0000 18.6692 0.0000 1.6034
# 5 9.1645 2.2912 7.7882 0.0000 24.5615 0.0000
# 6 0.0000 0.0000 0.0000 1.6034 0.0000 30.0008
#
#
#
# Elastic Compliance Matrix: (Units=1/GPa)
#
#
# Indices 1 2 3 4 5 6 
#
# 1 0.016048 -0.007807 -0.000623 0.000000 -0.005062 0.000000
# 2 -0.007807 0.019930 -0.004909 0.000000 0.002610 0.000000
# 3 -0.000623 -0.004909 0.008049 0.000000 -0.001862 0.000000
# 4 0.000000 0.000000 0.000000 0.053811 0.000000 -0.002876
# 5 -0.005062 0.002610 -0.001862 0.000000 0.042950 0.000000
# 6 0.000000 0.000000 0.000000 -0.002876 0.000000 0.033486
#
#
# Mechanical properties :
#
#
# Convention : Reuss Voigt Hill
#
# Bulk Modulus (GPa) = 57.63739 64.25239 60.94489
# Shear Modulus (GPa) = 24.18557 27.90055 26.04306
#
# Velocity S-wave (km/s) = 3.53269 3.79432 3.66584
# Velocity P-wave (km/s) = 6.81037 7.23536 7.02608
#
# Compressibility (1/GPa) = 0.01734985
#
# Stress axis : x y z
#
# Youngs Moduli (GPa) = 62.31148 50.17549 124.24284
#
# Poissons Ratio (x) = 0.39171 0.07737
# Poissons Ratio (y) = 0.48646 0.60991
# Poissons Ratio (z) = 0.03881 0.24631
#
# Static dielectric constant tensor:
#      x y z
#    x 1.869350 0.000000 0.048950 
#    y 0.000000 1.673120 0.000000 
#    z 0.048950 0.000000 1.727770 
# 
# From -- ./inp_files/158202.got.cif
#   From: 2010.05.17/outbox.cif.g08.bks.cpg/sg12_80_cif.got.tgz:158202.got - 2010.06.03 13:09:07.
