data_PCOD9186880
_publ_section_title
;
Structure prediction by ZEFSAII (Michael W. Deem and Ramdas Pophale) SiO2 
 PCOD9186880
Probable space group: C 2/M
;
_chemical_formula_sum "Si O2"
_cell_formula_units_Z 58
_cell_length_a 20.636442
_cell_length_b 17.640337
_cell_length_c 20.845427
_cell_angle_alpha 90.000000
_cell_angle_beta 19.957050
_cell_angle_gamma 90.000000
_cell_volume 2590.053164
_symmetry_space_group_name_H-M "C 2/M"
_symmetry_group_IT_number 12
_symmetry_cell_setting 'monoclinic'
loop_
_space_group_symop_operation_xyz
x,y,z
-x,y,-z
-x,-y,-z
x,-y,z
1/2+x,1/2+y,z
1/2-x,1/2+y,-z
1/2-x,1/2-y,-z
1/2+x,1/2-y,z
loop_
_atom_site_type_symbol
_atom_site_label
_atom_site_fract_x
_atom_site_fract_y
_atom_site_fract_z
Si Si1 0.209016 0.820956 0.441698
Si Si2 0.298316 0.128843 0.223175
Si Si3 0.830883 0.085716 0.391110
Si Si4 0.521762 0.914954 0.361140
Si Si5 0.500000 0.500000 0.500000
Si Si6 0.256903 0.876180 0.969883
Si Si7 0.097868 0.724273 0.065031
Si Si8 0.836077 0.256017 0.730685
O O1 0.284739 0.875617 0.313605
O O2 0.196887 0.860804 0.521676
O O3 0.381380 0.761278 0.285222
O O4 0.008585 0.784858 0.608438
O O5 0.150018 0.066532 0.336806
O O6 0.208607 0.212519 0.293196
O O7 0.500000 0.116552 0.000000
O O8 0.695890 0.101620 0.455747
O O9 0.051262 0.088529 0.167785
O O10 0.783133 0.000000 0.455910
O O11 0.615317 0.845347 0.313485
O O12 0.540424 0.000000 0.371466
O O13 0.619029 0.915164 0.199827
O O14 0.228268 0.791809 0.969030
O O15 0.346709 0.856398 0.955235
O O16 0.144343 0.733279 0.947633
#
# Coordination Sequence:
#
# PCOD9186880 Si02
#       8
#     8   8   8   8   2   8   8   8
#     4  12  22  38  61  89 122 161 214 256 305 375
#     4  12  26  45  68  93 124 168 214 263 314 377
#     4  11  23  35  56  89 131 169 202 253 318 376
#     4  10  22  39  62  95 129 166 211 262 319 377
#     4  12  26  48  68  94 126 164 210 256 324 372
#     4  10  19  35  56  88 125 160 204 248 313 376
#     4  10  20  33  59  89 116 161 208 254 303 375
#     4  11  22  41  65  89 124 170 215 262 316 373
#
# _framework density 22.393363000000001
#
# number of rings (size 3 to 8) (size 9 to 14) (size 15 to 20)
#    0.000    1.103    5.517    1.448    0.966    1.103 
#    0.000    0.000    0.000    2.069    0.000    0.000 
#    0.000    0.000    0.000    0.000    0.000    0.000 
#
# Total GULP energy -161486.498246 kJ/mol
# GULP energy per Si atom -5568.499940 kJ/mol
# Density = 2.234239 g / cm^3
# Si number density = 22.393363 Si / 1000 Ang^3
#
#
#
# Elastic Constant Matrix: (Units=GPa)
#
#
# Indices 1 2 3 4 5 6 
#
# 1 37.1695 17.3502 -0.4609 0.0038 -3.2400 -0.0113
# 2 17.3502 102.5052 33.3245 0.0031 -6.5762 -0.0131
# 3 -0.4609 33.3245 114.3897 -0.0285 -16.5234 0.0046
# 4 0.0038 0.0031 -0.0285 36.8797 0.0048 -6.0386
# 5 -3.2400 -6.5762 -16.5234 0.0048 28.3813 0.0176
# 6 -0.0113 -0.0131 0.0046 -6.0386 0.0176 0.1867
#
#
#
# Elastic Compliance Matrix: (Units=1/GPa)
#
#
# Indices 1 2 3 4 5 6 
#
# 1 0.029822 -0.005554 0.002232 -0.000039 0.003417 -0.000233
# 2 -0.005554 0.011824 -0.003453 -0.000021 0.000095 -0.000109
# 3 0.002232 -0.003453 0.010567 0.000032 0.005606 0.000152
# 4 -0.000039 -0.000021 0.000032 -0.006310 0.000137 -0.204135
# 5 0.003417 0.000095 0.005606 0.000137 0.038910 0.000845
# 6 -0.000233 -0.000109 0.000152 -0.204135 0.000845 -1.246710
#
#
# Mechanical properties :
#
#
# Convention : Reuss Voigt Hill
#
# Bulk Modulus (GPa) = 25.86526 39.38800 32.62663
# Shear Modulus (GPa) = -4.40351 26.67958 11.13804
#
# Velocity S-wave (km/s) = -1.40382 3.45542 2.23262
# Velocity P-wave (km/s) = 2.99130 5.79200 4.60951
#
# Compressibility (1/GPa) = 0.03866190
#
# Stress axis : x y z
#
# Youngs Moduli (GPa) = 33.53251 84.57032 94.63489
#
# Poissons Ratio (x) = 0.46971 -0.21120
# Poissons Ratio (y) = 0.18624 0.32681
# Poissons Ratio (z) = -0.07484 0.29205
#
# Static dielectric constant tensor:
#      x y z
#    x 1.972130 0.000000 0.010750 
#    y 0.000000 1.854550 0.000030 
#    z 0.010750 0.000030 1.852230 
# 
# From -- ./inp_files/322949.got.cif
#   From: 2010.05.17/outbox.cif.g08.bks.cpg/sg12_162_cif.got.tgz:322949.got - 2010.06.03 13:09:07.
