data_PCOD9186831
_publ_section_title
;
Structure prediction by ZEFSAII (Michael W. Deem and Ramdas Pophale) SiO2 
 PCOD9186831
Probable space group: C 2/M
;
_chemical_formula_sum "Si O2"
_cell_formula_units_Z 64
_cell_length_a 21.088486
_cell_length_b 27.803268
_cell_length_c 11.981331
_cell_angle_alpha 90.000000
_cell_angle_beta 156.600501
_cell_angle_gamma 90.000000
_cell_volume 2789.907462
_symmetry_space_group_name_H-M "C 2/M"
_symmetry_group_IT_number 12
_symmetry_cell_setting 'monoclinic'
loop_
_space_group_symop_operation_xyz
x,y,z
-x,y,-z
-x,-y,-z
x,-y,z
1/2+x,1/2+y,z
1/2-x,1/2+y,-z
1/2-x,1/2-y,-z
1/2+x,1/2-y,z
loop_
_atom_site_type_symbol
_atom_site_label
_atom_site_fract_x
_atom_site_fract_y
_atom_site_fract_z
Si Si1 0.622897 0.946555 0.068704
Si Si2 0.831681 0.056346 0.186432
Si Si3 0.717024 0.370751 0.289361
Si Si4 0.383709 0.553694 0.685450
Si Si5 0.749500 0.554558 0.186299
Si Si6 0.254370 0.302864 0.855321
Si Si7 0.094893 0.297208 0.823754
Si Si8 0.483447 0.845444 0.850623
O O1 0.709927 0.943066 0.090902
O O2 0.762203 0.941736 0.386447
O O3 0.550578 0.000000 0.961096
O O4 0.503141 0.902932 0.890023
O O5 0.753787 0.072784 0.945229
O O6 0.000000 0.078098 0.500000
O O7 0.869016 0.000000 0.218562
O O8 0.643676 0.405456 0.266669
O O9 0.651684 0.338444 0.079493
O O10 0.812442 0.334333 0.522027
O O11 0.828304 0.407511 0.396870
O O12 0.359806 0.500000 0.695755
O O13 0.563386 0.555428 0.926259
O O14 0.810968 0.500000 0.294144
O O15 0.202859 0.318219 0.897841
O O16 0.083865 0.293700 0.517476
O O17 0.348983 0.254481 0.039136
O O18 0.103052 0.329289 0.947807
O O19 0.500000 0.824707 0.000000
#
# Coordination Sequence:
#
# PCOD9186831 Si02
#       8
#     8   8   8   8   8   8   8   8
#     4  10  20  34  56  83 114 160 208 242 276 340
#     4   9  16  31  52  76 107 146 199 252 294 328
#     4  11  22  36  56  87 119 153 197 239 291 349
#     4  10  19  35  56  81 120 166 205 243 286 339
#     4  10  20  34  54  82 121 161 198 248 299 340
#     4   9  20  42  68  91 116 152 192 244 300 366
#     4   9  20  43  69  89 117 151 193 241 306 368
#     4  11  23  40  59  85 119 156 194 240 292 347
#
# _framework density 22.939827999999999
#
# number of rings (size 3 to 8) (size 9 to 14) (size 15 to 20)
#    0.000    2.125    2.500    0.750    1.750    2.250 
#    2.250    3.750    0.000    2.250    0.000    0.000 
#    0.000    0.000    0.000    0.000    0.000    0.000 
#
# Total GULP energy -178309.388779 kJ/mol
# GULP energy per Si atom -5572.168399 kJ/mol
# Density = 2.288762 g / cm^3
# Si number density = 22.939828 Si / 1000 Ang^3
#
#
#
# Elastic Constant Matrix: (Units=GPa)
#
#
# Indices 1 2 3 4 5 6 
#
# 1 174.1201 47.6831 28.8662 0.0000 -46.7322 0.0000
# 2 47.6831 87.2056 1.3969 0.0000 -11.6886 0.0000
# 3 28.8662 1.3969 46.8159 0.0000 -27.9262 0.0000
# 4 0.0000 0.0000 0.0000 21.0193 0.0000 -8.3391
# 5 -46.7322 -11.6886 -27.9262 0.0000 44.0683 0.0000
# 6 0.0000 0.0000 0.0000 -8.3391 0.0000 39.7909
#
#
#
# Elastic Compliance Matrix: (Units=1/GPa)
#
#
# Indices 1 2 3 4 5 6 
#
# 1 0.009120 -0.003867 -0.000564 0.000000 0.008289 0.000000
# 2 -0.003867 0.013707 0.002730 0.000000 0.001265 0.000000
# 3 -0.000564 0.002730 0.034891 0.000000 0.022237 0.000000
# 4 0.000000 0.000000 0.000000 0.051890 0.000000 0.010875
# 5 0.008289 0.001265 0.022237 0.000000 0.045909 0.000000
# 6 0.000000 0.000000 0.000000 0.010875 0.000000 0.027410
#
#
# Mechanical properties :
#
#
# Convention : Reuss Voigt Hill
#
# Bulk Modulus (GPa) = 18.41050 51.55933 34.98492
# Shear Modulus (GPa) = 24.45778 36.32206 30.38992
#
# Velocity S-wave (km/s) = 3.26877 3.98347 3.64368
# Velocity P-wave (km/s) = 4.72117 6.60924 5.74332
#
# Compressibility (1/GPa) = 0.05431683
#
# Stress axis : x y z
#
# Youngs Moduli (GPa) = 109.64751 72.95366 28.66085
#
# Poissons Ratio (x) = 0.28210 0.01616
# Poissons Ratio (y) = 0.42399 -0.07824
# Poissons Ratio (z) = 0.06182 -0.19916
#
# Static dielectric constant tensor:
#      x y z
#    x 1.884430 0.000000 0.028510 
#    y 0.000000 1.906920 0.000000 
#    z 0.028510 0.000000 1.992360 
# 
# From -- ./inp_files/170620.got.cif
#   From: 2010.05.17/outbox.cif.g08.bks.cpg/sg12_86_cif.got.tgz:170620.got - 2010.06.03 13:09:07.
