data_PCOD9186175
_publ_section_title
;
Structure prediction by ZEFSAII (Michael W. Deem and Ramdas Pophale) SiO2 
 PCOD9186175
Probable space group: C 2/M
;
_chemical_formula_sum "Si O2"
_cell_formula_units_Z 64
_cell_length_a 29.534939
_cell_length_b 9.225226
_cell_length_c 16.541036
_cell_angle_alpha 90.000000
_cell_angle_beta 135.587562
_cell_angle_gamma 90.000000
_cell_volume 3153.996243
_symmetry_space_group_name_H-M "C 2/M"
_symmetry_group_IT_number 12
_symmetry_cell_setting 'monoclinic'
loop_
_space_group_symop_operation_xyz
x,y,z
-x,y,-z
-x,-y,-z
x,-y,z
1/2+x,1/2+y,z
1/2-x,1/2+y,-z
1/2-x,1/2-y,-z
1/2+x,1/2-y,z
loop_
_atom_site_type_symbol
_atom_site_label
_atom_site_fract_x
_atom_site_fract_y
_atom_site_fract_z
Si Si1 0.530249 0.831533 0.371960
Si Si2 0.683339 0.332754 0.013338
Si Si3 0.599502 0.330386 0.597669
Si Si4 0.064618 0.164187 0.987212
Si Si5 0.744631 0.330685 0.757168
Si Si6 0.358701 0.171809 0.783018
Si Si7 0.118303 0.668543 0.790390
Si Si8 0.575461 0.670442 0.272700
O O1 0.547554 0.752872 0.477680
O O2 0.453082 0.824441 0.260313
O O3 0.566661 0.750955 0.346195
O O4 0.548595 0.000000 0.399904
O O5 0.697306 0.500000 0.011770
O O6 0.617146 0.328733 0.982215
O O7 0.669652 0.240000 0.916183
O O8 0.735965 0.264407 0.140535
O O9 0.583618 0.500000 0.585582
O O10 0.669196 0.317117 0.642659
O O11 0.610666 0.257992 0.698529
O O12 0.993502 0.186977 0.861465
O O13 0.068164 0.000000 0.026121
O O14 0.086918 0.276649 0.083352
O O15 0.757781 0.500000 0.793898
O O16 0.791304 0.292353 0.742162
O O17 0.371384 0.257274 0.716956
O O18 0.362343 0.000000 0.774508
O O19 0.132853 0.500000 0.793026
O O20 0.586947 0.500000 0.299360
#
# Coordination Sequence:
#
# PCOD9186175 Si02
#       8
#     8   8   8   8   8   8   8   8
#     4  11  24  41  61  87 119 151 190 240 294 346
#     4  10  19  34  59  89 119 155 193 235 287 342
#     4  11  24  42  64  85 111 153 200 242 289 344
#     4   9  18  32  51  80 118 153 187 230 282 340
#     4   9  21  41  60  83 118 157 196 240 287 339
#     4  10  20  34  55  83 116 152 192 234 283 342
#     4  11  23  39  61  89 121 151 186 237 296 351
#     4  11  21  35  56  84 118 152 191 236 285 342
#
# _framework density 20.291716999999998
#
# number of rings (size 3 to 8) (size 9 to 14) (size 15 to 20)
#    0.000    1.750    1.250    3.000    0.000    8.000 
#    0.000    0.625    0.000    0.000    0.000    0.000 
#    0.000    0.000    0.000    0.000    0.000    0.000 
#
# Total GULP energy -178922.914133 kJ/mol
# GULP energy per Si atom -5591.341067 kJ/mol
# Density = 2.024553 g / cm^3
# Si number density = 20.291717 Si / 1000 Ang^3
#
#
#
# Elastic Constant Matrix: (Units=GPa)
#
#
# Indices 1 2 3 4 5 6 
#
# 1 63.1753 41.8978 23.1283 0.0000 -12.4358 0.0000
# 2 41.8978 119.1740 33.2507 0.0000 -10.7457 0.0000
# 3 23.1283 33.2507 39.0589 0.0000 -1.6292 0.0000
# 4 0.0000 0.0000 0.0000 25.3725 0.0000 -7.8393
# 5 -12.4358 -10.7457 -1.6292 0.0000 29.6305 0.0000
# 6 0.0000 0.0000 0.0000 -7.8393 0.0000 28.1324
#
#
#
# Elastic Compliance Matrix: (Units=1/GPa)
#
#
# Indices 1 2 3 4 5 6 
#
# 1 0.024329 -0.005142 -0.009703 0.000000 0.007813 0.000000
# 2 -0.005142 0.012462 -0.007483 0.000000 0.001950 0.000000
# 3 -0.009703 -0.007483 0.037522 0.000000 -0.004723 0.000000
# 4 0.000000 0.000000 0.000000 0.043126 0.000000 0.012017
# 5 0.007813 0.001950 -0.004723 0.000000 0.037476 0.000000
# 6 0.000000 0.000000 0.000000 0.012017 0.000000 0.038895
#
#
# Mechanical properties :
#
#
# Convention : Reuss Voigt Hill
#
# Bulk Modulus (GPa) = 33.71925 46.44020 40.07972
# Shear Modulus (GPa) = 20.13275 24.83584 22.48429
#
# Velocity S-wave (km/s) = 3.15328 3.50228 3.33235
# Velocity P-wave (km/s) = 5.46909 6.26822 5.88224
#
# Compressibility (1/GPa) = 0.02965665
#
# Stress axis : x y z
#
# Youngs Moduli (GPa) = 41.10306 80.24073 26.65123
#
# Poissons Ratio (x) = 0.41256 0.25861
# Poissons Ratio (y) = 0.21133 0.19944
# Poissons Ratio (z) = 0.39884 0.60048
#
# Static dielectric constant tensor:
#      x y z
#    x 1.760050 0.000000 0.009440 
#    y 0.000000 1.682590 0.000000 
#    z 0.009440 0.000000 1.669670 
# 
# From -- ./inp_files/249982.got.cif
#   From: 2010.05.17/outbox.cif.g08.bks.cpg/sg12_125_cif.got.tgz:249982.got - 2010.06.03 13:09:07.
