data_PCOD9186272
_publ_section_title
;
Structure prediction by ZEFSAII (Michael W. Deem and Ramdas Pophale) SiO2 
 PCOD9186272
Probable space group: C 2/M
;
_chemical_formula_sum "Si O2"
_cell_formula_units_Z 48
_cell_length_a 21.143723
_cell_length_b 7.972396
_cell_length_c 15.638675
_cell_angle_alpha 90.000000
_cell_angle_beta 111.882120
_cell_angle_gamma 90.000000
_cell_volume 2446.223155
_symmetry_space_group_name_H-M "C 2/M"
_symmetry_group_IT_number 12
_symmetry_cell_setting 'monoclinic'
loop_
_space_group_symop_operation_xyz
x,y,z
-x,y,-z
-x,-y,-z
x,-y,z
1/2+x,1/2+y,z
1/2-x,1/2+y,-z
1/2-x,1/2-y,-z
1/2+x,1/2-y,z
loop_
_atom_site_type_symbol
_atom_site_label
_atom_site_fract_x
_atom_site_fract_y
_atom_site_fract_z
Si Si1 0.075579 0.297693 0.758361
Si Si2 0.925874 0.701746 0.741050
Si Si3 0.328753 0.202337 0.039626
Si Si4 0.171561 0.199721 0.460842
Si Si5 0.075639 0.797716 0.564180
Si Si6 0.076234 0.704957 0.066856
O O1 0.074199 0.500000 0.762003
O O2 0.130430 0.237928 0.855715
O O3 0.091288 0.249283 0.669295
O O4 0.999794 0.236431 0.745821
O O5 0.930414 0.500000 0.747594
O O6 0.868269 0.745617 0.644072
O O7 0.911394 0.762002 0.829950
O O8 0.332714 0.000000 0.041544
O O9 0.250000 0.250000 0.000000
O O10 0.368953 0.262123 0.975382
O O11 0.250000 0.250000 0.500000
O O12 0.130279 0.265879 0.522715
O O13 0.168467 0.000000 0.463026
O O14 0.000000 0.736830 0.500000
O O15 0.074397 0.000000 0.559005
O O16 0.077621 0.500000 0.067417
O O17 0.000000 0.753267 0.000000
#
# Coordination Sequence:
#
# PCOD9186272 Si02
#       6
#     8   8   8   8   8   8
#     4  10  20  34  58  88 114 145 189 237 278 327
#     4  10  19  34  60  89 112 143 191 236 278 330
#     4  10  21  37  56  83 117 150 185 229 280 331
#     4  11  24  41  59  82 116 151 185 232 285 337
#     4  10  21  38  59  83 112 148 189 231 280 338
#     4   9  16  32  59  84 108 145 191 230 268 327
#
# _framework density 19.622085999999999
#
# number of rings (size 3 to 8) (size 9 to 14) (size 15 to 20)
#    0.000    2.000    3.333    0.500    0.000    3.667 
#    0.000    5.833    0.000    1.000    0.000    0.000 
#    0.000    0.000    0.000    0.000    0.000    0.000 
#
# Total GULP energy -134029.228367 kJ/mol
# GULP energy per Si atom -5584.551182 kJ/mol
# Density = 1.957743 g / cm^3
# Si number density = 19.622086 Si / 1000 Ang^3
#
#
#
# Elastic Constant Matrix: (Units=GPa)
#
#
# Indices 1 2 3 4 5 6 
#
# 1 199.0111 9.3635 135.3656 0.0000 -4.7236 0.0000
# 2 9.3635 14.6204 9.8734 0.0000 -2.7495 0.0000
# 3 135.3656 9.8734 231.3301 0.0000 -11.8744 0.0000
# 4 0.0000 0.0000 0.0000 -21.8694 0.0000 23.2236
# 5 -4.7236 -2.7495 -11.8744 0.0000 39.1155 0.0000
# 6 0.0000 0.0000 0.0000 23.2236 0.0000 15.8937
#
#
#
# Elastic Compliance Matrix: (Units=1/GPa)
#
#
# Indices 1 2 3 4 5 6 
#
# 1 0.008425 -0.002225 -0.004867 0.000000 -0.000616 0.000000
# 2 -0.002225 0.071669 -0.001536 0.000000 0.004303 0.000000
# 3 -0.004867 -0.001536 0.007315 0.000000 0.001525 0.000000
# 4 0.000000 0.000000 0.000000 -0.017920 0.000000 0.026185
# 5 -0.000616 0.004303 0.001525 0.000000 0.026256 0.000000
# 6 0.000000 0.000000 0.000000 0.026185 0.000000 0.024658
#
#
# Mechanical properties :
#
#
# Convention : Reuss Voigt Hill
#
# Bulk Modulus (GPa) = 14.25452 83.79629 49.02541
# Shear Modulus (GPa) = 31.04756 25.98523 28.51639
#
# Velocity S-wave (km/s) = 3.98210 3.64302 3.81633
# Velocity P-wave (km/s) = 5.33133 7.77774 6.66770
#
# Compressibility (1/GPa) = 0.07015318
#
# Stress axis : x y z
#
# Youngs Moduli (GPa) = 118.69050 13.95298 136.71422
#
# Poissons Ratio (x) = 0.03105 0.66536
# Poissons Ratio (y) = 0.26411 0.20999
# Poissons Ratio (z) = 0.57764 0.02143
#
# Static dielectric constant tensor:
#      x y z
#    x 1.660270 0.000000 -0.024940 
#    y 0.000000 1.714700 0.000000 
#    z -0.024940 0.000000 1.660370 
# 
# From -- ./inp_files/230377.got.cif
#   From: 2010.05.17/outbox.cif.g08.bks.cpg/sg12_116_cif.got.tgz:230377.got - 2010.06.03 13:09:07.
