data_PCOD9186950
_publ_section_title
;
Structure prediction by ZEFSAII (Michael W. Deem and Ramdas Pophale) SiO2 
 PCOD9186950
Probable space group: C 2/M
;
_chemical_formula_sum "Si O2"
_cell_formula_units_Z 64
_cell_length_a 13.239311
_cell_length_b 12.006260
_cell_length_c 26.427139
_cell_angle_alpha 90.000000
_cell_angle_beta 57.522775
_cell_angle_gamma 90.000000
_cell_volume 3543.744474
_symmetry_space_group_name_H-M "C 2/M"
_symmetry_group_IT_number 12
_symmetry_cell_setting 'monoclinic'
loop_
_space_group_symop_operation_xyz
x,y,z
-x,y,-z
-x,-y,-z
x,-y,z
1/2+x,1/2+y,z
1/2-x,1/2+y,-z
1/2-x,1/2-y,-z
1/2+x,1/2-y,z
loop_
_atom_site_type_symbol
_atom_site_label
_atom_site_fract_x
_atom_site_fract_y
_atom_site_fract_z
Si Si1 0.778140 0.369641 0.614222
Si Si2 0.041392 0.371286 0.354666
Si Si3 0.308027 0.628512 0.819320
Si Si4 0.684459 0.129996 0.509576
Si Si5 0.147853 0.716107 0.096432
Si Si6 0.098559 0.629519 0.795812
Si Si7 0.539888 0.729210 0.713819
Si Si8 0.394859 0.629625 0.988630
O O1 0.765818 0.500000 0.627923
O O2 0.855835 0.318245 0.638301
O O3 0.843180 0.362211 0.542785
O O4 0.646426 0.320270 0.651562
O O5 0.068525 0.500000 0.338009
O O6 0.924156 0.368227 0.421812
O O7 0.025616 0.314635 0.305474
O O8 0.288489 0.500000 0.839126
O O9 0.311500 0.707537 0.867222
O O10 0.203751 0.659055 0.807277
O O11 0.439113 0.642976 0.758976
O O12 0.750000 0.250000 0.500000
O O13 0.737138 0.000000 0.500893
O O14 0.263945 0.646332 0.048669
O O15 0.032109 0.645409 0.143786
O O16 0.107039 0.793867 0.060623
O O17 0.115690 0.500000 0.776888
O O18 0.094616 0.708493 0.747804
O O19 0.412683 0.500000 0.970558
O O20 0.500000 0.661051 0.000000
#
# Coordination Sequence:
#
# PCOD9186950 Si02
#       8
#     8   8   8   8   8   8   8   8
#     4  10  20  34  54  78 104 138 179 220 267 328
#     4  10  20  34  54  78 104 138 179 220 267 328
#     4  10  21  36  53  75 104 139 177 215 258 310
#     4  10  19  35  57  80 108 142 179 223 275 332
#     4  10  20  35  56  77 104 142 174 208 254 308
#     4  10  21  36  53  75 104 139 177 215 258 310
#     4  11  20  34  54  76 104 135 174 224 272 309
#     4  10  20  34  54  82 110 134 168 214 260 302
#
# _framework density 18.059992000000001
#
# number of rings (size 3 to 8) (size 9 to 14) (size 15 to 20)
#    0.000    1.875    1.250    3.375    0.000    1.500 
#    0.000    0.000    0.000   21.000    0.000    0.000 
#    0.000    0.000    0.000    0.000    0.000    0.000 
#
# Total GULP energy -178232.830310 kJ/mol
# GULP energy per Si atom -5569.775947 kJ/mol
# Density = 1.801889 g / cm^3
# Si number density = 18.059992 Si / 1000 Ang^3
#
#
#
# Elastic Constant Matrix: (Units=GPa)
#
#
# Indices 1 2 3 4 5 6 
#
# 1 84.2019 28.3137 3.3666 0.0000 18.8741 0.0000
# 2 28.3137 57.4827 0.6524 0.0000 11.0807 0.0000
# 3 3.3666 0.6524 42.4124 0.0000 6.5128 0.0000
# 4 0.0000 0.0000 0.0000 7.8308 0.0000 2.8907
# 5 18.8741 11.0807 6.5128 0.0000 27.2341 0.0000
# 6 0.0000 0.0000 0.0000 2.8907 0.0000 15.4499
#
#
#
# Elastic Compliance Matrix: (Units=1/GPa)
#
#
# Indices 1 2 3 4 5 6 
#
# 1 0.015853 -0.006169 0.000143 0.000000 -0.008511 0.000000
# 2 -0.006169 0.021313 0.000869 0.000000 -0.004604 0.000000
# 3 0.000143 0.000869 0.024523 0.000000 -0.006317 0.000000
# 4 0.000000 0.000000 0.000000 0.137174 0.000000 -0.025665
# 5 -0.008511 -0.004604 -0.006317 0.000000 0.046001 0.000000
# 6 0.000000 0.000000 0.000000 -0.025665 0.000000 0.069527
#
#
# Mechanical properties :
#
#
# Convention : Reuss Voigt Hill
#
# Bulk Modulus (GPa) = 19.46486 27.64024 23.55255
# Shear Modulus (GPa) = 14.62713 20.22060 17.42386
#
# Velocity S-wave (km/s) = 2.84899 3.34972 3.10946
# Velocity P-wave (km/s) = 4.65012 5.50443 5.09521
#
# Compressibility (1/GPa) = 0.05137464
#
# Stress axis : x y z
#
# Youngs Moduli (GPa) = 63.08072 46.91985 40.77739
#
# Poissons Ratio (x) = 0.28947 -0.00585
# Poissons Ratio (y) = 0.38917 -0.03543
# Poissons Ratio (z) = -0.00905 -0.04077
#
# Static dielectric constant tensor:
#      x y z
#    x 1.640680 0.000000 0.009060 
#    y 0.000000 1.611790 0.000000 
#    z 0.009060 0.000000 1.602630 
# 
# From -- ./inp_files/335184.got.cif
#   From: 2010.05.17/outbox.cif.g08.bks.cpg/sg12_168_cif.got.tgz:335184.got - 2010.06.03 13:09:07.
