data_PCOD9186882
_publ_section_title
;
Structure prediction by ZEFSAII (Michael W. Deem and Ramdas Pophale) SiO2 
 PCOD9186882
Probable space group: C 2/M
;
_chemical_formula_sum "Si O2"
_cell_formula_units_Z 52
_cell_length_a 27.472125
_cell_length_b 7.525840
_cell_length_c 10.853466
_cell_angle_alpha 90.000000
_cell_angle_beta 84.075251
_cell_angle_gamma 90.000000
_cell_volume 2231.976440
_symmetry_space_group_name_H-M "C 2/M"
_symmetry_group_IT_number 12
_symmetry_cell_setting 'monoclinic'
loop_
_space_group_symop_operation_xyz
x,y,z
-x,y,-z
-x,-y,-z
x,-y,z
1/2+x,1/2+y,z
1/2-x,1/2+y,-z
1/2-x,1/2-y,-z
1/2+x,1/2-y,z
loop_
_atom_site_type_symbol
_atom_site_label
_atom_site_fract_x
_atom_site_fract_y
_atom_site_fract_z
Si Si1 0.888527 0.500000 0.147588
Si Si2 0.554250 0.715298 0.449405
Si Si3 0.342847 0.789557 0.461251
Si Si4 0.699660 0.785930 0.266055
Si Si5 0.598325 0.292658 0.181264
Si Si6 0.444121 0.703924 0.057062
Si Si7 0.690185 0.700767 0.796800
O O1 0.929717 0.342090 0.164286
O O2 0.846819 0.343228 0.140446
O O3 0.500000 0.775661 0.500000
O O4 0.553453 0.500000 0.446163
O O5 0.599619 0.764840 0.525470
O O6 0.570565 0.778482 0.308812
O O7 0.313964 0.728774 0.591107
O O8 0.323690 0.695994 0.344728
O O9 0.334838 0.000000 0.443021
O O10 0.655675 0.721346 0.192235
O O11 0.753685 0.736399 0.210745
O O12 0.697660 0.000000 0.268169
O O13 0.584465 0.500000 0.172913
O O14 0.582839 0.212070 0.056102
O O15 0.430350 0.500000 0.089701
O O16 0.500000 0.702427 0.000000
O O17 0.686125 0.500000 0.848684
#
# Coordination Sequence:
#
# PCOD9186882 Si02
#       7
#     4   8   8   8   8   8   8
#     4  12  25  42  64  94 124 160 212 270 315 374
#     4   9  18  33  54  87 127 162 202 246 308 372
#     4  10  19  35  56  89 123 166 210 251 298 377
#     4   9  20  36  61  89 124 165 209 252 308 377
#     4   9  19  36  62  89 120 163 208 255 306 372
#     4  10  23  45  70  94 123 163 213 264 317 373
#     4  11  23  40  61  89 130 166 204 257 320 369
#
# _framework density 23.297737999999999
#
# number of rings (size 3 to 8) (size 9 to 14) (size 15 to 20)
#    0.000    2.154    0.769    1.615    2.154    2.154 
#    0.000    3.846    0.000    0.000    0.000    0.000 
#    0.000    0.000    0.000    0.000    0.000    0.000 
#
# Total GULP energy -144822.579313 kJ/mol
# GULP energy per Si atom -5570.099204 kJ/mol
# Density = 2.324471 g / cm^3
# Si number density = 23.297738 Si / 1000 Ang^3
#
#
#
# Elastic Constant Matrix: (Units=GPa)
#
#
# Indices 1 2 3 4 5 6 
#
# 1 104.7916 24.1364 1.8568 0.0000 -30.1656 0.0000
# 2 24.1364 132.0474 1.0920 0.0000 -17.5792 0.0000
# 3 1.8568 1.0920 35.7550 0.0000 5.9577 0.0000
# 4 0.0000 0.0000 0.0000 -47.3826 0.0000 1.6551
# 5 -30.1656 -17.5792 5.9577 0.0000 26.3727 0.0000
# 6 0.0000 0.0000 0.0000 1.6551 0.0000 -11.5784
#
#
#
# Elastic Compliance Matrix: (Units=1/GPa)
#
#
# Indices 1 2 3 4 5 6 
#
# 1 0.014697 -0.000338 -0.003654 0.000000 0.017411 0.000000
# 2 -0.000338 0.008370 -0.001146 0.000000 0.005451 0.000000
# 3 -0.003654 -0.001146 0.030152 0.000000 -0.011755 0.000000
# 4 0.000000 0.000000 0.000000 -0.021211 0.000000 -0.003032
# 5 0.017411 0.005451 -0.011755 0.000000 0.064122 0.000000
# 6 0.000000 0.000000 0.000000 -0.003032 0.000000 -0.086801
#
#
# Mechanical properties :
#
#
# Convention : Reuss Voigt Hill
#
# Bulk Modulus (GPa) = 23.28749 36.30717 29.79733
# Shear Modulus (GPa) = 147.40289 9.84961 78.62625
#
# Velocity S-wave (km/s) = 7.96282 2.05837 5.81564
# Velocity P-wave (km/s) = 9.72416 4.61162 7.61007
#
# Compressibility (1/GPa) = 0.04294150
#
# Stress axis : x y z
#
# Youngs Moduli (GPa) = 68.03908 119.47338 33.16574
#
# Poissons Ratio (x) = 0.04042 0.12119
# Poissons Ratio (y) = 0.02302 0.03802
# Poissons Ratio (z) = 0.24862 0.13696
#
# Static dielectric constant tensor:
#      x y z
#    x 1.866210 0.000000 -0.060460 
#    y 0.000000 1.797680 0.000000 
#    z -0.060460 0.000000 2.015890 
# 
# From -- ./inp_files/180003.got.cif
#   From: 2010.05.17/outbox.cif.g08.bks.cpg/sg12_91_cif.got.tgz:180003.got - 2010.06.03 13:09:07.
