data_PCOD9186740
_publ_section_title
;
Structure prediction by ZEFSAII (Michael W. Deem and Ramdas Pophale) SiO2 
 PCOD9186740
Probable space group: C 2/M
;
_chemical_formula_sum "Si O2"
_cell_formula_units_Z 44
_cell_length_a 14.310428
_cell_length_b 21.273439
_cell_length_c 8.539119
_cell_angle_alpha 90.000000
_cell_angle_beta 134.308585
_cell_angle_gamma 90.000000
_cell_volume 1860.229329
_symmetry_space_group_name_H-M "C 2/M"
_symmetry_group_IT_number 12
_symmetry_cell_setting 'monoclinic'
loop_
_space_group_symop_operation_xyz
x,y,z
-x,y,-z
-x,-y,-z
x,-y,z
1/2+x,1/2+y,z
1/2-x,1/2+y,-z
1/2-x,1/2-y,-z
1/2+x,1/2-y,z
loop_
_atom_site_type_symbol
_atom_site_label
_atom_site_fract_x
_atom_site_fract_y
_atom_site_fract_z
Si Si1 0.789319 0.139526 0.485800
Si Si2 0.361708 0.635044 0.238287
Si Si3 0.289974 0.500000 0.503317
Si Si4 0.989443 0.363204 0.675198
Si Si5 0.520949 0.730384 0.840699
Si Si6 0.992531 0.500000 0.678870
Si Si7 0.642554 0.500000 0.751991
O O1 0.763183 0.142653 0.268359
O O2 0.658986 0.141656 0.434933
O O3 0.884978 0.197348 0.629317
O O4 0.851659 0.069820 0.597194
O O5 0.500000 0.637323 0.500000
O O6 0.371586 0.684743 0.111762
O O7 0.346443 0.565567 0.149151
O O8 0.158647 0.500000 0.448175
O O9 0.260879 0.500000 0.283346
O O10 0.049055 0.299131 0.808116
O O11 0.043067 0.431609 0.791469
O O12 0.000000 0.361847 0.500000
O O13 0.500000 0.732763 0.000000
O O14 0.000000 0.500000 0.500000
O O15 0.500000 0.500000 0.500000
#
# Coordination Sequence:
#
# PCOD9186740 Si02
#       7
#     8   8   4   8   8   4   4
#     4   9  17  33  55  75  98 132 167 203 244 290
#     4   8  15  29  48  69  95 128 165 199 235 288
#     4   8  14  26  50  78  96 119 165 206 237 287
#     4  10  19  35  56  76  96 127 168 208 247 294
#     4  11  22  33  46  74 107 134 164 201 244 296
#     4   8  16  30  53  77  92 113 162 218 250 277
#     4   8  12  22  44  69  91 122 162 198 231 276
#
# _framework density 23.652996999999999
#
# number of rings (size 3 to 8) (size 9 to 14) (size 15 to 20)
#    0.000    2.909    0.000    3.273    0.000    0.000 
#    0.000    5.909    0.000    0.000    0.000   15.273 
#    0.000    0.000    0.000    0.000    0.000    0.000 
#
# Total GULP energy -122616.447890 kJ/mol
# GULP energy per Si atom -5573.474904 kJ/mol
# Density = 2.359916 g / cm^3
# Si number density = 23.652997 Si / 1000 Ang^3
#
#
#
# Elastic Constant Matrix: (Units=GPa)
#
#
# Indices 1 2 3 4 5 6 
#
# 1 172.9377 43.8081 29.0499 0.0000 -31.8338 0.0000
# 2 43.8081 246.4581 49.7605 0.0000 -27.5214 0.0000
# 3 29.0499 49.7605 36.1714 0.0000 -8.4534 0.0000
# 4 0.0000 0.0000 0.0000 -0.7124 0.0000 -24.2390
# 5 -31.8338 -27.5214 -8.4534 0.0000 37.6855 0.0000
# 6 0.0000 0.0000 0.0000 -24.2390 0.0000 26.1696
#
#
#
# Elastic Compliance Matrix: (Units=1/GPa)
#
#
# Indices 1 2 3 4 5 6 
#
# 1 0.007591 0.000324 -0.005265 0.000000 0.005468 0.000000
# 2 0.000324 0.005864 -0.007665 0.000000 0.002837 0.000000
# 3 -0.005265 -0.007665 0.042288 0.000000 -0.000559 0.000000
# 4 0.000000 0.000000 0.000000 -0.043172 0.000000 -0.039987
# 5 0.005468 0.002837 -0.000559 0.000000 0.033101 0.000000
# 6 0.000000 0.000000 0.000000 -0.039987 0.000000 0.001175
#
#
# Mechanical properties :
#
#
# Convention : Reuss Voigt Hill
#
# Bulk Modulus (GPa) = 32.75139 77.86714 55.30926
# Shear Modulus (GPa) = 60.80040 34.82510 47.81275
#
# Velocity S-wave (km/s) = 5.07553 3.84126 4.50090
# Velocity P-wave (km/s) = 6.94439 7.25712 7.10248
#
# Compressibility (1/GPa) = 0.03053306
#
# Stress axis : x y z
#
# Youngs Moduli (GPa) = 131.73040 170.52675 23.64737
#
# Poissons Ratio (x) = -0.05530 0.12450
# Poissons Ratio (y) = -0.04272 0.18125
# Poissons Ratio (z) = 0.69353 1.30703
#
# Static dielectric constant tensor:
#      x y z
#    x 1.975490 0.000000 0.025260 
#    y 0.000000 1.955840 0.000000 
#    z 0.025260 0.000000 1.953850 
# 
# From -- ./inp_files/63758.got.cif
#   From: 2010.05.17/outbox.cif.g08.bks.cpg/sg12_32_cif.got.tgz:63758.got - 2010.06.03 13:09:07.
