data_PCOD9186136
_publ_section_title
;
Structure prediction by ZEFSAII (Michael W. Deem and Ramdas Pophale) SiO2 
 PCOD9186136
Probable space group: C 2/M
;
_chemical_formula_sum "Si O2"
_cell_formula_units_Z 64
_cell_length_a 18.242290
_cell_length_b 19.075372
_cell_length_c 17.946590
_cell_angle_alpha 90.000000
_cell_angle_beta 33.416092
_cell_angle_gamma 90.000000
_cell_volume 3439.231186
_symmetry_space_group_name_H-M "C 2/M"
_symmetry_group_IT_number 12
_symmetry_cell_setting 'monoclinic'
loop_
_space_group_symop_operation_xyz
x,y,z
-x,y,-z
-x,-y,-z
x,-y,z
1/2+x,1/2+y,z
1/2-x,1/2+y,-z
1/2-x,1/2-y,-z
1/2+x,1/2-y,z
loop_
_atom_site_type_symbol
_atom_site_label
_atom_site_fract_x
_atom_site_fract_y
_atom_site_fract_z
Si Si1 0.857210 0.083300 0.478695
Si Si2 0.174833 0.353245 0.044056
Si Si3 0.648186 0.674029 0.371640
Si Si4 0.631825 0.293922 0.995442
Si Si5 0.650600 0.581165 0.223972
Si Si6 0.674897 0.694290 0.781856
Si Si7 0.425992 0.084614 0.340530
Si Si8 0.377266 0.080439 0.548274
O O1 0.857461 0.115189 0.560476
O O2 0.723704 0.108019 0.552500
O O3 0.001406 0.099444 0.321429
O O4 0.848046 0.000000 0.490238
O O5 0.278329 0.339032 0.023898
O O6 0.242281 0.408289 0.931072
O O7 0.151650 0.283962 0.013075
O O8 0.037006 0.378990 0.196238
O O9 0.500000 0.707421 0.500000
O O10 0.674917 0.634626 0.271257
O O11 0.756807 0.732130 0.297289
O O12 0.474340 0.309870 0.123783
O O13 0.676303 0.303924 0.871494
O O14 0.649388 0.500000 0.250505
O O15 0.763266 0.631546 0.674424
O O16 0.437551 0.101847 0.417570
O O17 0.437534 0.000000 0.321698
O O18 0.500000 0.080816 0.500000
O O19 0.326875 0.000000 0.583482
#
# Coordination Sequence:
#
# PCOD9186136 Si02
#       8
#     8   8   8   8   8   8   8   8
#     4   9  19  35  55  86 125 155 192 244 289 343
#     4  11  21  40  58  85 119 162 194 245 292 363
#     4  10  19  34  59  87 119 157 199 240 290 354
#     4  10  24  38  59  80 122 155 199 243 304 341
#     4  10  20  35  60  89 121 160 198 236 294 356
#     4  11  21  41  59  87 114 158 198 254 291 353
#     4  10  21  38  60  87 118 154 196 247 301 352
#     4  10  22  40  62  85 114 149 197 253 306 355
#
# _framework density 18.608809999999998
#
# number of rings (size 3 to 8) (size 9 to 14) (size 15 to 20)
#    0.000    1.875    1.250    2.625    1.750    1.500 
#    2.250    3.750    0.000    3.000    0.000    0.000 
#    0.000    0.000    0.000    0.000    0.000    0.000 
#
# Total GULP energy -178465.823425 kJ/mol
# GULP energy per Si atom -5577.056982 kJ/mol
# Density = 1.856646 g / cm^3
# Si number density = 18.608810 Si / 1000 Ang^3
#
#
#
# Elastic Constant Matrix: (Units=GPa)
#
#
# Indices 1 2 3 4 5 6 
#
# 1 44.4542 7.0383 17.0763 -0.0026 4.5604 -0.0111
# 2 7.0383 40.6277 28.8804 -0.0003 -0.1502 0.0012
# 3 17.0763 28.8804 98.9271 0.0005 10.2982 0.0044
# 4 -0.0026 -0.0003 0.0005 62.1094 0.0011 101.5680
# 5 4.5604 -0.1502 10.2982 0.0011 25.5175 0.0021
# 6 -0.0111 0.0012 0.0044 101.5680 0.0021 382.6357
#
#
#
# Elastic Compliance Matrix: (Units=1/GPa)
#
#
# Indices 1 2 3 4 5 6 
#
# 1 0.024386 -0.001851 -0.003355 0.000000 -0.003015 0.000001
# 2 -0.001851 0.031598 -0.009352 0.000000 0.004291 0.000000
# 3 -0.003355 -0.009352 0.013947 0.000000 -0.005084 0.000000
# 4 0.000000 0.000000 0.000000 0.028450 -0.000001 -0.007552
# 5 -0.003015 0.004291 -0.005084 -0.000001 0.041805 0.000000
# 6 0.000001 0.000000 0.000000 -0.007552 0.000000 0.004618
#
#
# Mechanical properties :
#
#
# Convention : Reuss Voigt Hill
#
# Bulk Modulus (GPa) = 24.50036 32.22211 28.36124
# Shear Modulus (GPa) = 26.66309 102.78680 64.72494
#
# Velocity S-wave (km/s) = 3.78937 7.44013 5.90401
# Velocity P-wave (km/s) = 5.68686 9.54780 7.85814
#
# Compressibility (1/GPa) = 0.04081572
#
# Stress axis : x y z
#
# Youngs Moduli (GPa) = 41.00672 31.64755 71.69992
#
# Poissons Ratio (x) = 0.05857 0.24057
# Poissons Ratio (y) = 0.07589 0.67053
# Poissons Ratio (z) = 0.13759 0.29596
#
# Static dielectric constant tensor:
#      x y z
#    x 1.661330 0.000000 -0.012550 
#    y 0.000000 1.638330 0.000000 
#    z -0.012550 0.000000 1.636910 
# 
# From -- ./inp_files/279080.got.cif
#   From: 2010.05.17/outbox.cif.g08.bks.cpg/sg12_140_cif.got.tgz:279080.got - 2010.06.03 13:09:07.
