data_PCOD9186898
_publ_section_title
;
Structure prediction by ZEFSAII (Michael W. Deem and Ramdas Pophale) SiO2 
 PCOD9186898
Probable space group: C 2/M
;
_chemical_formula_sum "Si O2"
_cell_formula_units_Z 64
_cell_length_a 14.569783
_cell_length_b 7.379896
_cell_length_c 29.049061
_cell_angle_alpha 90.000000
_cell_angle_beta 57.025147
_cell_angle_gamma 90.000000
_cell_volume 2620.297188
_symmetry_space_group_name_H-M "C 2/M"
_symmetry_group_IT_number 12
_symmetry_cell_setting 'monoclinic'
loop_
_space_group_symop_operation_xyz
x,y,z
-x,y,-z
-x,-y,-z
x,-y,z
1/2+x,1/2+y,z
1/2-x,1/2+y,-z
1/2-x,1/2-y,-z
1/2+x,1/2-y,z
loop_
_atom_site_type_symbol
_atom_site_label
_atom_site_fract_x
_atom_site_fract_y
_atom_site_fract_z
Si Si1 0.851155 0.283745 0.404649
Si Si2 0.325355 0.794556 0.814859
Si Si3 0.880393 0.206382 0.536592
Si Si4 0.156796 0.709219 0.089516
Si Si5 0.561421 0.284359 0.721505
Si Si6 0.083221 0.280197 0.372521
Si Si7 0.736131 0.278683 0.748586
Si Si8 0.904086 0.279561 0.991362
O O1 0.844526 0.500000 0.412486
O O2 0.732127 0.209044 0.450680
O O3 0.881491 0.251582 0.342913
O O4 0.957497 0.220178 0.403175
O O5 0.347514 0.707423 0.858420
O O6 0.442255 0.800473 0.757758
O O7 0.243735 0.714025 0.799063
O O8 0.286523 0.000000 0.834686
O O9 0.863673 0.204848 0.596080
O O10 0.000000 0.294708 0.500000
O O11 0.889709 0.000000 0.516877
O O12 0.121281 0.500000 0.103572
O O13 0.090336 0.782780 0.063578
O O14 0.284944 0.718119 0.041138
O O15 0.548529 0.500000 0.728778
O O16 0.635461 0.222092 0.744197
O O17 0.085935 0.500000 0.373986
O O18 0.155013 0.225051 0.309253
O O19 0.735260 0.500000 0.750217
O O20 0.902963 0.500000 0.991345
O O21 0.000000 0.222258 0.000000
#
# Coordination Sequence:
#
# PCOD9186898 Si02
#       8
#     8   8   8   8   8   8   8   8
#     4  10  20  36  57  76 102 141 175 208 263 321
#     4  10  20  37  55  75 109 145 178 216 263 320
#     4  10  22  38  55  80 111 137 170 222 272 310
#     4   9  19  34  54  79 105 142 185 220 260 318
#     4  11  21  33  52  79 105 133 174 217 261 310
#     4  10  19  35  57  77 100 137 178 209 255 318
#     4   9  18  33  52  74 103 137 170 212 261 310
#     4   9  18  34  55  78 109 144 178 223 276 316
#
# _framework density 24.424710000000001
#
# number of rings (size 3 to 8) (size 9 to 14) (size 15 to 20)
#    0.000    2.250    2.500    0.375    0.000    3.000 
#    0.000    1.250    0.000    0.000    0.000    0.000 
#    0.000    0.000    0.000    0.000    0.000    0.000 
#
# Total GULP energy -178748.874478 kJ/mol
# GULP energy per Si atom -5585.902327 kJ/mol
# Density = 2.436912 g / cm^3
# Si number density = 24.424710 Si / 1000 Ang^3
#
#
#
# Elastic Constant Matrix: (Units=GPa)
#
#
# Indices 1 2 3 4 5 6 
#
# 1 121.6275 -0.5673 6.3997 0.0000 33.9674 0.0000
# 2 -0.5673 95.9685 -6.7942 0.0000 6.4653 -0.0001
# 3 6.3997 -6.7942 61.2256 0.0000 33.8743 0.0000
# 4 0.0000 0.0000 0.0000 6.7232 0.0000 -7.6924
# 5 33.9674 6.4653 33.8743 0.0000 34.7647 0.0000
# 6 0.0000 -0.0001 0.0000 -7.6924 0.0000 -19.6976
#
#
#
# Elastic Compliance Matrix: (Units=1/GPa)
#
#
# Indices 1 2 3 4 5 6 
#
# 1 0.016951 0.003683 0.017747 0.000000 -0.034540 0.000000
# 2 0.003683 0.012076 0.009088 0.000000 -0.014700 0.000000
# 3 0.017747 0.009088 0.056444 0.000000 -0.074028 0.000000
# 4 0.000000 0.000000 0.000000 0.102804 0.000000 -0.040148
# 5 -0.034540 -0.014700 -0.074028 0.000000 0.137378 0.000000
# 6 0.000000 0.000000 0.000000 -0.040148 0.000000 -0.035089
#
#
# Mechanical properties :
#
#
# Convention : Reuss Voigt Hill
#
# Bulk Modulus (GPa) = 6.82559 30.76645 18.79602
# Shear Modulus (GPa) = 17.96212 23.01029 20.48621
#
# Velocity S-wave (km/s) = 2.71478 3.07268 2.89926
# Velocity P-wave (km/s) = 3.55350 5.02118 4.34969
#
# Compressibility (1/GPa) = 0.14650752
#
# Stress axis : x y z
#
# Youngs Moduli (GPa) = 58.99273 82.81178 17.71660
#
# Poissons Ratio (x) = -0.30504 -0.31441
# Poissons Ratio (y) = -0.21730 -0.16101
# Poissons Ratio (z) = -1.04692 -0.75260
#
# Static dielectric constant tensor:
#      x y z
#    x 1.940830 0.000000 0.029330 
#    y 0.000000 1.970730 0.000000 
#    z 0.029330 0.000000 1.940370 
# 
# From -- ./inp_files/359814.got.cif
#   From: 2010.05.17/outbox.cif.g08.bks.cpg/sg12_180_cif.got.tgz:359814.got - 2010.06.03 13:09:07.
