data_PCOD9186701
_publ_section_title
;
Structure prediction by ZEFSAII (Michael W. Deem and Ramdas Pophale) SiO2 
 PCOD9186701
Probable space group: C 2/M
;
_chemical_formula_sum "Si O2"
_cell_formula_units_Z 60
_cell_length_a 17.433551
_cell_length_b 18.761599
_cell_length_c 11.600043
_cell_angle_alpha 90.000000
_cell_angle_beta 60.203549
_cell_angle_gamma 90.000000
_cell_volume 3292.555215
_symmetry_space_group_name_H-M "C 2/M"
_symmetry_group_IT_number 12
_symmetry_cell_setting 'monoclinic'
loop_
_space_group_symop_operation_xyz
x,y,z
-x,y,-z
-x,-y,-z
x,-y,z
1/2+x,1/2+y,z
1/2-x,1/2+y,-z
1/2-x,1/2-y,-z
1/2+x,1/2-y,z
loop_
_atom_site_type_symbol
_atom_site_label
_atom_site_fract_x
_atom_site_fract_y
_atom_site_fract_z
Si Si1 0.892330 0.292096 0.870536
Si Si2 0.372092 0.422347 0.794106
Si Si3 0.682256 0.174637 0.644128
Si Si4 0.865008 0.177342 0.417485
Si Si5 0.000000 0.120262 0.500000
Si Si6 0.758521 0.215711 0.827066
Si Si7 0.485805 0.084820 0.148641
Si Si8 0.001562 0.844228 0.136190
O O1 0.834852 0.272827 0.800539
O O2 0.966563 0.232359 0.837920
O O3 0.937377 0.368851 0.847031
O O4 0.823129 0.277840 0.025207
O O5 0.331529 0.500000 0.836562
O O6 0.440642 0.421481 0.636328
O O7 0.302285 0.360866 0.820325
O O8 0.427980 0.399828 0.864741
O O9 0.770000 0.143712 0.518553
O O10 0.646445 0.238083 0.591197
O O11 0.720543 0.214886 0.728215
O O12 0.607093 0.119666 0.740704
O O13 0.932241 0.164380 0.472105
O O14 0.908530 0.144616 0.269759
O O15 0.488846 0.000000 0.168363
O O16 0.500000 0.095820 0.000000
O O17 0.000000 0.843625 0.000000
#
# Coordination Sequence:
#
# PCOD9186701 Si02
#       8
#     8   8   8   8   4   8   8   8
#     4  10  19  35  55  83 109 158 198 238 289 347
#     4  10  21  34  52  81 115 147 181 231 296 354
#     4  11  20  35  52  89 117 145 197 247 290 345
#     4  10  21  33  59  83 114 147 192 246 298 337
#     4  10  19  38  54  84 113 148 186 230 303 352
#     4  10  20  33  56  81 118 148 195 246 292 331
#     4  11  22  35  56  86 125 165 193 236 299 365
#     4  10  19  35  58  79 110 146 193 243 287 344
#
# _framework density 18.222930000000002
#
# number of rings (size 3 to 8) (size 9 to 14) (size 15 to 20)
#    0.000    1.733    4.000    1.400    0.000    1.333 
#    0.000    0.667    0.000    0.000    0.000   13.533 
#    0.000    0.000    0.000    0.000    0.000    0.000 
#
# Total GULP energy -167308.002819 kJ/mol
# GULP energy per Si atom -5576.933427 kJ/mol
# Density = 1.818145 g / cm^3
# Si number density = 18.222930 Si / 1000 Ang^3
#
#
#
# Elastic Constant Matrix: (Units=GPa)
#
#
# Indices 1 2 3 4 5 6 
#
# 1 92.4195 47.3929 37.6347 0.0000 -0.3178 0.0000
# 2 47.3929 99.6090 14.4165 0.0000 -1.0097 0.0000
# 3 37.6347 14.4165 78.1677 0.0000 -12.2733 0.0000
# 4 0.0000 0.0000 0.0000 12.1499 0.0000 -5.6997
# 5 -0.3178 -1.0097 -12.2733 0.0000 33.3705 0.0000
# 6 0.0000 0.0000 0.0000 -5.6997 0.0000 17.0892
#
#
#
# Elastic Compliance Matrix: (Units=1/GPa)
#
#
# Indices 1 2 3 4 5 6 
#
# 1 0.017667 -0.007334 -0.007600 0.000000 -0.002849 0.000000
# 2 -0.007334 0.013365 0.001187 0.000000 0.000771 0.000000
# 3 -0.007600 0.001187 0.017222 0.000000 0.006298 0.000000
# 4 0.000000 0.000000 0.000000 0.097571 0.000000 0.032543
# 5 -0.002849 0.000771 0.006298 0.000000 0.032279 0.000000
# 6 0.000000 0.000000 0.000000 0.032543 0.000000 0.069370
#
#
# Mechanical properties :
#
#
# Convention : Reuss Voigt Hill
#
# Bulk Modulus (GPa) = 48.17241 52.12051 50.14646
# Shear Modulus (GPa) = 17.73753 23.90541 20.82147
#
# Velocity S-wave (km/s) = 3.12326 3.62585 3.38390
# Velocity P-wave (km/s) = 6.28481 6.79653 6.54567
#
# Compressibility (1/GPa) = 0.02075877
#
# Stress axis : x y z
#
# Youngs Moduli (GPa) = 56.60417 74.82315 58.06485
#
# Poissons Ratio (x) = 0.54878 0.44132
# Poissons Ratio (y) = 0.41516 -0.06895
# Poissons Ratio (z) = 0.43021 -0.08885
#
# Static dielectric constant tensor:
#      x y z
#    x 1.642900 0.000000 -0.024610 
#    y 0.000000 1.617040 0.000000 
#    z -0.024610 0.000000 1.671440 
# 
# From -- ./inp_files/158258.got.cif
#   From: 2010.05.17/outbox.cif.g08.bks.cpg/sg12_80_cif.got.tgz:158258.got - 2010.06.03 13:09:07.
