data_PCOD9186567
_publ_section_title
;
Structure prediction by ZEFSAII (Michael W. Deem and Ramdas Pophale) SiO2 
 PCOD9186567
Probable space group: C 2/M
;
_chemical_formula_sum "Si O2"
_cell_formula_units_Z 48
_cell_length_a 14.068867
_cell_length_b 23.029229
_cell_length_c 21.976112
_cell_angle_alpha 90.000000
_cell_angle_beta 160.108218
_cell_angle_gamma 90.000000
_cell_volume 2422.594493
_symmetry_space_group_name_H-M "C 2/M"
_symmetry_group_IT_number 12
_symmetry_cell_setting 'monoclinic'
loop_
_space_group_symop_operation_xyz
x,y,z
-x,y,-z
-x,-y,-z
x,-y,z
1/2+x,1/2+y,z
1/2-x,1/2+y,-z
1/2-x,1/2-y,-z
1/2+x,1/2-y,z
loop_
_atom_site_type_symbol
_atom_site_label
_atom_site_fract_x
_atom_site_fract_y
_atom_site_fract_z
Si Si1 0.474788 0.275875 0.397931
Si Si2 0.805318 0.789796 0.159408
Si Si3 0.110408 0.434698 0.706631
Si Si4 0.534676 0.184967 0.225350
Si Si5 0.248877 0.566328 0.933333
Si Si6 0.822498 0.352393 0.448598
O O1 0.462488 0.278570 0.318317
O O2 0.712922 0.315555 0.572840
O O3 0.181442 0.291886 0.252752
O O4 0.542937 0.210756 0.459536
O O5 0.822572 0.731761 0.128115
O O6 0.995349 0.838941 0.241658
O O7 0.500000 0.805025 0.000000
O O8 0.025019 0.500000 0.639754
O O9 0.161113 0.431864 0.809246
O O10 0.886747 0.390616 0.545962
O O11 0.417883 0.424160 0.863458
O O12 0.405907 0.122443 0.134011
O O13 0.189293 0.500000 0.919117
O O14 0.000000 0.378894 0.500000
#
# Coordination Sequence:
#
# PCOD9186567 Si02
#       6
#     8   8   8   8   8   8
#     4  10  20  36  53  76 113 145 186 216 264 334
#     4  11  23  34  53  82 111 147 181 220 275 320
#     4   9  19  33  55  81 105 141 182 224 274 317
#     4  10  19  35  54  80 109 148 179 218 276 324
#     4   9  18  33  53  82 110 134 178 231 273 318
#     4  11  20  38  55  76 112 145 182 225 262 322
#
# _framework density 19.813468
#
# number of rings (size 3 to 8) (size 9 to 14) (size 15 to 20)
#    0.000    2.000    3.333    5.000    4.667    2.333 
#    0.000    1.667    0.000    1.500    0.000    0.000 
#    0.000    0.000    0.000    0.000    0.000    0.000 
#
# Total GULP energy -133856.861015 kJ/mol
# GULP energy per Si atom -5577.369209 kJ/mol
# Density = 1.976837 g / cm^3
# Si number density = 19.813468 Si / 1000 Ang^3
#
#
#
# Elastic Constant Matrix: (Units=GPa)
#
#
# Indices 1 2 3 4 5 6 
#
# 1 69.1039 10.6443 5.2677 -0.0017 17.7569 0.0210
# 2 10.6443 96.7998 43.0571 -0.0383 20.6264 0.0084
# 3 5.2677 43.0571 63.9036 -0.0999 19.1379 0.0217
# 4 -0.0017 -0.0383 -0.0999 17.5340 0.0169 4.0022
# 5 17.7569 20.6264 19.1379 0.0169 34.3119 0.0339
# 6 0.0210 0.0084 0.0217 4.0022 0.0339 8.9407
#
#
#
# Elastic Compliance Matrix: (Units=1/GPa)
#
#
# Indices 1 2 3 4 5 6 
#
# 1 0.016836 -0.000697 0.001879 0.000024 -0.009342 -0.000019
# 2 -0.000697 0.015250 -0.009101 -0.000023 -0.003731 0.000034
# 3 0.001879 -0.009101 0.024345 0.000148 -0.009081 -0.000086
# 4 0.000024 -0.000023 0.000148 0.063523 -0.000084 -0.028436
# 5 -0.009342 -0.003731 -0.009081 -0.000084 0.041287 -0.000071
# 6 -0.000019 0.000034 -0.000086 -0.028436 -0.000071 0.124577
#
#
# Mechanical properties :
#
#
# Convention : Reuss Voigt Hill
#
# Bulk Modulus (GPa) = 24.63327 38.63838 31.63583
# Shear Modulus (GPa) = 15.86368 23.54655 19.70511
#
# Velocity S-wave (km/s) = 2.83265 3.45107 3.15704
# Velocity P-wave (km/s) = 4.81229 5.95175 5.41209
#
# Compressibility (1/GPa) = 0.04059550
#
# Stress axis : x y z
#
# Youngs Moduli (GPa) = 59.39809 65.57291 41.07584
#
# Poissons Ratio (x) = 0.04568 -0.07720
# Poissons Ratio (y) = 0.04138 0.37381
# Poissons Ratio (z) = -0.11163 0.59675
#
# Static dielectric constant tensor:
#      x y z
#    x 1.744120 0.000000 0.012450 
#    y 0.000000 1.684410 -0.000020 
#    z 0.012450 -0.000020 1.766120 
# 
# From -- ./inp_files/341424.got.cif
#   From: 2010.05.17/outbox.cif.g08.bks.cpg/sg12_171_cif.got.tgz:341424.got - 2010.06.03 13:09:07.
