data_PCOD9186107
_publ_section_title
;
Structure prediction by ZEFSAII (Michael W. Deem and Ramdas Pophale) SiO2 
 PCOD9186107
Probable space group: C 2/M
;
_chemical_formula_sum "Si O2"
_cell_formula_units_Z 64
_cell_length_a 11.896193
_cell_length_b 31.636892
_cell_length_c 6.846581
_cell_angle_alpha 90.000000
_cell_angle_beta 90.353673
_cell_angle_gamma 90.000000
_cell_volume 2576.720365
_symmetry_space_group_name_H-M "C 2/M"
_symmetry_group_IT_number 12
_symmetry_cell_setting 'monoclinic'
loop_
_space_group_symop_operation_xyz
x,y,z
-x,y,-z
-x,-y,-z
x,-y,z
1/2+x,1/2+y,z
1/2-x,1/2+y,-z
1/2-x,1/2-y,-z
1/2+x,1/2-y,z
loop_
_atom_site_type_symbol
_atom_site_label
_atom_site_fract_x
_atom_site_fract_y
_atom_site_fract_z
Si Si1 0.331582 0.660775 0.243654
Si Si2 0.314226 0.045200 0.017996
Si Si3 0.601026 0.435851 0.752695
Si Si4 0.821725 0.838518 0.748155
Si Si5 0.131488 0.774903 0.502458
Si Si6 0.872071 0.225535 0.996875
Si Si7 0.358818 0.562322 0.693090
Si Si8 0.874648 0.358571 0.998437
O O1 0.393138 0.615461 0.247435
O O2 0.338150 0.670769 0.496871
O O3 0.368631 0.712873 0.248129
O O4 0.198884 0.655334 0.190861
O O5 0.258364 0.045440 0.230466
O O6 0.370125 0.000000 0.978498
O O7 0.201743 0.048671 0.886385
O O8 0.373963 0.090223 0.995531
O O9 0.628806 0.447555 0.531959
O O10 0.475600 0.451240 0.792314
O O11 0.866145 0.786677 0.746256
O O12 0.856982 0.887472 0.733685
O O13 0.865562 0.829220 0.993382
O O14 0.689742 0.841133 0.809548
O O15 0.250000 0.750000 0.500000
O O16 0.000000 0.759320 0.500000
O O17 0.750000 0.250000 0.000000
O O18 0.000000 0.243945 0.000000
O O19 0.000000 0.342788 0.000000
#
# Coordination Sequence:
#
# PCOD9186107 Si02
#       8
#     8   8   8   8   8   8   8   8
#     4  10  21  37  59  82 113 154 202 260 311 374
#     4  10  22  37  56  89 127 158 199 255 314 388
#     4  10  19  34  59  86 117 162 207 254 314 379
#     4  10  21  37  59  82 113 154 202 260 311 374
#     4  12  24  38  58  90 129 168 209 259 322 385
#     4  11  22  35  53  80 114 156 201 254 314 375
#     4  10  19  34  59  86 117 162 207 254 314 379
#     4   9  21  41  65  88 110 151 210 260 314 377
#
# _framework density 24.837775000000001
#
# number of rings (size 3 to 8) (size 9 to 14) (size 15 to 20)
#    0.000    1.750    1.250    4.125    0.000    4.750 
#    0.000    1.250    0.000    0.000    0.000    3.500 
#    0.000    0.000    0.000    0.000    0.000    0.000 
#
# Total GULP energy -178283.832720 kJ/mol
# GULP energy per Si atom -5571.369773 kJ/mol
# Density = 2.478124 g / cm^3
# Si number density = 24.837775 Si / 1000 Ang^3
#
#
#
# Elastic Constant Matrix: (Units=GPa)
#
#
# Indices 1 2 3 4 5 6 
#
# 1 187.4580 48.4648 14.1375 0.0000 -1.7226 0.0000
# 2 48.4648 141.0770 26.8800 0.0000 -0.3839 0.0000
# 3 14.1375 26.8800 156.1274 0.0000 -3.2934 0.0000
# 4 0.0000 0.0000 0.0000 -16.1029 0.0000 -25.4967
# 5 -1.7226 -0.3839 -3.2934 0.0000 35.6144 0.0000
# 6 0.0000 0.0000 0.0000 -25.4967 0.0000 -61.3137
#
#
#
# Elastic Compliance Matrix: (Units=1/GPa)
#
#
# Indices 1 2 3 4 5 6 
#
# 1 0.005862 -0.001978 -0.000185 0.000000 0.000245 0.000000
# 2 -0.001978 0.007996 -0.001200 0.000000 -0.000120 0.000000
# 3 -0.000185 -0.001200 0.006641 0.000000 0.000592 0.000000
# 4 0.000000 0.000000 0.000000 -0.181808 0.000000 0.075603
# 5 0.000245 -0.000120 0.000592 0.000000 0.028144 0.000000
# 6 0.000000 0.000000 0.000000 0.075603 0.000000 -0.047748
#
#
# Mechanical properties :
#
#
# Convention : Reuss Voigt Hill
#
# Bulk Modulus (GPa) = 72.60645 73.73635 73.17140
# Shear Modulus (GPa) = -29.48174 17.98492 -5.74841
#
# Velocity S-wave (km/s) = -3.44898 2.69382 -1.52296
# Velocity P-wave (km/s) = 3.66539 6.27911 5.14112
#
# Compressibility (1/GPa) = 0.01377288
#
# Stress axis : x y z
#
# Youngs Moduli (GPa) = 170.58736 125.06041 150.58200
#
# Poissons Ratio (x) = 0.24736 0.02788
# Poissons Ratio (y) = 0.33740 0.18072
# Poissons Ratio (z) = 0.03158 0.15009
#
# Static dielectric constant tensor:
#      x y z
#    x 1.815060 0.000000 -0.011400 
#    y 0.000000 2.005430 0.000000 
#    z -0.011400 0.000000 2.257770 
# 
# From -- ./inp_files/54727.got.cif
#   From: 2010.05.17/outbox.cif.g08.bks.cpg/sg12_28_cif.got.tgz:54727.got - 2010.06.03 13:09:07.
