data_PCOD9186631
_publ_section_title
;
Structure prediction by ZEFSAII (Michael W. Deem and Ramdas Pophale) SiO2 
 PCOD9186631
Probable space group: C 2/M
;
_chemical_formula_sum "Si O2"
_cell_formula_units_Z 56
_cell_length_a 18.809303
_cell_length_b 20.465508
_cell_length_c 25.733615
_cell_angle_alpha 90.000000
_cell_angle_beta 161.108912
_cell_angle_gamma 90.000000
_cell_volume 3207.251231
_symmetry_space_group_name_H-M "C 2/M"
_symmetry_group_IT_number 12
_symmetry_cell_setting 'monoclinic'
loop_
_space_group_symop_operation_xyz
x,y,z
-x,y,-z
-x,-y,-z
x,-y,z
1/2+x,1/2+y,z
1/2-x,1/2+y,-z
1/2-x,1/2-y,-z
1/2+x,1/2-y,z
loop_
_atom_site_type_symbol
_atom_site_label
_atom_site_fract_x
_atom_site_fract_y
_atom_site_fract_z
Si Si1 0.157897 0.180627 0.359295
Si Si2 0.871797 0.134837 0.542403
Si Si3 0.137287 0.000000 0.729778
Si Si4 0.545231 0.247923 0.971309
Si Si5 0.730531 0.867424 0.027592
Si Si6 0.428983 0.000000 0.036152
Si Si7 0.567429 0.178291 0.803007
Si Si8 0.560422 0.750210 0.601373
O O1 0.139314 0.164269 0.407212
O O2 0.408269 0.189643 0.515115
O O3 0.058113 0.252396 0.278928
O O4 0.994616 0.132190 0.216299
O O5 0.621127 0.130961 0.348797
O O6 0.993205 0.065597 0.626530
O O7 0.001566 0.187116 0.596222
O O8 0.323847 0.000000 0.814494
O O9 0.268156 0.000000 0.874841
O O10 0.642648 0.184757 0.009297
O O11 0.316342 0.264799 0.785462
O O12 0.500000 0.233180 0.000000
O O13 0.726062 0.304921 0.090705
O O14 0.658217 0.843038 0.921296
O O15 0.623873 0.935992 0.967540
O O16 0.500000 0.735929 0.500000
#
# Coordination Sequence:
#
# PCOD9186631 Si02
#       8
#     8   8   4   8   8   4   8   8
#     4  10  19  35  55  77 109 149 184 220 268 329
#     4  11  21  38  54  80 114 151 181 218 262 330
#     4  11  24  37  57  83 109 146 190 218 253 321
#     4  11  20  32  55  86 111 143 177 228 280 321
#     4  11  21  37  54  80 116 151 180 219 268 329
#     4  11  24  37  57  83 109 147 188 217 257 321
#     4  10  21  35  54  79 113 147 182 224 278 324
#     4  11  20  32  53  84 113 140 177 230 279 316
#
# _framework density 17.460435
#
# number of rings (size 3 to 8) (size 9 to 14) (size 15 to 20)
#    0.000    1.286    1.429    9.429    2.000    0.571 
#    0.000    1.071    0.000    0.000    0.000   20.000 
#    0.000    0.000    0.000    0.000    0.000    0.000 
#
# Total GULP energy -156338.465374 kJ/mol
# GULP energy per Si atom -5583.516620 kJ/mol
# Density = 1.742069 g / cm^3
# Si number density = 17.460435 Si / 1000 Ang^3
#
#
#
# Elastic Constant Matrix: (Units=GPa)
#
#
# Indices 1 2 3 4 5 6 
#
# 1 59.9148 39.5214 18.7079 0.0256 -7.8137 -0.0303
# 2 39.5214 72.4188 17.4409 -0.0188 10.3415 0.0215
# 3 18.7079 17.4409 87.3341 -0.0149 10.7760 0.0256
# 4 0.0256 -0.0188 -0.0149 21.5917 0.0042 2.2804
# 5 -7.8137 10.3415 10.7760 0.0042 37.3570 -0.0241
# 6 -0.0303 0.0215 0.0256 2.2804 -0.0241 21.4268
#
#
#
# Elastic Compliance Matrix: (Units=1/GPa)
#
#
# Indices 1 2 3 4 5 6 
#
# 1 0.031810 -0.018062 -0.004816 -0.000069 0.013043 0.000091
# 2 -0.018062 0.025165 0.000176 0.000053 -0.010795 -0.000069
# 3 -0.004816 0.000176 0.013041 0.000019 -0.004818 -0.000030
# 4 -0.000069 0.000053 0.000019 0.046841 -0.000043 -0.004985
# 5 0.013043 -0.010795 -0.004818 -0.000043 0.033875 0.000078
# 6 0.000091 -0.000069 -0.000030 -0.004985 0.000078 0.047201
#
#
# Mechanical properties :
#
#
# Convention : Reuss Voigt Hill
#
# Bulk Modulus (GPa) = 40.63346 41.22310 40.92828
# Shear Modulus (GPa) = 19.87736 25.67493 22.77614
#
# Velocity S-wave (km/s) = 3.37771 3.83882 3.61563
# Velocity P-wave (km/s) = 6.20759 6.58099 6.39702
#
# Compressibility (1/GPa) = 0.02461026
#
# Stress axis : x y z
#
# Youngs Moduli (GPa) = 31.43707 39.73764 76.67888
#
# Poissons Ratio (x) = 0.71775 0.36930
# Poissons Ratio (y) = 0.56782 -0.01346
# Poissons Ratio (z) = 0.15141 -0.00698
#
# Static dielectric constant tensor:
#      x y z
#    x 1.595080 0.000000 0.013980 
#    y 0.000000 1.567020 -0.000020 
#    z 0.013980 -0.000020 1.655020 
# 
# From -- ./inp_files/344829.got.cif
#   From: 2010.05.17/outbox.cif.g08.bks.cpg/sg12_173_cif.got.tgz:344829.got - 2010.06.03 13:09:07.
