data_PCOD9186850
_publ_section_title
;
Structure prediction by ZEFSAII (Michael W. Deem and Ramdas Pophale) SiO2 
 PCOD9186850
Probable space group: C 2/M
;
_chemical_formula_sum "Si O2"
_cell_formula_units_Z 56
_cell_length_a 24.279044
_cell_length_b 19.279591
_cell_length_c 7.536550
_cell_angle_alpha 90.000000
_cell_angle_beta 47.896582
_cell_angle_gamma 90.000000
_cell_volume 2617.389387
_symmetry_space_group_name_H-M "C 2/M"
_symmetry_group_IT_number 12
_symmetry_cell_setting 'monoclinic'
loop_
_space_group_symop_operation_xyz
x,y,z
-x,y,-z
-x,-y,-z
x,-y,z
1/2+x,1/2+y,z
1/2-x,1/2+y,-z
1/2-x,1/2-y,-z
1/2+x,1/2-y,z
loop_
_atom_site_type_symbol
_atom_site_label
_atom_site_fract_x
_atom_site_fract_y
_atom_site_fract_z
Si Si1 0.240812 0.077556 0.782570
Si Si2 0.035807 0.307325 0.102844
Si Si3 0.362922 0.921237 0.032005
Si Si4 0.386641 0.140906 0.589910
Si Si5 0.803147 0.074748 0.706735
Si Si6 0.164126 0.219938 0.854047
Si Si7 0.682316 0.275721 0.399207
O O1 0.328113 0.097683 0.594860
O O2 0.190948 0.140284 0.814257
O O3 0.229095 0.000000 0.734443
O O4 0.219972 0.075133 0.036707
O O5 0.096077 0.367016 0.932331
O O6 0.970702 0.346988 0.347504
O O7 0.083256 0.245776 0.091188
O O8 0.000000 0.279888 0.000000
O O9 0.382043 0.894275 0.792056
O O10 0.388290 0.000000 0.000319
O O11 0.273790 0.920950 0.237567
O O12 0.353860 0.218465 0.646514
O O13 0.843480 0.146793 0.586622
O O14 0.838943 0.000000 0.591262
O O15 0.228885 0.264681 0.807883
O O16 0.165712 0.237448 0.641428
#
# Coordination Sequence:
#
# PCOD9186850 Si02
#       7
#     8   8   8   8   8   8   8
#     4   9  20  37  60  88 113 148 191 240 289 337
#     4  12  23  38  53  81 118 154 190 231 280 335
#     4  10  22  38  56  82 115 154 189 225 280 345
#     4  10  21  35  59  83 113 145 187 237 280 341
#     4   9  18  34  58  86 114 141 186 240 287 336
#     4  10  21  35  56  81 115 150 194 235 279 343
#     4  10  19  35  56  83 108 147 192 240 281 329
#
# _framework density 21.395365000000002
#
# number of rings (size 3 to 8) (size 9 to 14) (size 15 to 20)
#    0.000    2.000    2.857    1.714    2.000    4.286 
#    0.000    1.429    0.000    1.286    0.000    2.000 
#    0.000    0.000    0.000    0.000    0.000    0.000 
#
# Total GULP energy -156280.852785 kJ/mol
# GULP energy per Si atom -5581.459028 kJ/mol
# Density = 2.134667 g / cm^3
# Si number density = 21.395365 Si / 1000 Ang^3
#
#
#
# Elastic Constant Matrix: (Units=GPa)
#
#
# Indices 1 2 3 4 5 6 
#
# 1 76.5322 33.1403 4.9603 0.0000 -9.0014 0.0000
# 2 33.1403 184.7900 9.3004 0.0000 -11.0149 0.0000
# 3 4.9603 9.3004 25.3404 0.0000 3.9252 0.0000
# 4 0.0000 0.0000 0.0000 2.0949 0.0000 1.0722
# 5 -9.0014 -11.0149 3.9252 0.0000 15.7017 0.0000
# 6 0.0000 0.0000 0.0000 1.0722 0.0000 31.8355
#
#
#
# Elastic Compliance Matrix: (Units=1/GPa)
#
#
# Indices 1 2 3 4 5 6 
#
# 1 0.015134 -0.002057 -0.003462 0.000000 0.008098 0.000000
# 2 -0.002057 0.006124 -0.002422 0.000000 0.003722 0.000000
# 3 -0.003462 -0.002422 0.043275 0.000000 -0.014501 0.000000
# 4 0.000000 0.000000 0.000000 0.485714 0.000000 -0.016359
# 5 0.008098 0.003722 -0.014501 0.000000 0.074566 0.000000
# 6 0.000000 0.000000 0.000000 -0.016359 0.000000 0.031962
#
#
# Mechanical properties :
#
#
# Convention : Reuss Voigt Hill
#
# Bulk Modulus (GPa) = 20.55395 42.38495 31.46945
# Shear Modulus (GPa) = 7.25821 25.87719 16.56770
#
# Velocity S-wave (km/s) = 1.84385 3.48153 2.78575
# Velocity P-wave (km/s) = 3.76306 6.00123 5.00876
#
# Compressibility (1/GPa) = 0.04865245
#
# Stress axis : x y z
#
# Youngs Moduli (GPa) = 66.07612 163.28551 23.10788
#
# Poissons Ratio (x) = 0.33591 0.07999
# Poissons Ratio (y) = 0.13593 0.05596
# Poissons Ratio (z) = 0.22874 0.39541
#
# Static dielectric constant tensor:
#      x y z
#    x 1.805860 0.000000 0.012240 
#    y 0.000000 1.794820 0.000000 
#    z 0.012240 0.000000 1.851830 
# 
# From -- ./inp_files/98078.got.cif
#   From: 2010.05.17/outbox.cif.g08.bks.cpg/sg12_50_cif.got.tgz:98078.got - 2010.06.03 13:09:07.
