data_PCOD9186206
_publ_section_title
;
Structure prediction by ZEFSAII (Michael W. Deem and Ramdas Pophale) SiO2 
 PCOD9186206
Probable space group: C 2/M
;
_chemical_formula_sum "Si O2"
_cell_formula_units_Z 40
_cell_length_a 14.298623
_cell_length_b 8.541129
_cell_length_c 13.875491
_cell_angle_alpha 90.000000
_cell_angle_beta 102.539020
_cell_angle_gamma 90.000000
_cell_volume 1654.145449
_symmetry_space_group_name_H-M "C 2/M"
_symmetry_group_IT_number 12
_symmetry_cell_setting 'monoclinic'
loop_
_space_group_symop_operation_xyz
x,y,z
-x,y,-z
-x,-y,-z
x,-y,z
1/2+x,1/2+y,z
1/2-x,1/2+y,-z
1/2-x,1/2-y,-z
1/2+x,1/2-y,z
loop_
_atom_site_type_symbol
_atom_site_label
_atom_site_fract_x
_atom_site_fract_y
_atom_site_fract_z
Si Si1 0.365745 0.680969 0.415404
Si Si2 0.843947 0.815953 0.620987
Si Si3 0.471357 0.680640 0.841700
Si Si4 0.643113 0.177392 0.781706
Si Si5 0.308027 0.181046 0.923336
O O1 0.388471 0.500000 0.399062
O O2 0.250502 0.709901 0.394785
O O3 0.397440 0.717111 0.531808
O O4 0.397296 0.786644 0.333167
O O5 0.907892 0.801893 0.730143
O O6 0.813768 0.000000 0.608526
O O7 0.501896 0.500000 0.856231
O O8 0.562496 0.789025 0.843076
O O9 0.403359 0.727910 0.914371
O O10 0.731289 0.292831 0.820471
O O11 0.678458 0.000000 0.795719
O O12 0.329082 0.000000 0.941744
O O13 0.250000 0.250000 0.000000
#
# Coordination Sequence:
#
# PCOD9186206 Si02
#       5
#     8   8   8   8   8
#     4  10  19  34  59  91 127 171 217 263 314 373
#     4   9  19  35  59  90 128 170 214 262 316 374
#     4  11  23  42  67  97 131 169 213 265 319 378
#     4  12  25  42  64  95 132 172 216 264 314 376
#     4  12  26  47  72  98 126 163 207 262 325 387
#
# _framework density 24.181671000000001
#
# number of rings (size 3 to 8) (size 9 to 14) (size 15 to 20)
#    0.000    1.200    2.000    4.800    0.000    3.200 
#    0.000    8.000    0.000    0.000    0.000    0.000 
#    0.000    0.000    0.000    0.000    0.000    0.000 
#
# Total GULP energy -112019.403967 kJ/mol
# GULP energy per Si atom -5600.970198 kJ/mol
# Density = 2.412663 g / cm^3
# Si number density = 24.181671 Si / 1000 Ang^3
#
#
#
# Elastic Constant Matrix: (Units=GPa)
#
#
# Indices 1 2 3 4 5 6 
#
# 1 65.7012 1.9078 14.0765 0.0000 -19.1524 0.0000
# 2 1.9078 69.0799 17.2545 0.0000 -3.2954 0.0000
# 3 14.0765 17.2545 107.0821 0.0000 -24.9669 0.0000
# 4 0.0000 0.0000 0.0000 30.8261 0.0000 -7.4312
# 5 -19.1524 -3.2954 -24.9669 0.0000 49.2073 0.0000
# 6 0.0000 0.0000 0.0000 -7.4312 0.0000 30.2032
#
#
#
# Elastic Compliance Matrix: (Units=1/GPa)
#
#
# Indices 1 2 3 4 5 6 
#
# 1 0.017228 0.000024 -0.000799 0.000000 0.006301 0.000000
# 2 0.000024 0.015086 -0.002491 0.000000 -0.000244 0.000000
# 3 -0.000799 -0.002491 0.011040 0.000000 0.005123 0.000000
# 4 0.000000 0.000000 0.000000 0.034486 0.000000 0.008485
# 5 0.006301 -0.000244 0.005123 0.000000 0.025358 0.000000
# 6 0.000000 0.000000 0.000000 0.008485 0.000000 0.035197
#
#
# Mechanical properties :
#
#
# Convention : Reuss Voigt Hill
#
# Bulk Modulus (GPa) = 27.15796 34.26010 30.70903
# Shear Modulus (GPa) = 31.80678 35.95561 33.88120
#
# Velocity S-wave (km/s) = 3.63068 3.86021 3.74720
# Velocity P-wave (km/s) = 5.36944 5.83668 5.60793
#
# Compressibility (1/GPa) = 0.03682161
#
# Stress axis : x y z
#
# Youngs Moduli (GPa) = 58.04539 66.28729 90.58266
#
# Poissons Ratio (x) = -0.00162 0.07241
# Poissons Ratio (y) = -0.00142 0.22564
# Poissons Ratio (z) = 0.04640 0.16512
#
# Static dielectric constant tensor:
#      x y z
#    x 1.931360 0.000000 0.023490 
#    y 0.000000 1.809280 0.000000 
#    z 0.023490 0.000000 2.028660 
# 
# From -- ./inp_files/211354.got.cif
#   From: 2010.05.17/outbox.cif.g08.bks.cpg/sg12_106_cif.got.tgz:211354.got - 2010.06.03 13:09:07.
