data_PCOD9186300
_publ_section_title
;
Structure prediction by ZEFSAII (Michael W. Deem and Ramdas Pophale) SiO2 
 PCOD9186300
Probable space group: C 2/M
;
_chemical_formula_sum "Si O2"
_cell_formula_units_Z 52
_cell_length_a 28.411313
_cell_length_b 17.120521
_cell_length_c 14.626818
_cell_angle_alpha 90.000000
_cell_angle_beta 19.239011
_cell_angle_gamma 90.000000
_cell_volume 2344.370075
_symmetry_space_group_name_H-M "C 2/M"
_symmetry_group_IT_number 12
_symmetry_cell_setting 'monoclinic'
loop_
_space_group_symop_operation_xyz
x,y,z
-x,y,-z
-x,-y,-z
x,-y,z
1/2+x,1/2+y,z
1/2-x,1/2+y,-z
1/2-x,1/2-y,-z
1/2+x,1/2-y,z
loop_
_atom_site_type_symbol
_atom_site_label
_atom_site_fract_x
_atom_site_fract_y
_atom_site_fract_z
Si Si1 0.159786 0.590075 0.956249
Si Si2 0.909596 0.906020 0.866010
Si Si3 0.000000 0.655446 0.500000
Si Si4 0.295470 0.591845 0.887238
Si Si5 0.376624 0.188912 0.159922
Si Si6 0.073388 0.799997 0.697683
Si Si7 0.887237 0.333638 0.524184
O O1 0.194283 0.500000 0.876889
O O2 0.267518 0.623777 0.836224
O O3 0.001115 0.599342 0.289770
O O4 0.149245 0.637557 0.882976
O O5 0.029820 0.871023 0.711752
O O6 0.909054 0.000000 0.869131
O O7 0.903851 0.882105 0.768455
O O8 0.765256 0.869678 0.173841
O O9 0.139142 0.604626 0.220114
O O10 0.047463 0.702475 0.502254
O O11 0.321649 0.500000 0.826568
O O12 0.217113 0.189048 0.492464
O O13 0.500000 0.157070 0.000000
O O14 0.444277 0.269759 0.997715
O O15 0.110322 0.729148 0.560448
#
# Coordination Sequence:
#
# PCOD9186300 Si02
#       7
#     8   8   4   8   8   8   8
#     4   9  18  34  58  87 120 154 200 247 296 357
#     4  10  19  34  60  90 126 163 201 239 289 358
#     4   8  13  24  46  80 113 158 200 234 268 342
#     4   8  14  27  49  82 120 159 191 233 289 349
#     4  11  24  42  64  84 112 157 203 255 307 361
#     4  11  22  41  61  90 118 154 200 248 306 361
#     4   9  17  33  54  86 121 161 198 240 293 347
#
# _framework density 22.180799
#
# number of rings (size 3 to 8) (size 9 to 14) (size 15 to 20)
#    0.000    2.462    1.538    1.154    0.000    4.615 
#    2.769    3.077    0.000    3.231    0.000    0.000 
#    0.000    0.000    0.000    0.000    0.000    0.000 
#
# Total GULP energy -145007.719990 kJ/mol
# GULP energy per Si atom -5577.220000 kJ/mol
# Density = 2.213031 g / cm^3
# Si number density = 22.180799 Si / 1000 Ang^3
#
#
#
# Elastic Constant Matrix: (Units=GPa)
#
#
# Indices 1 2 3 4 5 6 
#
# 1 106.9518 19.7020 30.2843 0.0001 -26.3457 0.0001
# 2 19.7020 57.8124 8.0001 0.0001 -9.9727 0.0001
# 3 30.2843 8.0001 86.3307 0.0002 -39.6498 0.0002
# 4 0.0001 0.0001 0.0002 -17.6413 0.0000 -47.5365
# 5 -26.3457 -9.9727 -39.6498 0.0000 38.7349 0.0001
# 6 0.0001 0.0001 0.0002 -47.5365 0.0001 -17.6041
#
#
#
# Elastic Compliance Matrix: (Units=1/GPa)
#
#
# Indices 1 2 3 4 5 6 
#
# 1 0.011670 -0.002768 -0.000980 0.000000 0.006222 0.000000
# 2 -0.002768 0.018793 0.001108 0.000000 0.004090 0.000000
# 3 -0.000980 0.001108 0.021985 0.000000 0.022123 0.000000
# 4 0.000000 0.000000 0.000000 0.009032 0.000000 -0.024388
# 5 0.006222 0.004090 0.022123 0.000000 0.053747 0.000000
# 6 0.000000 0.000000 0.000000 -0.024388 0.000000 0.009051
#
#
# Mechanical properties :
#
#
# Convention : Reuss Voigt Hill
#
# Bulk Modulus (GPa) = 21.20085 40.78531 30.99308
# Shear Modulus (GPa) = 34.41629 13.57182 23.99405
#
# Velocity S-wave (km/s) = 3.94334 2.47629 3.29256
# Velocity P-wave (km/s) = 5.50565 5.15787 5.33459
#
# Compressibility (1/GPa) = 0.04716792
#
# Stress axis : x y z
#
# Youngs Moduli (GPa) = 85.68982 53.21173 45.48532
#
# Poissons Ratio (x) = 0.14730 0.04456
# Poissons Ratio (y) = 0.23721 -0.05039
# Poissons Ratio (z) = 0.08395 -0.05895
#
# Static dielectric constant tensor:
#      x y z
#    x 1.856430 0.000000 0.018970 
#    y 0.000000 1.759320 0.000000 
#    z 0.018970 0.000000 1.922650 
# 
# From -- ./inp_files/247184.got.cif
#   From: 2010.05.17/outbox.cif.g08.bks.cpg/sg12_124_cif.got.tgz:247184.got - 2010.06.03 13:09:07.
