data_PCOD9186632
_publ_section_title
;
Structure prediction by ZEFSAII (Michael W. Deem and Ramdas Pophale) SiO2 
 PCOD9186632
Probable space group: C 2/M
;
_chemical_formula_sum "Si O2"
_cell_formula_units_Z 56
_cell_length_a 22.297032
_cell_length_b 8.250210
_cell_length_c 16.824885
_cell_angle_alpha 90.000000
_cell_angle_beta 58.403011
_cell_angle_gamma 90.000000
_cell_volume 2636.201397
_symmetry_space_group_name_H-M "C 2/M"
_symmetry_group_IT_number 12
_symmetry_cell_setting 'monoclinic'
loop_
_space_group_symop_operation_xyz
x,y,z
-x,y,-z
-x,-y,-z
x,-y,z
1/2+x,1/2+y,z
1/2-x,1/2+y,-z
1/2-x,1/2-y,-z
1/2+x,1/2-y,z
loop_
_atom_site_type_symbol
_atom_site_label
_atom_site_fract_x
_atom_site_fract_y
_atom_site_fract_z
Si Si1 0.840630 0.693560 0.610666
Si Si2 0.212599 0.302966 0.106473
Si Si3 0.051391 0.690554 0.213083
Si Si4 0.202536 0.194965 0.797312
Si Si5 0.582951 0.307551 0.772686
Si Si6 0.531454 0.688145 0.396279
Si Si7 0.169055 0.305608 0.559099
O O1 0.853374 0.500000 0.611857
O O2 0.759086 0.720823 0.687398
O O3 0.885981 0.790354 0.642649
O O4 0.859722 0.743525 0.508008
O O5 0.209768 0.500000 0.114206
O O6 0.131315 0.243688 0.159842
O O7 0.259847 0.244795 0.148527
O O8 0.250000 0.250000 0.000000
O O9 0.056212 0.500000 0.199215
O O10 0.017758 0.725803 0.322983
O O11 0.997213 0.754356 0.185096
O O12 0.127881 0.258449 0.816614
O O13 0.195756 0.000000 0.811969
O O14 0.582903 0.500000 0.779024
O O15 0.626410 0.262574 0.662860
O O16 0.500000 0.758973 0.500000
O O17 0.511582 0.500000 0.403661
O O18 0.166828 0.500000 0.564351
O O19 0.250000 0.250000 0.500000
#
# Coordination Sequence:
#
# PCOD9186632 Si02
#       7
#     8   8   8   8   8   8   8
#     4  10  19  35  55  77 111 158 206 248 296 353
#     4  10  22  43  70  94 118 151 199 254 311 375
#     4  11  23  41  63  89 124 164 202 248 309 374
#     4   9  18  38  62  85 115 156 197 240 297 362
#     4  11  22  38  60  87 124 164 206 254 300 357
#     4  11  23  36  53  83 121 160 205 256 301 348
#     4  11  21  33  52  81 120 167 214 255 300 356
#
# _framework density 21.242687
#
# number of rings (size 3 to 8) (size 9 to 14) (size 15 to 20)
#    0.000    1.571    2.857    2.571    0.000    5.714 
#    0.000    2.143    0.000    4.286    0.000    0.000 
#    0.000    0.000    0.000    0.000    0.000    0.000 
#
# Total GULP energy -156318.161858 kJ/mol
# GULP energy per Si atom -5582.791495 kJ/mol
# Density = 2.119434 g / cm^3
# Si number density = 21.242687 Si / 1000 Ang^3
#
#
#
# Elastic Constant Matrix: (Units=GPa)
#
#
# Indices 1 2 3 4 5 6 
#
# 1 198.2232 21.7861 56.8430 0.0000 7.8707 0.0001
# 2 21.7861 21.2584 1.7146 0.0001 -0.4582 0.0002
# 3 56.8430 1.7146 81.7604 0.0001 5.7842 0.0000
# 4 0.0000 0.0001 0.0001 23.7262 0.0000 -1.7270
# 5 7.8707 -0.4582 5.7842 0.0000 21.4488 0.0000
# 6 0.0001 0.0002 0.0000 -1.7270 0.0000 30.1143
#
#
#
# Elastic Compliance Matrix: (Units=1/GPa)
#
#
# Indices 1 2 3 4 5 6 
#
# 1 0.007257 -0.007084 -0.004789 0.000000 -0.001523 0.000000
# 2 -0.007084 0.054070 0.003594 0.000000 0.002785 0.000000
# 3 -0.004789 0.003594 0.015654 0.000000 -0.002387 0.000000
# 4 0.000000 0.000000 0.000000 0.042324 0.000000 0.002427
# 5 -0.001523 0.002785 -0.002387 0.000000 0.047885 0.000000
# 6 0.000000 0.000000 0.000000 0.002427 0.000000 0.033346
#
#
# Mechanical properties :
#
#
# Convention : Reuss Voigt Hill
#
# Bulk Modulus (GPa) = 16.54993 51.32549 33.93771
# Shear Modulus (GPa) = 21.07612 29.78443 25.43027
#
# Velocity S-wave (km/s) = 3.15327 3.74853 3.46371
# Velocity P-wave (km/s) = 4.58969 6.55357 5.65750
#
# Compressibility (1/GPa) = 0.06042323
#
# Stress axis : x y z
#
# Youngs Moduli (GPa) = 137.79370 18.49453 63.88127
#
# Poissons Ratio (x) = 0.13101 0.30594
# Poissons Ratio (y) = 0.97612 -0.22959
# Poissons Ratio (z) = 0.65992 -0.06647
#
# Static dielectric constant tensor:
#      x y z
#    x 1.861580 0.000000 -0.024360 
#    y 0.000000 1.737040 0.000000 
#    z -0.024360 0.000000 1.750720 
# 
# From -- ./inp_files/280867.got.cif
#   From: 2010.05.17/outbox.cif.g08.bks.cpg/sg12_141_cif.got.tgz:280867.got - 2010.06.03 13:09:07.
