data_PCOD9186513
_publ_section_title
;
Structure prediction by ZEFSAII (Michael W. Deem and Ramdas Pophale) SiO2 
 PCOD9186513
Probable space group: C 2/M
;
_chemical_formula_sum "Si O2"
_cell_formula_units_Z 64
_cell_length_a 26.433616
_cell_length_b 14.373026
_cell_length_c 20.250028
_cell_angle_alpha 90.000000
_cell_angle_beta 154.011376
_cell_angle_gamma 90.000000
_cell_volume 3371.285543
_symmetry_space_group_name_H-M "C 2/M"
_symmetry_group_IT_number 12
_symmetry_cell_setting 'monoclinic'
loop_
_space_group_symop_operation_xyz
x,y,z
-x,y,-z
-x,-y,-z
x,-y,z
1/2+x,1/2+y,z
1/2-x,1/2+y,-z
1/2-x,1/2-y,-z
1/2+x,1/2-y,z
loop_
_atom_site_type_symbol
_atom_site_label
_atom_site_fract_x
_atom_site_fract_y
_atom_site_fract_z
Si Si1 0.432533 0.104984 0.858762
Si Si2 0.761486 0.803441 0.098656
Si Si3 0.295571 0.099843 0.467906
Si Si4 0.323731 0.393549 0.040303
Si Si5 0.497116 0.147065 0.196036
Si Si6 0.077078 0.853802 0.303966
Si Si7 0.807666 0.801401 0.425934
Si Si8 0.862702 0.108576 0.349900
O O1 0.508564 0.102794 0.882589
O O2 0.321237 0.164146 0.713166
O O3 0.396515 0.000000 0.833733
O O4 0.500000 0.144866 0.000000
O O5 0.750856 0.690564 0.080835
O O6 0.801918 0.839323 0.217220
O O7 0.838176 0.851110 0.131415
O O8 0.632446 0.840807 0.930756
O O9 0.410386 0.099342 0.648054
O O10 0.182675 0.110134 0.382986
O O11 0.309053 0.190318 0.437976
O O12 0.286379 0.000000 0.422543
O O13 0.277428 0.500000 0.987549
O O14 0.450225 0.398532 0.155077
O O15 0.550584 0.249314 0.250519
O O16 0.118575 0.847480 0.428579
O O17 0.840274 0.838444 0.392246
O O18 0.000000 0.108816 0.500000
O O19 0.824789 0.000000 0.308736
#
# Coordination Sequence:
#
# PCOD9186513 Si02
#       8
#     8   8   8   8   8   8   8   8
#     4  11  21  31  49  78 108 145 184 225 286 346
#     4  10  22  39  59  87 122 155 188 240 291 344
#     4  11  21  35  59  86 115 154 196 242 292 343
#     4  10  21  37  62  90 116 153 198 240 287 341
#     4  10  19  35  53  80 118 150 183 233 293 342
#     4  10  19  36  59  84 114 151 196 246 287 335
#     4  11  21  37  55  83 116 148 190 242 288 342
#     4  11  24  41  62  86 115 154 195 236 288 348
#
# _framework density 18.983855999999999
#
# number of rings (size 3 to 8) (size 9 to 14) (size 15 to 20)
#    0.000    1.500    2.500    3.750    0.000    6.500 
#    0.000    0.625    0.000    1.125    0.000    0.000 
#    0.000    0.000    0.000    0.000    0.000    0.000 
#
# Total GULP energy -178438.455960 kJ/mol
# GULP energy per Si atom -5576.201749 kJ/mol
# Density = 1.894065 g / cm^3
# Si number density = 18.983856 Si / 1000 Ang^3
#
#
#
# Elastic Constant Matrix: (Units=GPa)
#
#
# Indices 1 2 3 4 5 6 
#
# 1 91.2297 37.0514 20.1620 0.0000 -11.8231 0.0000
# 2 37.0514 150.9345 30.0771 0.0000 -12.2473 0.0000
# 3 20.1620 30.0771 67.2596 0.0000 -2.5963 0.0000
# 4 0.0000 0.0000 0.0000 20.7755 0.0000 -16.6470
# 5 -11.8231 -12.2473 -2.5963 0.0000 31.9146 0.0000
# 6 0.0000 0.0000 0.0000 -16.6470 0.0000 96.7239
#
#
#
# Elastic Compliance Matrix: (Units=1/GPa)
#
#
# Indices 1 2 3 4 5 6 
#
# 1 0.012991 -0.002352 -0.002700 0.000000 0.003691 0.000000
# 2 -0.002352 0.007909 -0.002757 0.000000 0.001940 0.000000
# 3 -0.002700 -0.002757 0.016884 0.000000 -0.000685 0.000000
# 4 0.000000 0.000000 0.000000 0.055833 0.000000 0.009609
# 5 0.003691 0.001940 -0.000685 0.000000 0.033390 0.000000
# 6 0.000000 0.000000 0.000000 0.009609 0.000000 0.011993
#
#
# Mechanical properties :
#
#
# Convention : Reuss Voigt Hill
#
# Bulk Modulus (GPa) = 45.11300 53.77831 49.44565
# Shear Modulus (GPa) = 30.86281 44.69169 37.77725
#
# Velocity S-wave (km/s) = 4.03642 4.85727 4.46574
# Velocity P-wave (km/s) = 6.74826 7.73611 7.25901
#
# Compressibility (1/GPa) = 0.02216656
#
# Stress axis : x y z
#
# Youngs Moduli (GPa) = 76.97350 126.43049 59.22859
#
# Poissons Ratio (x) = 0.29731 0.15994
# Poissons Ratio (y) = 0.18101 0.16330
# Poissons Ratio (z) = 0.20785 0.34859
#
# Static dielectric constant tensor:
#      x y z
#    x 1.815410 0.000000 -0.020880 
#    y 0.000000 1.734350 0.000000 
#    z -0.020880 0.000000 1.676670 
# 
# From -- ./inp_files/290158.got.cif
#   From: 2010.05.17/outbox.cif.g08.bks.cpg/sg12_146_cif.got.tgz:290158.got - 2010.06.03 13:09:07.
