data_PCOD9186581
_publ_section_title
;
Structure prediction by ZEFSAII (Michael W. Deem and Ramdas Pophale) SiO2 
 PCOD9186581
Probable space group: C 2/M
;
_chemical_formula_sum "Si O2"
_cell_formula_units_Z 32
_cell_length_a 14.136141
_cell_length_b 7.905658
_cell_length_c 21.528165
_cell_angle_alpha 90.000000
_cell_angle_beta 131.730173
_cell_angle_gamma 90.000000
_cell_volume 1795.486818
_symmetry_space_group_name_H-M "C 2/M"
_symmetry_group_IT_number 12
_symmetry_cell_setting 'monoclinic'
loop_
_space_group_symop_operation_xyz
x,y,z
-x,y,-z
-x,-y,-z
x,-y,z
1/2+x,1/2+y,z
1/2-x,1/2+y,-z
1/2-x,1/2-y,-z
1/2+x,1/2-y,z
loop_
_atom_site_type_symbol
_atom_site_label
_atom_site_fract_x
_atom_site_fract_y
_atom_site_fract_z
Si Si1 0.044183 0.684252 0.824661
Si Si2 0.384292 0.699370 0.638950
Si Si3 0.002334 0.000000 0.896685
Si Si4 0.096866 0.704858 0.489434
Si Si5 0.711587 0.500000 0.096392
O O1 0.010446 0.500000 0.837863
O O2 0.191497 0.658162 0.869080
O O3 0.962637 0.711809 0.726975
O O4 0.019365 0.835679 0.860906
O O5 0.382434 0.500000 0.652119
O O6 0.238928 0.760683 0.569432
O O7 0.438905 0.728293 0.594013
O O8 0.868760 0.000000 0.875345
O O9 0.111753 0.000000 0.996684
O O10 0.098061 0.500000 0.486542
O O11 0.000000 0.757725 0.500000
#
# Coordination Sequence:
#
# PCOD9186581 Si02
#       5
#     8   8   4   8   4
#     4  10  22  39  62  91 121 162 196 249 304 355
#     4  10  19  35  54  81 118 151 192 247 289 343
#     4  11  20  46  63  88 129 150 205 252 294 367
#     4   9  19  34  54  77 110 155 196 238 290 345
#     4   9  24  40  65  94 117 162 199 248 302 363
#
# _framework density 17.822464
#
# number of rings (size 3 to 8) (size 9 to 14) (size 15 to 20)
#    0.750    1.500    1.250    1.500    0.000    3.500 
#    2.250    3.750    0.000    0.000    0.000    0.000 
#    0.000    0.000    0.000    0.000    0.000    0.000 
#
# Total GULP energy -89166.933928 kJ/mol
# GULP energy per Si atom -5572.933371 kJ/mol
# Density = 1.778190 g / cm^3
# Si number density = 17.822464 Si / 1000 Ang^3
#
#
#
# Elastic Constant Matrix: (Units=GPa)
#
#
# Indices 1 2 3 4 5 6 
#
# 1 138.0598 53.2913 52.1075 0.0000 -16.1467 0.0000
# 2 53.2913 101.3055 40.5099 0.0000 -7.8775 0.0000
# 3 52.1075 40.5099 102.7183 0.0000 -10.3643 0.0000
# 4 0.0000 0.0000 0.0000 -11.4172 0.0000 56.4444
# 5 -16.1467 -7.8775 -10.3643 0.0000 6.7888 0.0000
# 6 0.0000 0.0000 0.0000 56.4444 0.0000 -57.8800
#
#
#
# Elastic Compliance Matrix: (Units=1/GPa)
#
#
# Indices 1 2 3 4 5 6 
#
# 1 0.012034 -0.003713 -0.002585 0.000000 0.020367 0.000000
# 2 -0.003713 0.013219 -0.003160 0.000000 0.001684 0.000000
# 3 -0.002585 -0.003160 0.013361 0.000000 0.010582 0.000000
# 4 0.000000 0.000000 0.000000 0.022921 0.000000 0.022353
# 5 0.020367 0.001684 0.010582 0.000000 0.213853 0.000000
# 6 0.000000 0.000000 0.000000 0.022353 0.000000 0.004521
#
#
# Mechanical properties :
#
#
# Convention : Reuss Voigt Hill
#
# Bulk Modulus (GPa) = 50.76799 70.43345 60.60072
# Shear Modulus (GPa) = 16.37238 0.57663 8.47450
#
# Velocity S-wave (km/s) = 3.03419 0.56943 2.18295
# Velocity P-wave (km/s) = 6.38923 6.32753 6.35846
#
# Compressibility (1/GPa) = 0.01969745
#
# Stress axis : x y z
#
# Youngs Moduli (GPa) = 83.09579 75.64995 74.84587
#
# Poissons Ratio (x) = 0.28089 0.19351
# Poissons Ratio (y) = 0.30853 0.23650
# Poissons Ratio (z) = 0.21484 0.23904
#
# Static dielectric constant tensor:
#      x y z
#    x 1.598800 0.000000 0.018160 
#    y 0.000000 1.625920 0.000000 
#    z 0.018160 0.000000 1.582970 
# 
# From -- ./inp_files/307833.got.cif
#   From: 2010.05.17/outbox.cif.g08.bks.cpg/sg12_154_cif.got.tgz:307833.got - 2010.06.03 13:09:07.
