data_PCOD9186534
_publ_section_title
;
Structure prediction by ZEFSAII (Michael W. Deem and Ramdas Pophale) SiO2 
 PCOD9186534
Probable space group: C 2/M
;
_chemical_formula_sum "Si O2"
_cell_formula_units_Z 56
_cell_length_a 14.925580
_cell_length_b 7.575851
_cell_length_c 31.123600
_cell_angle_alpha 90.000000
_cell_angle_beta 52.209286
_cell_angle_gamma 90.000000
_cell_volume 2781.117603
_symmetry_space_group_name_H-M "C 2/M"
_symmetry_group_IT_number 12
_symmetry_cell_setting 'monoclinic'
loop_
_space_group_symop_operation_xyz
x,y,z
-x,y,-z
-x,-y,-z
x,-y,z
1/2+x,1/2+y,z
1/2-x,1/2+y,-z
1/2-x,1/2-y,-z
1/2+x,1/2-y,z
loop_
_atom_site_type_symbol
_atom_site_label
_atom_site_fract_x
_atom_site_fract_y
_atom_site_fract_z
Si Si1 0.705421 0.789825 0.560980
Si Si2 0.921959 0.713191 0.061890
Si Si3 0.908647 0.296673 0.559561
Si Si4 0.966094 0.289522 0.144966
Si Si5 0.337147 0.210481 0.850157
Si Si6 0.445412 0.215958 0.643339
Si Si7 0.792994 0.713238 0.767087
O O1 0.750000 0.750000 0.500000
O O2 0.790226 0.708036 0.570284
O O3 0.576846 0.731112 0.605939
O O4 0.708912 0.000000 0.565375
O O5 0.928324 0.500000 0.060867
O O6 0.963094 0.778970 0.096686
O O7 0.789835 0.759511 0.095082
O O8 0.000000 0.776787 0.000000
O O9 0.946853 0.500000 0.554471
O O10 0.902266 0.223111 0.609302
O O11 0.000000 0.213534 0.500000
O O12 0.983624 0.500000 0.136730
O O13 0.839137 0.259621 0.199749
O O14 0.064480 0.219205 0.147398
O O15 0.334272 0.278909 0.801829
O O16 0.354720 0.000000 0.841941
O O17 0.370457 0.277771 0.705253
O O18 0.441336 0.000000 0.646116
O O19 0.799023 0.500000 0.766304
#
# Coordination Sequence:
#
# PCOD9186534 Si02
#       7
#     8   8   8   8   8   8   8
#     4  11  21  35  54  77 102 132 167 205 251 305
#     4   9  18  32  49  72 103 136 169 205 248 297
#     4  10  19  35  54  72  98 133 164 199 251 304
#     4   9  18  33  51  72 101 133 164 209 258 292
#     4   9  18  32  51  73  99 132 167 205 250 295
#     4   9  19  35  53  72 100 133 162 201 256 306
#     4   9  18  34  53  72  95 129 170 205 245 302
#
# _framework density 20.135791999999999
#
# number of rings (size 3 to 8) (size 9 to 14) (size 15 to 20)
#    0.000    2.571    1.429    0.429    0.000    2.857 
#    0.000    3.571    0.000    0.000    0.000    0.000 
#    0.000    0.000    0.000    0.000    0.000    0.000 
#
# Total GULP energy -156212.979187 kJ/mol
# GULP energy per Si atom -5579.034971 kJ/mol
# Density = 2.008996 g / cm^3
# Si number density = 20.135792 Si / 1000 Ang^3
#
#
#
# Elastic Constant Matrix: (Units=GPa)
#
#
# Indices 1 2 3 4 5 6 
#
# 1 197.0364 -3.8583 114.4917 0.0000 0.3800 -0.0005
# 2 -3.8583 44.2384 -6.0506 -0.0001 4.6109 -0.0014
# 3 114.4917 -6.0506 199.7503 -0.0001 2.0209 0.0000
# 4 0.0000 -0.0001 -0.0001 7.2039 -0.0001 -11.5884
# 5 0.3800 4.6109 2.0209 -0.0001 12.0886 0.0000
# 6 -0.0005 -0.0014 0.0000 -11.5884 0.0000 11.9434
#
#
#
# Elastic Compliance Matrix: (Units=1/GPa)
#
#
# Indices 1 2 3 4 5 6 
#
# 1 0.007613 0.000016 -0.004368 -0.000001 0.000485 -0.000001
# 2 0.000016 0.023671 0.000801 -0.000008 -0.009163 -0.000005
# 3 -0.004368 0.000801 0.007548 0.000000 -0.001430 0.000000
# 4 -0.000001 -0.000008 0.000000 -0.247513 0.000000 -0.240158
# 5 0.000485 -0.009163 -0.001430 0.000000 0.086441 -0.000001
# 6 -0.000001 -0.000005 0.000000 -0.240158 -0.000001 -0.149293
#
#
# Mechanical properties :
#
#
# Convention : Reuss Voigt Hill
#
# Bulk Modulus (GPa) = 31.51662 72.24344 51.88003
# Shear Modulus (GPa) = -19.69632 28.67666 4.49017
#
# Velocity S-wave (km/s) = -3.13097 3.77790 1.49492
# Velocity P-wave (km/s) = 1.61721 7.41526 5.36663
#
# Compressibility (1/GPa) = 0.03172929
#
# Stress axis : x y z
#
# Youngs Moduli (GPa) = 131.36233 42.24633 132.47778
#
# Poissons Ratio (x) = -0.00068 0.57863
# Poissons Ratio (y) = -0.00210 -0.10605
# Poissons Ratio (z) = 0.57375 -0.03382
#
# Static dielectric constant tensor:
#      x y z
#    x 1.686480 0.000000 0.027570 
#    y 0.000000 1.753000 0.000000 
#    z 0.027570 0.000000 1.694640 
# 
# From -- ./inp_files/359658.got.cif
#   From: 2010.05.17/outbox.cif.g08.bks.cpg/sg12_180_cif.got.tgz:359658.got - 2010.06.03 13:09:07.
