data_PCOD9186265
_publ_section_title
;
Structure prediction by ZEFSAII (Michael W. Deem and Ramdas Pophale) SiO2 
 PCOD9186265
Probable space group: C 2/M
;
_chemical_formula_sum "Si O2"
_cell_formula_units_Z 60
_cell_length_a 9.601095
_cell_length_b 19.728198
_cell_length_c 16.699884
_cell_angle_alpha 90.000000
_cell_angle_beta 84.467914
_cell_angle_gamma 90.000000
_cell_volume 3148.430640
_symmetry_space_group_name_H-M "C 2/M"
_symmetry_group_IT_number 12
_symmetry_cell_setting 'monoclinic'
loop_
_space_group_symop_operation_xyz
x,y,z
-x,y,-z
-x,-y,-z
x,-y,z
1/2+x,1/2+y,z
1/2-x,1/2+y,-z
1/2-x,1/2-y,-z
1/2+x,1/2-y,z
loop_
_atom_site_type_symbol
_atom_site_label
_atom_site_fract_x
_atom_site_fract_y
_atom_site_fract_z
Si Si1 0.040898 0.073986 0.680882
Si Si2 0.922614 0.226950 0.330274
Si Si3 0.917617 0.710353 0.171669
Si Si4 0.163528 0.923053 0.009591
Si Si5 0.500000 0.596728 0.500000
Si Si6 0.234333 0.921189 0.192402
Si Si7 0.790319 0.704596 0.922067
Si Si8 0.179524 0.210870 0.430917
O O1 0.116010 0.147599 0.682026
O O2 0.023384 0.066258 0.586134
O O3 0.894427 0.085116 0.737256
O O4 0.096679 0.000000 0.707042
O O5 0.985748 0.255765 0.245925
O O6 0.792269 0.275573 0.356141
O O7 0.032151 0.230957 0.397768
O O8 0.849302 0.637550 0.195834
O O9 0.799091 0.761311 0.144489
O O10 0.044723 0.704623 0.102787
O O11 0.182878 0.910616 0.103516
O O12 0.209332 0.000000 0.991070
O O13 0.242583 0.870358 0.949124
O O14 0.000000 0.917145 0.000000
O O15 0.640209 0.639458 0.471885
O O16 0.283168 0.000000 0.196218
O O17 0.750000 0.750000 0.000000
O O18 0.250000 0.250000 0.500000
#
# Coordination Sequence:
#
# PCOD9186265 Si02
#       8
#     8   8   8   8   4   8   8   8
#     4  10  20  35  56  87 118 150 193 243 292 353
#     4  11  23  36  59  88 119 156 196 242 304 354
#     4  12  24  41  59  89 120 158 201 254 303 366
#     4  10  22  40  61  86 119 159 201 251 310 362
#     4  10  19  34  60  88 117 150 192 240 297 346
#     4  10  22  40  62  86 119 162 204 249 303 364
#     4  12  24  38  60  87 120 153 201 255 305 352
#     4  11  18  36  57  87 119 147 192 243 289 353
#
# _framework density 19.057113999999999
#
# number of rings (size 3 to 8) (size 9 to 14) (size 15 to 20)
#    0.000    1.200    4.000    4.600    1.867    0.533 
#    0.000    1.333    0.000    2.400    0.000    3.267 
#    0.000    0.000    0.000    0.000    0.000    0.000 
#
# Total GULP energy -167006.920247 kJ/mol
# GULP energy per Si atom -5566.897342 kJ/mol
# Density = 1.901374 g / cm^3
# Si number density = 19.057114 Si / 1000 Ang^3
#
#
#
# Elastic Constant Matrix: (Units=GPa)
#
#
# Indices 1 2 3 4 5 6 
#
# 1 60.1562 32.9352 20.2512 0.0000 -11.7183 0.0000
# 2 32.9352 115.6004 45.9316 0.0000 -9.5817 0.0000
# 3 20.2512 45.9316 75.7142 0.0000 -11.2778 0.0000
# 4 0.0000 0.0000 0.0000 24.3284 0.0000 0.0722
# 5 -11.7183 -9.5817 -11.2778 0.0000 39.0431 0.0000
# 6 0.0000 0.0000 0.0000 0.0722 0.0000 1.5600
#
#
#
# Elastic Compliance Matrix: (Units=1/GPa)
#
#
# Indices 1 2 3 4 5 6 
#
# 1 0.020774 -0.004749 -0.002006 0.000000 0.004490 0.000000
# 2 -0.004749 0.012510 -0.006347 0.000000 -0.000189 0.000000
# 3 -0.002006 -0.006347 0.018049 0.000000 0.003054 0.000000
# 4 0.000000 0.000000 0.000000 0.041110 0.000000 -0.001903
# 5 0.004490 -0.000189 0.003054 0.000000 0.027796 0.000000
# 6 0.000000 0.000000 0.000000 -0.001903 0.000000 0.641132
#
#
# Mechanical properties :
#
#
# Convention : Reuss Voigt Hill
#
# Bulk Modulus (GPa) = 39.79649 49.96741 44.88195
# Shear Modulus (GPa) = 6.28179 23.14315 14.71247
#
# Velocity S-wave (km/s) = 1.81754 3.48862 2.78154
# Velocity P-wave (km/s) = 5.03316 6.51951 5.82395
#
# Compressibility (1/GPa) = 0.02512785
#
# Stress axis : x y z
#
# Youngs Moduli (GPa) = 48.13805 79.93809 55.40371
#
# Poissons Ratio (x) = 0.37964 0.11117
# Poissons Ratio (y) = 0.22861 0.35164
# Poissons Ratio (z) = 0.09659 0.50735
#
# Static dielectric constant tensor:
#      x y z
#    x 1.646710 0.000000 -0.000950 
#    y 0.000000 1.717280 0.000000 
#    z -0.000950 0.000000 1.727690 
# 
# From -- ./inp_files/258063.got.cif
#   From: 2010.05.17/outbox.cif.g08.bks.cpg/sg12_130_cif.got.tgz:258063.got - 2010.06.03 13:09:07.
