data_PCOD9186326
_publ_section_title
;
Structure prediction by ZEFSAII (Michael W. Deem and Ramdas Pophale) SiO2 
 PCOD9186326
Probable space group: C 2/M
;
_chemical_formula_sum "Si O2"
_cell_formula_units_Z 64
_cell_length_a 17.335858
_cell_length_b 17.913548
_cell_length_c 9.037614
_cell_angle_alpha 90.000000
_cell_angle_beta 103.838399
_cell_angle_gamma 90.000000
_cell_volume 2725.137571
_symmetry_space_group_name_H-M "C 2/M"
_symmetry_group_IT_number 12
_symmetry_cell_setting 'monoclinic'
loop_
_space_group_symop_operation_xyz
x,y,z
-x,y,-z
-x,-y,-z
x,-y,z
1/2+x,1/2+y,z
1/2-x,1/2+y,-z
1/2-x,1/2-y,-z
1/2+x,1/2-y,z
loop_
_atom_site_type_symbol
_atom_site_label
_atom_site_fract_x
_atom_site_fract_y
_atom_site_fract_z
Si Si1 0.076207 0.803764 0.232464
Si Si2 0.060533 0.654991 0.406878
Si Si3 0.789627 0.263493 0.862372
Si Si4 0.676757 0.856437 0.720028
Si Si5 0.197156 0.078888 0.386434
Si Si6 0.541983 0.588618 0.681897
Si Si7 0.268443 0.416112 0.263498
Si Si8 0.544232 0.914042 0.870380
O O1 0.072313 0.723497 0.304718
O O2 0.126656 0.780692 0.109624
O O3 0.137612 0.853539 0.352388
O O4 0.997400 0.853764 0.217468
O O5 0.129434 0.631035 0.547024
O O6 0.000000 0.686420 0.500000
O O7 0.020933 0.590951 0.290800
O O8 0.723044 0.222136 0.729873
O O9 0.787408 0.350839 0.823592
O O10 0.750000 0.250000 0.000000
O O11 0.747927 0.915075 0.733507
O O12 0.618309 0.868365 0.832321
O O13 0.240290 0.082139 0.563371
O O14 0.153168 0.000000 0.364291
O O15 0.500000 0.600948 0.500000
O O16 0.531387 0.500000 0.712113
O O17 0.637516 0.600309 0.719424
O O18 0.251011 0.500000 0.199175
O O19 0.568134 0.000000 0.905240
O O20 0.500000 0.886903 0.000000
#
# Coordination Sequence:
#
# PCOD9186326 Si02
#       8
#     8   8   8   8   8   8   8   8
#     4  11  21  36  60  91 128 165 208 262 322 388
#     4  10  22  36  61  95 119 159 206 265 314 370
#     4  11  26  44  61  90 129 177 224 269 331 395
#     4  10  22  39  63  90 124 165 215 271 319 384
#     4  10  19  34  60  93 127 161 203 262 323 390
#     4  10  19  34  62  99 134 162 199 263 336 398
#     4  10  21  39  65  95 131 169 212 267 333 398
#     4  10  23  42  63  90 126 166 210 264 328 396
#
# _framework density 23.485054000000002
#
# number of rings (size 3 to 8) (size 9 to 14) (size 15 to 20)
#    0.000    1.750    1.250    2.625    5.250    4.750 
#    0.000    5.000    0.000    1.500    0.000    0.000 
#    0.000    0.000    0.000    0.000    0.000    0.000 
#
# Total GULP energy -178373.282041 kJ/mol
# GULP energy per Si atom -5574.165064 kJ/mol
# Density = 2.343160 g / cm^3
# Si number density = 23.485054 Si / 1000 Ang^3
#
#
#
# Elastic Constant Matrix: (Units=GPa)
#
#
# Indices 1 2 3 4 5 6 
#
# 1 106.8119 36.0587 32.6702 0.0000 -38.9164 0.0000
# 2 36.0587 117.4430 7.9871 0.0000 -14.3247 0.0000
# 3 32.6702 7.9871 58.8695 0.0000 -22.2203 0.0000
# 4 0.0000 0.0000 0.0000 8.1584 0.0000 -11.3813
# 5 -38.9164 -14.3247 -22.2203 0.0000 47.7928 0.0000
# 6 0.0000 0.0000 0.0000 -11.3813 0.0000 46.8626
#
#
#
# Elastic Compliance Matrix: (Units=1/GPa)
#
#
# Indices 1 2 3 4 5 6 
#
# 1 0.015231 -0.003231 -0.004486 0.000000 0.009348 0.000000
# 2 -0.003231 0.009526 0.000710 0.000000 0.000554 0.000000
# 3 -0.004486 0.000710 0.021930 0.000000 0.006756 0.000000
# 4 0.000000 0.000000 0.000000 0.185381 0.000000 0.045023
# 5 0.009348 0.000554 0.006756 0.000000 0.031843 0.000000
# 6 0.000000 0.000000 0.000000 0.045023 0.000000 0.032273
#
#
# Mechanical properties :
#
#
# Convention : Reuss Voigt Hill
#
# Bulk Modulus (GPa) = 30.60621 48.50628 39.55625
# Shear Modulus (GPa) = 15.57200 34.32333 24.94766
#
# Velocity S-wave (km/s) = 2.57779 3.82710 3.26280
# Velocity P-wave (km/s) = 4.68193 6.34254 5.57442
#
# Compressibility (1/GPa) = 0.03267310
#
# Stress axis : x y z
#
# Youngs Moduli (GPa) = 65.65522 104.97416 45.59989
#
# Poissons Ratio (x) = 0.33919 0.20455
# Poissons Ratio (y) = 0.21214 -0.03237
# Poissons Ratio (z) = 0.29451 -0.07452
#
# Static dielectric constant tensor:
#      x y z
#    x 2.025950 0.000000 -0.045360 
#    y 0.000000 1.811300 0.000000 
#    z -0.045360 0.000000 1.925390 
# 
# From -- ./inp_files/87970.got.cif
#   From: 2010.05.17/outbox.cif.g08.bks.cpg/sg12_44_cif.got.tgz:87970.got - 2010.06.03 13:09:07.
