data_PCOD9186260
_publ_section_title
;
Structure prediction by ZEFSAII (Michael W. Deem and Ramdas Pophale) SiO2 
 PCOD9186260
Probable space group: C 2/M
;
_chemical_formula_sum "Si O2"
_cell_formula_units_Z 52
_cell_length_a 22.316477
_cell_length_b 30.658301
_cell_length_c 9.529965
_cell_angle_alpha 90.000000
_cell_angle_beta 27.791527
_cell_angle_gamma 90.000000
_cell_volume 3040.109963
_symmetry_space_group_name_H-M "C 2/M"
_symmetry_group_IT_number 12
_symmetry_cell_setting 'monoclinic'
loop_
_space_group_symop_operation_xyz
x,y,z
-x,y,-z
-x,-y,-z
x,-y,z
1/2+x,1/2+y,z
1/2-x,1/2+y,-z
1/2-x,1/2-y,-z
1/2+x,1/2-y,z
loop_
_atom_site_type_symbol
_atom_site_label
_atom_site_fract_x
_atom_site_fract_y
_atom_site_fract_z
Si Si1 0.880815 0.246116 0.640215
Si Si2 0.612774 0.842063 0.384293
Si Si3 0.991397 0.406924 0.177822
Si Si4 0.625737 0.650993 0.335754
Si Si5 0.843301 0.500000 0.822610
Si Si6 0.352962 0.000000 0.480833
Si Si7 0.240251 0.072305 0.247650
Si Si8 0.351464 0.500000 0.346943
O O1 0.893787 0.292862 0.538794
O O2 0.878604 0.198112 0.576685
O O3 0.000000 0.244589 0.500000
O O4 0.750000 0.250000 0.000000
O O5 0.500000 0.846381 0.500000
O O6 0.594954 0.877477 0.542010
O O7 0.747641 0.847931 0.025190
O O8 0.939063 0.456602 0.285615
O O9 0.000000 0.391646 0.000000
O O10 0.132220 0.406357 0.953021
O O11 0.500000 0.646938 0.500000
O O12 0.643912 0.609494 0.396550
O O13 0.802940 0.500000 0.744226
O O14 0.000000 0.500000 0.500000
O O15 0.788802 0.541830 0.018473
O O16 0.241518 0.000000 0.595691
O O17 0.181564 0.041430 0.487958
O O18 0.500000 0.500000 0.000000
#
# Coordination Sequence:
#
# PCOD9186260 Si02
#       8
#     8   8   8   8   4   4   8   4
#     4   8  16  31  53  85 114 146 182 234 286 338
#     4  10  19  34  60  88 113 149 198 240 285 334
#     4  12  22  35  58  86 115 147 194 243 287 333
#     4  10  20  35  58  89 121 147 186 241 294 342
#     4  11  21  33  60  88 114 135 186 254 295 321
#     4  12  22  36  58  85 114 148 189 235 293 331
#     4  11  22  38  58  87 112 148 193 242 282 338
#     4  11  26  44  56  74 119 164 193 221 286 367
#
# _framework density 17.104644
#
# number of rings (size 3 to 8) (size 9 to 14) (size 15 to 20)
#    0.000    1.538    4.615    1.615    0.000    2.462 
#    0.000    1.538    0.000    1.846    0.000    0.000 
#    0.000    0.000    0.000    0.000    0.000    0.000 
#
# Total GULP energy -144996.521137 kJ/mol
# GULP energy per Si atom -5576.789275 kJ/mol
# Density = 1.706571 g / cm^3
# Si number density = 17.104644 Si / 1000 Ang^3
#
#
#
# Elastic Constant Matrix: (Units=GPa)
#
#
# Indices 1 2 3 4 5 6 
#
# 1 95.1686 43.3939 33.5607 0.0000 -0.2050 -0.0001
# 2 43.3939 116.5244 14.5281 0.0000 3.4308 0.0000
# 3 33.5607 14.5281 74.4461 0.0000 -8.3575 -0.0002
# 4 0.0000 0.0000 0.0000 15.2448 0.0000 -12.6895
# 5 -0.2050 3.4308 -8.3575 0.0000 36.0984 0.0001
# 6 -0.0001 0.0000 -0.0002 -12.6895 0.0001 12.2354
#
#
#
# Elastic Compliance Matrix: (Units=1/GPa)
#
#
# Indices 1 2 3 4 5 6 
#
# 1 0.014707 -0.004730 -0.005798 0.000000 -0.000809 0.000000
# 2 -0.004730 0.010374 -0.000006 0.000000 -0.001014 0.000000
# 3 -0.005798 -0.000006 0.016472 0.000001 0.003781 0.000001
# 4 0.000000 0.000000 0.000001 0.479797 -0.000002 0.497607
# 5 -0.000809 -0.001014 0.003781 -0.000002 0.028669 -0.000002
# 6 0.000000 0.000000 0.000001 0.497607 -0.000002 0.597808
#
#
# Mechanical properties :
#
#
# Convention : Reuss Voigt Hill
#
# Bulk Modulus (GPa) = 48.81593 52.12272 50.46932
# Shear Modulus (GPa) = 4.25270 25.69280 14.97275
#
# Velocity S-wave (km/s) = 1.57851 3.87989 2.96186
# Velocity P-wave (km/s) = 5.65011 7.11410 6.42395
#
# Compressibility (1/GPa) = 0.02048512
#
# Stress axis : x y z
#
# Youngs Moduli (GPa) = 67.99290 96.39406 60.70945
#
# Poissons Ratio (x) = 0.45598 0.35199
# Poissons Ratio (y) = 0.32163 0.00036
# Poissons Ratio (z) = 0.39422 0.00057
#
# Static dielectric constant tensor:
#      x y z
#    x 1.557820 0.000000 -0.001570 
#    y 0.000000 1.638210 0.000000 
#    z -0.001570 0.000000 1.564810 
# 
# From -- ./inp_files/53780.got.cif
#   From: 2010.05.17/outbox.cif.g08.bks.cpg/sg12_27_cif.got.tgz:53780.got - 2010.06.03 13:09:07.
