data_PCOD9186271
_publ_section_title
;
Structure prediction by ZEFSAII (Michael W. Deem and Ramdas Pophale) SiO2 
 PCOD9186271
Probable space group: C 2/M
;
_chemical_formula_sum "Si O2"
_cell_formula_units_Z 40
_cell_length_a 9.421735
_cell_length_b 15.844735
_cell_length_c 29.491342
_cell_angle_alpha 90.000000
_cell_angle_beta 151.474346
_cell_angle_gamma 90.000000
_cell_volume 2102.476986
_symmetry_space_group_name_H-M "C 2/M"
_symmetry_group_IT_number 12
_symmetry_cell_setting 'monoclinic'
loop_
_space_group_symop_operation_xyz
x,y,z
-x,y,-z
-x,-y,-z
x,-y,z
1/2+x,1/2+y,z
1/2-x,1/2+y,-z
1/2-x,1/2-y,-z
1/2+x,1/2-y,z
loop_
_atom_site_type_symbol
_atom_site_label
_atom_site_fract_x
_atom_site_fract_y
_atom_site_fract_z
Si Si1 0.172610 0.339902 0.091711
Si Si2 0.590656 0.594608 0.698696
Si Si3 0.671065 0.250252 0.425850
Si Si4 0.748397 0.594817 0.301335
Si Si5 0.831489 0.340526 0.091695
O O1 0.459138 0.390841 0.188840
O O2 0.288457 0.249576 0.105071
O O3 0.958878 0.330226 0.076024
O O4 0.000000 0.378010 0.000000
O O5 0.558368 0.500000 0.671299
O O6 0.509234 0.667620 0.640898
O O7 0.372519 0.603534 0.680979
O O8 0.920315 0.608408 0.811201
O O9 0.750000 0.250000 0.500000
O O10 0.485010 0.167982 0.359392
O O11 0.000000 0.251802 0.500000
O O12 0.864017 0.500000 0.327694
O O13 0.500000 0.378826 0.000000
#
# Coordination Sequence:
#
# PCOD9186271 Si02
#       5
#     8   8   8   8   8
#     4  10  19  34  60  88 122 162 198 238 297 357
#     4  10  22  41  65  91 122 163 203 243 303 371
#     4  12  24  42  68  89 119 158 203 260 309 354
#     4  10  22  41  64  91 125 160 201 248 304 365
#     4  10  19  34  60  89 122 159 199 243 292 356
#
# _framework density 19.025179000000001
#
# number of rings (size 3 to 8) (size 9 to 14) (size 15 to 20)
#    0.000    1.600    4.000    2.400    0.000    2.400 
#    3.600    0.000    0.000    0.000    0.000    0.000 
#    0.000    0.000    0.000    0.000    0.000    0.000 
#
# Total GULP energy -111552.704496 kJ/mol
# GULP energy per Si atom -5577.635225 kJ/mol
# Density = 1.898188 g / cm^3
# Si number density = 19.025179 Si / 1000 Ang^3
#
#
#
# Elastic Constant Matrix: (Units=GPa)
#
#
# Indices 1 2 3 4 5 6 
#
# 1 90.0440 16.2439 36.6957 -0.0005 -15.3624 -0.0002
# 2 16.2439 119.9463 55.2871 -0.0009 -17.5961 -0.0001
# 3 36.6957 55.2871 117.0711 -0.0036 -11.2906 -0.0004
# 4 -0.0005 -0.0009 -0.0036 -4.3209 -0.0002 1.1800
# 5 -15.3624 -17.5961 -11.2906 -0.0002 30.0725 -0.0001
# 6 -0.0002 -0.0001 -0.0004 1.1800 -0.0001 20.2499
#
#
#
# Elastic Compliance Matrix: (Units=1/GPa)
#
#
# Indices 1 2 3 4 5 6 
#
# 1 0.013642 0.000937 -0.004144 0.000001 0.005962 0.000000
# 2 0.000937 0.011345 -0.005152 0.000001 0.005183 0.000000
# 3 -0.004144 -0.005152 0.012221 -0.000008 -0.000543 0.000001
# 4 0.000001 0.000001 -0.000008 -0.227807 -0.000004 0.013275
# 5 0.005962 0.005183 -0.000543 -0.000004 0.039127 0.000000
# 6 0.000000 0.000000 0.000001 0.013275 0.000000 0.048609
#
#
# Mechanical properties :
#
#
# Convention : Reuss Voigt Hill
#
# Bulk Modulus (GPa) = 48.79943 60.39053 54.59498
# Shear Modulus (GPa) = -63.04033 23.78927 -19.62553
#
# Velocity S-wave (km/s) = -5.76256 3.53995 -3.21527
# Velocity P-wave (km/s) = 4.30936 6.96561 3.86969
#
# Compressibility (1/GPa) = 0.02049204
#
# Stress axis : x y z
#
# Youngs Moduli (GPa) = 73.30045 88.14445 81.82524
#
# Poissons Ratio (x) = -0.08259 0.33906
# Poissons Ratio (y) = -0.06868 0.42153
# Poissons Ratio (z) = 0.30374 0.45408
#
# Static dielectric constant tensor:
#      x y z
#    x 1.634160 0.000000 -0.001650 
#    y 0.000000 1.670670 0.000000 
#    z -0.001650 0.000000 1.671930 
# 
# From -- ./inp_files/194432.got.cif
#   From: 2010.05.17/outbox.cif.g08.bks.cpg/sg12_98_cif.got.tgz:194432.got - 2010.06.03 13:09:07.
