data_PCOD9186986
_publ_section_title
;
Structure prediction by ZEFSAII (Michael W. Deem and Ramdas Pophale) SiO2 
 PCOD9186986
Probable space group: C 2/M
;
_chemical_formula_sum "Si O2"
_cell_formula_units_Z 48
_cell_length_a 25.454529
_cell_length_b 7.653067
_cell_length_c 12.976279
_cell_angle_alpha 90.000000
_cell_angle_beta 108.842141
_cell_angle_gamma 90.000000
_cell_volume 2392.384520
_symmetry_space_group_name_H-M "C 2/M"
_symmetry_group_IT_number 12
_symmetry_cell_setting 'monoclinic'
loop_
_space_group_symop_operation_xyz
x,y,z
-x,y,-z
-x,-y,-z
x,-y,z
1/2+x,1/2+y,z
1/2-x,1/2+y,-z
1/2-x,1/2-y,-z
1/2+x,1/2-y,z
loop_
_atom_site_type_symbol
_atom_site_label
_atom_site_fract_x
_atom_site_fract_y
_atom_site_fract_z
Si Si1 0.693786 0.703230 0.611168
Si Si2 0.812683 0.709815 0.005945
Si Si3 0.809510 0.709266 0.772804
Si Si4 0.378696 0.289143 0.622119
Si Si5 0.380608 0.793732 0.243964
Si Si6 0.497431 0.711244 0.617181
O O1 0.705093 0.500000 0.594952
O O2 0.751683 0.780413 0.688537
O O3 0.665306 0.779185 0.490907
O O4 0.649386 0.711654 0.675704
O O5 0.819635 0.500000 0.007295
O O6 0.853502 0.775597 0.121330
O O7 0.750000 0.750000 0.000000
O O8 0.820656 0.777461 0.894854
O O9 0.802450 0.500000 0.778564
O O10 0.857714 0.743474 0.721868
O O11 0.379590 0.500000 0.613620
O O12 0.440392 0.227203 0.632914
O O13 0.446217 0.766127 0.291462
O O14 0.368920 0.000000 0.243430
O O15 0.500000 0.770899 0.500000
O O16 0.496628 0.500000 0.615364
#
# Coordination Sequence:
#
# PCOD9186986 Si02
#       6
#     8   8   8   8   8   8
#     4  10  19  35  57  81 113 150 180 220 280 338
#     4  10  21  37  57  82 112 147 186 227 274 327
#     4  10  21  36  56  81 113 150 183 222 280 332
#     4  10  21  36  56  82 111 145 187 228 273 330
#     4  11  22  34  55  88 115 139 183 236 277 320
#     4  10  20  38  60  79 108 150 188 226 276 332
#
# _framework density 20.063665
#
# number of rings (size 3 to 8) (size 9 to 14) (size 15 to 20)
#    0.000    1.833    3.333    1.000    0.000    3.667 
#    0.000    0.833    0.000    5.000    0.000    0.000 
#    0.000    0.000    0.000    0.000    0.000    0.000 
#
# Total GULP energy -134057.365639 kJ/mol
# GULP energy per Si atom -5585.723568 kJ/mol
# Density = 2.001800 g / cm^3
# Si number density = 20.063665 Si / 1000 Ang^3
#
#
#
# Elastic Constant Matrix: (Units=GPa)
#
#
# Indices 1 2 3 4 5 6 
#
# 1 96.8404 -13.8128 74.8531 0.0000 -9.3978 0.0000
# 2 -13.8128 32.3078 -5.7891 0.0000 3.3534 0.0000
# 3 74.8531 -5.7891 173.9196 0.0000 -5.6659 0.0000
# 4 0.0000 0.0000 0.0000 13.3550 0.0000 -6.9702
# 5 -9.3978 3.3534 -5.6659 0.0000 38.8723 0.0000
# 6 0.0000 0.0000 0.0000 -6.9702 0.0000 14.6179
#
#
#
# Elastic Compliance Matrix: (Units=1/GPa)
#
#
# Indices 1 2 3 4 5 6 
#
# 1 0.016738 0.005649 -0.006933 0.000000 0.002549 0.000000
# 2 0.005649 0.033298 -0.001379 0.000000 -0.001708 0.000000
# 3 -0.006933 -0.001379 0.008678 0.000000 -0.000292 0.000000
# 4 0.000000 0.000000 0.000000 0.099686 0.000000 0.047533
# 5 0.002549 -0.001708 -0.000292 0.000000 0.026446 0.000000
# 6 0.000000 0.000000 0.000000 0.047533 0.000000 0.091074
#
#
# Mechanical properties :
#
#
# Convention : Reuss Voigt Hill
#
# Bulk Modulus (GPa) = 18.73014 45.95223 32.34119
# Shear Modulus (GPa) = 16.72009 29.89015 23.30512
#
# Velocity S-wave (km/s) = 2.88991 3.86394 3.41186
# Velocity P-wave (km/s) = 4.52671 6.54672 5.62809
#
# Compressibility (1/GPa) = 0.05338989
#
# Stress axis : x y z
#
# Youngs Moduli (GPa) = 59.74358 30.03198 115.23128
#
# Poissons Ratio (x) = -0.16966 0.79888
# Poissons Ratio (y) = -0.33752 0.15887
# Poissons Ratio (z) = 0.41419 0.04141
#
# Static dielectric constant tensor:
#      x y z
#    x 1.670530 0.000000 0.000480 
#    y 0.000000 1.765200 0.000000 
#    z 0.000480 0.000000 1.837250 
# 
# From -- ./inp_files/172030.got.cif
#   From: 2010.05.17/outbox.cif.g08.bks.cpg/sg12_87_cif.got.tgz:172030.got - 2010.06.03 13:09:07.
