data_PCOD9186309
_publ_section_title
;
Structure prediction by ZEFSAII (Michael W. Deem and Ramdas Pophale) SiO2 
 PCOD9186309
Probable space group: C 2/M
;
_chemical_formula_sum "Si O2"
_cell_formula_units_Z 48
_cell_length_a 24.503736
_cell_length_b 8.865902
_cell_length_c 11.626009
_cell_angle_alpha 90.000000
_cell_angle_beta 68.696511
_cell_angle_gamma 90.000000
_cell_volume 2353.138994
_symmetry_space_group_name_H-M "C 2/M"
_symmetry_group_IT_number 12
_symmetry_cell_setting 'monoclinic'
loop_
_space_group_symop_operation_xyz
x,y,z
-x,y,-z
-x,-y,-z
x,-y,z
1/2+x,1/2+y,z
1/2-x,1/2+y,-z
1/2-x,1/2-y,-z
1/2+x,1/2-y,z
loop_
_atom_site_type_symbol
_atom_site_label
_atom_site_fract_x
_atom_site_fract_y
_atom_site_fract_z
Si Si1 0.730312 0.679109 0.635878
Si Si2 0.560810 0.176001 0.518358
Si Si3 0.874114 0.679864 0.150800
Si Si4 0.614933 0.679152 0.095550
Si Si5 0.833879 0.178922 0.694442
Si Si6 0.011787 0.676963 0.809772
O O1 0.728621 0.500000 0.627058
O O2 0.750000 0.750000 0.500000
O O3 0.668255 0.742728 0.725146
O O4 0.777733 0.731133 0.693901
O O5 0.500000 0.209858 0.500000
O O6 0.612429 0.278217 0.430640
O O7 0.547494 0.190653 0.663139
O O8 0.575615 0.000000 0.483278
O O9 0.868405 0.500000 0.164252
O O10 0.941814 0.718267 0.127267
O O11 0.859402 0.736439 0.034723
O O12 0.619452 0.500000 0.075734
O O13 0.646186 0.718748 0.191559
O O14 0.546909 0.727413 0.154405
O O15 0.822434 0.000000 0.697773
O O16 0.995263 0.500000 0.836506
#
# Coordination Sequence:
#
# PCOD9186309 Si02
#       6
#     8   8   8   8   8   8
#     4  12  26  46  71  96 125 162 206 258 314 376
#     4  10  19  34  60  91 124 162 205 257 319 378
#     4  11  24  42  65  92 126 169 214 260 313 376
#     4  11  24  40  61  92 129 168 212 262 315 372
#     4  11  24  41  63  93 129 168 212 263 317 373
#     4  10  21  38  61  91 126 165 209 259 316 378
#
# _framework density 20.398285999999999
#
# number of rings (size 3 to 8) (size 9 to 14) (size 15 to 20)
#    0.000    1.167    1.667    4.500    0.000    8.333 
#    0.000    0.000    0.000    0.000    0.000    0.000 
#    0.000    0.000    0.000    0.000    0.000    0.000 
#
# Total GULP energy -134306.100572 kJ/mol
# GULP energy per Si atom -5596.087524 kJ/mol
# Density = 2.035186 g / cm^3
# Si number density = 20.398286 Si / 1000 Ang^3
#
#
#
# Elastic Constant Matrix: (Units=GPa)
#
#
# Indices 1 2 3 4 5 6 
#
# 1 93.7131 56.0897 33.1315 0.0000 9.4188 0.0000
# 2 56.0897 90.0708 39.6881 0.0000 1.6592 0.0000
# 3 33.1315 39.6881 76.7103 0.0000 1.3521 0.0000
# 4 0.0000 0.0000 0.0000 36.6723 0.0000 -3.1820
# 5 9.4188 1.6592 1.3521 0.0000 28.7938 0.0000
# 6 0.0000 0.0000 0.0000 -3.1820 0.0000 35.1856
#
#
#
# Elastic Compliance Matrix: (Units=1/GPa)
#
#
# Indices 1 2 3 4 5 6 
#
# 1 0.018118 -0.010076 -0.002520 0.000000 -0.005228 0.000000
# 2 -0.010076 0.019991 -0.006034 0.000000 0.002427 0.000000
# 3 -0.002520 -0.006034 0.017240 0.000000 0.000362 0.000000
# 4 0.000000 0.000000 0.000000 0.027484 0.000000 0.002486
# 5 -0.005228 0.002427 0.000362 0.000000 0.036283 0.000000
# 6 0.000000 0.000000 0.000000 0.002486 0.000000 0.028645
#
#
# Mechanical properties :
#
#
# Convention : Reuss Voigt Hill
#
# Bulk Modulus (GPa) = 55.28148 57.59031 56.43589
# Shear Modulus (GPa) = 26.17115 28.90265 27.53690
#
# Velocity S-wave (km/s) = 3.58579 3.76828 3.67817
# Velocity P-wave (km/s) = 6.65611 6.87222 6.76503
#
# Compressibility (1/GPa) = 0.01808924
#
# Stress axis : x y z
#
# Youngs Moduli (GPa) = 55.19417 50.02297 58.00524
#
# Poissons Ratio (x) = 0.50402 0.14618
# Poissons Ratio (y) = 0.55612 0.34999
# Poissons Ratio (z) = 0.13909 0.30183
#
# Static dielectric constant tensor:
#      x y z
#    x 1.721190 0.000000 0.008810 
#    y 0.000000 1.681710 0.000000 
#    z 0.008810 0.000000 1.729870 
# 
# From -- ./inp_files/172922.got.cif
#   From: 2010.05.17/outbox.cif.g08.bks.cpg/sg12_87_cif.got.tgz:172922.got - 2010.06.03 13:09:07.
