data_PCOD9186899
_publ_section_title
;
Structure prediction by ZEFSAII (Michael W. Deem and Ramdas Pophale) SiO2 
 PCOD9186899
Probable space group: C 2/M
;
_chemical_formula_sum "Si O2"
_cell_formula_units_Z 64
_cell_length_a 20.045237
_cell_length_b 7.478252
_cell_length_c 22.237915
_cell_angle_alpha 90.000000
_cell_angle_beta 62.815854
_cell_angle_gamma 90.000000
_cell_volume 2965.324432
_symmetry_space_group_name_H-M "C 2/M"
_symmetry_group_IT_number 12
_symmetry_cell_setting 'monoclinic'
loop_
_space_group_symop_operation_xyz
x,y,z
-x,y,-z
-x,-y,-z
x,-y,z
1/2+x,1/2+y,z
1/2-x,1/2+y,-z
1/2-x,1/2-y,-z
1/2+x,1/2-y,z
loop_
_atom_site_type_symbol
_atom_site_label
_atom_site_fract_x
_atom_site_fract_y
_atom_site_fract_z
Si Si1 0.455592 0.204384 0.659638
Si Si2 0.921517 0.781262 0.059879
Si Si3 0.702853 0.717527 0.644197
Si Si4 0.768458 0.786688 0.061036
Si Si5 0.157549 0.217217 0.789315
Si Si6 0.687130 0.218153 0.210335
Si Si7 0.881648 0.203609 0.435330
Si Si8 0.623808 0.707978 0.429054
O O1 0.390179 0.281699 0.728877
O O2 0.535280 0.298716 0.626246
O O3 0.422089 0.206125 0.606018
O O4 0.469876 0.000000 0.671727
O O5 0.850174 0.722816 0.049289
O O6 0.902975 0.725269 0.136055
O O7 0.922698 0.000000 0.059122
O O8 0.000000 0.720635 0.000000
O O9 0.701602 0.500000 0.643158
O O10 0.653404 0.775119 0.721932
O O11 0.672809 0.783810 0.592440
O O12 0.787920 0.775342 0.619936
O O13 0.706296 0.723634 0.134675
O O14 0.770731 0.000000 0.067271
O O15 0.750000 0.750000 0.000000
O O16 0.239656 0.268846 0.780981
O O17 0.155938 0.000000 0.789970
O O18 0.683932 0.000000 0.213977
O O19 0.886685 0.285664 0.499649
O O20 0.855362 0.000000 0.456435
O O21 0.600447 0.500000 0.439006
#
# Coordination Sequence:
#
# PCOD9186899 Si02
#       8
#     8   8   8   8   8   8   8   8
#     4  11  21  36  58  78  99 137 186 220 253 313
#     4   8  14  26  47  75 102 128 164 206 248 293
#     4  10  19  35  57  77 101 137 180 213 252 315
#     4   9  17  31  51  75 104 134 165 206 253 300
#     4   8  13  26  50  73  95 128 169 211 246 290
#     4   8  15  30  52  74  97 132 174 211 248 294
#     4  10  23  38  50  76 114 140 162 215 280 314
#     4  11  22  36  55  77 106 138 170 216 271 316
#
# _framework density 21.582798
#
# number of rings (size 3 to 8) (size 9 to 14) (size 15 to 20)
#    0.000    2.625    1.250    3.000    0.000    3.000 
#    2.250    1.250    0.000    0.375    0.000    0.000 
#    0.000    0.000    0.000    0.000    0.000    0.000 
#
# Total GULP energy -178606.472734 kJ/mol
# GULP energy per Si atom -5581.452273 kJ/mol
# Density = 2.153367 g / cm^3
# Si number density = 21.582798 Si / 1000 Ang^3
#
#
#
# Elastic Constant Matrix: (Units=GPa)
#
#
# Indices 1 2 3 4 5 6 
#
# 1 37.6199 -6.3963 6.6560 0.0004 2.1629 0.0006
# 2 -6.3963 62.5732 -0.8375 0.0002 0.9139 0.0010
# 3 6.6560 -0.8375 120.2899 0.0002 -0.0215 0.0006
# 4 0.0004 0.0002 0.0002 7.1333 0.0002 -1.0965
# 5 2.1629 0.9139 -0.0215 0.0002 33.2069 0.0002
# 6 0.0006 0.0010 0.0006 -1.0965 0.0002 12.8424
#
#
#
# Elastic Compliance Matrix: (Units=1/GPa)
#
#
# Indices 1 2 3 4 5 6 
#
# 1 0.027432 0.002811 -0.001499 -0.000002 -0.001865 -0.000002
# 2 0.002811 0.016277 -0.000042 -0.000001 -0.000631 -0.000001
# 3 -0.001499 -0.000042 0.008396 0.000000 0.000104 0.000000
# 4 -0.000002 -0.000001 0.000000 0.142052 -0.000001 0.012129
# 5 -0.001865 -0.000631 0.000104 -0.000001 0.030253 0.000000
# 6 -0.000002 -0.000001 0.000000 0.012129 0.000000 0.078902
#
#
# Mechanical properties :
#
#
# Convention : Reuss Voigt Hill
#
# Bulk Modulus (GPa) = 18.29964 24.36971 21.33468
# Shear Modulus (GPa) = 15.67458 25.37391 20.52425
#
# Velocity S-wave (km/s) = 2.69783 3.43250 3.08710
# Velocity P-wave (km/s) = 4.26634 5.19858 4.75536
#
# Compressibility (1/GPa) = 0.05464587
#
# Stress axis : x y z
#
# Youngs Moduli (GPa) = 36.45370 61.43524 119.10575
#
# Poissons Ratio (x) = -0.17271 0.17850
# Poissons Ratio (y) = -0.10248 0.00504
# Poissons Ratio (z) = 0.05463 0.00260
#
# Static dielectric constant tensor:
#      x y z
#    x 1.737320 0.000000 0.012580 
#    y 0.000000 1.805620 0.000000 
#    z 0.012580 0.000000 1.815020 
# 
# From -- ./inp_files/345522.got.cif
#   From: 2010.05.17/outbox.cif.g08.bks.cpg/sg12_173_cif.got.tgz:345522.got - 2010.06.03 13:09:07.
