data_PCOD9186527
_publ_section_title
;
Structure prediction by ZEFSAII (Michael W. Deem and Ramdas Pophale) SiO2 
 PCOD9186527
Probable space group: C 2/M
;
_chemical_formula_sum "Si O2"
_cell_formula_units_Z 36
_cell_length_a 13.582584
_cell_length_b 13.202115
_cell_length_c 11.437276
_cell_angle_alpha 90.000000
_cell_angle_beta 97.827544
_cell_angle_gamma 90.000000
_cell_volume 2031.809546
_symmetry_space_group_name_H-M "C 2/M"
_symmetry_group_IT_number 12
_symmetry_cell_setting 'monoclinic'
loop_
_space_group_symop_operation_xyz
x,y,z
-x,y,-z
-x,-y,-z
x,-y,z
1/2+x,1/2+y,z
1/2-x,1/2+y,-z
1/2-x,1/2-y,-z
1/2+x,1/2-y,z
loop_
_atom_site_type_symbol
_atom_site_label
_atom_site_fract_x
_atom_site_fract_y
_atom_site_fract_z
Si Si1 0.216479 0.389909 0.206221
Si Si2 0.113950 0.000000 0.377120
Si Si3 0.159269 0.383218 0.931638
Si Si4 0.160448 0.172810 0.205556
Si Si5 0.500000 0.270720 0.000000
Si Si6 0.622307 0.500000 0.648718
O O1 0.167367 0.500000 0.223847
O O2 0.164171 0.290221 0.244024
O O3 0.325533 0.405337 0.277753
O O4 0.216351 0.379532 0.066064
O O5 0.147800 0.097564 0.310184
O O6 0.149533 0.000000 0.516539
O O7 0.994577 0.000000 0.359188
O O8 0.126275 0.500000 0.909698
O O9 0.237111 0.351893 0.845327
O O10 0.069745 0.304329 0.934441
O O11 0.071078 0.165375 0.096656
#
# Coordination Sequence:
#
# PCOD9186527 Si02
#       6
#     8   4   8   8   4   4
#     4   8  18  36  59  73 108 145 178 217 272 330
#     4  11  24  36  55  86 104 143 193 234 270 317
#     4  10  19  35  53  88 111 145 181 218 277 337
#     4  11  22  34  56  87 113 140 185 224 277 325
#     4  10  21  31  56  82 120 150 170 214 276 340
#     4   9  22  41  58  75 103 151 194 223 281 315
#
# _framework density 17.718195000000001
#
# number of rings (size 3 to 8) (size 9 to 14) (size 15 to 20)
#    0.667    1.556    1.111    3.000    6.222    2.222 
#    0.000    0.000    0.000    0.000    0.000    7.778 
#    0.000    0.000    0.000    0.000    0.000    0.000 
#
# Total GULP energy -100282.276777 kJ/mol
# GULP energy per Si atom -5571.237599 kJ/mol
# Density = 1.767787 g / cm^3
# Si number density = 17.718195 Si / 1000 Ang^3
#
#
#
# Elastic Constant Matrix: (Units=GPa)
#
#
# Indices 1 2 3 4 5 6 
#
# 1 54.6655 -7.6753 26.7048 0.0000 -9.4459 0.0000
# 2 -7.6753 84.4683 27.8102 0.0000 -15.1136 0.0000
# 3 26.7048 27.8102 48.8746 0.0000 -20.5131 0.0000
# 4 0.0000 0.0000 0.0000 14.0005 0.0000 3.5207
# 5 -9.4459 -15.1136 -20.5131 0.0000 24.7374 0.0000
# 6 0.0000 0.0000 0.0000 3.5207 0.0000 22.9930
#
#
#
# Elastic Compliance Matrix: (Units=1/GPa)
#
#
# Indices 1 2 3 4 5 6 
#
# 1 0.030835 0.010214 -0.023160 0.000000 -0.001190 0.000000
# 2 0.010214 0.018109 -0.014732 0.000000 0.002748 0.000000
# 3 -0.023160 -0.014732 0.052163 0.000000 0.025411 0.000000
# 4 0.000000 0.000000 0.000000 0.074287 0.000000 -0.011375
# 5 -0.001190 0.002748 0.025411 0.000000 0.062721 0.000000
# 6 0.000000 0.000000 0.000000 -0.011375 0.000000 0.045233
#
#
# Mechanical properties :
#
#
# Convention : Reuss Voigt Hill
#
# Bulk Modulus (GPa) = 21.85688 31.29864 26.57776
# Shear Modulus (GPa) = 14.12618 21.75741 17.94180
#
# Velocity S-wave (km/s) = 2.82666 3.50804 3.18562
# Velocity P-wave (km/s) = 4.79750 5.84051 5.34451
#
# Compressibility (1/GPa) = 0.04575218
#
# Stress axis : x y z
#
# Youngs Moduli (GPa) = 32.43033 55.22178 19.17085
#
# Poissons Ratio (x) = -0.56404 0.44399
# Poissons Ratio (y) = -0.33124 0.28242
# Poissons Ratio (z) = 0.75107 0.81351
#
# Static dielectric constant tensor:
#      x y z
#    x 1.618660 0.000000 0.012300 
#    y 0.000000 1.649460 0.000000 
#    z 0.012300 0.000000 1.579790 
# 
# From -- ./inp_files/128586.got.cif
#   From: 2010.05.17/outbox.cif.g08.bks.cpg/sg12_65_cif.got.tgz:128586.got - 2010.06.03 13:09:07.
