data_PCOD9186112
_publ_section_title
;
Structure prediction by ZEFSAII (Michael W. Deem and Ramdas Pophale) SiO2 
 PCOD9186112
Probable space group: C 2/M
;
_chemical_formula_sum "Si O2"
_cell_formula_units_Z 56
_cell_length_a 14.606653
_cell_length_b 20.950833
_cell_length_c 8.453262
_cell_angle_alpha 90.000000
_cell_angle_beta 99.999483
_cell_angle_gamma 90.000000
_cell_volume 2547.583849
_symmetry_space_group_name_H-M "C 2/M"
_symmetry_group_IT_number 12
_symmetry_cell_setting 'monoclinic'
loop_
_space_group_symop_operation_xyz
x,y,z
-x,y,-z
-x,-y,-z
x,-y,z
1/2+x,1/2+y,z
1/2-x,1/2+y,-z
1/2-x,1/2-y,-z
1/2+x,1/2-y,z
loop_
_atom_site_type_symbol
_atom_site_label
_atom_site_fract_x
_atom_site_fract_y
_atom_site_fract_z
Si Si1 0.957356 0.193358 0.133150
Si Si2 0.608983 0.661935 0.572610
Si Si3 0.148280 0.573418 0.856540
Si Si4 0.458912 0.907418 0.651358
Si Si5 0.392696 0.230508 0.644516
Si Si6 0.763537 0.427866 0.466183
Si Si7 0.825816 0.297039 0.953759
O O1 0.888443 0.159902 0.235344
O O2 0.915015 0.258970 0.050579
O O3 0.046251 0.214240 0.259649
O O4 0.000000 0.154276 0.000000
O O5 0.500000 0.645543 0.500000
O O6 0.633389 0.735196 0.526160
O O7 0.682878 0.618287 0.503634
O O8 0.174154 0.500000 0.905294
O O9 0.193806 0.588649 0.695772
O O10 0.175288 0.630840 0.982261
O O11 0.035532 0.574874 0.803279
O O12 0.500000 0.932864 0.500000
O O13 0.454828 0.831223 0.639363
O O14 0.351132 0.926726 0.614213
O O15 0.324159 0.208921 0.763206
O O16 0.728475 0.500000 0.445295
O O17 0.750000 0.250000 0.000000
#
# Coordination Sequence:
#
# PCOD9186112 Si02
#       7
#     8   8   8   8   8   8   8
#     4   9  19  36  57  83 120 147 190 249 311 363
#     4  10  21  37  62  90 116 156 197 259 315 360
#     4  10  21  39  60  85 124 173 207 244 303 367
#     4  10  19  34  59  86 120 157 198 248 301 356
#     4  10  20  35  56  87 118 149 198 249 303 362
#     4  10  22  37  57  88 121 158 211 256 298 363
#     4  11  22  35  56  86 120 162 201 252 305 356
#
# _framework density 21.981612999999999
#
# number of rings (size 3 to 8) (size 9 to 14) (size 15 to 20)
#    0.000    2.000    1.429    2.571    4.000    2.571 
#    0.000    2.143    0.000    0.429    0.000    0.000 
#    0.000    0.000    0.000    0.000    0.000    0.000 
#
# Total GULP energy -156005.879005 kJ/mol
# GULP energy per Si atom -5571.638536 kJ/mol
# Density = 2.193158 g / cm^3
# Si number density = 21.981613 Si / 1000 Ang^3
#
#
#
# Elastic Constant Matrix: (Units=GPa)
#
#
# Indices 1 2 3 4 5 6 
#
# 1 112.8067 60.4415 48.8929 0.0000 -21.9492 0.0000
# 2 60.4415 91.0842 16.7918 0.0000 -10.4482 0.0000
# 3 48.8929 16.7918 63.1693 0.0000 -17.5100 0.0000
# 4 0.0000 0.0000 0.0000 16.7491 0.0000 -8.9987
# 5 -21.9492 -10.4482 -17.5100 0.0000 32.2939 0.0000
# 6 0.0000 0.0000 0.0000 -8.9987 0.0000 14.8817
#
#
#
# Elastic Compliance Matrix: (Units=1/GPa)
#
#
# Indices 1 2 3 4 5 6 
#
# 1 0.020847 -0.011149 -0.012056 0.000000 0.004025 0.000000
# 2 -0.011149 0.017673 0.004020 0.000000 0.000320 0.000000
# 3 -0.012056 0.004020 0.026106 0.000000 0.007261 0.000000
# 4 0.000000 0.000000 0.000000 0.088435 0.000000 0.053475
# 5 0.004025 0.000320 0.007261 0.000000 0.037742 0.000000
# 6 0.000000 0.000000 0.000000 0.053475 0.000000 0.099532
#
#
# Mechanical properties :
#
#
# Convention : Reuss Voigt Hill
#
# Bulk Modulus (GPa) = 38.08703 57.70139 47.89421
# Shear Modulus (GPa) = 14.81669 22.18056 18.49863
#
# Velocity S-wave (km/s) = 2.59906 3.18000 2.90410
# Velocity P-wave (km/s) = 5.13529 6.30793 5.75158
#
# Compressibility (1/GPa) = 0.02625566
#
# Stress axis : x y z
#
# Youngs Moduli (GPa) = 47.96844 56.58408 38.30541
#
# Poissons Ratio (x) = 0.63088 0.46181
# Poissons Ratio (y) = 0.53482 -0.15400
# Poissons Ratio (z) = 0.57831 -0.22749
#
# Static dielectric constant tensor:
#      x y z
#    x 1.925030 0.000000 0.013750 
#    y 0.000000 1.796660 0.000000 
#    z 0.013750 0.000000 1.937080 
# 
# From -- ./inp_files/64098.got.cif
#   From: 2010.05.17/outbox.cif.g08.bks.cpg/sg12_33_cif.got.tgz:64098.got - 2010.06.03 13:09:07.
