data_PCOD9186676
_publ_section_title
;
Structure prediction by ZEFSAII (Michael W. Deem and Ramdas Pophale) SiO2 
 PCOD9186676
Probable space group: C 2/M
;
_chemical_formula_sum "Si O2"
_cell_formula_units_Z 64
_cell_length_a 12.688230
_cell_length_b 13.716068
_cell_length_c 30.911588
_cell_angle_alpha 90.000000
_cell_angle_beta 41.222553
_cell_angle_gamma 90.000000
_cell_volume 3545.095168
_symmetry_space_group_name_H-M "C 2/M"
_symmetry_group_IT_number 12
_symmetry_cell_setting 'monoclinic'
loop_
_space_group_symop_operation_xyz
x,y,z
-x,y,-z
-x,-y,-z
x,-y,z
1/2+x,1/2+y,z
1/2-x,1/2+y,-z
1/2-x,1/2-y,-z
1/2+x,1/2-y,z
loop_
_atom_site_type_symbol
_atom_site_label
_atom_site_fract_x
_atom_site_fract_y
_atom_site_fract_z
Si Si1 0.711024 0.113776 0.774654
Si Si2 0.532360 0.885155 0.740781
Si Si3 0.684202 0.785083 0.951158
Si Si4 0.078500 0.107475 0.630706
Si Si5 0.382160 0.674462 0.475091
Si Si6 0.224445 0.202799 0.402013
Si Si7 0.114023 0.115443 0.037453
Si Si8 0.714986 0.729830 0.846765
O O1 0.602356 0.137440 0.766738
O O2 0.675017 0.184817 0.825437
O O3 0.896509 0.123927 0.702633
O O4 0.685849 0.000000 0.793795
O O5 0.664230 0.854783 0.665184
O O6 0.369335 0.827925 0.783037
O O7 0.503587 0.000000 0.747716
O O8 0.777785 0.856397 0.954461
O O9 0.755053 0.773427 0.881625
O O10 0.500000 0.815518 0.000000
O O11 0.679020 0.679922 0.977134
O O12 0.085611 0.107626 0.576206
O O13 0.188535 0.195876 0.612983
O O14 0.129360 0.000000 0.630569
O O15 0.250000 0.750000 0.500000
O O16 0.552465 0.722601 0.433752
O O17 0.312877 0.640997 0.542809
O O18 0.936599 0.158324 0.100700
O O19 0.113240 0.000000 0.029695
#
# Coordination Sequence:
#
# PCOD9186676 Si02
#       8
#     8   8   8   8   8   8   8   8
#     4  10  21  36  56  82 111 149 191 228 274 332
#     4  11  22  35  55  82 112 149 189 231 280 336
#     4   9  21  39  60  87 115 150 189 230 278 325
#     4  10  19  35  57  80 106 144 187 231 280 336
#     4   9  19  34  55  78 107 143 183 234 289 329
#     4  10  19  35  55  81 109 144 187 236 285 340
#     4  10  21  39  62  88 117 149 187 231 279 329
#     4  11  21  38  58  84 119 150 185 230 277 334
#
# _framework density 18.053111999999999
#
# number of rings (size 3 to 8) (size 9 to 14) (size 15 to 20)
#    0.000    2.000    2.500    1.125    0.000    4.000 
#    0.000   13.750    0.000    4.500    0.000    0.000 
#    0.000    0.000    0.000    0.000    0.000    0.000 
#
# Total GULP energy -178447.568928 kJ/mol
# GULP energy per Si atom -5576.486529 kJ/mol
# Density = 1.801202 g / cm^3
# Si number density = 18.053112 Si / 1000 Ang^3
#
#
#
# Elastic Constant Matrix: (Units=GPa)
#
#
# Indices 1 2 3 4 5 6 
#
# 1 75.3091 20.8020 6.7280 0.0000 8.1677 0.0000
# 2 20.8020 71.3571 18.9781 0.0000 12.5109 0.0000
# 3 6.7280 18.9781 49.0136 0.0000 14.1606 0.0000
# 4 0.0000 0.0000 0.0000 5.7522 0.0000 7.9933
# 5 8.1677 12.5109 14.1606 0.0000 30.8299 0.0000
# 6 0.0000 0.0000 0.0000 7.9933 0.0000 14.3426
#
#
#
# Elastic Compliance Matrix: (Units=1/GPa)
#
#
# Indices 1 2 3 4 5 6 
#
# 1 0.014593 -0.003888 0.000188 0.000000 -0.002375 0.000000
# 2 -0.003888 0.017123 -0.005058 0.000000 -0.003596 0.000000
# 3 0.000188 -0.005058 0.025085 0.000001 -0.009520 -0.000001
# 4 0.000000 0.000000 0.000001 0.770777 -0.000001 -0.429565
# 5 -0.002375 -0.003596 -0.009520 -0.000001 0.038897 0.000001
# 6 0.000000 0.000000 -0.000001 -0.429565 0.000001 0.309125
#
#
# Mechanical properties :
#
#
# Convention : Reuss Voigt Hill
#
# Bulk Modulus (GPa) = 25.45355 32.07733 28.76544
# Shear Modulus (GPa) = 4.14521 20.12972 12.13746
#
# Velocity S-wave (km/s) = 1.51694 3.34283 2.59573
# Velocity P-wave (km/s) = 4.14705 5.71893 4.99521
#
# Compressibility (1/GPa) = 0.03928726
#
# Stress axis : x y z
#
# Youngs Moduli (GPa) = 68.52465 58.40121 39.86411
#
# Poissons Ratio (x) = 0.22706 -0.00751
# Poissons Ratio (y) = 0.26642 0.20161
# Poissons Ratio (z) = -0.01291 0.29537
#
# Static dielectric constant tensor:
#      x y z
#    x 1.616390 0.000000 0.012900 
#    y 0.000000 1.588060 0.000000 
#    z 0.012900 0.000000 1.630390 
# 
# From -- ./inp_files/374098.got.cif
#   From: 2010.05.17/outbox.cif.g08.bks.cpg/sg12_188_cif.got.tgz:374098.got - 2010.06.03 13:09:07.
