data_PCOD9186270
_publ_section_title
;
Structure prediction by ZEFSAII (Michael W. Deem and Ramdas Pophale) SiO2 
 PCOD9186270
Probable space group: C 2/M
;
_chemical_formula_sum "Si O2"
_cell_formula_units_Z 64
_cell_length_a 15.417977
_cell_length_b 29.263113
_cell_length_c 8.956406
_cell_angle_alpha 90.000000
_cell_angle_beta 124.504326
_cell_angle_gamma 90.000000
_cell_volume 3330.066199
_symmetry_space_group_name_H-M "C 2/M"
_symmetry_group_IT_number 12
_symmetry_cell_setting 'monoclinic'
loop_
_space_group_symop_operation_xyz
x,y,z
-x,y,-z
-x,-y,-z
x,-y,z
1/2+x,1/2+y,z
1/2-x,1/2+y,-z
1/2-x,1/2-y,-z
1/2+x,1/2-y,z
loop_
_atom_site_type_symbol
_atom_site_label
_atom_site_fract_x
_atom_site_fract_y
_atom_site_fract_z
Si Si1 0.990023 0.846500 0.308552
Si Si2 0.866879 0.635106 0.522699
Si Si3 0.605796 0.946426 0.005427
Si Si4 0.025896 0.050963 0.348109
Si Si5 0.776123 0.447877 0.593190
Si Si6 0.792126 0.202496 0.476250
Si Si7 0.774253 0.202237 0.103410
Si Si8 0.609448 0.136460 0.799598
O O1 0.985499 0.899654 0.251366
O O2 0.883968 0.820632 0.159207
O O3 0.000000 0.848867 0.500000
O O4 0.092639 0.816648 0.364303
O O5 0.842404 0.583633 0.548690
O O6 0.788334 0.664746 0.543596
O O7 0.849786 0.640018 0.329660
O O8 0.986317 0.648947 0.674742
O O9 0.699615 0.934717 0.211827
O O10 0.608962 0.000000 0.971502
O O11 0.500000 0.937776 0.000000
O O12 0.612838 0.914357 0.870054
O O13 0.000000 0.049965 0.500000
O O14 0.151680 0.054169 0.448042
O O15 0.991662 0.000000 0.257376
O O16 0.812108 0.500000 0.613229
O O17 0.750000 0.250000 0.500000
O O18 0.787280 0.207368 0.293338
O O19 0.750000 0.250000 0.000000
O O20 0.678562 0.168659 0.971095
#
# Coordination Sequence:
#
# PCOD9186270 Si02
#       8
#     8   8   8   8   8   8   8   8
#     4   9  20  38  62  91 125 157 198 257 308 365
#     4  11  23  41  58  89 122 165 214 250 311 369
#     4  10  20  35  57  90 122 157 205 256 306 361
#     4   9  17  31  57  92 121 155 199 246 304 365
#     4  10  19  34  60  88 122 160 205 255 304 374
#     4  11  23  41  68  90 120 161 205 256 316 378
#     4  11  25  44  63  92 125 160 206 258 320 366
#     4  11  25  39  61  85 127 167 204 259 305 372
#
# _framework density 19.218837000000001
#
# number of rings (size 3 to 8) (size 9 to 14) (size 15 to 20)
#    0.000    1.750    2.500    1.500    5.250    0.500 
#    0.000    3.125    0.000    0.000    0.000    1.750 
#    0.000    0.000    0.000    0.000    0.000    0.000 
#
# Total GULP energy -178529.549754 kJ/mol
# GULP energy per Si atom -5579.048430 kJ/mol
# Density = 1.917509 g / cm^3
# Si number density = 19.218837 Si / 1000 Ang^3
#
#
#
# Elastic Constant Matrix: (Units=GPa)
#
#
# Indices 1 2 3 4 5 6 
#
# 1 71.1119 40.7916 19.2379 0.0000 9.2434 0.0000
# 2 40.7916 126.7019 40.1570 0.0000 11.0788 0.0000
# 3 19.2379 40.1570 54.5471 0.0000 7.4734 0.0000
# 4 0.0000 0.0000 0.0000 24.2672 0.0000 -1.3937
# 5 9.2434 11.0788 7.4734 0.0000 15.5115 0.0000
# 6 0.0000 0.0000 0.0000 -1.3937 0.0000 32.8851
#
#
#
# Elastic Compliance Matrix: (Units=1/GPa)
#
#
# Indices 1 2 3 4 5 6 
#
# 1 0.018114 -0.004593 -0.002118 0.000000 -0.006493 0.000000
# 2 -0.004593 0.011692 -0.006658 0.000000 -0.002406 0.000000
# 3 -0.002118 -0.006658 0.024793 0.000000 -0.005928 0.000000
# 4 0.000000 0.000000 0.000000 0.041308 0.000000 0.001751
# 5 -0.006493 -0.002406 -0.005928 0.000000 0.072912 0.000000
# 6 0.000000 0.000000 0.000000 0.001751 0.000000 0.030483
#
#
# Mechanical properties :
#
#
# Convention : Reuss Voigt Hill
#
# Bulk Modulus (GPa) = 35.89085 50.30377 43.09731
# Shear Modulus (GPa) = 21.24707 24.67774 22.96241
#
# Velocity S-wave (km/s) = 3.32856 3.58724 3.46032
# Velocity P-wave (km/s) = 5.78687 6.58701 6.19986
#
# Compressibility (1/GPa) = 0.02786225
#
# Stress axis : x y z
#
# Youngs Moduli (GPa) = 55.20654 85.53068 40.33343
#
# Poissons Ratio (x) = 0.39282 0.08541
# Poissons Ratio (y) = 0.25355 0.26854
# Poissons Ratio (z) = 0.11691 0.56945
#
# Static dielectric constant tensor:
#      x y z
#    x 1.665580 0.000000 0.009660 
#    y 0.000000 0.288390 0.000000 
#    z 0.009660 0.000000 1.683210 
# 
# From -- ./inp_files/68643.got.cif
#   From: 2010.05.17/outbox.cif.g08.bks.cpg/sg12_35_cif.got.tgz:68643.got - 2010.06.03 13:09:07.
