data_PCOD9186028
_publ_section_title
;
Structure prediction by ZEFSAII (Michael W. Deem and Ramdas Pophale) SiO2 
 PCOD9186028
Probable space group: C 2/M
;
_chemical_formula_sum "Si O2"
_cell_formula_units_Z 58
_cell_length_a 22.711767
_cell_length_b 12.885693
_cell_length_c 10.165151
_cell_angle_alpha 90.000000
_cell_angle_beta 61.708969
_cell_angle_gamma 90.000000
_cell_volume 2619.553830
_symmetry_space_group_name_H-M "C 2/M"
_symmetry_group_IT_number 12
_symmetry_cell_setting 'monoclinic'
loop_
_space_group_symop_operation_xyz
x,y,z
-x,y,-z
-x,-y,-z
x,-y,z
1/2+x,1/2+y,z
1/2-x,1/2+y,-z
1/2-x,1/2-y,-z
1/2+x,1/2-y,z
loop_
_atom_site_type_symbol
_atom_site_label
_atom_site_fract_x
_atom_site_fract_y
_atom_site_fract_z
Si Si1 0.766665 0.819212 0.636503
Si Si2 0.867182 0.261330 0.361466
Si Si3 0.247259 0.614383 0.207892
Si Si4 0.793004 0.118568 0.889229
Si Si5 0.593633 0.614596 0.898352
Si Si6 0.000000 0.000000 0.500000
Si Si7 0.014194 0.618734 0.640477
Si Si8 0.558262 0.328602 0.226426
O O1 0.831210 0.835433 0.477018
O O2 0.696350 0.819775 0.636718
O O3 0.780408 0.701213 0.668851
O O4 0.762984 0.879080 0.776142
O O5 0.911407 0.206835 0.201326
O O6 0.912820 0.336850 0.398562
O O7 0.219244 0.500000 0.257705
O O8 0.326743 0.613788 0.152371
O O9 0.243156 0.647615 0.059892
O O10 0.863905 0.174369 0.813462
O O11 0.810854 0.000000 0.903888
O O12 0.576975 0.500000 0.864132
O O13 0.442158 0.632601 0.924373
O O14 0.021286 0.907222 0.367280
O O15 0.005284 0.500000 0.698838
O O16 0.000000 0.616574 0.500000
O O17 0.967383 0.710860 0.742799
#
# Coordination Sequence:
#
# PCOD9186028 Si02
#       8
#     8   8   8   8   8   2   8   8
#     4  10  20  35  59  87 123 163 202 254 310 382
#     4  10  23  40  58  87 122 165 214 259 315 387
#     4   8  16  32  57  84 119 159 206 251 309 374
#     4  10  19  34  58  92 123 155 193 260 328 382
#     4   9  18  38  61  91 128 167 203 260 330 389
#     4  12  20  36  70 106 132 160 210 286 322 366
#     4  11  25  45  66  86 119 167 219 271 320 384
#     4  11  21  39  66  98 129 163 215 266 321 373
#
# _framework density 22.141176000000002
#
# number of rings (size 3 to 8) (size 9 to 14) (size 15 to 20)
#    0.000    2.069    2.069    2.069    0.000    2.207 
#    1.241    5.517    0.000    4.966    0.000    0.000 
#    0.000    0.000    0.000    0.000    0.000    0.000 
#
# Total GULP energy -161556.638655 kJ/mol
# GULP energy per Si atom -5570.918574 kJ/mol
# Density = 2.209078 g / cm^3
# Si number density = 22.141176 Si / 1000 Ang^3
#
#
#
# Elastic Constant Matrix: (Units=GPa)
#
#
# Indices 1 2 3 4 5 6 
#
# 1 86.5189 33.1168 35.6416 0.0000 15.2599 0.0000
# 2 33.1168 122.7075 29.2012 0.0000 0.8625 0.0000
# 3 35.6416 29.2012 114.5736 0.0000 6.4565 0.0000
# 4 0.0000 0.0000 0.0000 1603.1913 0.0000 376.9816
# 5 15.2599 0.8625 6.4565 0.0000 26.6155 0.0000
# 6 0.0000 0.0000 0.0000 376.9816 0.0000 105.7758
#
#
#
# Elastic Compliance Matrix: (Units=1/GPa)
#
#
# Indices 1 2 3 4 5 6 
#
# 1 0.015732 -0.003335 -0.003591 0.000000 -0.008041 0.000000
# 2 -0.003335 0.009384 -0.001465 0.000000 0.001963 0.000000
# 3 -0.003591 -0.001465 0.010240 0.000000 -0.000378 0.000000
# 4 0.000000 0.000000 0.000000 0.003851 0.000000 -0.013727
# 5 -0.008041 0.001963 -0.000378 0.000000 0.042210 0.000000
# 6 0.000000 0.000000 0.000000 -0.013727 0.000000 0.058375
#
#
# Mechanical properties :
#
#
# Convention : Reuss Voigt Hill
#
# Bulk Modulus (GPa) = 53.83653 57.74660 55.79157
# Shear Modulus (GPa) = 30.71899 362.17255 196.44577
#
# Velocity S-wave (km/s) = 3.72884 12.80349 9.42957
# Velocity P-wave (km/s) = 6.55034 15.64321 11.99202
#
# Compressibility (1/GPa) = 0.01857475
#
# Stress axis : x y z
#
# Youngs Moduli (GPa) = 63.56421 106.56086 97.65871
#
# Poissons Ratio (x) = 0.35536 0.35068
# Poissons Ratio (y) = 0.21197 0.14307
# Poissons Ratio (z) = 0.22825 0.15611
#
# Static dielectric constant tensor:
#      x y z
#    x 1.850590 0.000000 0.002810 
#    y 0.000000 1.827380 0.000000 
#    z 0.002810 0.000000 1.913590 
# 
# From -- ./inp_files/174531.got.cif
#   From: 2010.05.17/outbox.cif.g08.bks.cpg/sg12_88_cif.got.tgz:174531.got - 2010.06.03 13:09:07.
