data_PCOD9186638
_publ_section_title
;
Structure prediction by ZEFSAII (Michael W. Deem and Ramdas Pophale) SiO2 
 PCOD9186638
Probable space group: C 2/M
;
_chemical_formula_sum "Si O2"
_cell_formula_units_Z 64
_cell_length_a 21.668192
_cell_length_b 18.550662
_cell_length_c 9.367490
_cell_angle_alpha 90.000000
_cell_angle_beta 101.981433
_cell_angle_gamma 90.000000
_cell_volume 3683.321349
_symmetry_space_group_name_H-M "C 2/M"
_symmetry_group_IT_number 12
_symmetry_cell_setting 'monoclinic'
loop_
_space_group_symop_operation_xyz
x,y,z
-x,y,-z
-x,-y,-z
x,-y,z
1/2+x,1/2+y,z
1/2-x,1/2+y,-z
1/2-x,1/2-y,-z
1/2+x,1/2-y,z
loop_
_atom_site_type_symbol
_atom_site_label
_atom_site_fract_x
_atom_site_fract_y
_atom_site_fract_z
Si Si1 0.222319 0.082844 0.368835
Si Si2 0.843879 0.370346 0.599776
Si Si3 0.844405 0.417299 0.902135
Si Si4 0.244718 0.864286 0.068670
Si Si5 0.483975 0.918606 0.656785
Si Si6 0.051353 0.314097 0.912314
Si Si7 0.336327 0.728813 0.173529
Si Si8 0.820703 0.780798 0.499993
O O1 0.293057 0.100655 0.462035
O O2 0.221827 0.096917 0.199862
O O3 0.177803 0.142686 0.420903
O O4 0.207643 0.000000 0.395447
O O5 0.816307 0.382161 0.744628
O O6 0.908731 0.413385 0.630645
O O7 0.860265 0.286655 0.578988
O O8 0.862319 0.500000 0.886499
O O9 0.792148 0.412406 0.999495
O O10 0.903111 0.368565 0.978304
O O11 0.286472 0.794925 0.135646
O O12 0.190123 0.834206 0.939994
O O13 0.500000 0.903956 0.500000
O O14 0.516244 0.861766 0.776472
O O15 0.505262 0.000000 0.702460
O O16 0.097343 0.257496 0.856352
O O17 0.000000 0.284462 0.000000
O O18 0.335443 0.710408 0.340369
O O19 0.750000 0.750000 0.500000
#
# Coordination Sequence:
#
# PCOD9186638 Si02
#       8
#     8   8   8   8   8   8   8   8
#     4  11  22  34  54  83 114 142 180 230 284 344
#     4  11  21  35  51  75 107 153 191 226 267 325
#     4  11  22  34  52  77 114 155 191 232 280 328
#     4  10  20  33  55  78 108 139 190 237 289 333
#     4  11  23  35  50  73 109 153 196 233 267 314
#     4  11  23  37  53  76 112 152 202 240 267 323
#     4  10  20  36  55  78 104 148 188 242 284 326
#     4  10  19  35  55  78 106 146 187 233 285 337
#
# _framework density 17.375622
#
# number of rings (size 3 to 8) (size 9 to 14) (size 15 to 20)
#    0.000    1.375    3.750    4.125    5.250    0.500 
#    0.000    0.625    0.000    0.000    0.000    0.000 
#    0.000   23.000    0.000    0.000    0.000    0.000 
#
# Total GULP energy -178594.590284 kJ/mol
# GULP energy per Si atom -5581.080946 kJ/mol
# Density = 1.733607 g / cm^3
# Si number density = 17.375622 Si / 1000 Ang^3
#
#
#
# Elastic Constant Matrix: (Units=GPa)
#
#
# Indices 1 2 3 4 5 6 
#
# 1 60.0098 18.1055 32.9218 0.0000 -18.4013 0.0000
# 2 18.1055 86.6584 37.2722 0.0000 -15.1634 0.0000
# 3 32.9218 37.2722 110.1604 0.0000 -26.3553 0.0000
# 4 0.0000 0.0000 0.0000 13.6083 0.0000 -6.1603
# 5 -18.4013 -15.1634 -26.3553 0.0000 24.8787 0.0000
# 6 0.0000 0.0000 0.0000 -6.1603 0.0000 14.4603
#
#
#
# Elastic Compliance Matrix: (Units=1/GPa)
#
#
# Indices 1 2 3 4 5 6 
#
# 1 0.022705 -0.001081 -0.003428 0.000000 0.012502 0.000000
# 2 -0.001081 0.013951 -0.003421 0.000000 0.004079 0.000000
# 3 -0.003428 -0.003421 0.013601 0.000000 0.009788 0.000000
# 4 0.000000 0.000000 0.000000 0.091043 0.000000 0.038786
# 5 0.012502 0.004079 0.009788 0.000000 0.062297 0.000000
# 6 0.000000 0.000000 0.000000 0.038786 0.000000 0.085679
#
#
# Mechanical properties :
#
#
# Convention : Reuss Voigt Hill
#
# Bulk Modulus (GPa) = 29.07396 48.15863 38.61630
# Shear Modulus (GPa) = 15.79270 21.82472 18.80871
#
# Velocity S-wave (km/s) = 3.01807 3.54793 3.29367
# Velocity P-wave (km/s) = 5.37717 6.67534 6.06111
#
# Compressibility (1/GPa) = 0.03439504
#
# Stress axis : x y z
#
# Youngs Moduli (GPa) = 44.04355 71.68119 73.52159
#
# Poissons Ratio (x) = 0.07752 0.25206
# Poissons Ratio (y) = 0.04763 0.25152
# Poissons Ratio (z) = 0.15100 0.24523
#
# Static dielectric constant tensor:
#      x y z
#    x 1.616840 0.000000 -0.026660 
#    y 0.000000 1.612850 0.000000 
#    z -0.026660 0.000000 1.627220 
# 
# From -- ./inp_files/97779.got.cif
#   From: 2010.05.17/outbox.cif.g08.bks.cpg/sg12_49_cif.got.tgz:97779.got - 2010.06.03 13:09:07.
