data_PCOD9186923
_publ_section_title
;
Structure prediction by ZEFSAII (Michael W. Deem and Ramdas Pophale) SiO2 
 PCOD9186923
Probable space group: C 2/M
;
_chemical_formula_sum "Si O2"
_cell_formula_units_Z 48
_cell_length_a 23.462769
_cell_length_b 12.257115
_cell_length_c 23.998128
_cell_angle_alpha 90.000000
_cell_angle_beta 160.059110
_cell_angle_gamma 90.000000
_cell_volume 2353.767705
_symmetry_space_group_name_H-M "C 2/M"
_symmetry_group_IT_number 12
_symmetry_cell_setting 'monoclinic'
loop_
_space_group_symop_operation_xyz
x,y,z
-x,y,-z
-x,-y,-z
x,-y,z
1/2+x,1/2+y,z
1/2-x,1/2+y,-z
1/2-x,1/2-y,-z
1/2+x,1/2-y,z
loop_
_atom_site_type_symbol
_atom_site_label
_atom_site_fract_x
_atom_site_fract_y
_atom_site_fract_z
Si Si1 0.177323 0.379657 0.871861
Si Si2 0.993261 0.768184 0.206275
Si Si3 0.210718 0.374512 0.579519
Si Si4 0.358349 0.771435 0.269749
Si Si5 0.865312 0.191203 0.834502
Si Si6 0.078813 0.371295 0.969698
O O1 0.117009 0.500000 0.827354
O O2 0.042492 0.291606 0.768733
O O3 0.214665 0.360315 0.841278
O O4 0.345839 0.355380 0.060631
O O5 0.168299 0.825666 0.356404
O O6 0.958480 0.677846 0.125898
O O7 0.159940 0.500000 0.521928
O O8 0.316897 0.371740 0.734392
O O9 0.054416 0.294196 0.445760
O O10 0.294393 0.788394 0.273396
O O11 0.266008 0.663206 0.161525
O O12 0.000000 0.138321 0.000000
O O13 0.953543 0.303227 0.894505
O O14 0.055222 0.500000 0.950108
#
# Coordination Sequence:
#
# PCOD9186923 Si02
#       6
#     8   8   8   8   8   8
#     4  10  19  35  57  78 107 143 181 228 273 315
#     4   9  20  35  56  84 106 137 190 229 261 322
#     4  11  22  37  56  79 114 148 174 220 278 324
#     4  10  21  34  52  83 113 141 180 219 265 330
#     4   9  20  36  56  82 108 138 186 228 260 320
#     4   9  18  37  61  80 107 145 183 228 272 310
#
# _framework density 20.392835999999999
#
# number of rings (size 3 to 8) (size 9 to 14) (size 15 to 20)
#    0.000    2.333    0.000    3.000    0.000    6.000 
#    0.000    7.500    0.000    8.000    0.000    0.000 
#    0.000    0.000    0.000    0.000    0.000    0.000 
#
# Total GULP energy -133842.565176 kJ/mol
# GULP energy per Si atom -5576.773549 kJ/mol
# Density = 2.034642 g / cm^3
# Si number density = 20.392836 Si / 1000 Ang^3
#
#
#
# Elastic Constant Matrix: (Units=GPa)
#
#
# Indices 1 2 3 4 5 6 
#
# 1 86.0172 28.6493 17.9005 0.0000 20.3844 0.0002
# 2 28.6493 98.7455 27.5201 0.0005 4.5660 0.0001
# 3 17.9005 27.5201 93.0742 0.0001 19.3512 0.0010
# 4 0.0000 0.0005 0.0001 12.8495 0.0008 3.4424
# 5 20.3844 4.5660 19.3512 0.0008 34.5906 0.0004
# 6 0.0002 0.0001 0.0010 3.4424 0.0004 8.2594
#
#
#
# Elastic Compliance Matrix: (Units=1/GPa)
#
#
# Indices 1 2 3 4 5 6 
#
# 1 0.014895 -0.003945 0.000021 0.000001 -0.008268 0.000000
# 2 -0.003945 0.012087 -0.003357 -0.000001 0.002607 0.000001
# 3 0.000021 -0.003357 0.013176 0.000001 -0.006940 -0.000002
# 4 0.000001 -0.000001 0.000001 0.087606 -0.000002 -0.036512
# 5 -0.008268 0.002607 -0.006940 -0.000002 0.037321 0.000000
# 6 0.000000 0.000001 -0.000002 -0.036512 0.000000 0.136291
#
#
# Mechanical properties :
#
#
# Convention : Reuss Voigt Hill
#
# Bulk Modulus (GPa) = 39.07073 47.33072 43.20073
# Shear Modulus (GPa) = 15.40981 24.72437 20.06709
#
# Velocity S-wave (km/s) = 2.75189 3.48574 3.14032
# Velocity P-wave (km/s) = 5.41275 6.28175 5.86337
#
# Compressibility (1/GPa) = 0.02559460
#
# Stress axis : x y z
#
# Youngs Moduli (GPa) = 67.13845 82.73581 75.89748
#
# Poissons Ratio (x) = 0.32639 -0.00159
# Poissons Ratio (y) = 0.26486 0.25480
# Poissons Ratio (z) = -0.00140 0.27776
#
# Static dielectric constant tensor:
#      x y z
#    x 1.747390 0.000000 -0.007600 
#    y 0.000000 1.697460 0.000000 
#    z -0.007600 0.000000 1.781020 
# 
# From -- ./inp_files/94325.got.cif
#   From: 2010.05.17/outbox.cif.g08.bks.cpg/sg12_48_cif.got.tgz:94325.got - 2010.06.03 13:09:07.
