data_PCOD9186576
_publ_section_title
;
Structure prediction by ZEFSAII (Michael W. Deem and Ramdas Pophale) SiO2 
 PCOD9186576
Probable space group: C 2/M
;
_chemical_formula_sum "Si O2"
_cell_formula_units_Z 48
_cell_length_a 5.373690
_cell_length_b 14.217806
_cell_length_c 29.336225
_cell_angle_alpha 90.000000
_cell_angle_beta 84.705997
_cell_angle_gamma 90.000000
_cell_volume 2231.787881
_symmetry_space_group_name_H-M "C 2/M"
_symmetry_group_IT_number 12
_symmetry_cell_setting 'monoclinic'
loop_
_space_group_symop_operation_xyz
x,y,z
-x,y,-z
-x,-y,-z
x,-y,z
1/2+x,1/2+y,z
1/2-x,1/2+y,-z
1/2-x,1/2-y,-z
1/2+x,1/2-y,z
loop_
_atom_site_type_symbol
_atom_site_label
_atom_site_fract_x
_atom_site_fract_y
_atom_site_fract_z
Si Si1 0.119742 0.635471 0.611314
Si Si2 0.139941 0.389026 0.800557
Si Si3 0.666085 0.615133 0.749380
Si Si4 0.235337 0.500000 0.529759
Si Si5 0.000000 0.685812 0.000000
Si Si6 0.899626 0.153685 0.352161
Si Si7 0.563513 0.812590 0.900941
O O1 0.212966 0.592197 0.562478
O O2 0.090794 0.747578 0.620357
O O3 0.331746 0.607713 0.644108
O O4 0.840264 0.600506 0.624520
O O5 0.141684 0.500000 0.793823
O O6 0.417745 0.358437 0.781712
O O7 0.081876 0.369730 0.854180
O O8 0.914570 0.355374 0.772152
O O9 0.669204 0.500000 0.743035
O O10 0.650176 0.663245 0.700397
O O11 0.500000 0.500000 0.500000
O O12 0.000000 0.500000 0.500000
O O13 0.971665 0.635661 0.049508
O O14 0.250000 0.750000 0.000000
O O15 0.321412 0.745761 0.900016
#
# Coordination Sequence:
#
# PCOD9186576 Si02
#       7
#     8   8   8   4   4   8   8
#     4  10  23  41  65  91 126 153 194 237 294 325
#     4  10  21  38  53  81 120 155 188 245 304 354
#     4  10  21  36  60  84 117 159 200 236 294 355
#     4  12  26  46  70 100 126 160 196 238 292 359
#     4   8  16  30  53  74 105 142 198 246 306 352
#     4  10  21  42  60  92 118 160 199 245 280 338
#     4  10  19  35  54  81 108 152 197 254 298 361
#
# _framework density 21.50742
#
# number of rings (size 3 to 8) (size 9 to 14) (size 15 to 20)
#    0.000    2.000    0.000    3.000    2.333    0.000 
#   18.000   10.417    0.000    0.000    0.000   10.500 
#    0.000    0.000    0.000    0.000    0.000    0.000 
#
# Total GULP energy -133851.498974 kJ/mol
# GULP energy per Si atom -5577.145791 kJ/mol
# Density = 2.145847 g / cm^3
# Si number density = 21.507420 Si / 1000 Ang^3
#
#
#
# Elastic Constant Matrix: (Units=GPa)
#
#
# Indices 1 2 3 4 5 6 
#
# 1 116.3155 -0.9085 -22.2647 0.0000 4.1389 0.0000
# 2 -0.9085 90.7260 12.0732 0.0000 -3.0099 0.0000
# 3 -22.2647 12.0732 101.3506 0.0000 -4.9047 0.0000
# 4 0.0000 0.0000 0.0000 36.7966 0.0000 -11.9364
# 5 4.1389 -3.0099 -4.9047 0.0000 48.4161 0.0000
# 6 0.0000 0.0000 0.0000 -11.9364 0.0000 -10.8287
#
#
#
# Elastic Compliance Matrix: (Units=1/GPa)
#
#
# Indices 1 2 3 4 5 6 
#
# 1 0.008994 -0.000191 0.001970 0.000000 -0.000581 0.000000
# 2 -0.000191 0.011219 -0.001351 0.000000 0.000577 0.000000
# 3 0.001970 -0.001351 0.010500 0.000000 0.000811 0.000000
# 4 0.000000 0.000000 0.000000 0.020018 0.000000 -0.022066
# 5 -0.000581 0.000577 0.000811 0.000000 0.020822 0.000000
# 6 0.000000 0.000000 0.000000 -0.022066 0.000000 -0.068024
#
#
# Mechanical properties :
#
#
# Convention : Reuss Voigt Hill
#
# Bulk Modulus (GPa) = 31.67632 31.79914 31.73773
# Shear Modulus (GPa) = 378.91098 36.17625 207.54362
#
# Velocity S-wave (km/s) = 13.28756 4.10571 9.83403
# Velocity P-wave (km/s) = 15.81684 6.10681 11.98886
#
# Compressibility (1/GPa) = 0.03156932
#
# Stress axis : x y z
#
# Youngs Moduli (GPa) = 111.18951 89.13332 95.24039
#
# Poissons Ratio (x) = 0.01706 -0.18766
# Poissons Ratio (y) = 0.02128 0.12863
# Poissons Ratio (z) = -0.21909 0.12038
#
# Static dielectric constant tensor:
#      x y z
#    x 1.820140 0.000000 -0.000940 
#    y 0.000000 1.861790 0.000000 
#    z -0.000940 0.000000 1.777580 
# 
# From -- ./inp_files/354825.got.cif
#   From: 2010.05.17/outbox.cif.g08.bks.cpg/sg12_178_cif.got.tgz:354825.got - 2010.06.03 13:09:07.
