data_PCOD9186925
_publ_section_title
;
Structure prediction by ZEFSAII (Michael W. Deem and Ramdas Pophale) SiO2 
 PCOD9186925
Probable space group: C 2/M
;
_chemical_formula_sum "Si O2"
_cell_formula_units_Z 56
_cell_length_a 24.032384
_cell_length_b 9.292814
_cell_length_c 14.653792
_cell_angle_alpha 90.000000
_cell_angle_beta 69.741726
_cell_angle_gamma 90.000000
_cell_volume 3070.169817
_symmetry_space_group_name_H-M "C 2/M"
_symmetry_group_IT_number 12
_symmetry_cell_setting 'monoclinic'
loop_
_space_group_symop_operation_xyz
x,y,z
-x,y,-z
-x,-y,-z
x,-y,z
1/2+x,1/2+y,z
1/2-x,1/2+y,-z
1/2-x,1/2-y,-z
1/2+x,1/2-y,z
loop_
_atom_site_type_symbol
_atom_site_label
_atom_site_fract_x
_atom_site_fract_y
_atom_site_fract_z
Si Si1 0.438084 0.169719 0.916974
Si Si2 0.679454 0.671041 0.695433
Si Si3 0.602492 0.328609 0.231878
Si Si4 0.075897 0.669608 0.859891
Si Si5 0.503471 0.168081 0.607564
Si Si6 0.641183 0.829541 0.543759
Si Si7 0.810704 0.671386 0.684939
O O1 0.401999 0.266225 0.867534
O O2 0.508456 0.201311 0.867829
O O3 0.429931 0.000000 0.901299
O O4 0.422110 0.191700 0.032057
O O5 0.673955 0.500000 0.690834
O O6 0.624506 0.737477 0.781274
O O7 0.678049 0.740513 0.595964
O O8 0.741363 0.702475 0.710628
O O9 0.603742 0.500000 0.232156
O O10 0.544112 0.268074 0.316780
O O11 0.657870 0.261738 0.254564
O O12 0.086272 0.500000 0.835853
O O13 0.500000 0.183265 0.500000
O O14 0.571123 0.197700 0.597602
O O15 0.490077 0.000000 0.636424
O O16 0.658064 0.796365 0.429971
O O17 0.651546 0.000000 0.551066
O O18 0.818508 0.500000 0.697370
#
# Coordination Sequence:
#
# PCOD9186925 Si02
#       7
#     8   8   8   8   8   8   8
#     4   9  19  38  63  86 110 146 186 223 269 336
#     4  11  23  36  56  84 114 145 182 234 287 328
#     4  12  24  35  54  86 118 146 180 233 289 328
#     4   9  19  38  63  87 110 142 187 228 268 329
#     4  10  19  35  57  78 107 150 190 221 263 328
#     4  10  20  36  59  80 105 149 196 230 267 324
#     4  10  22  41  57  74 108 156 198 226 265 332
#
# _framework density 18.240033
#
# number of rings (size 3 to 8) (size 9 to 14) (size 15 to 20)
#    0.000    1.857    1.429    3.857    0.000    7.143 
#    0.000    2.143    0.000    0.000    0.000    0.000 
#    0.000    0.000    0.000    0.000    0.000    0.000 
#
# Total GULP energy -156481.872419 kJ/mol
# GULP energy per Si atom -5588.638301 kJ/mol
# Density = 1.819852 g / cm^3
# Si number density = 18.240033 Si / 1000 Ang^3
#
#
#
# Elastic Constant Matrix: (Units=GPa)
#
#
# Indices 1 2 3 4 5 6 
#
# 1 101.1489 71.1220 38.1543 0.0000 25.9429 0.0000
# 2 71.1220 77.3518 37.2130 0.0000 23.6993 0.0000
# 3 38.1543 37.2130 43.8338 0.0000 18.4927 0.0000
# 4 0.0000 0.0000 0.0000 12.2491 0.0000 6.7579
# 5 25.9429 23.6993 18.4927 0.0000 27.7748 0.0000
# 6 0.0000 0.0000 0.0000 6.7579 0.0000 29.2321
#
#
#
# Elastic Compliance Matrix: (Units=1/GPa)
#
#
# Indices 1 2 3 4 5 6 
#
# 1 0.028862 -0.023593 -0.003077 0.000000 -0.004779 0.000000
# 2 -0.023593 0.042785 -0.013464 0.000000 -0.005506 0.000000
# 3 -0.003077 -0.013464 0.042918 0.000000 -0.014213 0.000000
# 4 0.000000 0.000000 0.000000 0.093574 0.000000 -0.021632
# 5 -0.004779 -0.005506 -0.014213 0.000000 0.054629 0.000000
# 6 0.000000 0.000000 0.000000 -0.021632 0.000000 0.039210
#
#
# Mechanical properties :
#
#
# Convention : Reuss Voigt Hill
#
# Bulk Modulus (GPa) = 29.15637 57.25701 43.20669
# Shear Modulus (GPa) = 12.70076 18.90753 15.80415
#
# Velocity S-wave (km/s) = 2.64164 3.22311 2.94675
# Velocity P-wave (km/s) = 5.03228 6.73129 5.94282
#
# Compressibility (1/GPa) = 0.03429782
#
# Stress axis : x y z
#
# Youngs Moduli (GPa) = 34.64757 23.37265 23.30025
#
# Poissons Ratio (x) = 0.55144 0.07169
# Poissons Ratio (y) = 0.81745 0.31371
# Poissons Ratio (z) = 0.10660 0.31468
#
# Static dielectric constant tensor:
#      x y z
#    x 1.621260 0.000000 0.007110 
#    y 0.000000 1.595800 0.000000 
#    z 0.007110 0.000000 1.626320 
# 
# From -- ./inp_files/237492.got.cif
#   From: 2010.05.17/outbox.cif.g08.bks.cpg/sg12_119_cif.got.tgz:237492.got - 2010.06.03 13:09:07.
