data_PCOD9186123
_publ_section_title
;
Structure prediction by ZEFSAII (Michael W. Deem and Ramdas Pophale) SiO2 
 PCOD9186123
Probable space group: C 2/M
;
_chemical_formula_sum "Si O2"
_cell_formula_units_Z 64
_cell_length_a 14.131381
_cell_length_b 11.966399
_cell_length_c 26.200048
_cell_angle_alpha 90.000000
_cell_angle_beta 136.379059
_cell_angle_gamma 90.000000
_cell_volume 3056.513759
_symmetry_space_group_name_H-M "C 2/M"
_symmetry_group_IT_number 12
_symmetry_cell_setting 'monoclinic'
loop_
_space_group_symop_operation_xyz
x,y,z
-x,y,-z
-x,-y,-z
x,-y,z
1/2+x,1/2+y,z
1/2-x,1/2+y,-z
1/2-x,1/2-y,-z
1/2+x,1/2-y,z
loop_
_atom_site_type_symbol
_atom_site_label
_atom_site_fract_x
_atom_site_fract_y
_atom_site_fract_z
Si Si1 0.346633 0.128280 0.962578
Si Si2 0.368992 0.628877 0.708610
Si Si3 0.652866 0.710311 0.575790
Si Si4 0.212236 0.879811 0.493309
Si Si5 0.229520 0.801368 0.219458
Si Si6 0.406533 0.381248 0.338265
Si Si7 0.513841 0.125714 0.881250
Si Si8 0.370977 0.210681 0.175961
O O1 0.241791 0.210880 0.895176
O O2 0.302934 0.000000 0.936755
O O3 0.500000 0.141367 0.000000
O O4 0.366308 0.145788 0.030794
O O5 0.395053 0.500000 0.704948
O O6 0.254411 0.687107 0.627811
O O7 0.315168 0.632490 0.746942
O O8 0.503191 0.707565 0.758713
O O9 0.500000 0.750795 0.500000
O O10 0.695668 0.626782 0.547820
O O11 0.646113 0.640931 0.625168
O O12 0.250000 0.750000 0.500000
O O13 0.068565 0.884949 0.407700
O O14 0.284564 0.000000 0.509453
O O15 0.351267 0.720382 0.284971
O O16 0.293628 0.850713 0.192634
O O17 0.101690 0.719968 0.156987
O O18 0.355483 0.500000 0.298633
O O19 0.567267 0.133798 0.844388
O O20 0.461934 0.000000 0.871517
#
# Coordination Sequence:
#
# PCOD9186123 Si02
#       8
#     8   8   8   8   8   8   8   8
#     4  10  19  34  59  87 114 148 192 240 292 341
#     4  10  23  39  59  86 118 156 199 248 304 362
#     4   9  19  38  60  80 111 146 196 243 297 351
#     4  10  21  36  56  84 116 150 192 244 297 355
#     4  10  21  37  57  83 117 151 194 242 293 354
#     4   9  18  34  58  80 105 145 192 240 286 343
#     4  10  21  37  58  86 115 149 193 239 290 350
#     4  11  22  37  60  85 117 153 194 242 290 354
#
# _framework density 20.938889
#
# number of rings (size 3 to 8) (size 9 to 14) (size 15 to 20)
#    0.000    2.125    1.250    1.500    1.750    4.250 
#    0.000    5.625    0.000    0.375    0.000    0.000 
#    0.000    0.000    0.000    0.000    0.000    0.000 
#
# Total GULP energy -178351.028523 kJ/mol
# GULP energy per Si atom -5573.469641 kJ/mol
# Density = 2.089123 g / cm^3
# Si number density = 20.938889 Si / 1000 Ang^3
#
#
#
# Elastic Constant Matrix: (Units=GPa)
#
#
# Indices 1 2 3 4 5 6 
#
# 1 88.6702 2.0145 1.4560 0.0000 -14.3085 0.0000
# 2 2.0145 95.7900 21.7379 0.0000 11.5141 0.0000
# 3 1.4560 21.7379 72.0346 0.0000 -1.0701 0.0000
# 4 0.0000 0.0000 0.0000 9.1134 0.0000 -2.4505
# 5 -14.3085 11.5141 -1.0701 0.0000 19.2204 0.0000
# 6 0.0000 0.0000 0.0000 -2.4505 0.0000 14.5740
#
#
#
# Elastic Compliance Matrix: (Units=1/GPa)
#
#
# Indices 1 2 3 4 5 6 
#
# 1 0.013038 -0.001652 0.000394 0.000000 0.010718 0.000000
# 2 -0.001652 0.012414 -0.003845 0.000000 -0.008881 0.000000
# 3 0.000394 -0.003845 0.015086 0.000000 0.003437 0.000000
# 4 0.000000 0.000000 0.000000 0.114924 0.000000 0.019324
# 5 0.010718 -0.008881 0.003437 0.000000 0.065518 0.000000
# 6 0.000000 0.000000 0.000000 0.019324 0.000000 0.071864
#
#
# Mechanical properties :
#
#
# Convention : Reuss Voigt Hill
#
# Bulk Modulus (GPa) = 32.96739 34.10129 33.53434
# Shear Modulus (GPa) = 15.96621 24.00065 19.98343
#
# Velocity S-wave (km/s) = 2.76436 3.38927 3.09264
# Velocity P-wave (km/s) = 5.09585 5.62473 5.36681
#
# Compressibility (1/GPa) = 0.03033300
#
# Stress axis : x y z
#
# Youngs Moduli (GPa) = 76.69693 80.55287 66.28864
#
# Poissons Ratio (x) = 0.13307 -0.02613
# Poissons Ratio (y) = 0.12670 0.25486
# Poissons Ratio (z) = -0.03023 0.30971
#
# Static dielectric constant tensor:
#      x y z
#    x 1.843500 0.000000 -0.038580 
#    y 0.000000 1.837300 0.000000 
#    z -0.038580 0.000000 1.741850 
# 
# From -- ./inp_files/361069.got.cif
#   From: 2010.05.17/outbox.cif.g08.bks.cpg/sg12_181_cif.got.tgz:361069.got - 2010.06.03 13:09:07.
