data_PCOD9186571
_publ_section_title
;
Structure prediction by ZEFSAII (Michael W. Deem and Ramdas Pophale) SiO2 
 PCOD9186571
Probable space group: C 2/M
;
_chemical_formula_sum "Si O2"
_cell_formula_units_Z 52
_cell_length_a 21.695667
_cell_length_b 20.974526
_cell_length_c 8.232548
_cell_angle_alpha 90.000000
_cell_angle_beta 139.627705
_cell_angle_gamma 90.000000
_cell_volume 2426.654346
_symmetry_space_group_name_H-M "C 2/M"
_symmetry_group_IT_number 12
_symmetry_cell_setting 'monoclinic'
loop_
_space_group_symop_operation_xyz
x,y,z
-x,y,-z
-x,-y,-z
x,-y,z
1/2+x,1/2+y,z
1/2-x,1/2+y,-z
1/2-x,1/2-y,-z
1/2+x,1/2-y,z
loop_
_atom_site_type_symbol
_atom_site_label
_atom_site_fract_x
_atom_site_fract_y
_atom_site_fract_z
Si Si1 0.146635 0.228808 0.855065
Si Si2 0.219353 0.570839 0.099266
Si Si3 0.575420 0.661124 0.031466
Si Si4 0.000000 0.661464 0.500000
Si Si5 0.875890 0.424467 0.430058
Si Si6 0.248586 0.577843 0.502668
Si Si7 0.568585 0.394429 0.505179
O O1 0.083300 0.291267 0.714873
O O2 0.103970 0.173888 0.650591
O O3 0.250000 0.250000 0.000000
O O4 0.131631 0.201914 0.007662
O O5 0.178169 0.500000 0.026858
O O6 0.200311 0.600852 0.237014
O O7 0.333977 0.569657 0.328374
O O8 0.186689 0.592923 0.856131
O O9 0.654556 0.617433 0.276859
O O10 0.500000 0.696619 0.000000
O O11 0.500902 0.617004 0.784063
O O12 0.970118 0.615995 0.588381
O O13 0.894806 0.500000 0.467558
O O14 0.818058 0.409715 0.476009
O O15 0.264025 0.500000 0.527038
O O16 0.500000 0.425217 0.500000
#
# Coordination Sequence:
#
# PCOD9186571 Si02
#       7
#     8   8   8   4   8   8   8
#     4  11  23  41  63  84 116 166 208 255 313 364
#     4  10  20  36  59  89 123 161 202 246 302 364
#     4  11  20  36  57  85 127 156 204 260 304 357
#     4  12  21  42  68  88 117 160 210 250 314 372
#     4  10  22  40  64  91 120 157 201 253 308 367
#     4  10  21  37  60  91 127 166 203 249 310 368
#     4  10  19  35  54  80 118 159 200 253 297 354
#
# _framework density 21.428681000000001
#
# number of rings (size 3 to 8) (size 9 to 14) (size 15 to 20)
#    0.000    1.538    3.846    3.923    0.000    1.231 
#    0.000    4.615    0.000    3.692    0.000    0.000 
#    0.000    0.000    0.000    0.000    0.000    0.000 
#
# Total GULP energy -144956.988003 kJ/mol
# GULP energy per Si atom -5575.268769 kJ/mol
# Density = 2.137991 g / cm^3
# Si number density = 21.428681 Si / 1000 Ang^3
#
#
#
# Elastic Constant Matrix: (Units=GPa)
#
#
# Indices 1 2 3 4 5 6 
#
# 1 172.4553 43.1328 36.4667 0.0000 -2.4507 0.0000
# 2 43.1328 55.9461 2.7210 0.0000 11.5190 0.0000
# 3 36.4667 2.7210 58.0007 0.0000 -5.1489 0.0000
# 4 0.0000 0.0000 0.0000 -2.0268 0.0000 14.4090
# 5 -2.4507 11.5190 -5.1489 0.0000 39.4592 0.0000
# 6 0.0000 0.0000 0.0000 14.4090 0.0000 32.1256
#
#
#
# Elastic Compliance Matrix: (Units=1/GPa)
#
#
# Indices 1 2 3 4 5 6 
#
# 1 0.008542 -0.006731 -0.004890 0.000000 0.001857 0.000000
# 2 -0.006731 0.024434 0.002443 0.000000 -0.007232 0.000000
# 3 -0.004890 0.002443 0.020347 0.000000 0.001638 0.000000
# 4 0.000000 0.000000 0.000000 -0.117792 0.000000 0.052832
# 5 0.001857 -0.007232 0.001638 0.000000 0.027783 0.000000
# 6 0.000000 0.000000 0.000000 0.052832 0.000000 0.007431
#
#
# Mechanical properties :
#
#
# Convention : Reuss Voigt Hill
#
# Bulk Modulus (GPa) = 28.59763 50.11589 39.35676
# Shear Modulus (GPa) = 6619.93418 27.51703 3323.72561
#
# Velocity S-wave (km/s) = 55.64165 3.58735 39.42628
# Velocity P-wave (km/s) = 64.35344 6.37157 45.72725
#
# Compressibility (1/GPa) = 0.03496793
#
# Stress axis : x y z
#
# Youngs Moduli (GPa) = 117.06237 40.92725 49.14821
#
# Poissons Ratio (x) = 0.27546 0.24035
# Poissons Ratio (y) = 0.78789 -0.12009
# Poissons Ratio (z) = 0.57247 -0.10000
#
# Static dielectric constant tensor:
#      x y z
#    x 1.848170 0.000000 -0.014950 
#    y 0.000000 1.782500 0.000000 
#    z -0.014950 0.000000 1.822460 
# 
# From -- ./inp_files/99182.got.cif
#   From: 2010.05.17/outbox.cif.g08.bks.cpg/sg12_50_cif.got.tgz:99182.got - 2010.06.03 13:09:07.
