data_PCOD9186115
_publ_section_title
;
Structure prediction by ZEFSAII (Michael W. Deem and Ramdas Pophale) SiO2 
 PCOD9186115
Probable space group: C 2/M
;
_chemical_formula_sum "Si O2"
_cell_formula_units_Z 64
_cell_length_a 31.817033
_cell_length_b 18.561003
_cell_length_c 9.781775
_cell_angle_alpha 90.000000
_cell_angle_beta 140.037346
_cell_angle_gamma 90.000000
_cell_volume 3710.297235
_symmetry_space_group_name_H-M "C 2/M"
_symmetry_group_IT_number 12
_symmetry_cell_setting 'monoclinic'
loop_
_space_group_symop_operation_xyz
x,y,z
-x,y,-z
-x,-y,-z
x,-y,z
1/2+x,1/2+y,z
1/2-x,1/2+y,-z
1/2-x,1/2-y,-z
1/2+x,1/2-y,z
loop_
_atom_site_type_symbol
_atom_site_label
_atom_site_fract_x
_atom_site_fract_y
_atom_site_fract_z
Si Si1 0.806134 0.917722 0.939410
Si Si2 0.062842 0.304229 0.856544
Si Si3 0.755000 0.868489 0.527593
Si Si4 0.928371 0.826057 0.331891
Si Si5 0.213908 0.328260 0.908194
Si Si6 0.915262 0.270312 0.543932
Si Si7 0.828921 0.416010 0.935947
Si Si8 0.147631 0.750763 0.321624
O O1 0.781826 0.912275 0.722853
O O2 0.754516 0.879166 0.909571
O O3 0.814566 0.000000 0.000218
O O4 0.872867 0.874186 0.127996
O O5 0.069092 0.249424 0.745017
O O6 0.986410 0.306811 0.705082
O O7 0.100623 0.378214 0.916635
O O8 0.102567 0.267981 0.079904
O O9 0.713939 0.909373 0.309281
O O10 0.815130 0.825896 0.607833
O O11 0.705566 0.808563 0.466967
O O12 0.915748 0.803196 0.456352
O O13 0.000000 0.859824 0.500000
O O14 0.142094 0.317209 0.666377
O O15 0.250000 0.250000 0.000000
O O16 0.205528 0.365989 0.034641
O O17 0.894629 0.254447 0.647061
O O18 0.834120 0.500000 0.988678
#
# Coordination Sequence:
#
# PCOD9186115 Si02
#       8
#     8   8   8   8   8   8   8   8
#     4  12  23  38  58  87 118 151 190 235 297 351
#     4  10  20  37  59  85 111 153 200 236 278 339
#     4  10  21  35  58  83 111 151 190 241 283 344
#     4  10  21  38  60  86 113 148 192 239 280 340
#     4  12  22  38  60  87 116 148 194 242 288 339
#     4  11  20  34  61  86 115 143 195 247 278 330
#     4  11  23  39  56  83 122 157 190 236 296 349
#     4  10  19  34  59  87 110 143 200 240 287 323
#
# _framework density 17.249290999999999
#
# number of rings (size 3 to 8) (size 9 to 14) (size 15 to 20)
#    0.000    1.250    5.000    1.875    1.750    0.250 
#    0.000    1.875    0.000    1.500    0.000    1.750 
#    0.000    0.000    0.000    0.000    0.000    0.000 
#
# Total GULP energy -178603.136014 kJ/mol
# GULP energy per Si atom -5581.348000 kJ/mol
# Density = 1.721003 g / cm^3
# Si number density = 17.249291 Si / 1000 Ang^3
#
#
#
# Elastic Constant Matrix: (Units=GPa)
#
#
# Indices 1 2 3 4 5 6 
#
# 1 120.0416 48.0276 40.4193 0.0000 3.3650 0.0000
# 2 48.0276 87.1503 26.4101 0.0000 10.0286 0.0000
# 3 40.4193 26.4101 89.9736 0.0000 17.4148 0.0000
# 4 0.0000 0.0000 0.0000 5.0894 0.0000 -5.1631
# 5 3.3650 10.0286 17.4148 0.0000 37.6291 0.0000
# 6 0.0000 0.0000 0.0000 -5.1631 0.0000 13.7936
#
#
#
# Elastic Compliance Matrix: (Units=1/GPa)
#
#
# Indices 1 2 3 4 5 6 
#
# 1 0.011892 -0.005562 -0.004164 0.000000 0.002346 0.000000
# 2 -0.005562 0.015309 -0.001430 0.000000 -0.002921 0.000000
# 3 -0.004164 -0.001430 0.014563 0.000000 -0.005986 0.000000
# 4 0.000000 0.000000 0.000000 0.316778 0.000000 0.118574
# 5 0.002346 -0.002921 -0.005986 0.000000 0.029914 0.000000
# 6 0.000000 0.000000 0.000000 0.118574 0.000000 0.116882
#
#
# Mechanical properties :
#
#
# Convention : Reuss Voigt Hill
#
# Bulk Modulus (GPa) = 51.40442 58.54217 54.97330
# Shear Modulus (GPa) = 9.36097 23.45631 16.40864
#
# Velocity S-wave (km/s) = 2.33209 3.69160 3.08760
# Velocity P-wave (km/s) = 6.09238 7.22379 6.68208
#
# Compressibility (1/GPa) = 0.01945358
#
# Stress axis : x y z
#
# Youngs Moduli (GPa) = 84.09145 65.32204 68.66584
#
# Poissons Ratio (x) = 0.36329 0.28591
# Poissons Ratio (y) = 0.46768 0.09818
# Poissons Ratio (z) = 0.35014 0.09340
#
# Static dielectric constant tensor:
#      x y z
#    x 1.605150 0.000000 -0.006320 
#    y 0.000000 1.563190 0.000000 
#    z -0.006320 0.000000 1.592270 
# 
# From -- ./inp_files/112892.got.cif
#   From: 2010.05.17/outbox.cif.g08.bks.cpg/sg12_57_cif.got.tgz:112892.got - 2010.06.03 13:09:07.
