data_PCOD9186524
_publ_section_title
;
Structure prediction by ZEFSAII (Michael W. Deem and Ramdas Pophale) SiO2 
 PCOD9186524
Probable space group: C 2/M
;
_chemical_formula_sum "Si O2"
_cell_formula_units_Z 32
_cell_length_a 9.785494
_cell_length_b 16.433476
_cell_length_c 14.480382
_cell_angle_alpha 90.000000
_cell_angle_beta 132.805730
_cell_angle_gamma 90.000000
_cell_volume 1708.394568
_symmetry_space_group_name_H-M "C 2/M"
_symmetry_group_IT_number 12
_symmetry_cell_setting 'monoclinic'
loop_
_space_group_symop_operation_xyz
x,y,z
-x,y,-z
-x,-y,-z
x,-y,z
1/2+x,1/2+y,z
1/2-x,1/2+y,-z
1/2-x,1/2-y,-z
1/2+x,1/2-y,z
loop_
_atom_site_type_symbol
_atom_site_label
_atom_site_fract_x
_atom_site_fract_y
_atom_site_fract_z
Si Si1 0.388426 0.000000 0.850388
Si Si2 0.415576 0.161379 0.093929
Si Si3 0.038762 0.000000 0.408047
Si Si4 0.591695 0.681481 0.439830
Si Si5 0.751142 0.270344 0.842735
O O1 0.468380 0.080310 0.838233
O O2 0.163393 0.000000 0.738002
O O3 0.500000 0.000000 0.000000
O O4 0.289764 0.188293 0.120582
O O5 0.572024 0.229895 0.143505
O O6 0.298504 0.163607 0.944951
O O7 0.000000 0.000000 0.500000
O O8 0.141036 0.913187 0.439751
O O9 0.500000 0.684188 0.500000
O O10 0.750000 0.750000 0.500000
O O11 0.427653 0.704613 0.294981
#
# Coordination Sequence:
#
# PCOD9186524 Si02
#       5
#     4   8   4   8   8
#     4  12  18  36  60  89 108 149 193 240 278 339
#     4  10  20  33  61  82 114 141 190 238 285 336
#     4  10  22  36  55  86 114 148 196 239 279 342
#     4  11  22  37  58  82 116 155 193 235 287 344
#     4  10  19  35  53  87 110 148 186 234 284 340
#
# _framework density 18.731036
#
# number of rings (size 3 to 8) (size 9 to 14) (size 15 to 20)
#    0.000    1.500    5.000    1.500    3.500    0.000 
#    0.000    0.625    0.000   18.000    0.000    0.000 
#    0.000    0.000    0.000    0.000    0.000    0.000 
#
# Total GULP energy -89108.529089 kJ/mol
# GULP energy per Si atom -5569.283068 kJ/mol
# Density = 1.868840 g / cm^3
# Si number density = 18.731036 Si / 1000 Ang^3
#
#
#
# Elastic Constant Matrix: (Units=GPa)
#
#
# Indices 1 2 3 4 5 6 
#
# 1 66.1283 51.8442 17.5867 0.0000 11.9586 0.0000
# 2 51.8442 128.4398 29.7523 0.0000 20.0263 0.0000
# 3 17.5867 29.7523 100.9498 0.0000 12.9154 0.0000
# 4 0.0000 0.0000 0.0000 20.5882 0.0000 11.1935
# 5 11.9586 20.0263 12.9154 0.0000 23.6956 0.0000
# 6 0.0000 0.0000 0.0000 11.1935 0.0000 34.9723
#
#
#
# Elastic Compliance Matrix: (Units=1/GPa)
#
#
# Indices 1 2 3 4 5 6 
#
# 1 0.022577 -0.008281 -0.001000 0.000000 -0.003850 0.000000
# 2 -0.008281 0.012319 -0.001495 0.000000 -0.005418 0.000000
# 3 -0.001000 -0.001495 0.011066 0.000000 -0.004264 0.000000
# 4 0.000000 0.000000 0.000000 0.058804 0.000000 -0.018821
# 5 -0.003850 -0.005418 -0.004264 0.000000 0.051048 0.000000
# 6 0.000000 0.000000 0.000000 -0.018821 0.000000 0.034618
#
#
# Mechanical properties :
#
#
# Convention : Reuss Voigt Hill
#
# Bulk Modulus (GPa) = 40.96647 54.87605 47.92126
# Shear Modulus (GPa) = 22.71478 28.94019 25.82748
#
# Velocity S-wave (km/s) = 3.48614 3.93496 3.71733
# Velocity P-wave (km/s) = 6.17435 7.07147 6.63808
#
# Compressibility (1/GPa) = 0.02441021
#
# Stress axis : x y z
#
# Youngs Moduli (GPa) = 44.29371 81.17301 90.36521
#
# Poissons Ratio (x) = 0.67219 0.09036
# Poissons Ratio (y) = 0.36680 0.13510
# Poissons Ratio (z) = 0.04429 0.12136
#
# Static dielectric constant tensor:
#      x y z
#    x 1.706160 0.000000 -0.032630 
#    y 0.000000 1.711760 0.000000 
#    z -0.032630 0.000000 1.693900 
# 
# From -- ./inp_files/118148.got.cif
#   From: 2010.05.17/outbox.cif.g08.bks.cpg/sg12_60_cif.got.tgz:118148.got - 2010.06.03 13:09:07.
