data_PCOD9186796
_publ_section_title
;
Structure prediction by ZEFSAII (Michael W. Deem and Ramdas Pophale) SiO2 
 PCOD9186796
Probable space group: C 2/M
;
_chemical_formula_sum "Si O2"
_cell_formula_units_Z 48
_cell_length_a 13.159991
_cell_length_b 30.448504
_cell_length_c 5.221641
_cell_angle_alpha 90.000000
_cell_angle_beta 108.573276
_cell_angle_gamma 90.000000
_cell_volume 1983.347937
_symmetry_space_group_name_H-M "C 2/M"
_symmetry_group_IT_number 12
_symmetry_cell_setting 'monoclinic'
loop_
_space_group_symop_operation_xyz
x,y,z
-x,y,-z
-x,-y,-z
x,-y,z
1/2+x,1/2+y,z
1/2-x,1/2+y,-z
1/2-x,1/2-y,-z
1/2+x,1/2-y,z
loop_
_atom_site_type_symbol
_atom_site_label
_atom_site_fract_x
_atom_site_fract_y
_atom_site_fract_z
Si Si1 0.385239 0.094490 0.974078
Si Si2 0.924504 0.182040 0.690293
Si Si3 0.714545 0.500000 0.500722
Si Si4 0.629382 0.868842 0.536062
Si Si5 0.574729 0.586115 0.309961
Si Si6 0.924097 0.722636 0.688307
Si Si7 0.153363 0.500000 0.886758
O O1 0.324095 0.121230 0.144834
O O2 0.500000 0.115348 0.000000
O O3 0.337037 0.096107 0.652397
O O4 0.403273 0.045838 0.096207
O O5 0.869193 0.134411 0.647896
O O6 0.867988 0.229640 0.657916
O O7 0.000000 0.182327 0.500000
O O8 0.000000 0.182075 0.000000
O O9 0.646431 0.543109 0.381480
O O10 0.749368 0.500000 0.826933
O O11 0.812865 0.500000 0.380293
O O12 0.500000 0.873478 0.500000
O O13 0.644000 0.821020 0.422169
O O14 0.500000 0.585511 0.500000
O O15 0.500000 0.583650 0.000000
O O16 0.000000 0.724716 0.500000
O O17 0.000000 0.717447 0.000000
#
# Coordination Sequence:
#
# PCOD9186796 Si02
#       7
#     8   8   4   8   8   8   4
#     4  10  20  35  53  72  97 133 173 213 255 302
#     4   8  15  25  43  71 104 132 157 194 245 294
#     4  12  24  37  55  78 103 136 171 214 261 301
#     4   9  16  27  47  73  98 126 162 205 253 298
#     4  10  19  35  56  80 106 136 170 205 247 303
#     4   9  14  23  40  70 105 129 152 197 251 296
#     4  12  25  39  52  74 101 132 173 218 264 307
#
# _framework density 24.201504
#
# number of rings (size 3 to 8) (size 9 to 14) (size 15 to 20)
#    0.000    2.333    0.000    5.250    0.000    0.000 
#    0.000    3.333    0.000    0.000    0.000    7.000 
#    0.000    0.000    0.000    0.000    0.000    0.000 
#
# Total GULP energy -133931.064041 kJ/mol
# GULP energy per Si atom -5580.461002 kJ/mol
# Density = 2.414642 g / cm^3
# Si number density = 24.201504 Si / 1000 Ang^3
#
#
#
# Elastic Constant Matrix: (Units=GPa)
#
#
# Indices 1 2 3 4 5 6 
#
# 1 39.0625 29.6424 29.5959 0.0000 -7.5672 0.0000
# 2 29.6424 198.7511 29.5178 0.0000 -9.7612 0.0000
# 3 29.5959 29.5178 171.7598 0.0000 -32.4176 0.0000
# 4 0.0000 0.0000 0.0000 37.8518 0.0000 -1.2792
# 5 -7.5672 -9.7612 -32.4176 0.0000 29.9580 0.0000
# 6 0.0000 0.0000 0.0000 -1.2792 0.0000 34.8583
#
#
#
# Elastic Compliance Matrix: (Units=1/GPa)
#
#
# Indices 1 2 3 4 5 6 
#
# 1 0.032509 -0.004079 -0.004526 0.000000 0.001985 0.000000
# 2 -0.004079 0.005695 -0.000151 0.000000 0.000662 0.000000
# 3 -0.004526 -0.000151 0.008046 0.000000 0.007514 0.000000
# 4 0.000000 0.000000 0.000000 0.026452 0.000000 0.000971
# 5 0.001985 0.000662 0.007514 0.000000 0.042228 0.000000
# 6 0.000000 0.000000 0.000000 0.000971 0.000000 0.028723
#
#
# Mechanical properties :
#
#
# Convention : Reuss Voigt Hill
#
# Bulk Modulus (GPa) = 34.79683 65.23173 50.01428
# Shear Modulus (GPa) = 29.28367 41.92146 35.60256
#
# Velocity S-wave (km/s) = 3.48227 4.16647 3.83964
# Velocity P-wave (km/s) = 5.52969 7.08223 6.35356
#
# Compressibility (1/GPa) = 0.02873825
#
# Stress axis : x y z
#
# Youngs Moduli (GPa) = 30.76084 175.60293 124.28347
#
# Poissons Ratio (x) = 0.71625 0.56250
# Poissons Ratio (y) = 0.12547 0.01876
# Poissons Ratio (z) = 0.13922 0.02650
#
# Static dielectric constant tensor:
#      x y z
#    x 1.923930 0.000000 0.058680 
#    y 0.000000 1.988030 0.000000 
#    z 0.058680 0.000000 1.953510 
# 
# From -- ./inp_files/12945.got.cif
#   From: 2010.05.17/outbox.cif.g08.bks.cpg/sg12_7_cif.got.tgz:12945.got - 2010.06.03 13:09:07.
