data_PCOD9186007
_publ_section_title
;
Structure prediction by ZEFSAII (Michael W. Deem and Ramdas Pophale) SiO2 
 PCOD9186007
Probable space group: C 2/M
;
_chemical_formula_sum "Si O2"
_cell_formula_units_Z 64
_cell_length_a 10.661792
_cell_length_b 20.782556
_cell_length_c 19.828788
_cell_angle_alpha 90.000000
_cell_angle_beta 138.554204
_cell_angle_gamma 90.000000
_cell_volume 2908.205367
_symmetry_space_group_name_H-M "C 2/M"
_symmetry_group_IT_number 12
_symmetry_cell_setting 'monoclinic'
loop_
_space_group_symop_operation_xyz
x,y,z
-x,y,-z
-x,-y,-z
x,-y,z
1/2+x,1/2+y,z
1/2-x,1/2+y,-z
1/2-x,1/2-y,-z
1/2+x,1/2-y,z
loop_
_atom_site_type_symbol
_atom_site_label
_atom_site_fract_x
_atom_site_fract_y
_atom_site_fract_z
Si Si1 0.487917 0.928794 0.113977
Si Si2 0.038571 0.928008 0.943793
Si Si3 0.457165 0.202943 0.704836
Si Si4 0.794987 0.164041 0.764021
Si Si5 0.236182 0.093350 0.654887
Si Si6 0.689517 0.569800 0.479889
Si Si7 0.053229 0.719003 0.893643
Si Si8 0.215994 0.313690 0.577391
O O1 0.593978 0.928992 0.228719
O O2 0.507382 0.851834 0.101188
O O3 0.545214 0.000000 0.105281
O O4 0.262242 0.931633 0.026599
O O5 0.938328 0.890388 0.844616
O O6 0.957470 0.000000 0.914106
O O7 0.000000 0.894980 0.000000
O O8 0.589115 0.157153 0.713897
O O9 0.268743 0.169126 0.657956
O O10 0.573294 0.215438 0.820168
O O11 0.375659 0.260094 0.626365
O O12 0.779149 0.165262 0.677784
O O13 0.882108 0.230013 0.829785
O O14 0.239176 0.069523 0.579376
O O15 0.038939 0.077277 0.610522
O O16 0.741149 0.500000 0.471801
O O17 0.773780 0.628363 0.471502
O O18 0.250000 0.750000 0.000000
O O19 0.000000 0.290752 0.500000
#
# Coordination Sequence:
#
# PCOD9186007 Si02
#       8
#     8   8   8   8   8   8   8   8
#     4  10  19  34  58  89 127 166 209 265 324 380
#     4  10  20  34  59  92 126 164 209 265 323 384
#     4  10  24  40  66  94 128 168 214 272 331 385
#     4  11  23  41  62  94 130 173 218 265 334 392
#     4  10  21  40  67 100 126 168 222 277 323 385
#     4  11  24  42  67  96 132 176 218 269 330 391
#     4  10  20  36  59  95 131 164 210 269 323 393
#     4  11  27  43  64  95 128 172 216 267 330 398
#
# _framework density 22.006698
#
# number of rings (size 3 to 8) (size 9 to 14) (size 15 to 20)
#    0.000    1.625    1.250    3.750    7.000    1.750 
#    0.000    3.750    0.000    0.750    0.000    3.500 
#    0.000    0.000    0.000    0.000    0.000    0.000 
#
# Total GULP energy -178317.143312 kJ/mol
# GULP energy per Si atom -5572.410729 kJ/mol
# Density = 2.195661 g / cm^3
# Si number density = 22.006698 Si / 1000 Ang^3
#
#
#
# Elastic Constant Matrix: (Units=GPa)
#
#
# Indices 1 2 3 4 5 6 
#
# 1 32.4088 -4.2299 12.5702 0.0000 10.4289 0.0000
# 2 -4.2299 100.7807 35.5467 0.0001 4.5910 0.0001
# 3 12.5702 35.5467 133.9774 0.0004 9.1371 0.0001
# 4 0.0000 0.0001 0.0004 99.5573 0.0000 38.0533
# 5 10.4289 4.5910 9.1371 0.0000 17.1888 0.0000
# 6 0.0000 0.0001 0.0001 38.0533 0.0000 33.2956
#
#
#
# Elastic Compliance Matrix: (Units=1/GPa)
#
#
# Indices 1 2 3 4 5 6 
#
# 1 0.040249 0.003897 -0.003189 0.000000 -0.023765 0.000000
# 2 0.003897 0.011358 -0.003124 0.000000 -0.003737 0.000000
# 3 -0.003189 -0.003124 0.008719 0.000000 -0.001865 0.000000
# 4 0.000000 0.000000 0.000000 0.017836 0.000000 -0.020385
# 5 -0.023765 -0.003737 -0.001865 0.000000 0.074586 0.000000
# 6 0.000000 0.000000 0.000000 -0.020385 0.000000 0.053331
#
#
# Mechanical properties :
#
#
# Convention : Reuss Voigt Hill
#
# Bulk Modulus (GPa) = 18.02032 39.43789 28.72910
# Shear Modulus (GPa) = 21.79491 44.89368 33.34429
#
# Velocity S-wave (km/s) = 3.15044 4.52154 3.89676
# Velocity P-wave (km/s) = 4.63034 6.72449 5.77316
#
# Compressibility (1/GPa) = 0.05549291
#
# Stress axis : x y z
#
# Youngs Moduli (GPa) = 24.84536 88.04109 114.68752
#
# Poissons Ratio (x) = -0.34309 0.36579
# Poissons Ratio (y) = -0.09682 0.35832
# Poissons Ratio (z) = 0.07924 0.27507
#
# Static dielectric constant tensor:
#      x y z
#    x 1.851770 0.000000 0.024460 
#    y 0.000000 1.932270 0.000000 
#    z 0.024460 0.000000 1.805480 
# 
# From -- ./inp_files/306820.got.cif
#   From: 2010.05.17/outbox.cif.g08.bks.cpg/sg12_154_cif.got.tgz:306820.got - 2010.06.03 13:09:07.
