data_PCOD9186611
_publ_section_title
;
Structure prediction by ZEFSAII (Michael W. Deem and Ramdas Pophale) SiO2 
 PCOD9186611
Probable space group: C 2/M
;
_chemical_formula_sum "Si O2"
_cell_formula_units_Z 40
_cell_length_a 15.049424
_cell_length_b 7.582630
_cell_length_c 20.723709
_cell_angle_alpha 90.000000
_cell_angle_beta 56.409324
_cell_angle_gamma 90.000000
_cell_volume 1969.963200
_symmetry_space_group_name_H-M "C 2/M"
_symmetry_group_IT_number 12
_symmetry_cell_setting 'monoclinic'
loop_
_space_group_symop_operation_xyz
x,y,z
-x,y,-z
-x,-y,-z
x,-y,z
1/2+x,1/2+y,z
1/2-x,1/2+y,-z
1/2-x,1/2-y,-z
1/2+x,1/2-y,z
loop_
_atom_site_type_symbol
_atom_site_label
_atom_site_fract_x
_atom_site_fract_y
_atom_site_fract_z
Si Si1 0.026217 0.715890 0.297059
Si Si2 0.216599 0.289991 0.586952
Si Si3 0.103517 0.790245 0.996670
Si Si4 0.656071 0.213391 0.120361
Si Si5 0.081192 0.704157 0.415098
O O1 0.028737 0.500000 0.293644
O O2 0.090226 0.776379 0.208662
O O3 0.075945 0.776538 0.345103
O O4 0.902765 0.770326 0.349563
O O5 0.219495 0.500000 0.593378
O O6 0.250000 0.250000 0.500000
O O7 0.303155 0.211358 0.600257
O O8 0.100943 0.762681 0.074791
O O9 0.105691 0.000000 0.983743
O O10 0.220938 0.721653 0.928979
O O11 0.000000 0.719813 0.000000
O O12 0.659665 0.000000 0.120445
O O13 0.046641 0.500000 0.421801
O O14 0.000000 0.786016 0.500000
#
# Coordination Sequence:
#
# PCOD9186611 Si02
#       5
#     8   8   8   8   8
#     4   9  19  35  53  73 105 141 173 210 259 314
#     4  11  21  35  53  75 101 135 179 222 262 306
#     4   9  18  33  54  79 106 133 165 211 260 306
#     4   9  18  34  54  76 103 139 173 205 254 312
#     4  10  19  35  55  75 101 138 175 214 264 314
#
# _framework density 20.304948
#
# number of rings (size 3 to 8) (size 9 to 14) (size 15 to 20)
#    0.000    2.400    2.000    0.600    0.000    2.400 
#    0.000    5.000    0.000    0.000    0.000    0.000 
#    0.000    0.000    0.000    0.000    0.000    0.000 
#
# Total GULP energy -111604.466429 kJ/mol
# GULP energy per Si atom -5580.223321 kJ/mol
# Density = 2.025873 g / cm^3
# Si number density = 20.304948 Si / 1000 Ang^3
#
#
#
# Elastic Constant Matrix: (Units=GPa)
#
#
# Indices 1 2 3 4 5 6 
#
# 1 189.1329 -11.9956 111.5130 0.0000 5.6371 0.0001
# 2 -11.9956 42.1489 -5.6259 0.0000 -2.5800 0.0002
# 3 111.5130 -5.6259 203.7384 0.0000 9.5661 0.0000
# 4 0.0000 0.0000 0.0000 13.8178 0.0000 0.1548
# 5 5.6371 -2.5800 9.5661 0.0000 17.5239 0.0000
# 6 0.0001 0.0002 0.0000 0.1548 0.0000 13.8451
#
#
#
# Elastic Compliance Matrix: (Units=1/GPa)
#
#
# Indices 1 2 3 4 5 6 
#
# 1 0.007924 0.001685 -0.004292 0.000000 0.000042 0.000000
# 2 0.001685 0.024351 -0.000403 0.000000 0.003263 0.000000
# 3 -0.004292 -0.000403 0.007373 0.000000 -0.002704 0.000000
# 4 0.000000 0.000000 0.000000 0.072380 0.000000 -0.000809
# 5 0.000042 0.003263 -0.002704 0.000000 0.059008 0.000000
# 6 0.000000 0.000000 0.000000 -0.000809 0.000000 0.072237
#
#
# Mechanical properties :
#
#
# Convention : Reuss Voigt Hill
#
# Bulk Modulus (GPa) = 29.73817 69.20036 49.46926
# Shear Modulus (GPa) = 19.19372 31.77927 25.48650
#
# Velocity S-wave (km/s) = 3.07786 3.96043 3.54670
# Velocity P-wave (km/s) = 5.22576 7.42077 6.41780
#
# Compressibility (1/GPa) = 0.03362682
#
# Stress axis : x y z
#
# Youngs Moduli (GPa) = 126.20435 41.06639 135.62220
#
# Poissons Ratio (x) = -0.06919 0.58214
# Poissons Ratio (y) = -0.21262 0.05464
# Poissons Ratio (z) = 0.54171 0.01655
#
# Static dielectric constant tensor:
#      x y z
#    x 1.684490 0.000000 -0.005410 
#    y 0.000000 1.777500 0.000000 
#    z -0.005410 0.000000 1.704510 
# 
# From -- ./inp_files/211369.got.cif
#   From: 2010.05.17/outbox.cif.g08.bks.cpg/sg12_106_cif.got.tgz:211369.got - 2010.06.03 13:09:07.
