data_PCOD9186144
_publ_section_title
;
Structure prediction by ZEFSAII (Michael W. Deem and Ramdas Pophale) SiO2 
 PCOD9186144
Probable space group: C 2/M
;
_chemical_formula_sum "Si O2"
_cell_formula_units_Z 48
_cell_length_a 15.081612
_cell_length_b 14.173034
_cell_length_c 12.134227
_cell_angle_alpha 90.000000
_cell_angle_beta 86.885983
_cell_angle_gamma 90.000000
_cell_volume 2589.887856
_symmetry_space_group_name_H-M "C 2/M"
_symmetry_group_IT_number 12
_symmetry_cell_setting 'monoclinic'
loop_
_space_group_symop_operation_xyz
x,y,z
-x,y,-z
-x,-y,-z
x,-y,z
1/2+x,1/2+y,z
1/2-x,1/2+y,-z
1/2-x,1/2-y,-z
1/2+x,1/2-y,z
loop_
_atom_site_type_symbol
_atom_site_label
_atom_site_fract_x
_atom_site_fract_y
_atom_site_fract_z
Si Si1 0.132361 0.613958 0.784071
Si Si2 0.909327 0.396025 0.564674
Si Si3 0.396871 0.106820 0.969086
Si Si4 0.244959 0.342389 0.576364
Si Si5 0.556665 0.782092 0.237838
Si Si6 0.444653 0.391562 0.612247
O O1 0.128268 0.500000 0.765006
O O2 0.204402 0.663232 0.701455
O O3 0.037569 0.662430 0.763213
O O4 0.152501 0.626017 0.912608
O O5 0.927651 0.500000 0.608484
O O6 0.830443 0.399828 0.483542
O O7 0.888614 0.327426 0.665561
O O8 0.000000 0.363738 0.500000
O O9 0.393773 0.188464 0.877818
O O10 0.374812 0.000000 0.929632
O O11 0.500000 0.102385 0.000000
O O12 0.250000 0.250000 0.500000
O O13 0.341911 0.385816 0.582701
O O14 0.541685 0.676103 0.282664
O O15 0.500000 0.360671 0.500000
O O16 0.468435 0.500000 0.634979
#
# Coordination Sequence:
#
# PCOD9186144 Si02
#       6
#     8   8   8   8   8   8
#     4  10  19  34  59  88 115 141 176 229 290 341
#     4  11  20  31  54  86 115 139 169 225 292 342
#     4   8  16  30  53  85 116 142 171 218 285 346
#     4  12  22  36  54  81 115 148 183 227 276 331
#     4  11  18  33  55  84 113 142 180 224 274 338
#     4  11  24  40  54  74 110 157 200 231 266 323
#
# _framework density 18.533619999999999
#
# number of rings (size 3 to 8) (size 9 to 14) (size 15 to 20)
#    0.000    1.500    3.333    5.500    0.000    0.000 
#    0.000    0.833    0.000    4.500    0.000    0.000 
#    0.000    0.000    0.000    0.000    0.000    0.000 
#
# Total GULP energy -133735.980658 kJ/mol
# GULP energy per Si atom -5572.332527 kJ/mol
# Density = 1.849144 g / cm^3
# Si number density = 18.533620 Si / 1000 Ang^3
#
#
#
# Elastic Constant Matrix: (Units=GPa)
#
#
# Indices 1 2 3 4 5 6 
#
# 1 70.0271 -0.7389 24.7329 0.0000 -9.9381 0.0000
# 2 -0.7389 123.6645 59.0170 0.0000 -5.6632 0.0000
# 3 24.7329 59.0170 125.5714 0.0000 -18.6353 0.0000
# 4 0.0000 0.0000 0.0000 33.5020 0.0000 -0.0224
# 5 -9.9381 -5.6632 -18.6353 0.0000 24.4670 0.0000
# 6 0.0000 0.0000 0.0000 -0.0224 0.0000 18.2671
#
#
#
# Elastic Compliance Matrix: (Units=1/GPa)
#
#
# Indices 1 2 3 4 5 6 
#
# 1 0.016137 0.001938 -0.003439 0.000000 0.004384 0.000000
# 2 0.001938 0.010706 -0.005557 0.000000 -0.000967 0.000000
# 3 -0.003439 -0.005557 0.012238 0.000000 0.006638 0.000000
# 4 0.000000 0.000000 0.000000 0.029849 0.000000 0.000037
# 5 0.004384 -0.000967 0.006638 0.000000 0.047484 0.000000
# 6 0.000000 0.000000 0.000000 0.000037 0.000000 0.054743
#
#
# Mechanical properties :
#
#
# Convention : Reuss Voigt Hill
#
# Bulk Modulus (GPa) = 40.05445 53.92056 46.98751
# Shear Modulus (GPa) = 25.82733 30.99735 28.41234
#
# Velocity S-wave (km/s) = 3.73706 4.09405 3.91962
# Velocity P-wave (km/s) = 6.34662 7.17669 6.77438
#
# Compressibility (1/GPa) = 0.02496601
#
# Stress axis : x y z
#
# Youngs Moduli (GPa) = 61.96789 93.40931 81.71532
#
# Poissons Ratio (x) = -0.18106 0.28100
# Poissons Ratio (y) = -0.12011 0.45407
# Poissons Ratio (z) = 0.21310 0.51905
#
# Static dielectric constant tensor:
#      x y z
#    x 1.655840 0.000000 -0.022930 
#    y 0.000000 1.691550 0.000000 
#    z -0.022930 0.000000 1.692160 
# 
# From -- ./inp_files/142829.got.cif
#   From: 2010.05.17/outbox.cif.g08.bks.cpg/sg12_72_cif.got.tgz:142829.got - 2010.06.03 13:09:07.
