data_PCOD9186952
_publ_section_title
;
Structure prediction by ZEFSAII (Michael W. Deem and Ramdas Pophale) SiO2 
 PCOD9186952
Probable space group: C 2/M
;
_chemical_formula_sum "Si O2"
_cell_formula_units_Z 48
_cell_length_a 25.268182
_cell_length_b 16.782286
_cell_length_c 19.226922
_cell_angle_alpha 90.000000
_cell_angle_beta 161.344704
_cell_angle_gamma 90.000000
_cell_volume 2608.036201
_symmetry_space_group_name_H-M "C 2/M"
_symmetry_group_IT_number 12
_symmetry_cell_setting 'monoclinic'
loop_
_space_group_symop_operation_xyz
x,y,z
-x,y,-z
-x,-y,-z
x,-y,z
1/2+x,1/2+y,z
1/2-x,1/2+y,-z
1/2-x,1/2-y,-z
1/2+x,1/2-y,z
loop_
_atom_site_type_symbol
_atom_site_label
_atom_site_fract_x
_atom_site_fract_y
_atom_site_fract_z
Si Si1 0.681503 0.175005 0.752607
Si Si2 0.692577 0.760252 0.224298
Si Si3 0.875712 0.760047 0.593016
Si Si4 0.395951 0.406341 0.133412
Si Si5 0.812189 0.088553 0.294105
Si Si6 0.282491 0.830401 0.955297
O O1 0.500000 0.152099 0.500000
O O2 0.782094 0.200983 0.809133
O O3 0.778154 0.112070 0.920346
O O4 0.674222 0.255781 0.790920
O O5 0.786381 0.735637 0.410733
O O6 0.772082 0.843668 0.298997
O O7 0.500000 0.770343 0.000000
O O8 0.750000 0.750000 0.500000
O O9 0.942481 0.850964 0.673555
O O10 0.040511 0.707362 0.807550
O O11 0.428051 0.500000 0.180643
O O12 0.302131 0.371724 0.084514
O O13 0.000000 0.094103 0.500000
O O14 0.784844 0.000000 0.287007
O O15 0.704176 0.108066 0.091511
#
# Coordination Sequence:
#
# PCOD9186952 Si02
#       6
#     8   8   8   8   8   8
#     4  10  19  35  57  80 108 143 186 223 263 324
#     4  11  21  35  56  79 104 140 184 227 269 322
#     4  11  22  39  60  81 109 148 190 228 272 331
#     4  11  22  36  57  85 115 145 181 231 281 322
#     4  10  20  34  53  80 113 143 172 217 277 330
#     4  10  19  35  58  82 110 145 186 224 267 327
#
# _framework density 18.404653
#
# number of rings (size 3 to 8) (size 9 to 14) (size 15 to 20)
#    0.000    1.500    0.000   10.500    0.000    2.667 
#    0.000    3.333    0.000    4.500    0.000    0.000 
#    0.000    0.000    0.000    0.000    0.000    0.000 
#
# Total GULP energy -134084.847509 kJ/mol
# GULP energy per Si atom -5586.868646 kJ/mol
# Density = 1.836276 g / cm^3
# Si number density = 18.404653 Si / 1000 Ang^3
#
#
#
# Elastic Constant Matrix: (Units=GPa)
#
#
# Indices 1 2 3 4 5 6 
#
# 1 119.3965 36.5982 28.5732 0.0026 -4.1302 0.0000
# 2 36.5982 72.0110 18.8781 0.0053 9.1869 -0.0002
# 3 28.5732 18.8781 84.2419 0.0026 -11.4484 -0.0009
# 4 0.0026 0.0053 0.0026 -3.2818 0.0000 -0.5085
# 5 -4.1302 9.1869 -11.4484 0.0000 37.0765 -0.0008
# 6 0.0000 -0.0002 -0.0009 -0.5085 -0.0008 6.5398
#
#
#
# Elastic Compliance Matrix: (Units=1/GPa)
#
#
# Indices 1 2 3 4 5 6 
#
# 1 0.010487 -0.004970 -0.002210 -0.000001 0.001717 0.000000
# 2 -0.004970 0.018006 -0.003164 0.000022 -0.005992 0.000001
# 3 -0.002210 -0.003164 0.013989 0.000004 0.004857 0.000003
# 4 -0.000001 0.000022 0.000004 -0.301083 -0.000005 -0.023409
# 5 0.001717 -0.005992 0.004857 -0.000005 0.030147 0.000004
# 6 0.000000 0.000001 0.000003 -0.023409 0.000004 0.151091
#
#
# Mechanical properties :
#
#
# Convention : Reuss Voigt Hill
#
# Bulk Modulus (GPa) = 45.88033 49.30538 47.59286
# Shear Modulus (GPa) = -101.19252 20.84022 -40.17615
#
# Velocity S-wave (km/s) = -7.42303 3.36867 -4.67726
# Velocity P-wave (km/s) = 6.96317 6.47907 1.80380
#
# Compressibility (1/GPa) = 0.02179583
#
# Stress axis : x y z
#
# Youngs Moduli (GPa) = 95.35578 55.53607 71.48334
#
# Poissons Ratio (x) = 0.27599 0.15798
# Poissons Ratio (y) = 0.47388 0.22616
# Poissons Ratio (z) = 0.21074 0.17571
#
# Static dielectric constant tensor:
#      x y z
#    x 1.634810 0.000000 -0.022130 
#    y 0.000000 1.633210 0.000000 
#    z -0.022130 0.000000 1.660180 
# 
# From -- ./inp_files/61693.got.cif
#   From: 2010.05.17/outbox.cif.g08.bks.cpg/sg12_31_cif.got.tgz:61693.got - 2010.06.03 13:09:07.
