data_PCOD9186844
_publ_section_title
;
Structure prediction by ZEFSAII (Michael W. Deem and Ramdas Pophale) SiO2 
 PCOD9186844
Probable space group: C 2/M
;
_chemical_formula_sum "Si O2"
_cell_formula_units_Z 58
_cell_length_a 17.786810
_cell_length_b 11.661052
_cell_length_c 18.614442
_cell_angle_alpha 90.000000
_cell_angle_beta 49.379567
_cell_angle_gamma 90.000000
_cell_volume 2930.555918
_symmetry_space_group_name_H-M "C 2/M"
_symmetry_group_IT_number 12
_symmetry_cell_setting 'monoclinic'
loop_
_space_group_symop_operation_xyz
x,y,z
-x,y,-z
-x,-y,-z
x,-y,z
1/2+x,1/2+y,z
1/2-x,1/2+y,-z
1/2-x,1/2-y,-z
1/2+x,1/2-y,z
loop_
_atom_site_type_symbol
_atom_site_label
_atom_site_fract_x
_atom_site_fract_y
_atom_site_fract_z
Si Si1 0.546383 0.218381 0.788341
Si Si2 0.106148 0.374189 0.895492
Si Si3 0.465026 0.868982 0.688600
Si Si4 0.500000 0.500000 0.500000
Si Si5 0.735657 0.221331 0.131200
Si Si6 0.709101 0.366667 0.612514
Si Si7 0.388215 0.699231 0.479472
Si Si8 0.138212 0.870042 0.073980
O O1 0.590473 0.136047 0.820514
O O2 0.511912 0.151501 0.738730
O O3 0.624336 0.314564 0.715982
O O4 0.451771 0.282509 0.881251
O O5 0.146854 0.500000 0.889226
O O6 0.177627 0.273344 0.875411
O O7 0.000000 0.363916 0.000000
O O8 0.349353 0.840491 0.770909
O O9 0.520127 0.777817 0.604180
O O10 0.480571 0.000000 0.656451
O O11 0.430113 0.601112 0.504999
O O12 0.686813 0.327170 0.117830
O O13 0.782766 0.143497 0.039149
O O14 0.729813 0.500000 0.613155
O O15 0.664860 0.353305 0.558969
O O16 0.805240 0.286158 0.561491
O O17 0.103784 0.000000 0.100665
#
# Coordination Sequence:
#
# PCOD9186844 Si02
#       8
#     8   8   8   2   8   8   8   8
#     4  10  21  37  61  93 123 159 212 249 315 372
#     4  11  22  39  58  83 121 159 202 268 316 366
#     4  10  21  41  64  92 122 167 211 255 302 384
#     4  12  24  48  66 104 132 172 198 282 316 392
#     4  10  21  36  56  85 117 158 213 249 313 368
#     4  10  20  42  68  98 124 170 213 262 308 397
#     4  10  23  41  69  95 133 164 210 258 327 375
#     4  10  19  35  56  82 116 163 207 255 297 371
#
# _framework density 19.791466
#
# number of rings (size 3 to 8) (size 9 to 14) (size 15 to 20)
#    0.000    1.793    2.069    2.069    0.000    1.103 
#    7.448    6.207    0.000    0.000    0.000    0.000 
#    0.000    0.000    0.000    0.000    0.000    0.000 
#
# Total GULP energy -161656.134914 kJ/mol
# GULP energy per Si atom -5574.349480 kJ/mol
# Density = 1.974642 g / cm^3
# Si number density = 19.791466 Si / 1000 Ang^3
#
#
#
# Elastic Constant Matrix: (Units=GPa)
#
#
# Indices 1 2 3 4 5 6 
#
# 1 63.2542 36.0265 12.6461 0.0000 -9.4156 0.0000
# 2 36.0265 130.8104 23.2815 0.0000 -10.8799 0.0000
# 3 12.6461 23.2815 65.7870 0.0000 -22.7355 0.0000
# 4 0.0000 0.0000 0.0000 -1.9183 0.0000 -6.7839
# 5 -9.4156 -10.8799 -22.7355 0.0000 15.1288 0.0000
# 6 0.0000 0.0000 0.0000 -6.7839 0.0000 21.3415
#
#
#
# Elastic Compliance Matrix: (Units=1/GPa)
#
#
# Indices 1 2 3 4 5 6 
#
# 1 0.019953 -0.004860 0.002014 0.000000 0.011950 0.000000
# 2 -0.004860 0.009416 -0.002295 0.000000 0.000298 0.000000
# 3 0.002014 -0.002295 0.032224 0.000000 0.048029 0.000000
# 4 0.000000 0.000000 0.000000 -0.245413 0.000000 -0.078010
# 5 0.011950 0.000298 0.048029 0.000000 0.145929 0.000000
# 6 0.000000 0.000000 0.000000 -0.078010 0.000000 0.022060
#
#
# Mechanical properties :
#
#
# Convention : Reuss Voigt Hill
#
# Bulk Modulus (GPa) = 19.48859 44.86219 32.17539
# Shear Modulus (GPa) = 432.67541 19.43689 226.05615
#
# Velocity S-wave (km/s) = 14.80175 3.13722 10.69892
# Velocity P-wave (km/s) = 17.37788 5.98661 12.99673
#
# Compressibility (1/GPa) = 0.05131208
#
# Stress axis : x y z
#
# Youngs Moduli (GPa) = 50.11695 106.19774 31.03252
#
# Poissons Ratio (x) = 0.51611 -0.06250
# Poissons Ratio (y) = 0.24356 0.07123
# Poissons Ratio (z) = -0.10094 0.24374
#
# Static dielectric constant tensor:
#      x y z
#    x 1.704920 0.000000 -0.004720 
#    y 0.000000 1.655820 0.000000 
#    z -0.004720 0.000000 1.689630 
# 
# From -- ./inp_files/315933.got.cif
#   From: 2010.05.17/outbox.cif.g08.bks.cpg/sg12_158_cif.got.tgz:315933.got - 2010.06.03 13:09:07.
