data_PCOD9186779
_publ_section_title
;
Structure prediction by ZEFSAII (Michael W. Deem and Ramdas Pophale) SiO2 
 PCOD9186779
Probable space group: C 2/M
;
_chemical_formula_sum "Si O2"
_cell_formula_units_Z 64
_cell_length_a 33.652479
_cell_length_b 8.249850
_cell_length_c 15.819312
_cell_angle_alpha 90.000000
_cell_angle_beta 134.101109
_cell_angle_gamma 90.000000
_cell_volume 3153.867112
_symmetry_space_group_name_H-M "C 2/M"
_symmetry_group_IT_number 12
_symmetry_cell_setting 'monoclinic'
loop_
_space_group_symop_operation_xyz
x,y,z
-x,y,-z
-x,-y,-z
x,-y,z
1/2+x,1/2+y,z
1/2-x,1/2+y,-z
1/2-x,1/2-y,-z
1/2+x,1/2-y,z
loop_
_atom_site_type_symbol
_atom_site_label
_atom_site_fract_x
_atom_site_fract_y
_atom_site_fract_z
Si Si1 0.339400 0.318599 0.189429
Si Si2 0.165962 0.690873 0.630396
Si Si3 0.810910 0.694993 0.617883
Si Si4 0.528197 0.685612 0.627989
Si Si5 0.216389 0.303800 0.240089
Si Si6 0.025266 0.685063 0.800184
Si Si7 0.850068 0.694871 0.022237
Si Si8 0.094521 0.699858 0.371877
O O1 0.316948 0.500000 0.152430
O O2 0.325883 0.251142 0.261812
O O3 0.406185 0.319065 0.288091
O O4 0.326480 0.237290 0.080029
O O5 0.158349 0.500000 0.624721
O O6 0.222308 0.732382 0.664963
O O7 0.115845 0.754138 0.496744
O O8 0.811859 0.500000 0.615363
O O9 0.750000 0.750000 0.500000
O O10 0.817091 0.742138 0.725351
O O11 0.859283 0.752275 0.627310
O O12 0.500000 0.735865 0.500000
O O13 0.510592 0.500000 0.622711
O O14 0.516157 0.806402 0.685809
O O15 0.220723 0.500000 0.244146
O O16 0.187704 0.249349 0.110912
O O17 0.028727 0.500000 0.836054
O O18 0.967043 0.756585 0.745239
O O19 0.086872 0.759072 0.899519
O O20 0.853772 0.500000 0.025221
O O21 0.092810 0.500000 0.370432
#
# Coordination Sequence:
#
# PCOD9186779 Si02
#       8
#     8   8   8   8   8   8   8   8
#     4  10  20  33  50  74 104 139 176 215 258 303
#     4  11  21  33  52  78 107 138 173 215 262 310
#     4  10  19  35  56  79 107 135 167 210 260 311
#     4   9  17  29  45  68 100 134 169 211 255 300
#     4  10  21  36  55  77 103 136 174 217 259 304
#     4   9  17  31  51  72  99 135 170 207 250 302
#     4   9  19  36  54  74 102 139 180 213 250 303
#     4   9  18  32  52  80 109 133 165 212 262 310
#
# _framework density 20.292546000000002
#
# number of rings (size 3 to 8) (size 9 to 14) (size 15 to 20)
#    0.000    2.375    1.250    1.500    0.000    1.750 
#    0.000    1.875    0.000    3.750    0.000    0.000 
#    0.000    6.000    0.000    0.000    0.000    0.000 
#
# Total GULP energy -178327.127405 kJ/mol
# GULP energy per Si atom -5572.722731 kJ/mol
# Density = 2.024636 g / cm^3
# Si number density = 20.292546 Si / 1000 Ang^3
#
#
#
# Elastic Constant Matrix: (Units=GPa)
#
#
# Indices 1 2 3 4 5 6 
#
# 1 84.7031 6.3668 -2.3034 0.0000 -6.8362 0.0000
# 2 6.3668 10.9400 1.9898 0.0000 -4.2398 0.0000
# 3 -2.3034 1.9898 47.8725 0.0000 -11.6095 0.0000
# 4 0.0000 0.0000 0.0000 14.8170 0.0000 1.6060
# 5 -6.8362 -4.2398 -11.6095 0.0000 30.5362 0.0000
# 6 0.0000 0.0000 0.0000 1.6060 0.0000 16.9183
#
#
#
# Elastic Compliance Matrix: (Units=1/GPa)
#
#
# Indices 1 2 3 4 5 6 
#
# 1 0.012541 -0.006617 0.001472 0.000000 0.002449 0.000000
# 2 -0.006617 0.100128 -0.001617 0.000000 0.011806 0.000000
# 3 0.001472 -0.001617 0.023191 0.000000 0.008922 0.000000
# 4 0.000000 0.000000 0.000000 0.068192 0.000000 -0.006473
# 5 0.002449 0.011806 0.008922 0.000000 0.038327 0.000000
# 6 0.000000 0.000000 0.000000 -0.006473 0.000000 0.059722
#
#
# Mechanical properties :
#
#
# Convention : Reuss Voigt Hill
#
# Bulk Modulus (GPa) = 8.17427 17.29134 12.73280
# Shear Modulus (GPa) = 14.02902 21.61844 17.82373
#
# Velocity S-wave (km/s) = 2.63218 3.26749 2.96689
# Velocity P-wave (km/s) = 3.64346 4.77230 4.24557
#
# Compressibility (1/GPa) = 0.12233508
#
# Stress axis : x y z
#
# Youngs Moduli (GPa) = 79.73850 9.98719 43.12109
#
# Poissons Ratio (x) = 0.06609 -0.06349
# Poissons Ratio (y) = 0.52766 0.06974
# Poissons Ratio (z) = -0.11740 0.01615
#
# Static dielectric constant tensor:
#      x y z
#    x 1.750580 0.000000 0.014050 
#    y 0.000000 1.744470 0.000000 
#    z 0.014050 0.000000 1.744840 
# 
# From -- ./inp_files/243858.got.cif
#   From: 2010.05.17/outbox.cif.g08.bks.cpg/sg12_122_cif.got.tgz:243858.got - 2010.06.03 13:09:07.
