data_PCOD9186954
_publ_section_title
;
Structure prediction by ZEFSAII (Michael W. Deem and Ramdas Pophale) SiO2 
 PCOD9186954
Probable space group: C 2/M
;
_chemical_formula_sum "Si O2"
_cell_formula_units_Z 64
_cell_length_a 29.436958
_cell_length_b 8.146832
_cell_length_c 14.613474
_cell_angle_alpha 90.000000
_cell_angle_beta 87.233708
_cell_angle_gamma 90.000000
_cell_volume 3500.489531
_symmetry_space_group_name_H-M "C 2/M"
_symmetry_group_IT_number 12
_symmetry_cell_setting 'monoclinic'
loop_
_space_group_symop_operation_xyz
x,y,z
-x,y,-z
-x,-y,-z
x,-y,z
1/2+x,1/2+y,z
1/2-x,1/2+y,-z
1/2-x,1/2-y,-z
1/2+x,1/2-y,z
loop_
_atom_site_type_symbol
_atom_site_label
_atom_site_fract_x
_atom_site_fract_y
_atom_site_fract_z
Si Si1 0.841023 0.192799 0.537423
Si Si2 0.006750 0.801526 0.605167
Si Si3 0.845105 0.804566 0.829966
Si Si4 0.322995 0.801642 0.221008
Si Si5 0.801236 0.696390 0.018265
Si Si6 0.088572 0.690070 0.320897
Si Si7 0.770373 0.799806 0.685734
Si Si8 0.607712 0.302059 0.644201
O O1 0.881585 0.209467 0.607953
O O2 0.796100 0.261584 0.592079
O O3 0.860115 0.263825 0.441205
O O4 0.832483 0.000000 0.523030
O O5 0.056062 0.744904 0.634799
O O6 0.000000 0.751794 0.500000
O O7 0.963861 0.737150 0.665616
O O8 0.005718 0.000000 0.608028
O O9 0.889272 0.725783 0.779545
O O10 0.802601 0.755322 0.768691
O O11 0.849294 0.000000 0.822738
O O12 0.833677 0.756753 0.934052
O O13 0.315340 0.744428 0.117852
O O14 0.280333 0.743390 0.287251
O O15 0.369243 0.745176 0.263220
O O16 0.321797 0.000000 0.220480
O O17 0.802011 0.500000 0.019654
O O18 0.750000 0.750000 0.000000
O O19 0.094661 0.500000 0.343166
O O20 0.769841 0.000000 0.681950
O O21 0.606677 0.500000 0.636349
#
# Coordination Sequence:
#
# PCOD9186954 Si02
#       8
#     8   8   8   8   8   8   8   8
#     4   9  17  33  53  73 105 148 188 222 261 313
#     4  10  19  36  58  78 105 144 186 226 274 322
#     4  10  19  35  57  80 109 143 180 224 275 322
#     4  10  21  36  51  75 112 149 180 220 277 325
#     4  11  21  35  56  83 111 144 186 229 273 322
#     4  11  21  32  52  85 114 137 176 225 276 328
#     4   8  15  30  51  73 103 144 181 211 259 318
#     4  10  21  35  53  78 105 143 191 229 266 320
#
# _framework density 18.283158
#
# number of rings (size 3 to 8) (size 9 to 14) (size 15 to 20)
#    0.000    2.125    2.500    2.625    0.000    2.750 
#    0.000    0.625    0.000    0.750    0.000    5.250 
#    0.000    0.000    0.000    0.000    0.000    0.000 
#
# Total GULP energy -178582.513737 kJ/mol
# GULP energy per Si atom -5580.703554 kJ/mol
# Density = 1.824154 g / cm^3
# Si number density = 18.283158 Si / 1000 Ang^3
#
#
#
# Elastic Constant Matrix: (Units=GPa)
#
#
# Indices 1 2 3 4 5 6 
#
# 1 115.6926 4.0314 59.6544 0.0000 -3.3898 0.0000
# 2 4.0314 13.7297 -2.2763 0.0000 -3.1994 0.0000
# 3 59.6544 -2.2763 94.6747 0.0000 -5.4285 0.0000
# 4 0.0000 0.0000 0.0000 18.3292 0.0000 -0.1374
# 5 -3.3898 -3.1994 -5.4285 0.0000 26.1209 0.0000
# 6 0.0000 0.0000 0.0000 -0.1374 0.0000 15.3833
#
#
#
# Elastic Compliance Matrix: (Units=1/GPa)
#
#
# Indices 1 2 3 4 5 6 
#
# 1 0.013185 -0.005445 -0.008480 0.000000 -0.000718 0.000000
# 2 -0.005445 0.077746 0.005875 0.000000 0.010037 0.000000
# 3 -0.008480 0.005875 0.016218 0.000000 0.002990 0.000000
# 4 0.000000 0.000000 0.000000 0.054561 0.000000 0.000487
# 5 -0.000718 0.010037 0.002990 0.000000 0.040041 0.000000
# 6 0.000000 0.000000 0.000000 0.000487 0.000000 0.065010
#
#
# Mechanical properties :
#
#
# Convention : Reuss Voigt Hill
#
# Bulk Modulus (GPa) = 10.98281 38.54623 24.76452
# Shear Modulus (GPa) = 15.96373 22.81250 19.38812
#
# Velocity S-wave (km/s) = 2.95810 3.53616 3.25997
# Velocity P-wave (km/s) = 4.20562 6.14827 5.26728
#
# Compressibility (1/GPa) = 0.09105139
#
# Stress axis : x y z
#
# Youngs Moduli (GPa) = 75.84569 12.86235 61.65902
#
# Poissons Ratio (x) = 0.07003 0.52285
# Poissons Ratio (y) = 0.41294 -0.36227
# Poissons Ratio (z) = 0.64315 -0.07557
#
# Static dielectric constant tensor:
#      x y z
#    x 1.621390 0.000000 -0.016680 
#    y 0.000000 1.648440 0.000000 
#    z -0.016680 0.000000 1.634390 
# 
# From -- ./inp_files/243991.got.cif
#   From: 2010.05.17/outbox.cif.g08.bks.cpg/sg12_122_cif.got.tgz:243991.got - 2010.06.03 13:09:07.
