data_PCOD9186778
_publ_section_title
;
Structure prediction by ZEFSAII (Michael W. Deem and Ramdas Pophale) SiO2 
 PCOD9186778
Probable space group: C 2/M
;
_chemical_formula_sum "Si O2"
_cell_formula_units_Z 64
_cell_length_a 20.317668
_cell_length_b 20.678585
_cell_length_c 27.319056
_cell_angle_alpha 90.000000
_cell_angle_beta 163.102652
_cell_angle_gamma 90.000000
_cell_volume 3336.126468
_symmetry_space_group_name_H-M "C 2/M"
_symmetry_group_IT_number 12
_symmetry_cell_setting 'monoclinic'
loop_
_space_group_symop_operation_xyz
x,y,z
-x,y,-z
-x,-y,-z
x,-y,z
1/2+x,1/2+y,z
1/2-x,1/2+y,-z
1/2-x,1/2-y,-z
1/2+x,1/2-y,z
loop_
_atom_site_type_symbol
_atom_site_label
_atom_site_fract_x
_atom_site_fract_y
_atom_site_fract_z
Si Si1 0.193751 0.608430 0.602126
Si Si2 0.857794 0.336024 0.283610
Si Si3 0.608099 0.186070 0.994392
Si Si4 0.874579 0.071326 0.553779
Si Si5 0.520340 0.325888 0.906058
Si Si6 0.663937 0.689448 0.736117
Si Si7 0.660648 0.074886 0.825016
Si Si8 0.582979 0.570322 0.810825
O O1 0.327647 0.663315 0.728141
O O2 0.399539 0.570569 0.723684
O O3 0.000000 0.578577 0.500000
O O4 0.045611 0.633885 0.452094
O O5 0.621225 0.330464 0.144092
O O6 0.931637 0.261931 0.328529
O O7 0.824346 0.381705 0.213356
O O8 0.637890 0.255923 0.990124
O O9 0.341643 0.181541 0.817980
O O10 0.714343 0.183969 0.124465
O O11 0.735787 0.128326 0.057352
O O12 0.606718 0.072945 0.355267
O O13 0.986924 0.131774 0.607370
O O14 0.942136 0.077285 0.659506
O O15 0.959357 0.000000 0.598692
O O16 0.695567 0.385319 0.032741
O O17 0.738380 0.000000 0.874581
O O18 0.697246 0.500000 0.890417
#
# Coordination Sequence:
#
# PCOD9186778 Si02
#       8
#     8   8   8   8   8   8   8   8
#     4  10  22  37  55  78 109 146 182 221 264 314
#     4  10  19  35  56  79 106 141 182 221 264 321
#     4   9  18  33  55  81 109 138 176 227 272 315
#     4   9  19  33  52  80 111 140 178 222 267 322
#     4  10  21  36  53  80 111 139 180 224 265 317
#     4   9  17  32  56  82 107 139 176 222 273 320
#     4  11  21  34  53  79 109 142 179 222 268 315
#     4  10  20  35  53  77 108 145 184 220 266 322
#
# _framework density 19.183924999999999
#
# number of rings (size 3 to 8) (size 9 to 14) (size 15 to 20)
#    0.000    2.250    2.500    0.375    0.000    4.250 
#    0.000    5.000    0.000    0.000    0.000    0.000 
#    0.000    8.000    0.000    0.000    0.000    0.000 
#
# Total GULP energy -178202.232594 kJ/mol
# GULP energy per Si atom -5568.819769 kJ/mol
# Density = 1.914026 g / cm^3
# Si number density = 19.183925 Si / 1000 Ang^3
#
#
#
# Elastic Constant Matrix: (Units=GPa)
#
#
# Indices 1 2 3 4 5 6 
#
# 1 39.4188 30.0253 8.6558 -0.0522 8.5135 0.0152
# 2 30.0253 149.3405 41.3813 0.0499 20.2832 -0.3842
# 3 8.6558 41.3813 60.1115 -0.0177 -5.1040 -0.0798
# 4 -0.0522 0.0499 -0.0177 19.6082 -0.0263 4.7042
# 5 8.5135 20.2832 -5.1040 -0.0263 19.9482 0.1128
# 6 0.0152 -0.3842 -0.0798 4.7042 0.1128 26.7033
#
#
#
# Elastic Compliance Matrix: (Units=1/GPa)
#
#
# Indices 1 2 3 4 5 6 
#
# 1 0.031242 -0.004351 -0.002310 0.000095 -0.009500 -0.000064
# 2 -0.004351 0.011496 -0.008303 -0.000116 -0.011958 0.000214
# 3 -0.002310 -0.008303 0.024006 0.000088 0.015571 -0.000128
# 4 0.000095 -0.000116 0.000088 0.053251 0.000223 -0.009384
# 5 -0.009500 -0.011958 0.015571 0.000223 0.070330 -0.000457
# 6 -0.000064 0.000214 -0.000128 -0.009384 -0.000457 0.039106
#
#
# Mechanical properties :
#
#
# Convention : Reuss Voigt Hill
#
# Bulk Modulus (GPa) = 27.16169 45.44395 36.30282
# Shear Modulus (GPa) = 18.40728 24.50581 21.45655
#
# Velocity S-wave (km/s) = 3.10097 3.57797 3.34797
# Velocity P-wave (km/s) = 5.19717 6.38820 5.82322
#
# Compressibility (1/GPa) = 0.03681656
#
# Stress axis : x y z
#
# Youngs Moduli (GPa) = 32.00821 86.98508 41.65630
#
# Poissons Ratio (x) = 0.37848 0.09623
# Poissons Ratio (y) = 0.13927 0.34586
# Poissons Ratio (z) = 0.07394 0.72221
#
# Static dielectric constant tensor:
#      x y z
#    x 1.694460 0.000000 0.015570 
#    y 0.000000 1.699160 -0.000170 
#    z 0.015570 -0.000170 1.655170 
# 
# From -- ./inp_files/344917.got.cif
#   From: 2010.05.17/outbox.cif.g08.bks.cpg/sg12_173_cif.got.tgz:344917.got - 2010.06.03 13:09:07.
