data_PCOD9186365
_publ_section_title
;
Structure prediction by ZEFSAII (Michael W. Deem and Ramdas Pophale) SiO2 
 PCOD9186365
Probable space group: C 2/M
;
_chemical_formula_sum "Si O2"
_cell_formula_units_Z 56
_cell_length_a 19.205059
_cell_length_b 17.490853
_cell_length_c 14.316853
_cell_angle_alpha 90.000000
_cell_angle_beta 143.036602
_cell_angle_gamma 90.000000
_cell_volume 2891.803695
_symmetry_space_group_name_H-M "C 2/M"
_symmetry_group_IT_number 12
_symmetry_cell_setting 'monoclinic'
loop_
_space_group_symop_operation_xyz
x,y,z
-x,y,-z
-x,-y,-z
x,-y,z
1/2+x,1/2+y,z
1/2-x,1/2+y,-z
1/2-x,1/2-y,-z
1/2+x,1/2-y,z
loop_
_atom_site_type_symbol
_atom_site_label
_atom_site_fract_x
_atom_site_fract_y
_atom_site_fract_z
Si Si1 0.660891 0.676935 0.512874
Si Si2 0.387295 0.333192 0.217921
Si Si3 0.180395 0.352066 0.474778
Si Si4 0.628714 0.087628 0.615918
Si Si5 0.723446 0.833062 0.883242
Si Si6 0.736096 0.088813 0.202697
Si Si7 0.552045 0.908275 0.852383
O O1 0.523625 0.668956 0.377249
O O2 0.708366 0.635907 0.470433
O O3 0.684087 0.766687 0.520942
O O4 0.728630 0.642313 0.673686
O O5 0.323879 0.253227 0.176005
O O6 0.331946 0.397306 0.224689
O O7 0.345814 0.340779 0.066333
O O8 0.159158 0.405535 0.540589
O O9 0.068690 0.364851 0.289140
O O10 0.500000 0.120130 0.500000
O O11 0.718695 0.131256 0.776750
O O12 0.626345 0.000000 0.643384
O O13 0.634080 0.877457 0.856548
O O14 0.733643 0.000000 0.228881
O O15 0.616862 0.106835 0.019906
O O16 0.537439 0.000000 0.827857
#
# Coordination Sequence:
#
# PCOD9186365 Si02
#       7
#     8   8   8   8   8   8   8
#     4  11  23  40  58  83 122 160 194 240 290 356
#     4  10  20  37  62  86 118 155 197 243 288 349
#     4  11  23  38  58  87 119 157 199 236 297 356
#     4  11  20  33  58  88 115 145 189 245 294 339
#     4  10  19  34  61  91 117 149 197 243 296 342
#     4  10  23  39  62  91 117 155 201 246 297 349
#     4  10  19  37  62  91 121 148 195 252 296 345
#
# _framework density 19.365078
#
# number of rings (size 3 to 8) (size 9 to 14) (size 15 to 20)
#    0.000    1.571    2.857    2.143    0.000    3.429 
#    0.000    2.143    0.000    0.857    0.000    0.000 
#    0.000    0.000    0.000    0.000    0.000    0.000 
#
# Total GULP energy -156306.672391 kJ/mol
# GULP energy per Si atom -5582.381157 kJ/mol
# Density = 1.932100 g / cm^3
# Si number density = 19.365078 Si / 1000 Ang^3
#
#
#
# Elastic Constant Matrix: (Units=GPa)
#
#
# Indices 1 2 3 4 5 6 
#
# 1 25.9271 -1.0491 17.5920 0.0000 -9.9880 0.0000
# 2 -1.0491 62.1858 43.3681 0.0000 -11.0631 0.0000
# 3 17.5920 43.3681 106.4444 0.0000 -29.5698 0.0000
# 4 0.0000 0.0000 0.0000 28.3842 0.0000 -3.0559
# 5 -9.9880 -11.0631 -29.5698 0.0000 16.7695 0.0000
# 6 0.0000 0.0000 0.0000 -3.0559 0.0000 -0.8561
#
#
#
# Elastic Compliance Matrix: (Units=1/GPa)
#
#
# Indices 1 2 3 4 5 6 
#
# 1 0.053570 0.009205 -0.004025 0.000000 0.030882 0.000000
# 2 0.009205 0.024102 -0.010587 0.000000 0.002715 0.000000
# 3 -0.004025 -0.010587 0.023065 0.000000 0.031290 0.000000
# 4 0.000000 0.000000 0.000000 0.025450 0.000000 -0.090848
# 5 0.030882 0.002715 0.031290 0.000000 0.134991 0.000000
# 6 0.000000 0.000000 0.000000 -0.090848 0.000000 -0.843824
#
#
# Mechanical properties :
#
#
# Convention : Reuss Voigt Hill
#
# Bulk Modulus (GPa) = 11.12058 34.93105 23.02582
# Shear Modulus (GPa) = -9.22753 17.83594 4.30420
#
# Velocity S-wave (km/s) = -2.18526 3.03815 1.49248
# Velocity P-wave (km/s) = 0.78238 5.51221 3.85826
#
# Compressibility (1/GPa) = 0.08992337
#
# Stress axis : x y z
#
# Youngs Moduli (GPa) = 18.66726 41.48964 43.35514
#
# Poissons Ratio (x) = -0.38189 0.17449
# Poissons Ratio (y) = -0.17182 0.45900
# Poissons Ratio (z) = 0.07513 0.43925
#
# Static dielectric constant tensor:
#      x y z
#    x 1.671570 0.000000 -0.004160 
#    y 0.000000 1.686440 0.000000 
#    z -0.004160 0.000000 1.694680 
# 
# From -- ./inp_files/158349.got.cif
#   From: 2010.05.17/outbox.cif.g08.bks.cpg/sg12_80_cif.got.tgz:158349.got - 2010.06.03 13:09:07.
