data_PCOD9186454
_publ_section_title
;
Structure prediction by ZEFSAII (Michael W. Deem and Ramdas Pophale) SiO2 
 PCOD9186454
Probable space group: C 2/M
;
_chemical_formula_sum "Si O2"
_cell_formula_units_Z 42
_cell_length_a 13.588395
_cell_length_b 28.152001
_cell_length_c 9.501316
_cell_angle_alpha 90.000000
_cell_angle_beta 28.961037
_cell_angle_gamma 90.000000
_cell_volume 1759.945416
_symmetry_space_group_name_H-M "C 2/M"
_symmetry_group_IT_number 12
_symmetry_cell_setting 'monoclinic'
loop_
_space_group_symop_operation_xyz
x,y,z
-x,y,-z
-x,-y,-z
x,-y,z
1/2+x,1/2+y,z
1/2-x,1/2+y,-z
1/2-x,1/2-y,-z
1/2+x,1/2-y,z
loop_
_atom_site_type_symbol
_atom_site_label
_atom_site_fract_x
_atom_site_fract_y
_atom_site_fract_z
Si Si1 0.365906 0.943713 0.299060
Si Si2 0.741526 0.600831 0.731511
Si Si3 0.017837 0.735851 0.812105
Si Si4 0.500000 0.500000 0.500000
Si Si5 0.608716 0.574895 0.171666
Si Si6 0.244553 0.325188 0.062361
O O1 0.377038 0.914758 0.431330
O O2 0.124754 0.938685 0.568119
O O3 0.399096 0.000000 0.276406
O O4 0.500000 0.926184 0.000000
O O5 0.801155 0.649937 0.730368
O O6 0.500000 0.605366 0.000000
O O7 0.736893 0.564733 0.869589
O O8 0.250000 0.750000 0.500000
O O9 0.928444 0.694363 0.824774
O O10 0.000000 0.724783 0.000000
O O11 0.886907 0.781442 0.927279
O O12 0.653080 0.541188 0.244769
O O13 0.637913 0.630844 0.159933
#
# Coordination Sequence:
#
# PCOD9186454 Si02
#       6
#     8   8   8   2   8   8
#     4  10  19  34  67 111 160 204 269 332 385 459
#     4   8  17  36  69  99 147 210 256 316 392 462
#     4  11  25  47  85 109 149 195 253 332 413 482
#     4  12  20  36  64  98 154 208 280 310 368 460
#     4   9  21  37  66  98 150 211 259 322 378 465
#     4   9  22  45  75 113 151 195 266 319 397 479
#
# _framework density 23.864377000000001
#
# number of rings (size 3 to 8) (size 9 to 14) (size 15 to 20)
#    1.143    1.333    0.952    0.571    1.333    5.714 
#    0.000    2.857    8.381    2.286    0.000    0.000 
#    0.000    0.000    0.000    0.762    0.000    0.000 
#
# Total GULP energy -116928.474103 kJ/mol
# GULP energy per Si atom -5568.022576 kJ/mol
# Density = 2.381006 g / cm^3
# Si number density = 23.864377 Si / 1000 Ang^3
#
#
#
# Elastic Constant Matrix: (Units=GPa)
#
#
# Indices 1 2 3 4 5 6 
#
# 1 161.1327 60.0974 76.8350 0.0000 8.7013 0.0000
# 2 60.0974 156.5837 61.7601 0.0000 29.8086 0.0000
# 3 76.8350 61.7601 183.6443 0.0000 41.5321 0.0000
# 4 0.0000 0.0000 0.0000 -381.7780 0.0000 -32.0723
# 5 8.7013 29.8086 41.5321 0.0000 49.4152 0.0000
# 6 0.0000 0.0000 0.0000 -32.0723 0.0000 58.0363
#
#
#
# Elastic Compliance Matrix: (Units=1/GPa)
#
#
# Indices 1 2 3 4 5 6 
#
# 1 0.008610 -0.002505 -0.003406 0.000000 0.002858 0.000000
# 2 -0.002505 0.008448 -0.000914 0.000000 -0.003887 0.000000
# 3 -0.003406 -0.000914 0.008541 0.000000 -0.006027 0.000000
# 4 0.000000 0.000000 0.000000 -0.002503 0.000000 -0.001383
# 5 0.002858 -0.003887 -0.006027 0.000000 0.027144 0.000000
# 6 0.000000 0.000000 0.000000 -0.001383 0.000000 0.016466
#
#
# Mechanical properties :
#
#
# Convention : Reuss Voigt Hill
#
# Bulk Modulus (GPa) = 83.69188 99.86061 91.77625
# Shear Modulus (GPa) = 59.28345 -34.68741 12.29802
#
# Velocity S-wave (km/s) = 4.98956 -3.81665 2.27255
# Velocity P-wave (km/s) = 8.26682 4.74484 6.73995
#
# Compressibility (1/GPa) = 0.01194859
#
# Stress axis : x y z
#
# Youngs Moduli (GPa) = 116.13882 118.36663 117.08289
#
# Poissons Ratio (x) = 0.29654 0.39882
# Poissons Ratio (y) = 0.29095 0.10701
# Poissons Ratio (z) = 0.39561 0.10818
#
# Static dielectric constant tensor:
#      x y z
#    x 2.082610 0.000000 -0.019300 
#    y 0.000000 1.926780 0.000000 
#    z -0.019300 0.000000 1.982790 
# 
# From -- ./inp_files/170564.got.cif
#   From: 2010.05.17/outbox.cif.g08.bks.cpg/sg12_86_cif.got.tgz:170564.got - 2010.06.03 13:09:07.
