data_PCOD9186981
_publ_section_title
;
Structure prediction by ZEFSAII (Michael W. Deem and Ramdas Pophale) SiO2 
 PCOD9186981
Probable space group: C 2/M
;
_chemical_formula_sum "Si O2"
_cell_formula_units_Z 56
_cell_length_a 14.019639
_cell_length_b 18.170076
_cell_length_c 11.620502
_cell_angle_alpha 90.000000
_cell_angle_beta 57.220495
_cell_angle_gamma 90.000000
_cell_volume 2488.803862
_symmetry_space_group_name_H-M "C 2/M"
_symmetry_group_IT_number 12
_symmetry_cell_setting 'monoclinic'
loop_
_space_group_symop_operation_xyz
x,y,z
-x,y,-z
-x,-y,-z
x,-y,z
1/2+x,1/2+y,z
1/2-x,1/2+y,-z
1/2-x,1/2-y,-z
1/2+x,1/2-y,z
loop_
_atom_site_type_symbol
_atom_site_label
_atom_site_fract_x
_atom_site_fract_y
_atom_site_fract_z
Si Si1 0.241915 0.583329 0.436239
Si Si2 0.180193 0.187858 0.804854
Si Si3 0.012345 0.637277 0.629994
Si Si4 0.034577 0.218179 0.204861
Si Si5 0.369885 0.177628 0.041115
Si Si6 0.788236 0.416175 0.907851
Si Si7 0.996307 0.917397 0.366506
O O1 0.233196 0.500000 0.392962
O O2 0.244139 0.648225 0.340381
O O3 0.131117 0.598589 0.584104
O O4 0.363250 0.588128 0.418500
O O5 0.056092 0.190646 0.830577
O O6 0.200143 0.273315 0.822512
O O7 0.197625 0.136566 0.904290
O O8 0.015201 0.721431 0.673101
O O9 0.000000 0.631720 0.500000
O O10 0.906902 0.598107 0.761860
O O11 0.063861 0.145906 0.256432
O O12 0.120104 0.267151 0.075207
O O13 0.500000 0.164998 0.000000
O O14 0.314069 0.106659 0.022200
O O15 0.753508 0.500000 0.920053
O O16 0.000000 0.907641 0.500000
O O17 0.034758 0.000000 0.311438
#
# Coordination Sequence:
#
# PCOD9186981 Si02
#       7
#     8   8   8   8   8   8   8
#     4  10  20  34  55  86 120 152 190 235 289 343
#     4  10  19  35  57  81 111 147 188 236 280 335
#     4  11  21  35  54  87 120 155 189 231 281 346
#     4   9  20  36  55  82 110 146 192 238 286 335
#     4   9  20  39  58  80 110 145 192 240 286 339
#     4  11  22  36  59  86 115 151 189 234 292 346
#     4   9  18  34  54  77 112 155 192 236 286 336
#
# _framework density 22.500768000000001
#
# number of rings (size 3 to 8) (size 9 to 14) (size 15 to 20)
#    0.000    2.143    1.429    1.714    0.000    3.714 
#    5.143    1.429    0.000    8.143    0.000    0.000 
#    0.000    0.000    0.000    0.000    0.000    0.000 
#
# Total GULP energy -156301.229946 kJ/mol
# GULP energy per Si atom -5582.186784 kJ/mol
# Density = 2.244956 g / cm^3
# Si number density = 22.500768 Si / 1000 Ang^3
#
#
#
# Elastic Constant Matrix: (Units=GPa)
#
#
# Indices 1 2 3 4 5 6 
#
# 1 68.0563 21.4192 8.4649 0.0000 4.0390 0.0000
# 2 21.4192 62.6754 2.5167 0.0000 10.2009 0.0000
# 3 8.4649 2.5167 36.0068 0.0000 0.1795 0.0000
# 4 0.0000 0.0000 0.0000 24.2668 0.0000 4.9549
# 5 4.0390 10.2009 0.1795 0.0000 31.1152 0.0000
# 6 0.0000 0.0000 0.0000 4.9549 0.0000 28.2045
#
#
#
# Elastic Compliance Matrix: (Units=1/GPa)
#
#
# Indices 1 2 3 4 5 6 
#
# 1 0.016917 -0.005581 -0.003585 0.000000 -0.000346 0.000000
# 2 -0.005581 0.018744 0.000029 0.000000 -0.005421 0.000000
# 3 -0.003585 0.000029 0.028612 0.000000 0.000291 0.000000
# 4 0.000000 0.000000 0.000000 0.042742 0.000000 -0.007509
# 5 -0.000346 -0.005421 0.000291 0.000000 0.033959 0.000000
# 6 0.000000 0.000000 0.000000 -0.007509 0.000000 0.036775
#
#
# Mechanical properties :
#
#
# Convention : Reuss Voigt Hill
#
# Bulk Modulus (GPa) = 21.74018 25.72669 23.73343
# Shear Modulus (GPa) = 23.65695 25.67315 24.66505
#
# Velocity S-wave (km/s) = 3.24602 3.38152 3.31446
# Velocity P-wave (km/s) = 4.87153 5.16766 5.02178
#
# Compressibility (1/GPa) = 0.04599778
#
# Stress axis : x y z
#
# Youngs Moduli (GPa) = 59.11335 53.35149 34.95045
#
# Poissons Ratio (x) = 0.29776 0.12530
# Poissons Ratio (y) = 0.32991 -0.00101
# Poissons Ratio (z) = 0.21193 -0.00155
#
# Static dielectric constant tensor:
#      x y z
#    x 1.873770 0.000000 -0.002960 
#    y 0.000000 1.832240 0.000000 
#    z -0.002960 0.000000 1.869410 
# 
# From -- ./inp_files/146031.got.cif
#   From: 2010.05.17/outbox.cif.g08.bks.cpg/sg12_74_cif.got.tgz:146031.got - 2010.06.03 13:09:07.
