data_PCOD9186589
_publ_section_title
;
Structure prediction by ZEFSAII (Michael W. Deem and Ramdas Pophale) SiO2 
 PCOD9186589
Probable space group: C 2/M
;
_chemical_formula_sum "Si O2"
_cell_formula_units_Z 34
_cell_length_a 14.701463
_cell_length_b 7.483800
_cell_length_c 17.385779
_cell_angle_alpha 90.000000
_cell_angle_beta 136.360585
_cell_angle_gamma 90.000000
_cell_volume 1320.079106
_symmetry_space_group_name_H-M "C 2/M"
_symmetry_group_IT_number 12
_symmetry_cell_setting 'monoclinic'
loop_
_space_group_symop_operation_xyz
x,y,z
-x,y,-z
-x,-y,-z
x,-y,z
1/2+x,1/2+y,z
1/2-x,1/2+y,-z
1/2-x,1/2-y,-z
1/2+x,1/2-y,z
loop_
_atom_site_type_symbol
_atom_site_label
_atom_site_fract_x
_atom_site_fract_y
_atom_site_fract_z
Si Si1 0.182269 0.296019 0.561233
Si Si2 0.597769 0.298790 0.670939
Si Si3 0.125833 0.211027 0.979483
Si Si4 0.528664 0.282098 0.260070
Si Si5 0.500000 0.000000 0.000000
O O1 0.171375 0.500000 0.528705
O O2 0.055130 0.196344 0.451688
O O3 0.325087 0.221089 0.628779
O O4 0.172515 0.297549 0.648257
O O5 0.648421 0.500000 0.705229
O O6 0.580398 0.219543 0.745272
O O7 0.005849 0.263571 0.847997
O O8 0.121450 0.000000 0.994728
O O9 0.250000 0.250000 0.000000
O O10 0.106067 0.341995 0.038143
O O11 0.527855 0.500000 0.264066
#
# Coordination Sequence:
#
# PCOD9186589 Si02
#       5
#     8   8   8   8   2
#     4  10  19  35  54  85 124 165 212 254 316 388
#     4  10  19  35  55  84 122 168 205 261 318 377
#     4  11  24  49  73 104 144 180 236 297 356 433
#     4   9  21  39  61  88 127 163 214 271 328 395
#     4  12  26  48  76 108 132 192 230 286 380 408
#
# _framework density 25.756032999999999
#
# number of rings (size 3 to 8) (size 9 to 14) (size 15 to 20)
#    0.000    1.882    1.176    3.882    0.000    1.882 
#   12.706    2.353    0.000    0.000    0.000    0.000 
#    0.000    0.000    0.000    0.000    0.000    0.000 
#
# Total GULP energy -94850.160017 kJ/mol
# GULP energy per Si atom -5579.421177 kJ/mol
# Density = 2.569741 g / cm^3
# Si number density = 25.756033 Si / 1000 Ang^3
#
#
#
# Elastic Constant Matrix: (Units=GPa)
#
#
# Indices 1 2 3 4 5 6 
#
# 1 135.2853 31.6605 -2.2576 0.0000 1.0734 0.0000
# 2 31.6605 158.1621 9.9021 0.0000 -0.3069 0.0000
# 3 -2.2576 9.9021 54.4806 0.0000 -2.7736 0.0000
# 4 0.0000 0.0000 0.0000 12.3114 0.0000 -0.2172
# 5 1.0734 -0.3069 -2.7736 0.0000 34.9017 0.0000
# 6 0.0000 0.0000 0.0000 -0.2172 0.0000 33.7126
#
#
#
# Elastic Compliance Matrix: (Units=1/GPa)
#
#
# Indices 1 2 3 4 5 6 
#
# 1 0.007777 -0.001595 0.000602 0.000000 -0.000205 0.000000
# 2 -0.001595 0.006722 -0.001288 0.000000 0.000006 0.000000
# 3 0.000602 -0.001288 0.018688 0.000000 0.001455 0.000000
# 4 0.000000 0.000000 0.000000 0.081235 0.000000 0.000523
# 5 -0.000205 0.000006 0.001455 0.000000 0.028774 0.000000
# 6 0.000000 0.000000 0.000000 0.000523 0.000000 0.029666
#
#
# Mechanical properties :
#
#
# Convention : Reuss Voigt Hill
#
# Bulk Modulus (GPa) = 34.93346 47.39313 41.16329
# Shear Modulus (GPa) = 26.74287 36.75999 31.75143
#
# Velocity S-wave (km/s) = 3.22578 3.78198 3.51490
# Velocity P-wave (km/s) = 5.24089 6.12469 5.69995
#
# Compressibility (1/GPa) = 0.02862585
#
# Stress axis : x y z
#
# Youngs Moduli (GPa) = 128.58956 148.75434 53.50971
#
# Poissons Ratio (x) = 0.23723 -0.03219
# Poissons Ratio (y) = 0.20507 0.06890
# Poissons Ratio (z) = -0.07737 0.19154
#
# Static dielectric constant tensor:
#      x y z
#    x 2.031640 0.000000 -0.061940 
#    y 0.000000 1.868750 0.000000 
#    z -0.061940 0.000000 2.160620 
# 
# From -- ./inp_files/267416.got.cif
#   From: 2010.05.17/outbox.cif.g08.bks.cpg/sg12_134_cif.got.tgz:267416.got - 2010.06.03 13:09:07.
