data_PCOD9186604
_publ_section_title
;
Structure prediction by ZEFSAII (Michael W. Deem and Ramdas Pophale) SiO2 
 PCOD9186604
Probable space group: C 2/M
;
_chemical_formula_sum "Si O2"
_cell_formula_units_Z 40
_cell_length_a 14.703889
_cell_length_b 7.466876
_cell_length_c 22.179975
_cell_angle_alpha 90.000000
_cell_angle_beta 58.544057
_cell_angle_gamma 90.000000
_cell_volume 2077.315491
_symmetry_space_group_name_H-M "C 2/M"
_symmetry_group_IT_number 12
_symmetry_cell_setting 'monoclinic'
loop_
_space_group_symop_operation_xyz
x,y,z
-x,y,-z
-x,-y,-z
x,-y,z
1/2+x,1/2+y,z
1/2-x,1/2+y,-z
1/2-x,1/2-y,-z
1/2+x,1/2-y,z
loop_
_atom_site_type_symbol
_atom_site_label
_atom_site_fract_x
_atom_site_fract_y
_atom_site_fract_z
Si Si1 0.671934 0.000000 0.414178
Si Si2 0.956585 0.500000 0.416158
Si Si3 0.721751 0.287513 0.079320
Si Si4 0.617211 0.295928 0.652468
Si Si5 0.426471 0.703675 0.077387
Si Si6 0.519587 0.718187 0.811721
O O1 0.581680 0.000000 0.393160
O O2 0.609992 0.000000 0.498799
O O3 0.755241 0.832259 0.384658
O O4 0.920821 0.670021 0.388321
O O5 0.728115 0.500000 0.085597
O O6 0.809542 0.200792 0.091087
O O7 0.603541 0.230479 0.138049
O O8 0.750000 0.250000 0.000000
O O9 0.575362 0.500000 0.657102
O O10 0.572099 0.222871 0.731345
O O11 0.469336 0.500000 0.069635
O O12 0.428122 0.780856 0.143720
O O13 0.500000 0.789954 0.000000
O O14 0.527530 0.500000 0.806675
#
# Coordination Sequence:
#
# PCOD9186604 Si02
#       6
#     4   4   8   8   8   8
#     4   9  22  40  67  97 131 158 205 259 299 371
#     4  11  20  42  67 101 123 161 215 244 302 390
#     4  11  21  35  53  77 104 143 196 243 288 347
#     4   9  21  41  61  90 132 167 196 257 313 359
#     4  10  19  35  55  74 105 148 188 239 296 340
#     4   9  19  38  56  74 115 152 187 237 296 350
#
# _framework density 19.25562
#
# number of rings (size 3 to 8) (size 9 to 14) (size 15 to 20)
#    0.600    1.600    2.000    1.200    0.000    2.000 
#    7.200    1.000    0.000    0.000    0.000    0.000 
#    0.000    0.000    0.000    0.000    0.000    0.000 
#
# Total GULP energy -111440.696554 kJ/mol
# GULP energy per Si atom -5572.034828 kJ/mol
# Density = 1.921179 g / cm^3
# Si number density = 19.255620 Si / 1000 Ang^3
#
#
#
# Elastic Constant Matrix: (Units=GPa)
#
#
# Indices 1 2 3 4 5 6 
#
# 1 160.3894 25.9854 79.6984 0.0000 8.8297 0.0000
# 2 25.9854 77.8508 24.7505 0.0000 7.0602 -0.0001
# 3 79.6984 24.7505 151.2260 0.0000 5.8263 0.0000
# 4 0.0000 0.0000 0.0000 -4.5307 0.0000 -8.2997
# 5 8.8297 7.0602 5.8263 0.0000 22.2215 0.0000
# 6 0.0000 -0.0001 0.0000 -8.2997 0.0000 20.3388
#
#
#
# Elastic Compliance Matrix: (Units=1/GPa)
#
#
# Indices 1 2 3 4 5 6 
#
# 1 0.008688 -0.001367 -0.004282 0.000000 -0.001895 0.000000
# 2 -0.001367 0.014084 -0.001448 0.000000 -0.003552 0.000000
# 3 -0.004282 -0.001448 0.009115 0.000000 -0.000228 0.000000
# 4 0.000000 0.000000 0.000000 -0.126300 0.000000 -0.051540
# 5 -0.001895 -0.003552 -0.000228 0.000000 0.046943 0.000000
# 6 0.000000 0.000000 0.000000 -0.051540 0.000000 0.028135
#
#
# Mechanical properties :
#
#
# Convention : Reuss Voigt Hill
#
# Bulk Modulus (GPa) = 56.51753 72.25943 64.38848
# Shear Modulus (GPa) = 6608.78868 24.87473 3316.83170
#
# Velocity S-wave (km/s) = 58.64798 3.59808 41.54836
# Velocity P-wave (km/s) = 67.93769 7.40739 48.32390
#
# Compressibility (1/GPa) = 0.01769363
#
# Stress axis : x y z
#
# Youngs Moduli (GPa) = 115.09509 71.00398 109.70707
#
# Poissons Ratio (x) = 0.09705 0.46979
# Poissons Ratio (y) = 0.15731 0.15884
# Poissons Ratio (z) = 0.49286 0.10280
#
# Static dielectric constant tensor:
#      x y z
#    x 1.648040 0.000000 0.001940 
#    y 0.000000 1.739670 0.000000 
#    z 0.001940 0.000000 1.662800 
# 
# From -- ./inp_files/307940.got.cif
#   From: 2010.05.17/outbox.cif.g08.bks.cpg/sg12_154_cif.got.tgz:307940.got - 2010.06.03 13:09:07.
