data_PCOD9186246
_publ_section_title
;
Structure prediction by ZEFSAII (Michael W. Deem and Ramdas Pophale) SiO2 
 PCOD9186246
Probable space group: C 2/M
;
_chemical_formula_sum "Si O2"
_cell_formula_units_Z 40
_cell_length_a 7.512568
_cell_length_b 16.906576
_cell_length_c 20.981246
_cell_angle_alpha 90.000000
_cell_angle_beta 35.597970
_cell_angle_gamma 90.000000
_cell_volume 1551.202858
_symmetry_space_group_name_H-M "C 2/M"
_symmetry_group_IT_number 12
_symmetry_cell_setting 'monoclinic'
loop_
_space_group_symop_operation_xyz
x,y,z
-x,y,-z
-x,-y,-z
x,-y,z
1/2+x,1/2+y,z
1/2-x,1/2+y,-z
1/2-x,1/2-y,-z
1/2+x,1/2-y,z
loop_
_atom_site_type_symbol
_atom_site_label
_atom_site_fract_x
_atom_site_fract_y
_atom_site_fract_z
Si Si1 0.687188 0.699872 0.156424
Si Si2 0.687757 0.910357 0.318409
Si Si3 0.057834 0.085550 0.340566
Si Si4 0.255055 0.213661 0.382804
Si Si5 0.332579 0.132797 0.905975
O O1 0.463924 0.630542 0.198405
O O2 0.509567 0.732805 0.272924
O O3 0.705730 0.781031 0.114557
O O4 0.011831 0.658748 0.073237
O O5 0.420042 0.849748 0.380635
O O6 0.807303 0.913119 0.356697
O O7 0.624091 0.000000 0.317264
O O8 0.084881 0.160135 0.379189
O O9 0.393026 0.087469 0.209065
O O10 0.017110 0.000000 0.385581
O O11 0.000000 0.255650 0.500000
O O12 0.000000 0.094955 0.000000
#
# Coordination Sequence:
#
# PCOD9186246 Si02
#       5
#     8   8   8   8   8
#     4  10  20  39  57  88 118 153 200 250 296 353
#     4  10  21  40  61  83 122 162 196 245 301 350
#     4   9  21  39  58  88 124 157 198 247 300 357
#     4  11  23  39  64  87 119 162 205 246 297 355
#     4  10  19  34  60  86 113 155 200 248 295 353
#
# _framework density 25.786441
#
# number of rings (size 3 to 8) (size 9 to 14) (size 15 to 20)
#    0.000    2.000    2.000    1.200    0.000    3.600 
#    0.000    2.000    0.000    0.600    0.000    0.000 
#    0.000    0.000    0.000    0.000    0.000    0.000 
#
# Total GULP energy -111742.433702 kJ/mol
# GULP energy per Si atom -5587.121685 kJ/mol
# Density = 2.572775 g / cm^3
# Si number density = 25.786441 Si / 1000 Ang^3
#
#
#
# Elastic Constant Matrix: (Units=GPa)
#
#
# Indices 1 2 3 4 5 6 
#
# 1 73.4419 1.5965 26.9076 -0.0052 -23.9675 -0.0247
# 2 1.5965 120.0458 14.3564 -0.0592 -10.6399 -0.0123
# 3 26.9076 14.3564 89.4263 -0.0030 -9.9345 -0.0749
# 4 -0.0052 -0.0592 -0.0030 5.7507 -0.0252 2.4477
# 5 -23.9675 -10.6399 -9.9345 -0.0252 28.7061 0.0333
# 6 -0.0247 -0.0123 -0.0749 2.4477 0.0333 12.4349
#
#
#
# Elastic Compliance Matrix: (Units=1/GPa)
#
#
# Indices 1 2 3 4 5 6 
#
# 1 0.020577 0.001721 -0.004668 0.000128 0.016203 -0.000054
# 2 0.001721 0.008856 -0.001472 0.000124 0.004210 -0.000032
# 3 -0.004668 -0.001472 0.012823 -0.000045 -0.000005 0.000075
# 4 0.000128 0.000124 -0.000045 0.189796 0.000347 -0.037361
# 5 0.016203 0.004210 -0.000005 0.000347 0.049923 -0.000166
# 6 -0.000054 -0.000032 0.000075 -0.037361 -0.000166 0.087774
#
#
# Mechanical properties :
#
#
# Convention : Reuss Voigt Hill
#
# Bulk Modulus (GPa) = 29.92396 40.95944 35.44170
# Shear Modulus (GPa) = 12.82954 25.38192 19.10573
#
# Velocity S-wave (km/s) = 2.23296 3.14078 2.72494
# Velocity P-wave (km/s) = 4.27526 5.39178 4.86565
#
# Compressibility (1/GPa) = 0.03341804
#
# Stress axis : x y z
#
# Youngs Moduli (GPa) = 48.59899 112.91150 77.98721
#
# Poissons Ratio (x) = -0.19428 0.36402
# Poissons Ratio (y) = -0.08362 0.11479
# Poissons Ratio (z) = 0.22684 0.16619
#
# Static dielectric constant tensor:
#      x y z
#    x 2.131240 0.000000 0.021680 
#    y 0.000000 1.987030 0.000020 
#    z 0.021680 0.000020 2.059370 
# 
# From -- ./inp_files/120170.got.cif
#   From: 2010.05.17/outbox.cif.g08.bks.cpg/sg12_61_cif.got.tgz:120170.got - 2010.06.03 13:09:07.
