data_PCOD9186503
_publ_section_title
;
Structure prediction by ZEFSAII (Michael W. Deem and Ramdas Pophale) SiO2 
 PCOD9186503
Probable space group: C 2/M
;
_chemical_formula_sum "Si O2"
_cell_formula_units_Z 64
_cell_length_a 12.816548
_cell_length_b 28.985776
_cell_length_c 9.379010
_cell_angle_alpha 90.000000
_cell_angle_beta 77.859663
_cell_angle_gamma 90.000000
_cell_volume 3406.355157
_symmetry_space_group_name_H-M "C 2/M"
_symmetry_group_IT_number 12
_symmetry_cell_setting 'monoclinic'
loop_
_space_group_symop_operation_xyz
x,y,z
-x,y,-z
-x,-y,-z
x,-y,z
1/2+x,1/2+y,z
1/2-x,1/2+y,-z
1/2-x,1/2-y,-z
1/2+x,1/2-y,z
loop_
_atom_site_type_symbol
_atom_site_label
_atom_site_fract_x
_atom_site_fract_y
_atom_site_fract_z
Si Si1 0.683891 0.551771 0.479073
Si Si2 0.107192 0.554520 0.382425
Si Si3 0.325790 0.614619 0.793820
Si Si4 0.235996 0.394286 0.107645
Si Si5 0.606387 0.302442 0.656200
Si Si6 0.640526 0.287104 0.335347
Si Si7 0.929110 0.095874 0.249669
Si Si8 0.754428 0.215937 0.134003
O O1 0.681782 0.500000 0.422918
O O2 0.792468 0.558344 0.538677
O O3 0.679309 0.587502 0.352306
O O4 0.588714 0.559012 0.620602
O O5 0.095852 0.500000 0.347970
O O6 0.142843 0.583676 0.232056
O O7 0.000000 0.568440 0.500000
O O8 0.309305 0.668851 0.761782
O O9 0.447423 0.606543 0.816161
O O10 0.244219 0.596397 0.936573
O O11 0.348002 0.412851 0.143517
O O12 0.236389 0.338183 0.113371
O O13 0.667018 0.289072 0.494716
O O14 0.484103 0.293572 0.656771
O O15 0.618048 0.357106 0.669860
O O16 0.639590 0.280803 0.797706
O O17 0.668933 0.237856 0.264431
O O18 0.750000 0.250000 0.000000
#
# Coordination Sequence:
#
# PCOD9186503 Si02
#       8
#     8   8   8   8   8   8   8   8
#     4  10  20  34  57  87 112 140 182 231 280 331
#     4   9  20  43  67  80 102 146 195 242 291 342
#     4  11  19  32  54  83 120 147 179 222 280 339
#     4  10  21  36  56  83 112 146 193 230 278 343
#     4   9  19  34  55  76 102 148 197 227 262 339
#     4  10  19  35  53  77 107 150 191 223 274 333
#     4   9  18  33  54  80 112 153 183 214 265 343
#     4  11  21  35  53  79 114 149 183 238 289 323
#
# _framework density 18.788409000000001
#
# number of rings (size 3 to 8) (size 9 to 14) (size 15 to 20)
#    0.000    2.125    2.500    1.125    0.000    2.000 
#    2.250    0.625    2.750    6.000    0.000    0.000 
#    0.000    0.000    0.000    0.000    0.000    0.000 
#
# Total GULP energy -178149.646207 kJ/mol
# GULP energy per Si atom -5567.176444 kJ/mol
# Density = 1.874565 g / cm^3
# Si number density = 18.788409 Si / 1000 Ang^3
#
#
#
# Elastic Constant Matrix: (Units=GPa)
#
#
# Indices 1 2 3 4 5 6 
#
# 1 28.7528 10.6794 16.4329 0.0000 -1.3255 0.0000
# 2 10.6794 53.0916 35.4291 0.0000 0.5179 0.0000
# 3 16.4329 35.4291 120.5774 0.0000 -6.7261 0.0000
# 4 0.0000 0.0000 0.0000 -24.7585 0.0000 -7.9669
# 5 -1.3255 0.5179 -6.7261 0.0000 24.0166 0.0000
# 6 0.0000 0.0000 0.0000 -7.9669 0.0000 22.7779
#
#
#
# Elastic Compliance Matrix: (Units=1/GPa)
#
#
# Indices 1 2 3 4 5 6 
#
# 1 0.038930 -0.005409 -0.003647 0.000000 0.001244 0.000000
# 2 -0.005409 0.024326 -0.006559 0.000000 -0.002660 0.000000
# 3 -0.003647 -0.006559 0.010884 0.000000 0.002988 0.000000
# 4 0.000000 0.000000 0.000000 -0.036304 0.000000 -0.012698
# 5 0.001244 -0.002660 0.002988 0.000000 0.042601 0.000000
# 6 0.000000 0.000000 0.000000 -0.012698 0.000000 0.039461
#
#
# Mechanical properties :
#
#
# Convention : Reuss Voigt Hill
#
# Bulk Modulus (GPa) = 23.30433 36.38940 29.84687
# Shear Modulus (GPa) = 30.22392 13.73255 21.97823
#
# Velocity S-wave (km/s) = 4.01515 2.70646 3.42391
# Velocity P-wave (km/s) = 5.82458 5.40154 5.61704
#
# Compressibility (1/GPa) = 0.04291048
#
# Stress axis : x y z
#
# Youngs Moduli (GPa) = 25.68714 41.10772 91.87523
#
# Poissons Ratio (x) = 0.22237 0.33505
# Poissons Ratio (y) = 0.13895 0.60260
# Poissons Ratio (z) = 0.09367 0.26962
#
# Static dielectric constant tensor:
#      x y z
#    x 1.690460 0.000000 0.011920 
#    y 0.000000 1.695880 0.000000 
#    z 0.011920 0.000000 1.686410 
# 
# From -- ./inp_files/67847.got.cif
#   From: 2010.05.17/outbox.cif.g08.bks.cpg/sg12_34_cif.got.tgz:67847.got - 2010.06.03 13:09:07.
