data_PCOD9186549
_publ_section_title
;
Structure prediction by ZEFSAII (Michael W. Deem and Ramdas Pophale) SiO2 
 PCOD9186549
Probable space group: C 2/M
;
_chemical_formula_sum "Si O2"
_cell_formula_units_Z 64
_cell_length_a 14.837828
_cell_length_b 7.642657
_cell_length_c 29.329274
_cell_angle_alpha 90.000000
_cell_angle_beta 61.050917
_cell_angle_gamma 90.000000
_cell_volume 2910.375202
_symmetry_space_group_name_H-M "C 2/M"
_symmetry_group_IT_number 12
_symmetry_cell_setting 'monoclinic'
loop_
_space_group_symop_operation_xyz
x,y,z
-x,y,-z
-x,-y,-z
x,-y,z
1/2+x,1/2+y,z
1/2-x,1/2+y,-z
1/2-x,1/2-y,-z
1/2+x,1/2-y,z
loop_
_atom_site_type_symbol
_atom_site_label
_atom_site_fract_x
_atom_site_fract_y
_atom_site_fract_z
Si Si1 0.829540 0.288076 0.402485
Si Si2 0.400633 0.784501 0.801588
Si Si3 0.892094 0.213535 0.546094
Si Si4 0.171326 0.711404 0.081575
Si Si5 0.619940 0.204659 0.711787
Si Si6 0.052047 0.203930 0.368221
Si Si7 0.792588 0.301811 0.740574
Si Si8 0.898621 0.208475 0.999520
O O1 0.828622 0.500000 0.403193
O O2 0.717419 0.228260 0.446962
O O3 0.847659 0.224958 0.345738
O O4 0.930401 0.227615 0.404278
O O5 0.372934 0.728882 0.859284
O O6 0.513325 0.723438 0.757886
O O7 0.317777 0.726048 0.783935
O O8 0.400339 0.000000 0.801095
O O9 0.892287 0.260649 0.599378
O O10 0.000000 0.278380 0.500000
O O11 0.894862 0.000000 0.542909
O O12 0.174418 0.500000 0.081650
O O13 0.104076 0.762089 0.054103
O O14 0.288370 0.776637 0.044732
O O15 0.709843 0.218450 0.727141
O O16 0.602089 0.000000 0.708045
O O17 0.098890 0.300053 0.313339
O O18 0.073961 0.000000 0.355724
O O19 0.757599 0.500000 0.755507
O O20 0.897172 0.000000 0.007780
O O21 0.000000 0.278832 0.000000
#
# Coordination Sequence:
#
# PCOD9186549 Si02
#       8
#     8   8   8   8   8   8   8   8
#     4  10  19  35  57  78 104 141 176 214 266 320
#     4   9  19  35  53  74 108 143 174 213 265 321
#     4   9  19  36  56  77 105 141 176 215 270 325
#     4   9  18  34  54  76 103 141 180 216 260 313
#     4  10  19  35  54  76 104 140 178 215 262 316
#     4  11  21  35  56  81 106 137 179 221 262 316
#     4  11  21  35  55  80 107 141 179 217 265 320
#     4   9  18  33  54  78 106 139 175 219 269 312
#
# _framework density 21.990290999999999
#
# number of rings (size 3 to 8) (size 9 to 14) (size 15 to 20)
#    0.000    2.250    2.500    0.750    0.000    2.250 
#    0.000    3.125    0.000    2.625    0.000    0.000 
#    0.000    0.000    0.000    0.000    0.000    0.000 
#
# Total GULP energy -178658.466754 kJ/mol
# GULP energy per Si atom -5583.077086 kJ/mol
# Density = 2.194024 g / cm^3
# Si number density = 21.990291 Si / 1000 Ang^3
#
#
#
# Elastic Constant Matrix: (Units=GPa)
#
#
# Indices 1 2 3 4 5 6 
#
# 1 91.2228 2.9236 -20.5886 -0.0001 -5.4077 -0.0001
# 2 2.9236 38.6593 5.0995 0.0000 -0.3833 -0.0001
# 3 -20.5886 5.0995 23.1767 -0.0001 -6.0774 -0.0001
# 4 -0.0001 0.0000 -0.0001 7.0910 0.0000 -2.3554
# 5 -5.4077 -0.3833 -6.0774 0.0000 16.6560 0.0000
# 6 -0.0001 -0.0001 -0.0001 -2.3554 0.0000 15.0352
#
#
#
# Elastic Compliance Matrix: (Units=1/GPa)
#
#
# Indices 1 2 3 4 5 6 
#
# 1 0.015770 -0.003424 0.017786 0.000000 0.011531 0.000000
# 2 -0.003424 0.027427 -0.010176 0.000000 -0.004194 0.000000
# 3 0.017786 -0.010176 0.069266 0.000001 0.030814 0.000001
# 4 0.000000 0.000000 0.000001 0.148765 0.000001 0.023306
# 5 0.011531 -0.004194 0.030814 0.000001 0.074929 0.000001
# 6 0.000000 0.000000 0.000001 0.023306 0.000001 0.070162
#
#
# Mechanical properties :
#
#
# Convention : Reuss Voigt Hill
#
# Bulk Modulus (GPa) = 8.27594 14.21420 11.24507
# Shear Modulus (GPa) = 11.40968 18.79807 15.10388
#
# Velocity S-wave (km/s) = 2.28030 2.92693 2.62361
# Velocity P-wave (km/s) = 3.27180 4.23089 3.78187
#
# Compressibility (1/GPa) = 0.12083226
#
# Stress axis : x y z
#
# Youngs Moduli (GPa) = 63.41297 36.46079 14.43717
#
# Poissons Ratio (x) = 0.12485 -0.25678
# Poissons Ratio (y) = 0.21715 0.14692
# Poissons Ratio (z) = -1.12785 0.37104
#
# Static dielectric constant tensor:
#      x y z
#    x 1.797090 0.000000 -0.019240 
#    y 0.000000 1.810600 0.000000 
#    z -0.019240 0.000000 1.795270 
# 
# From -- ./inp_files/375031.got.cif
#   From: 2010.05.17/outbox.cif.g08.bks.cpg/sg12_188_cif.got.tgz:375031.got - 2010.06.03 13:09:07.
