data_PCOD9186073
_publ_section_title
;
Structure prediction by ZEFSAII (Michael W. Deem and Ramdas Pophale) SiO2 
 PCOD9186073
Probable space group: C 2/M
;
_chemical_formula_sum "Si O2"
_cell_formula_units_Z 40
_cell_length_a 23.195672
_cell_length_b 7.512868
_cell_length_c 10.007661
_cell_angle_alpha 90.000000
_cell_angle_beta 87.679459
_cell_angle_gamma 90.000000
_cell_volume 1742.565096
_symmetry_space_group_name_H-M "C 2/M"
_symmetry_group_IT_number 12
_symmetry_cell_setting 'monoclinic'
loop_
_space_group_symop_operation_xyz
x,y,z
-x,y,-z
-x,-y,-z
x,-y,z
1/2+x,1/2+y,z
1/2-x,1/2+y,-z
1/2-x,1/2-y,-z
1/2+x,1/2-y,z
loop_
_atom_site_type_symbol
_atom_site_label
_atom_site_fract_x
_atom_site_fract_y
_atom_site_fract_z
Si Si1 0.867977 0.282286 0.203474
Si Si2 0.056851 0.297318 0.561744
Si Si3 0.060617 0.714825 0.056058
Si Si4 0.243390 0.213328 0.158339
Si Si5 0.626806 0.706300 0.306957
O O1 0.868155 0.500000 0.209885
O O2 0.913011 0.218113 0.310476
O O3 0.802044 0.223181 0.224049
O O4 0.890502 0.232632 0.054794
O O5 0.039768 0.500000 0.601232
O O6 0.105007 0.300152 0.441914
O O7 0.000000 0.213507 0.500000
O O8 0.059284 0.500000 0.064432
O O9 0.076950 0.782663 0.199772
O O10 0.000000 0.773253 0.000000
O O11 0.184614 0.280638 0.231427
O O12 0.241301 0.000000 0.170411
O O13 0.250000 0.250000 0.000000
O O14 0.636134 0.500000 0.340778
#
# Coordination Sequence:
#
# PCOD9186073 Si02
#       5
#     8   8   8   8   8
#     4   9  18  34  57  82 109 144 189 240 279 319
#     4  10  21  39  61  83 110 148 194 237 279 334
#     4  10  19  34  59  85 107 143 195 239 277 330
#     4  10  20  36  57  82 114 149 189 234 282 335
#     4  11  23  36  54  84 119 151 183 229 290 345
#
# _framework density 22.954664999999999
#
# number of rings (size 3 to 8) (size 9 to 14) (size 15 to 20)
#    0.000    2.000    2.000    1.800    0.000    5.600 
#    0.000    2.000    0.000    0.000    0.000    0.000 
#    0.000    0.000    0.000    0.000    0.000    0.000 
#
# Total GULP energy -111776.381688 kJ/mol
# GULP energy per Si atom -5588.819084 kJ/mol
# Density = 2.290242 g / cm^3
# Si number density = 22.954665 Si / 1000 Ang^3
#
#
#
# Elastic Constant Matrix: (Units=GPa)
#
#
# Indices 1 2 3 4 5 6 
#
# 1 83.5096 -1.0801 -13.5342 0.0000 6.0288 0.0000
# 2 -1.0801 65.3348 -8.1766 0.0000 -0.1923 0.0000
# 3 -13.5342 -8.1766 68.5206 0.0000 8.5722 0.0000
# 4 0.0000 0.0000 0.0000 15.4026 0.0000 -10.7282
# 5 6.0288 -0.1923 8.5722 0.0000 43.4721 0.0000
# 6 0.0000 0.0000 0.0000 -10.7282 0.0000 7.4541
#
#
#
# Elastic Compliance Matrix: (Units=1/GPa)
#
#
# Indices 1 2 3 4 5 6 
#
# 1 0.012610 0.000558 0.002846 0.000000 -0.002307 0.000000
# 2 0.000558 0.015566 0.002019 0.000000 -0.000407 0.000000
# 3 0.002846 0.002019 0.015836 0.000000 -0.003508 0.000000
# 4 0.000000 0.000000 0.000000-26.451089 0.000000-38.069236
# 5 -0.002307 -0.000407 -0.003508 0.000000 0.024013 0.000000
# 6 0.000000 0.000000 0.000000-38.069236 0.000000-54.656283
#
#
# Mechanical properties :
#
#
# Convention : Reuss Voigt Hill
#
# Bulk Modulus (GPa) = 18.22925 19.08702 18.65814
# Shear Modulus (GPa) = -0.06170 29.27616 14.60723
#
# Velocity S-wave (km/s) = -0.16413 3.57514 2.52534
# Velocity P-wave (km/s) = 2.81474 5.03739 4.08032
#
# Compressibility (1/GPa) = 0.05485688
#
# Stress axis : x y z
#
# Youngs Moduli (GPa) = 79.30400 64.24080 63.14693
#
# Poissons Ratio (x) = -0.03584 -0.17971
# Poissons Ratio (y) = -0.04424 -0.12747
# Poissons Ratio (z) = -0.22569 -0.12968
#
# Static dielectric constant tensor:
#      x y z
#    x 1.886910 0.000000 -0.008660 
#    y 0.000000 1.946490 0.000000 
#    z -0.008660 0.000000 1.789620 
# 
# From -- ./inp_files/92705.got.cif
#   From: 2010.05.17/outbox.cif.g08.bks.cpg/sg12_47_cif.got.tgz:92705.got - 2010.06.03 13:09:07.
