data_PCOD9186665
_publ_section_title
;
Structure prediction by ZEFSAII (Michael W. Deem and Ramdas Pophale) SiO2 
 PCOD9186665
Probable space group: C 2/M
;
_chemical_formula_sum "Si O2"
_cell_formula_units_Z 48
_cell_length_a 18.420579
_cell_length_b 15.499106
_cell_length_c 13.360492
_cell_angle_alpha 90.000000
_cell_angle_beta 42.413922
_cell_angle_gamma 90.000000
_cell_volume 2572.779773
_symmetry_space_group_name_H-M "C 2/M"
_symmetry_group_IT_number 12
_symmetry_cell_setting 'monoclinic'
loop_
_space_group_symop_operation_xyz
x,y,z
-x,y,-z
-x,-y,-z
x,-y,z
1/2+x,1/2+y,z
1/2-x,1/2+y,-z
1/2-x,1/2-y,-z
1/2+x,1/2-y,z
loop_
_atom_site_type_symbol
_atom_site_label
_atom_site_fract_x
_atom_site_fract_y
_atom_site_fract_z
Si Si1 0.464979 0.238506 0.921124
Si Si2 0.836641 0.327684 0.415288
Si Si3 0.337769 0.407930 0.529826
Si Si4 0.934368 0.098464 0.813547
Si Si5 0.377876 0.774180 0.588873
Si Si6 0.235798 0.792282 0.121883
O O1 0.558356 0.198135 0.755743
O O2 0.437566 0.331895 0.900086
O O3 0.500000 0.247743 0.000000
O O4 0.355877 0.181586 0.031216
O O5 0.750000 0.250000 0.500000
O O6 0.768892 0.401580 0.429779
O O7 0.862582 0.333812 0.506991
O O8 0.339520 0.500000 0.582194
O O9 0.444594 0.402923 0.353186
O O10 0.345785 0.323432 0.589332
O O11 0.854688 0.135646 0.808390
O O12 0.905294 0.000000 0.870400
O O13 0.500000 0.777484 0.500000
O O14 0.304309 0.782122 0.761238
O O15 0.250000 0.750000 0.000000
#
# Coordination Sequence:
#
# PCOD9186665 Si02
#       6
#     8   8   8   8   8   8
#     4  11  20  35  58  80 109 143 181 225 268 318
#     4  10  19  35  55  80 108 143 185 220 261 322
#     4  10  20  34  55  82 111 138 178 227 271 316
#     4  10  20  36  54  80 111 141 177 224 275 320
#     4  11  18  33  58  81 104 139 184 224 266 316
#     4  10  21  35  52  79 112 141 177 220 270 323
#
# _framework density 18.656863999999999
#
# number of rings (size 3 to 8) (size 9 to 14) (size 15 to 20)
#    0.000    1.667    5.000    3.000    0.000    1.333 
#    0.000    0.833    0.000    2.500    0.000    0.000 
#    0.000    0.000    0.000    0.000    0.000    0.000 
#
# Total GULP energy -133612.446991 kJ/mol
# GULP energy per Si atom -5567.185291 kJ/mol
# Density = 1.861440 g / cm^3
# Si number density = 18.656864 Si / 1000 Ang^3
#
#
#
# Elastic Constant Matrix: (Units=GPa)
#
#
# Indices 1 2 3 4 5 6 
#
# 1 144.5663 15.7634 45.6382 0.0000 -5.8809 0.0000
# 2 15.7634 37.6507 -4.6663 0.0000 -6.6982 0.0000
# 3 45.6382 -4.6663 113.0141 0.0000 -6.0996 0.0000
# 4 0.0000 0.0000 0.0000 3.1238 0.0000 4.4238
# 5 -5.8809 -6.6982 -6.0996 0.0000 41.4922 0.0000
# 6 0.0000 0.0000 0.0000 4.4238 0.0000 14.6660
#
#
#
# Elastic Compliance Matrix: (Units=1/GPa)
#
#
# Indices 1 2 3 4 5 6 
#
# 1 0.008487 -0.003993 -0.003591 0.000000 0.000031 0.000000
# 2 -0.003993 0.029439 0.003078 0.000000 0.004639 0.000000
# 3 -0.003591 0.003078 0.010508 0.000000 0.001533 0.000000
# 4 0.000000 0.000000 0.000000 0.558833 0.000000 -0.168565
# 5 0.000031 0.004639 0.001533 0.000000 0.025079 0.000000
# 6 0.000000 0.000000 0.000000 -0.168565 0.000000 0.119031
#
#
# Mechanical properties :
#
#
# Convention : Reuss Voigt Hill
#
# Bulk Modulus (GPa) = 25.36557 45.41131 35.38844
# Shear Modulus (GPa) = 6.46388 27.75613 17.11001
#
# Velocity S-wave (km/s) = 1.86337 3.86128 3.03163
# Velocity P-wave (km/s) = 4.27257 6.65375 5.59139
#
# Compressibility (1/GPa) = 0.03942352
#
# Stress axis : x y z
#
# Youngs Moduli (GPa) = 117.82143 33.96910 95.16288
#
# Poissons Ratio (x) = 0.13564 0.34170
# Poissons Ratio (y) = 0.47047 -0.29295
# Poissons Ratio (z) = 0.42306 -0.10457
#
# Static dielectric constant tensor:
#      x y z
#    x 1.810010 0.000000 -0.057000 
#    y 0.000000 1.658220 0.000000 
#    z -0.057000 0.000000 1.746060 
# 
# From -- ./inp_files/157665.got.cif
#   From: 2010.05.17/outbox.cif.g08.bks.cpg/sg12_79_cif.got.tgz:157665.got - 2010.06.03 13:09:07.
