data_PCOD9186807
_publ_section_title
;
Structure prediction by ZEFSAII (Michael W. Deem and Ramdas Pophale) SiO2 
 PCOD9186807
Probable space group: C 2/M
;
_chemical_formula_sum "Si O2"
_cell_formula_units_Z 40
_cell_length_a 9.643974
_cell_length_b 15.126974
_cell_length_c 18.985081
_cell_angle_alpha 90.000000
_cell_angle_beta 48.035876
_cell_angle_gamma 90.000000
_cell_volume 2059.390483
_symmetry_space_group_name_H-M "C 2/M"
_symmetry_group_IT_number 12
_symmetry_cell_setting 'monoclinic'
loop_
_space_group_symop_operation_xyz
x,y,z
-x,y,-z
-x,-y,-z
x,-y,z
1/2+x,1/2+y,z
1/2-x,1/2+y,-z
1/2-x,1/2-y,-z
1/2+x,1/2-y,z
loop_
_atom_site_type_symbol
_atom_site_label
_atom_site_fract_x
_atom_site_fract_y
_atom_site_fract_z
Si Si1 0.511935 0.403551 0.577557
Si Si2 0.034592 0.758748 0.148691
Si Si3 0.181363 0.105477 0.990010
Si Si4 0.614078 0.748083 0.277639
Si Si5 0.611358 0.833557 0.534798
O O1 0.500000 0.376794 0.500000
O O2 0.425583 0.500000 0.613821
O O3 0.411527 0.334446 0.661636
O O4 0.731307 0.407428 0.520754
O O5 0.152939 0.668814 0.095622
O O6 0.006341 0.767451 0.241868
O O7 0.829727 0.755363 0.185202
O O8 0.132705 0.843760 0.079716
O O9 0.224144 0.000000 0.982554
O O10 0.000000 0.111831 0.000000
O O11 0.529148 0.829476 0.351414
O O12 0.500000 0.829212 0.500000
O O13 0.750000 0.750000 0.500000
#
# Coordination Sequence:
#
# PCOD9186807 Si02
#       5
#     8   8   8   8   8
#     4  10  21  37  55  80 121 162 195 239 296 349
#     4  11  22  38  63  92 115 154 198 249 299 360
#     4  10  22  43  63  84 121 158 190 241 310 372
#     4  11  20  35  59  87 114 147 201 246 288 343
#     4  10  19  35  56  80 112 154 190 231 287 342
#
# _framework density 19.423221000000002
#
# number of rings (size 3 to 8) (size 9 to 14) (size 15 to 20)
#    0.000    1.600    2.000    6.000    0.000    2.000 
#    0.000    3.000    0.000    0.000    0.000    0.000 
#    0.000    0.000    0.000    0.000    0.000    0.000 
#
# Total GULP energy -111431.344263 kJ/mol
# GULP energy per Si atom -5571.567213 kJ/mol
# Density = 1.937901 g / cm^3
# Si number density = 19.423221 Si / 1000 Ang^3
#
#
#
# Elastic Constant Matrix: (Units=GPa)
#
#
# Indices 1 2 3 4 5 6 
#
# 1 81.0413 -5.8968 -2.6600 0.0000 5.2519 0.0001
# 2 -5.8968 99.0693 23.6369 0.0000 0.1580 0.0000
# 3 -2.6600 23.6369 69.3761 -0.0002 5.6208 0.0002
# 4 0.0000 0.0000 -0.0002 2.0468 0.0000 -16.1225
# 5 5.2519 0.1580 5.6208 0.0000 44.5908 -0.0001
# 6 0.0001 0.0000 0.0002 -16.1225 -0.0001 1.0113
#
#
#
# Elastic Compliance Matrix: (Units=1/GPa)
#
#
# Indices 1 2 3 4 5 6 
#
# 1 0.012498 0.000656 0.000379 0.000000 -0.001522 0.000000
# 2 0.000656 0.011030 -0.003762 0.000000 0.000358 0.000000
# 3 0.000379 -0.003762 0.015875 0.000000 -0.002032 0.000000
# 4 0.000000 0.000000 0.000000 -0.003922 0.000000 -0.062523
# 5 -0.001522 0.000358 -0.002032 0.000000 0.022860 0.000000
# 6 0.000000 0.000000 0.000000 -0.062523 0.000000 -0.007937
#
#
# Mechanical properties :
#
#
# Convention : Reuss Voigt Hill
#
# Bulk Modulus (GPa) = 29.45555 31.07190 30.26373
# Shear Modulus (GPa) = 74.43277 25.15687 49.79482
#
# Velocity S-wave (km/s) = 6.19716 3.60279 5.06877
# Velocity P-wave (km/s) = 8.14889 5.77398 7.06198
#
# Compressibility (1/GPa) = 0.03394945
#
# Stress axis : x y z
#
# Youngs Moduli (GPa) = 80.01156 90.66224 62.99190
#
# Poissons Ratio (x) = -0.05947 -0.02388
# Poissons Ratio (y) = -0.05248 0.23696
# Poissons Ratio (z) = -0.03033 0.34106
#
# Static dielectric constant tensor:
#      x y z
#    x 1.671910 0.000000 -0.027360 
#    y 0.000000 1.717690 0.000000 
#    z -0.027360 0.000000 1.707350 
# 
# From -- ./inp_files/256389.got.cif
#   From: 2010.05.17/outbox.cif.g08.bks.cpg/sg12_129_cif.got.tgz:256389.got - 2010.06.03 13:09:07.
