data_PCOD9186098
_publ_section_title
;
Structure prediction by ZEFSAII (Michael W. Deem and Ramdas Pophale) SiO2 
 PCOD9186098
Probable space group: C 2/M
;
_chemical_formula_sum "Si O2"
_cell_formula_units_Z 56
_cell_length_a 19.807271
_cell_length_b 9.915825
_cell_length_c 13.542529
_cell_angle_alpha 90.000000
_cell_angle_beta 110.737717
_cell_angle_gamma 90.000000
_cell_volume 2487.499162
_symmetry_space_group_name_H-M "C 2/M"
_symmetry_group_IT_number 12
_symmetry_cell_setting 'monoclinic'
loop_
_space_group_symop_operation_xyz
x,y,z
-x,y,-z
-x,-y,-z
x,-y,z
1/2+x,1/2+y,z
1/2-x,1/2+y,-z
1/2-x,1/2-y,-z
1/2+x,1/2-y,z
loop_
_atom_site_type_symbol
_atom_site_label
_atom_site_fract_x
_atom_site_fract_y
_atom_site_fract_z
Si Si1 0.104381 0.840370 0.288106
Si Si2 0.359538 0.654391 0.018855
Si Si3 0.900422 0.846243 0.489735
Si Si4 0.084280 0.354533 0.674633
Si Si5 0.736555 0.146687 0.352288
Si Si6 0.986003 0.657743 0.145173
Si Si7 0.774083 0.243589 0.169117
O O1 0.074814 0.825982 0.385255
O O2 0.181964 0.769609 0.333226
O O3 0.056414 0.752032 0.188248
O O4 0.106272 0.000000 0.265889
O O5 0.385584 0.500000 0.025650
O O6 0.423940 0.763833 0.052067
O O7 0.316225 0.674888 0.099934
O O8 0.298161 0.685446 0.906694
O O9 0.928303 0.754310 0.416107
O O10 0.813023 0.829984 0.444519
O O11 0.914771 0.000000 0.469396
O O12 0.069090 0.500000 0.623052
O O13 0.042670 0.342952 0.756416
O O14 0.167969 0.342795 0.751127
O O15 0.754197 0.142147 0.245253
O O16 0.706707 0.000000 0.368969
O O17 0.996812 0.500000 0.122449
#
# Coordination Sequence:
#
# PCOD9186098 Si02
#       7
#     8   8   8   8   8   8   8
#     4  11  23  38  55  76 106 145 186 224 265 315
#     4  10  19  34  59  86 112 142 177 219 267 320
#     4   9  20  36  55  81 109 139 176 221 272 321
#     4   9  18  33  55  82 110 140 176 220 266 317
#     4  10  20  36  57  81 110 142 177 218 266 318
#     4  10  22  38  54  77 110 145 182 223 270 321
#     4   9  19  33  56  87 115 139 172 217 270 320
#
# _framework density 22.51257
#
# number of rings (size 3 to 8) (size 9 to 14) (size 15 to 20)
#    0.000    2.286    0.000    2.143    0.000   12.571 
#    0.000    3.571    0.000    3.429    0.000    0.000 
#    0.000    0.000    0.000    0.000    0.000    0.000 
#
# Total GULP energy -156389.617662 kJ/mol
# GULP energy per Si atom -5585.343488 kJ/mol
# Density = 2.246133 g / cm^3
# Si number density = 22.512570 Si / 1000 Ang^3
#
#
#
# Elastic Constant Matrix: (Units=GPa)
#
#
# Indices 1 2 3 4 5 6 
#
# 1 53.6356 37.6851 20.0423 0.0000 18.7883 0.0000
# 2 37.6851 141.2944 48.9797 0.0000 25.4687 0.0000
# 3 20.0423 48.9797 96.3816 0.0000 18.3101 0.0000
# 4 0.0000 0.0000 0.0000 17.1739 0.0000 -8.2339
# 5 18.7883 25.4687 18.3101 0.0000 36.5188 0.0000
# 6 0.0000 0.0000 0.0000 -8.2339 0.0000 24.6154
#
#
#
# Elastic Compliance Matrix: (Units=1/GPa)
#
#
# Indices 1 2 3 4 5 6 
#
# 1 0.025690 -0.004776 -0.001146 0.000000 -0.009312 0.000000
# 2 -0.004776 0.010105 -0.003614 0.000000 -0.002778 0.000000
# 3 -0.001146 -0.003614 0.013108 0.000000 -0.003462 0.000000
# 4 0.000000 0.000000 0.000000 0.069350 0.000000 0.023198
# 5 -0.009312 -0.002778 -0.003462 0.000000 0.035847 0.000000
# 6 0.000000 0.000000 0.000000 0.023198 0.000000 0.048385
#
#
# Mechanical properties :
#
#
# Convention : Reuss Voigt Hill
#
# Bulk Modulus (GPa) = 33.52303 56.08066 44.80184
# Shear Modulus (GPa) = 21.59818 27.96858 24.78338
#
# Velocity S-wave (km/s) = 3.10075 3.52853 3.32153
# Velocity P-wave (km/s) = 5.26713 6.44714 5.88678
#
# Compressibility (1/GPa) = 0.02983024
#
# Stress axis : x y z
#
# Youngs Moduli (GPa) = 38.92537 98.96201 76.28848
#
# Poissons Ratio (x) = 0.47266 0.08743
# Poissons Ratio (y) = 0.18592 0.27572
# Poissons Ratio (z) = 0.04461 0.35767
#
# Static dielectric constant tensor:
#      x y z
#    x 1.866440 0.000000 -0.004990 
#    y 0.000000 1.809200 0.000000 
#    z -0.004990 0.000000 1.812810 
# 
# From -- ./inp_files/238896.got.cif
#   From: 2010.05.17/outbox.cif.g08.bks.cpg/sg12_120_cif.got.tgz:238896.got - 2010.06.03 13:09:07.
