data_PCOD9186710
_publ_section_title
;
Structure prediction by ZEFSAII (Michael W. Deem and Ramdas Pophale) SiO2 
 PCOD9186710
Probable space group: C 2/M
;
_chemical_formula_sum "Si O2"
_cell_formula_units_Z 40
_cell_length_a 13.905226
_cell_length_b 22.371750
_cell_length_c 14.703724
_cell_angle_alpha 90.000000
_cell_angle_beta 152.320035
_cell_angle_gamma 90.000000
_cell_volume 2124.816238
_symmetry_space_group_name_H-M "C 2/M"
_symmetry_group_IT_number 12
_symmetry_cell_setting 'monoclinic'
loop_
_space_group_symop_operation_xyz
x,y,z
-x,y,-z
-x,-y,-z
x,-y,z
1/2+x,1/2+y,z
1/2-x,1/2+y,-z
1/2-x,1/2-y,-z
1/2+x,1/2-y,z
loop_
_atom_site_type_symbol
_atom_site_label
_atom_site_fract_x
_atom_site_fract_y
_atom_site_fract_z
Si Si1 0.213658 0.329431 0.425347
Si Si2 0.748077 0.748348 0.718129
Si Si3 0.195610 0.113895 0.221194
Si Si4 0.421271 0.069290 0.576203
Si Si5 0.385383 0.264109 0.202053
O O1 0.190680 0.300637 0.305800
O O2 0.142938 0.396340 0.386155
O O3 0.450464 0.318747 0.656875
O O4 0.052862 0.289824 0.350014
O O5 0.500000 0.752498 0.500000
O O6 0.828648 0.815880 0.773714
O O7 0.768451 0.731713 0.841255
O O8 0.238560 0.078047 0.349206
O O9 0.389022 0.102274 0.316021
O O10 0.000000 0.094167 0.000000
O O11 0.468318 0.000000 0.628111
O O12 0.250000 0.250000 0.000000
#
# Coordination Sequence:
#
# PCOD9186710 Si02
#       5
#     8   8   8   8   8
#     4  10  21  35  53  81 115 148 186 230 282 342
#     4  10  19  35  55  84 122 142 173 237 298 345
#     4  11  21  35  57  85 113 144 185 241 304 348
#     4  11  23  39  54  77 115 157 198 233 272 335
#     4  10  20  33  56  84 115 144 180 233 297 344
#
# _framework density 18.825157000000001
#
# number of rings (size 3 to 8) (size 9 to 14) (size 15 to 20)
#    0.000    1.600    4.000    3.600    5.600    1.600 
#    0.000    0.000    0.000    5.400    0.000    1.400 
#    0.000    0.000    0.000    0.000    0.000    0.200 
#
# Total GULP energy -111522.176627 kJ/mol
# GULP energy per Si atom -5576.108831 kJ/mol
# Density = 1.878231 g / cm^3
# Si number density = 18.825157 Si / 1000 Ang^3
#
#
#
# Elastic Constant Matrix: (Units=GPa)
#
#
# Indices 1 2 3 4 5 6 
#
# 1 129.2841 49.4049 28.2388 0.0002 -24.0011 0.0000
# 2 49.4049 80.4119 7.1192 0.0000 -4.8894 0.0000
# 3 28.2388 7.1192 89.0877 0.0004 -13.0603 -0.0001
# 4 0.0002 0.0000 0.0004 4.8954 0.0002 -5.4730
# 5 -24.0011 -4.8894 -13.0603 0.0002 25.5554 0.0000
# 6 0.0000 0.0000 -0.0001 -5.4730 0.0000 17.7987
#
#
#
# Elastic Compliance Matrix: (Units=1/GPa)
#
#
# Indices 1 2 3 4 5 6 
#
# 1 0.012610 -0.006991 -0.002052 -0.000001 0.009457 0.000000
# 2 -0.006991 0.016499 0.000430 0.000001 -0.003189 0.000000
# 3 -0.002052 0.000430 0.012508 -0.000002 0.004547 0.000000
# 4 -0.000001 0.000001 -0.000002 0.311286 -0.000005 0.095719
# 5 0.009457 -0.003189 0.004547 -0.000005 0.049726 -0.000001
# 6 0.000000 0.000000 0.000000 0.095719 -0.000001 0.085617
#
#
# Mechanical properties :
#
#
# Convention : Reuss Voigt Hill
#
# Bulk Modulus (GPa) = 40.99909 52.03439 46.51674
# Shear Modulus (GPa) = 9.73515 23.91797 16.82656
#
# Velocity S-wave (km/s) = 2.27653 3.56832 2.99295
# Velocity P-wave (km/s) = 5.36062 6.68417 6.05864
#
# Compressibility (1/GPa) = 0.02439078
#
# Stress axis : x y z
#
# Youngs Moduli (GPa) = 79.29967 60.60869 79.95126
#
# Poissons Ratio (x) = 0.42372 0.16407
# Poissons Ratio (y) = 0.55439 -0.03438
# Poissons Ratio (z) = 0.16273 -0.02606
#
# Static dielectric constant tensor:
#      x y z
#    x 1.724610 0.000000 -0.010180 
#    y 0.000000 1.639650 0.000000 
#    z -0.010180 0.000000 1.771790 
# 
# From -- ./inp_files/217497.got.cif
#   From: 2010.05.17/outbox.cif.g08.bks.cpg/sg12_109_cif.got.tgz:217497.got - 2010.06.03 13:09:07.
