data_PCOD9186178
_publ_section_title
;
Structure prediction by ZEFSAII (Michael W. Deem and Ramdas Pophale) SiO2 
 PCOD9186178
Probable space group: C 2/M
;
_chemical_formula_sum "Si O2"
_cell_formula_units_Z 64
_cell_length_a 34.049823
_cell_length_b 7.786798
_cell_length_c 16.732686
_cell_angle_alpha 90.000000
_cell_angle_beta 137.818240
_cell_angle_gamma 90.000000
_cell_volume 2979.034715
_symmetry_space_group_name_H-M "C 2/M"
_symmetry_group_IT_number 12
_symmetry_cell_setting 'monoclinic'
loop_
_space_group_symop_operation_xyz
x,y,z
-x,y,-z
-x,-y,-z
x,-y,z
1/2+x,1/2+y,z
1/2-x,1/2+y,-z
1/2-x,1/2-y,-z
1/2+x,1/2-y,z
loop_
_atom_site_type_symbol
_atom_site_label
_atom_site_fract_x
_atom_site_fract_y
_atom_site_fract_z
Si Si1 0.703717 0.206209 0.997875
Si Si2 0.425042 0.791939 0.179883
Si Si3 0.272639 0.198676 0.788356
Si Si4 0.975117 0.710168 0.548055
Si Si5 0.099402 0.208787 0.311991
Si Si6 0.370807 0.703215 0.812503
Si Si7 0.643311 0.798970 0.553029
Si Si8 0.968513 0.797738 0.075067
O O1 0.719621 0.272505 0.110585
O O2 0.703089 0.000000 0.001260
O O3 0.750000 0.250000 0.000000
O O4 0.637443 0.261786 0.879077
O O5 0.479560 0.733946 0.315246
O O6 0.431351 0.725292 0.099684
O O7 0.426773 0.000000 0.179554
O O8 0.315526 0.275039 0.786532
O O9 0.205327 0.212683 0.661709
O O10 0.290008 0.000000 0.818690
O O11 0.974168 0.500000 0.547239
O O12 0.000000 0.763947 0.500000
O O13 0.909896 0.767511 0.472050
O O14 0.135844 0.263725 0.288521
O O15 0.122581 0.279412 0.430323
O O16 0.033126 0.268640 0.192604
O O17 0.099764 0.000000 0.320569
O O18 0.381182 0.500000 0.821028
O O19 0.428997 0.775605 0.943954
O O20 0.651352 0.000000 0.582854
O O21 0.976806 0.000000 0.071343
#
# Coordination Sequence:
#
# PCOD9186178 Si02
#       8
#     8   8   8   8   8   8   8   8
#     4  10  23  39  60  87 118 155 194 238 290 343
#     4  10  19  36  60  86 117 150 189 238 289 341
#     4  11  24  42  60  83 118 155 194 246 297 341
#     4   9  19  35  58  86 114 147 189 235 282 337
#     4  10  21  38  60  87 121 154 189 238 295 345
#     4  10  21  38  61  88 116 154 198 237 284 351
#     4  11  23  39  62  87 114 153 199 241 289 352
#     4  10  19  34  59  89 121 152 187 235 291 345
#
# _framework density 21.483467999999998
#
# number of rings (size 3 to 8) (size 9 to 14) (size 15 to 20)
#    0.000    1.875    2.500    1.125    1.750    4.000 
#    0.000    0.000    0.000    4.125    0.000    0.000 
#    0.000    0.000    0.000    0.000    0.000    0.000 
#
# Total GULP energy -178744.378812 kJ/mol
# GULP energy per Si atom -5585.761838 kJ/mol
# Density = 2.143457 g / cm^3
# Si number density = 21.483468 Si / 1000 Ang^3
#
#
#
# Elastic Constant Matrix: (Units=GPa)
#
#
# Indices 1 2 3 4 5 6 
#
# 1 115.0624 -9.0148 16.0158 0.0000 0.1554 0.0000
# 2 -9.0148 26.9436 -9.5656 -0.0001 0.9919 -0.0002
# 3 16.0158 -9.5656 55.9044 0.0000 8.3324 0.0000
# 4 0.0000 -0.0001 0.0000 6.0961 0.0000 -15.5179
# 5 0.1554 0.9919 8.3324 0.0000 36.2126 0.0000
# 6 0.0000 -0.0002 0.0000 -15.5179 0.0000 6.6197
#
#
#
# Elastic Compliance Matrix: (Units=1/GPa)
#
#
# Indices 1 2 3 4 5 6 
#
# 1 0.009188 0.002237 -0.002314 0.000000 0.000432 0.000000
# 2 0.002237 0.040322 0.006653 -0.000001 -0.002645 0.000000
# 3 -0.002314 0.006653 0.020415 0.000000 -0.004870 0.000000
# 4 0.000000 -0.000001 0.000000 -0.033024 0.000000 -0.077415
# 5 0.000432 -0.002645 -0.004870 0.000000 0.028806 0.000000
# 6 0.000000 0.000000 0.000000 -0.077415 0.000000 -0.030412
#
#
# Mechanical properties :
#
#
# Convention : Reuss Voigt Hill
#
# Bulk Modulus (GPa) = 12.03717 21.42013 16.72865
# Shear Modulus (GPa) = 100.33169 23.15070 61.74119
#
# Velocity S-wave (km/s) = 6.84129 3.28625 5.36669
# Velocity P-wave (km/s) = 8.24739 4.93877 6.79746
#
# Compressibility (1/GPa) = 0.08307598
#
# Stress axis : x y z
#
# Youngs Moduli (GPa) = 108.84182 24.80026 48.98436
#
# Poissons Ratio (x) = -0.05547 0.11334
# Poissons Ratio (y) = -0.24344 -0.32588
# Poissons Ratio (z) = 0.25183 -0.16499
#
# Static dielectric constant tensor:
#      x y z
#    x 1.771220 0.000000 -0.004860 
#    y 0.000000 1.798150 0.000000 
#    z -0.004860 0.000000 1.763880 
# 
# From -- ./inp_files/249952.got.cif
#   From: 2010.05.17/outbox.cif.g08.bks.cpg/sg12_125_cif.got.tgz:249952.got - 2010.06.03 13:09:07.
