data_PCOD9186907
_publ_section_title
;
Structure prediction by ZEFSAII (Michael W. Deem and Ramdas Pophale) SiO2 
 PCOD9186907
Probable space group: C 2/M
;
_chemical_formula_sum "Si O2"
_cell_formula_units_Z 64
_cell_length_a 14.637999
_cell_length_b 24.746374
_cell_length_c 8.828257
_cell_angle_alpha 90.000000
_cell_angle_beta 83.270488
_cell_angle_gamma 90.000000
_cell_volume 3175.892493
_symmetry_space_group_name_H-M "C 2/M"
_symmetry_group_IT_number 12
_symmetry_cell_setting 'monoclinic'
loop_
_space_group_symop_operation_xyz
x,y,z
-x,y,-z
-x,-y,-z
x,-y,z
1/2+x,1/2+y,z
1/2-x,1/2+y,-z
1/2-x,1/2-y,-z
1/2+x,1/2-y,z
loop_
_atom_site_type_symbol
_atom_site_label
_atom_site_fract_x
_atom_site_fract_y
_atom_site_fract_z
Si Si1 0.260047 0.222705 0.708539
Si Si2 0.706274 0.873669 0.519661
Si Si3 0.166364 0.120588 0.223210
Si Si4 0.788843 0.435830 0.775380
Si Si5 0.601084 0.562013 0.968304
Si Si6 0.330006 0.842443 0.977217
Si Si7 0.441423 0.282097 0.658520
Si Si8 0.913492 0.300232 0.245749
O O1 0.254095 0.172625 0.597591
O O2 0.341024 0.260759 0.632086
O O3 0.166438 0.254949 0.738609
O O4 0.297758 0.201792 0.862162
O O5 0.783052 0.889710 0.628021
O O6 0.686465 0.920823 0.402249
O O7 0.620101 0.845937 0.626142
O O8 0.139615 0.068625 0.130888
O O9 0.243078 0.148973 0.104350
O O10 0.081699 0.162348 0.251810
O O11 0.798087 0.500000 0.801698
O O12 0.682390 0.419109 0.839187
O O13 0.846423 0.397250 0.877864
O O14 0.587678 0.500000 0.927421
O O15 0.500000 0.588236 0.000000
O O16 0.408111 0.825542 0.079863
O O17 0.500000 0.294800 0.500000
O O18 0.494697 0.232649 0.730229
#
# Coordination Sequence:
#
# PCOD9186907 Si02
#       8
#     8   8   8   8   8   8   8   8
#     4  11  20  38  53  76 119 158 185 227 289 336
#     4  10  19  35  57  77 115 151 181 238 285 327
#     4  10  21  35  54  84 112 154 199 231 277 340
#     4   9  19  36  61  83 105 147 194 234 297 356
#     4   9  19  37  54  76 113 150 189 245 290 327
#     4   9  20  37  57  79 115 152 185 243 290 326
#     4  12  23  33  54  82 115 158 195 225 281 349
#     4  11  21  35  55  80 116 155 191 234 280 334
#
# _framework density 20.151814999999999
#
# number of rings (size 3 to 8) (size 9 to 14) (size 15 to 20)
#    0.000    1.875    3.750    1.500    0.000    5.000 
#    0.000    1.875    0.000    2.625    0.000   14.000 
#    0.000    0.000    0.000    0.000    0.000    0.125 
#
# Total GULP energy -178382.993398 kJ/mol
# GULP energy per Si atom -5574.468544 kJ/mol
# Density = 2.010595 g / cm^3
# Si number density = 20.151815 Si / 1000 Ang^3
#
#
#
# Elastic Constant Matrix: (Units=GPa)
#
#
# Indices 1 2 3 4 5 6 
#
# 1 60.0985 0.8728 16.8771 0.0000 -2.0853 0.0000
# 2 0.8728 41.0291 15.7156 0.0000 1.1448 0.0000
# 3 16.8771 15.7156 118.1056 0.0000 11.0990 0.0000
# 4 0.0000 0.0000 0.0000 29.0510 0.0000 0.1415
# 5 -2.0853 1.1448 11.0990 0.0000 17.4199 0.0000
# 6 0.0000 0.0000 0.0000 0.1415 0.0000 11.4987
#
#
#
# Elastic Compliance Matrix: (Units=1/GPa)
#
#
# Indices 1 2 3 4 5 6 
#
# 1 0.017603 0.000654 -0.002975 0.000000 0.003959 0.000000
# 2 0.000654 0.025711 -0.003577 0.000000 0.000668 0.000000
# 3 -0.002975 -0.003577 0.009977 0.000000 -0.006478 0.000000
# 4 0.000000 0.000000 0.000000 0.034424 0.000000 -0.000424
# 5 0.003959 0.000668 -0.006478 0.000000 0.061963 0.000000
# 6 0.000000 0.000000 0.000000 -0.000424 0.000000 0.086972
#
#
# Mechanical properties :
#
#
# Convention : Reuss Voigt Hill
#
# Bulk Modulus (GPa) = 24.09934 31.79602 27.94768
# Shear Modulus (GPa) = 19.06392 23.97844 21.52118
#
# Velocity S-wave (km/s) = 3.07907 3.45322 3.27150
# Velocity P-wave (km/s) = 4.96244 5.63135 5.30744
#
# Compressibility (1/GPa) = 0.04149490
#
# Stress axis : x y z
#
# Youngs Moduli (GPa) = 56.80998 38.89438 100.23232
#
# Poissons Ratio (x) = -0.02545 0.29814
# Poissons Ratio (y) = -0.03718 0.35858
# Poissons Ratio (z) = 0.16898 0.13914
#
# Static dielectric constant tensor:
#      x y z
#    x 1.745220 0.000000 0.008330 
#    y 0.000000 1.744490 0.000000 
#    z 0.008330 0.000000 1.746150 
# 
# From -- ./inp_files/66946.got.cif
#   From: 2010.05.17/outbox.cif.g08.bks.cpg/sg12_34_cif.got.tgz:66946.got - 2010.06.03 13:09:07.
