data_PCOD9186428
_publ_section_title
;
Structure prediction by ZEFSAII (Michael W. Deem and Ramdas Pophale) SiO2 
 PCOD9186428
Probable space group: C 2/M
;
_chemical_formula_sum "Si O2"
_cell_formula_units_Z 52
_cell_length_a 9.623217
_cell_length_b 21.298650
_cell_length_c 18.205228
_cell_angle_alpha 90.000000
_cell_angle_beta 134.853009
_cell_angle_gamma 90.000000
_cell_volume 2645.238283
_symmetry_space_group_name_H-M "C 2/M"
_symmetry_group_IT_number 12
_symmetry_cell_setting 'monoclinic'
loop_
_space_group_symop_operation_xyz
x,y,z
-x,y,-z
-x,-y,-z
x,-y,z
1/2+x,1/2+y,z
1/2-x,1/2+y,-z
1/2-x,1/2-y,-z
1/2+x,1/2-y,z
loop_
_atom_site_type_symbol
_atom_site_label
_atom_site_fract_x
_atom_site_fract_y
_atom_site_fract_z
Si Si1 0.273521 0.371912 0.211754
Si Si2 0.793983 0.865183 0.394381
Si Si3 0.285986 0.500000 0.470241
Si Si4 0.852076 0.365126 0.246216
Si Si5 0.995051 0.000000 0.298344
Si Si6 0.965054 0.803140 0.152091
Si Si7 0.647184 0.159138 0.921756
Si Si8 0.648131 0.000000 0.678040
O O1 0.296549 0.360120 0.307443
O O2 0.373672 0.438269 0.234338
O O3 0.379496 0.321207 0.199636
O O4 0.040849 0.373367 0.111959
O O5 0.792782 0.937394 0.423407
O O6 0.578330 0.841915 0.339696
O O7 0.000000 0.837319 0.500000
O O8 0.446455 0.500000 0.593986
O O9 0.076008 0.500000 0.431775
O O10 0.690443 0.322015 0.225310
O O11 0.812428 0.366531 0.144224
O O12 0.830895 0.435793 0.268307
O O13 0.192980 0.000000 0.325891
O O14 0.923618 0.730906 0.118110
O O15 0.834226 0.841000 0.043872
#
# Coordination Sequence:
#
# PCOD9186428 Si02
#       8
#     8   8   4   8   4   8   8   4
#     4  11  22  35  61  92 125 153 200 252 309 346
#     4  10  19  35  56  91 122 156 197 241 287 366
#     4  10  19  34  63  85 117 168 211 233 289 355
#     4  10  21  37  61  88 122 158 197 247 305 358
#     4  12  20  36  59  95 126 157 193 257 296 364
#     4  11  21  42  63  88 118 154 213 261 292 345
#     4  10  23  40  65  87 112 162 215 252 292 353
#     4  10  21  37  55  95 126 152 195 252 300 360
#
# _framework density 19.657962999999999
#
# number of rings (size 3 to 8) (size 9 to 14) (size 15 to 20)
#    0.000    1.538    3.077    2.769    0.000    4.308 
#    0.000    5.385    0.000   14.769    0.000    0.000 
#    0.000    0.000    0.000    0.000    0.000    0.000 
#
# Total GULP energy -145137.502296 kJ/mol
# GULP energy per Si atom -5582.211627 kJ/mol
# Density = 1.961322 g / cm^3
# Si number density = 19.657963 Si / 1000 Ang^3
#
#
#
# Elastic Constant Matrix: (Units=GPa)
#
#
# Indices 1 2 3 4 5 6 
#
# 1 141.7139 15.9406 32.1724 0.0000 17.0776 0.0000
# 2 15.9406 34.4403 18.0330 0.0000 5.5100 0.0000
# 3 32.1724 18.0330 81.9562 0.0000 12.7937 0.0000
# 4 0.0000 0.0000 0.0000 17.9016 0.0000 0.8309
# 5 17.0776 5.5100 12.7937 0.0000 32.9511 0.0000
# 6 0.0000 0.0000 0.0000 0.8309 0.0000 22.4984
#
#
#
# Elastic Compliance Matrix: (Units=1/GPa)
#
#
# Indices 1 2 3 4 5 6 
#
# 1 0.008172 -0.002111 -0.002275 0.000000 -0.002999 0.000000
# 2 -0.002111 0.033617 -0.006239 0.000000 -0.002105 0.000000
# 3 -0.002275 -0.006239 0.015032 0.000000 -0.003614 0.000000
# 4 0.000000 0.000000 0.000000 0.055957 0.000000 -0.002067
# 5 -0.002999 -0.002105 -0.003614 0.000000 0.033657 0.000000
# 6 0.000000 0.000000 0.000000 -0.002067 0.000000 0.044524
#
#
# Mechanical properties :
#
#
# Convention : Reuss Voigt Hill
#
# Bulk Modulus (GPa) = 28.11478 43.37803 35.74640
# Shear Modulus (GPa) = 22.31481 27.46783 24.89132
#
# Velocity S-wave (km/s) = 3.37286 3.74209 3.56226
# Velocity P-wave (km/s) = 5.43151 6.38633 5.92817
#
# Compressibility (1/GPa) = 0.03556849
#
# Stress axis : x y z
#
# Youngs Moduli (GPa) = 122.37110 29.74716 66.52559
#
# Poissons Ratio (x) = 0.06280 0.15136
# Poissons Ratio (y) = 0.25835 0.41508
# Poissons Ratio (z) = 0.27842 0.18561
#
# Static dielectric constant tensor:
#      x y z
#    x 1.702460 0.000000 0.030380 
#    y 0.000000 1.680010 0.000000 
#    z 0.030380 0.000000 1.693130 
# 
# From -- ./inp_files/258574.got.cif
#   From: 2010.05.17/outbox.cif.g08.bks.cpg/sg12_130_cif.got.tgz:258574.got - 2010.06.03 13:09:07.
