data_PCOD9186802
_publ_section_title
;
Structure prediction by ZEFSAII (Michael W. Deem and Ramdas Pophale) SiO2 
 PCOD9186802
Probable space group: C 2/M
;
_chemical_formula_sum "Si O2"
_cell_formula_units_Z 64
_cell_length_a 24.558173
_cell_length_b 8.924611
_cell_length_c 31.650545
_cell_angle_alpha 90.000000
_cell_angle_beta 150.043239
_cell_angle_gamma 90.000000
_cell_volume 3463.924194
_symmetry_space_group_name_H-M "C 2/M"
_symmetry_group_IT_number 12
_symmetry_cell_setting 'monoclinic'
loop_
_space_group_symop_operation_xyz
x,y,z
-x,y,-z
-x,-y,-z
x,-y,z
1/2+x,1/2+y,z
1/2-x,1/2+y,-z
1/2-x,1/2-y,-z
1/2+x,1/2-y,z
loop_
_atom_site_type_symbol
_atom_site_label
_atom_site_fract_x
_atom_site_fract_y
_atom_site_fract_z
Si Si1 0.829559 0.321918 0.115009
Si Si2 0.581135 0.320452 0.739810
Si Si3 0.905277 0.179060 0.079787
Si Si4 0.146999 0.179538 0.225008
Si Si5 0.176895 0.177433 0.717029
Si Si6 0.224090 0.820525 0.371277
Si Si7 0.650048 0.821122 0.406882
Si Si8 0.979795 0.675723 0.536348
O O1 0.844712 0.500000 0.130095
O O2 0.872947 0.237092 0.184990
O O3 0.890422 0.264287 0.113969
O O4 0.701461 0.291192 0.020065
O O5 0.567075 0.500000 0.730949
O O6 0.662375 0.279890 0.756222
O O7 0.464379 0.243414 0.653711
O O8 0.019920 0.219967 0.135825
O O9 0.907436 0.000000 0.090000
O O10 0.224345 0.248383 0.241765
O O11 0.186118 0.221888 0.298639
O O12 0.157437 0.000000 0.229621
O O13 0.064910 0.226134 0.619085
O O14 0.188999 0.000000 0.722651
O O15 0.163608 0.731719 0.367457
O O16 0.353763 0.793240 0.461709
O O17 0.205421 0.000000 0.363992
O O18 0.750000 0.750000 0.500000
O O19 0.652427 0.000000 0.411951
O O20 0.000846 0.500000 0.559666
O O21 0.000000 0.697119 0.500000
#
# Coordination Sequence:
#
# PCOD9186802 Si02
#       8
#     8   8   8   8   8   8   8   8
#     4  10  20  36  61  93 119 148 191 235 285 344
#     4  11  24  42  60  81 114 157 198 237 289 343
#     4   9  19  36  61  91 122 151 183 231 290 348
#     4  10  20  37  59  83 113 150 187 229 284 343
#     4  11  24  38  55  81 112 149 194 243 288 335
#     4  10  20  35  58  85 114 149 189 233 284 343
#     4  12  25  40  59  85 116 151 191 238 287 340
#     4  10  19  35  56  80 109 148 192 228 275 341
#
# _framework density 18.476154000000001
#
# number of rings (size 3 to 8) (size 9 to 14) (size 15 to 20)
#    0.000    1.625    1.250    3.750    0.000    7.250 
#    0.000    0.625    0.000    3.750    0.000    0.000 
#    0.000    0.000    0.000    0.000    0.000    0.000 
#
# Total GULP energy -178861.573192 kJ/mol
# GULP energy per Si atom -5589.424162 kJ/mol
# Density = 1.843410 g / cm^3
# Si number density = 18.476154 Si / 1000 Ang^3
#
#
#
# Elastic Constant Matrix: (Units=GPa)
#
#
# Indices 1 2 3 4 5 6 
#
# 1 118.5217 55.4320 53.5099 0.0001 13.5825 0.0001
# 2 55.4320 60.4580 44.1128 0.0002 3.6540 0.0004
# 3 53.5099 44.1128 83.6696 0.0003 8.0314 0.0001
# 4 0.0001 0.0002 0.0003 23.6189 0.0000 -0.8211
# 5 13.5825 3.6540 8.0314 0.0000 24.7512 0.0000
# 6 0.0001 0.0004 0.0001 -0.8211 0.0000 31.4825
#
#
#
# Elastic Compliance Matrix: (Units=1/GPa)
#
#
# Indices 1 2 3 4 5 6 
#
# 1 0.016367 -0.012070 -0.003522 0.000000 -0.006057 0.000000
# 2 -0.012070 0.035793 -0.011643 0.000000 0.005117 0.000000
# 3 -0.003522 -0.011643 0.020635 0.000000 -0.003044 0.000000
# 4 0.000000 0.000000 0.000000 0.042377 0.000000 0.001105
# 5 -0.006057 0.005117 -0.003044 0.000000 0.043958 0.000000
# 6 0.000000 0.000000 0.000000 0.001105 0.000000 0.031792
#
#
# Mechanical properties :
#
#
# Convention : Reuss Voigt Hill
#
# Bulk Modulus (GPa) = 54.57216 63.19541 58.88379
# Shear Modulus (GPa) = 19.88066 23.27684 21.57875
#
# Velocity S-wave (km/s) = 3.28383 3.55326 3.42120
# Velocity P-wave (km/s) = 6.63164 7.14928 6.89532
#
# Compressibility (1/GPa) = 0.01832436
#
# Stress axis : x y z
#
# Youngs Moduli (GPa) = 61.10001 27.93838 48.46158
#
# Poissons Ratio (x) = 0.33722 0.17068
# Poissons Ratio (y) = 0.73749 0.56424
# Poissons Ratio (z) = 0.21519 0.32529
#
# Static dielectric constant tensor:
#      x y z
#    x 1.627950 0.000000 0.007400 
#    y 0.000000 1.617160 0.000000 
#    z 0.007400 0.000000 1.629770 
# 
# From -- ./inp_files/382480.got.cif
#   From: 2010.05.17/outbox.cif.g08.bks.cpg/sg12_192_cif.got.tgz:382480.got - 2010.06.03 13:09:07.
