data_PCOD9186267
_publ_section_title
;
Structure prediction by ZEFSAII (Michael W. Deem and Ramdas Pophale) SiO2 
 PCOD9186267
Probable space group: C 2/M
;
_chemical_formula_sum "Si O2"
_cell_formula_units_Z 64
_cell_length_a 15.886149
_cell_length_b 25.289250
_cell_length_c 14.220845
_cell_angle_alpha 90.000000
_cell_angle_beta 37.874232
_cell_angle_gamma 90.000000
_cell_volume 3507.510846
_symmetry_space_group_name_H-M "C 2/M"
_symmetry_group_IT_number 12
_symmetry_cell_setting 'monoclinic'
loop_
_space_group_symop_operation_xyz
x,y,z
-x,y,-z
-x,-y,-z
x,-y,z
1/2+x,1/2+y,z
1/2-x,1/2+y,-z
1/2-x,1/2-y,-z
1/2+x,1/2-y,z
loop_
_atom_site_type_symbol
_atom_site_label
_atom_site_fract_x
_atom_site_fract_y
_atom_site_fract_z
Si Si1 0.538267 0.559439 0.669569
Si Si2 0.725825 0.938303 0.885574
Si Si3 0.033237 0.364242 0.174616
Si Si4 0.455439 0.168371 0.436458
Si Si5 0.110455 0.789386 0.474825
Si Si6 0.357314 0.338613 0.347141
Si Si7 0.799406 0.438850 0.310761
Si Si8 0.421644 0.762211 0.166726
O O1 0.554642 0.500000 0.693854
O O2 0.387322 0.564267 0.760884
O O3 0.566708 0.605438 0.719055
O O4 0.649113 0.565009 0.488115
O O5 0.696102 0.924976 0.803168
O O6 0.683310 0.000000 0.938527
O O7 0.651398 0.896858 0.018617
O O8 0.051042 0.352848 0.268991
O O9 0.900490 0.401097 0.277069
O O10 0.997997 0.308794 0.155966
O O11 0.500000 0.149666 0.500000
O O12 0.452989 0.232261 0.441921
O O13 0.299277 0.154176 0.547657
O O14 0.135435 0.818923 0.550949
O O15 0.261169 0.779470 0.297388
O O16 0.000000 0.814191 0.500000
O O17 0.418654 0.291837 0.229324
O O18 0.842054 0.500000 0.281709
O O19 0.500000 0.755056 0.000000
#
# Coordination Sequence:
#
# PCOD9186267 Si02
#       8
#     8   8   8   8   8   8   8   8
#     4  10  21  38  60  82 116 159 199 241 287 350
#     4  10  22  37  55  89 128 157 188 236 303 359
#     4  12  20  36  59  87 124 154 191 245 296 346
#     4  10  20  38  62  85 113 159 204 241 289 346
#     4  10  20  38  63  86 121 162 194 231 289 359
#     4  11  20  41  62  85 119 160 198 244 292 350
#     4  10  19  34  60  88 118 160 199 233 286 357
#     4  11  22  37  57  90 124 154 195 246 294 348
#
# _framework density 18.246556999999999
#
# number of rings (size 3 to 8) (size 9 to 14) (size 15 to 20)
#    0.000    1.500    3.750    2.625    0.000    5.500 
#    6.750    1.250    0.000    3.750    0.000    0.000 
#    0.000    0.000    0.000    0.000    0.000    0.000 
#
# Total GULP energy -178682.118428 kJ/mol
# GULP energy per Si atom -5583.816201 kJ/mol
# Density = 1.820503 g / cm^3
# Si number density = 18.246557 Si / 1000 Ang^3
#
#
#
# Elastic Constant Matrix: (Units=GPa)
#
#
# Indices 1 2 3 4 5 6 
#
# 1 102.9440 30.2511 40.0206 0.0031 20.0346 -0.0059
# 2 30.2511 78.3467 45.6730 0.0010 16.9179 -0.0015
# 3 40.0206 45.6730 109.0170 -0.0012 9.0514 0.0003
# 4 0.0031 0.0010 -0.0012 13.3524 0.0003 19.1221
# 5 20.0346 16.9179 9.0514 0.0003 22.7012 0.0013
# 6 -0.0059 -0.0015 0.0003 19.1221 0.0013 -14.5652
#
#
#
# Elastic Compliance Matrix: (Units=1/GPa)
#
#
# Indices 1 2 3 4 5 6 
#
# 1 0.013282 -0.000903 -0.003703 0.000002 -0.009572 -0.000004
# 2 -0.000903 0.019531 -0.006938 0.000001 -0.010992 -0.000002
# 3 -0.003703 -0.006938 0.013175 0.000000 0.003186 0.000002
# 4 0.000002 0.000001 0.000000 0.026003 -0.000004 0.034138
# 5 -0.009572 -0.010992 0.003186 -0.000004 0.059420 0.000005
# 6 -0.000004 -0.000002 0.000002 0.034138 0.000005 -0.023838
#
#
# Mechanical properties :
#
#
# Convention : Reuss Voigt Hill
#
# Bulk Modulus (GPa) = 43.66973 58.02190 50.84582
# Shear Modulus (GPa) = 36.15509 15.92189 26.03849
#
# Velocity S-wave (km/s) = 4.45620 2.95718 3.78171
# Velocity P-wave (km/s) = 7.10367 6.59756 6.85528
#
# Compressibility (1/GPa) = 0.02289916
#
# Stress axis : x y z
#
# Youngs Moduli (GPa) = 75.29129 51.20136 75.90378
#
# Poissons Ratio (x) = 0.04622 0.28106
# Poissons Ratio (y) = 0.06796 0.52665
# Poissons Ratio (z) = 0.27879 0.35526
#
# Static dielectric constant tensor:
#      x y z
#    x 1.621250 0.000000 -0.009870 
#    y 0.000000 1.656550 0.000000 
#    z -0.009870 0.000000 1.634450 
# 
# From -- ./inp_files/149718.got.cif
#   From: 2010.05.17/outbox.cif.g08.bks.cpg/sg12_75_cif.got.tgz:149718.got - 2010.06.03 13:09:07.
