data_PCOD9186679
_publ_section_title
;
Structure prediction by ZEFSAII (Michael W. Deem and Ramdas Pophale) SiO2 
 PCOD9186679
Probable space group: C 2/M
;
_chemical_formula_sum "Si O2"
_cell_formula_units_Z 56
_cell_length_a 22.930764
_cell_length_b 8.191130
_cell_length_c 14.589727
_cell_angle_alpha 90.000000
_cell_angle_beta 84.066839
_cell_angle_gamma 90.000000
_cell_volume 2725.692179
_symmetry_space_group_name_H-M "C 2/M"
_symmetry_group_IT_number 12
_symmetry_cell_setting 'monoclinic'
loop_
_space_group_symop_operation_xyz
x,y,z
-x,y,-z
-x,-y,-z
x,-y,z
1/2+x,1/2+y,z
1/2-x,1/2+y,-z
1/2-x,1/2-y,-z
1/2+x,1/2-y,z
loop_
_atom_site_type_symbol
_atom_site_label
_atom_site_fract_x
_atom_site_fract_y
_atom_site_fract_z
Si Si1 0.101280 0.696582 0.200772
Si Si2 0.596574 0.309371 0.527586
Si Si3 0.375142 0.311021 0.190885
Si Si4 0.567751 0.802500 0.003355
Si Si5 0.829430 0.803835 0.648401
Si Si6 0.978220 0.306994 0.303132
Si Si7 0.800993 0.308553 0.359656
O O1 0.103480 0.500000 0.199523
O O2 0.155910 0.759166 0.250040
O O3 0.043076 0.746838 0.266391
O O4 0.092292 0.752153 0.097870
O O5 0.582066 0.500000 0.521063
O O6 0.619321 0.240895 0.427319
O O7 0.543724 0.225110 0.590418
O O8 0.653870 0.288008 0.583469
O O9 0.358743 0.500000 0.194435
O O10 0.392368 0.255361 0.086854
O O11 0.433161 0.283658 0.243290
O O12 0.325280 0.211078 0.252331
O O13 0.566706 0.000000 0.003126
O O14 0.500000 0.748453 0.000000
O O15 0.765510 0.747051 0.626200
O O16 0.828863 0.000000 0.639990
O O17 0.973039 0.500000 0.284528
O O18 0.803686 0.500000 0.384547
#
# Coordination Sequence:
#
# PCOD9186679 Si02
#       7
#     8   8   8   8   8   8   8
#     4  10  22  37  57  81 109 147 186 223 269 325
#     4  10  20  35  56  84 111 142 183 231 279 319
#     4  11  21  33  55  88 114 139 178 230 278 321
#     4  10  19  37  60  82 111 144 181 224 270 326
#     4  10  23  39  55  78 113 149 183 227 278 325
#     4  10  19  35  55  81 112 146 184 225 271 326
#     4  10  20  37  59  81 107 147 188 226 272 323
#
# _framework density 20.545238999999999
#
# number of rings (size 3 to 8) (size 9 to 14) (size 15 to 20)
#    0.000    1.857    1.429    4.714    0.000    4.857 
#    0.000    3.571    0.000    0.000    0.000    0.000 
#    0.000    0.000    0.000    0.000    0.000    0.000 
#
# Total GULP energy -156401.460766 kJ/mol
# GULP energy per Si atom -5585.766456 kJ/mol
# Density = 2.049848 g / cm^3
# Si number density = 20.545239 Si / 1000 Ang^3
#
#
#
# Elastic Constant Matrix: (Units=GPa)
#
#
# Indices 1 2 3 4 5 6 
#
# 1 15.9124 -10.0059 8.2962 0.0000 -3.2862 0.0000
# 2 -10.0059 20.3399 -9.9781 0.0000 0.0281 0.0000
# 3 8.2962 -9.9781 109.7194 0.0000 -1.6731 0.0000
# 4 0.0000 0.0000 0.0000 23.5507 0.0000 -2.3830
# 5 -3.2862 0.0281 -1.6731 0.0000 25.6455 0.0000
# 6 0.0000 0.0000 0.0000 -2.3830 0.0000 11.3576
#
#
#
# Elastic Compliance Matrix: (Units=1/GPa)
#
#
# Indices 1 2 3 4 5 6 
#
# 1 0.095453 0.045520 -0.002895 0.000000 0.011993 0.000000
# 2 0.045520 0.073169 0.003303 0.000000 0.005968 0.000000
# 3 -0.002895 0.003303 0.009637 0.000000 0.000254 0.000000
# 4 0.000000 0.000000 0.000000 0.043383 0.000000 0.009102
# 5 0.011993 0.005968 0.000254 0.000000 0.040540 0.000000
# 6 0.000000 0.000000 0.000000 0.009102 0.000000 0.089956
#
#
# Mechanical properties :
#
#
# Convention : Reuss Voigt Hill
#
# Bulk Modulus (GPa) = 3.70211 13.62179 8.66195
# Shear Modulus (GPa) = 14.27262 22.62140 18.44701
#
# Velocity S-wave (km/s) = 2.63856 3.32181 2.99970
# Velocity P-wave (km/s) = 3.32994 4.62138 4.02776
#
# Compressibility (1/GPa) = 0.27011637
#
# Stress axis : x y z
#
# Youngs Moduli (GPa) = 10.47634 13.66691 103.76309
#
# Poissons Ratio (x) = -0.62212 0.30039
# Poissons Ratio (y) = -0.47688 -0.34276
# Poissons Ratio (z) = 0.03033 -0.04515
#
# Static dielectric constant tensor:
#      x y z
#    x 1.730120 0.000000 -0.009800 
#    y 0.000000 1.720130 0.000000 
#    z -0.009800 0.000000 1.752220 
# 
# From -- ./inp_files/230927.got.cif
#   From: 2010.05.17/outbox.cif.g08.bks.cpg/sg12_116_cif.got.tgz:230927.got - 2010.06.03 13:09:07.
