data_PCOD9186661
_publ_section_title
;
Structure prediction by ZEFSAII (Michael W. Deem and Ramdas Pophale) SiO2 
 PCOD9186661
Probable space group: C 2/M
;
_chemical_formula_sum "Si O2"
_cell_formula_units_Z 56
_cell_length_a 30.018553
_cell_length_b 7.602848
_cell_length_c 12.959532
_cell_angle_alpha 90.000000
_cell_angle_beta 120.535822
_cell_angle_gamma 90.000000
_cell_volume 2547.508920
_symmetry_space_group_name_H-M "C 2/M"
_symmetry_group_IT_number 12
_symmetry_cell_setting 'monoclinic'
loop_
_space_group_symop_operation_xyz
x,y,z
-x,y,-z
-x,-y,-z
x,-y,z
1/2+x,1/2+y,z
1/2-x,1/2+y,-z
1/2-x,1/2-y,-z
1/2+x,1/2-y,z
loop_
_atom_site_type_symbol
_atom_site_label
_atom_site_fract_x
_atom_site_fract_y
_atom_site_fract_z
Si Si1 0.946200 0.287095 0.488316
Si Si2 0.863013 0.709114 0.225618
Si Si3 0.791021 0.789119 0.459742
Si Si4 0.744718 0.287973 0.806050
Si Si5 0.860485 0.283879 0.994133
Si Si6 0.442916 0.795582 0.924709
Si Si7 0.596349 0.706372 0.344003
O O1 0.945429 0.500000 0.488848
O O2 0.898435 0.222106 0.360907
O O3 0.939403 0.228663 0.597920
O O4 0.000000 0.231600 0.500000
O O5 0.871300 0.500000 0.234556
O O6 0.802513 0.740412 0.175015
O O7 0.877110 0.773804 0.128136
O O8 0.750000 0.750000 0.500000
O O9 0.771302 0.722003 0.326413
O O10 0.847407 0.720747 0.557529
O O11 0.795681 0.000000 0.455106
O O12 0.747125 0.500000 0.805557
O O13 0.801598 0.225552 0.904023
O O14 0.859454 0.500000 0.992052
O O15 0.899588 0.222714 0.951292
O O16 0.424425 0.788805 0.785160
O O17 0.447974 0.000000 0.961913
O O18 0.500000 0.714722 0.000000
O O19 0.601900 0.500000 0.328369
#
# Coordination Sequence:
#
# PCOD9186661 Si02
#       7
#     8   8   8   8   8   8   8
#     4  10  22  38  61  88 115 152 199 247 290 344
#     4  10  20  35  57  86 116 145 189 241 286 339
#     4  10  21  35  55  82 114 154 195 237 286 345
#     4  10  19  35  55  79 116 152 186 228 286 351
#     4   9  19  35  57  85 115 149 189 240 289 334
#     4  10  22  40  65  88 112 152 200 243 287 345
#     4  11  23  40  60  86 122 154 190 242 298 355
#
# _framework density 21.98226
#
# number of rings (size 3 to 8) (size 9 to 14) (size 15 to 20)
#    0.000    2.000    1.429    1.714    2.000    3.429 
#    0.000    1.429    0.000    0.000    0.000    0.000 
#    0.000    0.000    0.000    0.000    0.000    0.000 
#
# Total GULP energy -156487.942326 kJ/mol
# GULP energy per Si atom -5588.855083 kJ/mol
# Density = 2.193223 g / cm^3
# Si number density = 21.982260 Si / 1000 Ang^3
#
#
#
# Elastic Constant Matrix: (Units=GPa)
#
#
# Indices 1 2 3 4 5 6 
#
# 1 138.1097 -11.5049 49.6016 0.0000 -21.6165 0.0000
# 2 -11.5049 44.0396 -4.6628 0.0000 6.8840 0.0000
# 3 49.6016 -4.6628 111.2136 0.0000 -24.1303 0.0000
# 4 0.0000 0.0000 0.0000 -16.5458 0.0000 4.4310
# 5 -21.6165 6.8840 -24.1303 0.0000 34.7773 0.0000
# 6 0.0000 0.0000 0.0000 4.4310 0.0000 15.6280
#
#
#
# Elastic Compliance Matrix: (Units=1/GPa)
#
#
# Indices 1 2 3 4 5 6 
#
# 1 0.009028 0.001537 -0.003309 0.000000 0.003012 0.000000
# 2 0.001537 0.023694 -0.000592 0.000000 -0.004145 0.000000
# 3 -0.003309 -0.000592 0.011798 0.000000 0.006246 0.000000
# 4 0.000000 0.000000 0.000000 -0.056173 0.000000 0.015927
# 5 0.003012 -0.004145 0.006246 0.000000 0.035781 0.000000
# 6 0.000000 0.000000 0.000000 0.015927 0.000000 0.059472
#
#
# Mechanical properties :
#
#
# Convention : Reuss Voigt Hill
#
# Bulk Modulus (GPa) = 25.12929 40.02564 32.57747
# Shear Modulus (GPa) = 49.21722 24.10051 36.65886
#
# Velocity S-wave (km/s) = 4.73689 3.31473 4.08813
# Velocity P-wave (km/s) = 6.43226 5.73564 6.09391
#
# Compressibility (1/GPa) = 0.03979420
#
# Stress axis : x y z
#
# Youngs Moduli (GPa) = 110.76138 42.20517 84.76050
#
# Poissons Ratio (x) = -0.06489 0.28046
# Poissons Ratio (y) = -0.17030 0.05015
# Poissons Ratio (z) = 0.36649 0.02497
#
# Static dielectric constant tensor:
#      x y z
#    x 1.779010 0.000000 0.011510 
#    y 0.000000 1.850480 0.000000 
#    z 0.011510 0.000000 1.782920 
# 
# From -- ./inp_files/187205.got.cif
#   From: 2010.05.17/outbox.cif.g08.bks.cpg/sg12_94_cif.got.tgz:187205.got - 2010.06.03 13:09:07.
