data_PCOD9186777
_publ_section_title
;
Structure prediction by ZEFSAII (Michael W. Deem and Ramdas Pophale) SiO2 
 PCOD9186777
Probable space group: C 2/M
;
_chemical_formula_sum "Si O2"
_cell_formula_units_Z 64
_cell_length_a 14.779069
_cell_length_b 7.391507
_cell_length_c 31.368623
_cell_angle_alpha 90.000000
_cell_angle_beta 125.133932
_cell_angle_gamma 90.000000
_cell_volume 2802.382625
_symmetry_space_group_name_H-M "C 2/M"
_symmetry_group_IT_number 12
_symmetry_cell_setting 'monoclinic'
loop_
_space_group_symop_operation_xyz
x,y,z
-x,y,-z
-x,-y,-z
x,-y,z
1/2+x,1/2+y,z
1/2-x,1/2+y,-z
1/2-x,1/2-y,-z
1/2+x,1/2-y,z
loop_
_atom_site_type_symbol
_atom_site_label
_atom_site_fract_x
_atom_site_fract_y
_atom_site_fract_z
Si Si1 0.540245 0.220786 0.638394
Si Si2 0.427824 0.217965 0.176153
Si Si3 0.938219 0.790411 0.042189
Si Si4 0.287880 0.214447 0.558673
Si Si5 0.247965 0.719639 0.936751
Si Si6 0.109602 0.788776 0.154386
Si Si7 0.417348 0.794664 0.442970
Si Si8 0.352490 0.221576 0.244837
O O1 0.412050 0.275087 0.601493
O O2 0.588395 0.281989 0.605962
O O3 0.602443 0.283942 0.697498
O O4 0.544965 0.000000 0.641479
O O5 0.309657 0.271283 0.123075
O O6 0.525649 0.280762 0.171757
O O7 0.428794 0.275006 0.225416
O O8 0.431911 0.000000 0.176010
O O9 0.841329 0.783800 0.052172
O O10 0.043574 0.710660 0.095575
O O11 0.964279 0.000000 0.040022
O O12 0.870793 0.716505 0.983115
O O13 0.250000 0.250000 0.500000
O O14 0.200596 0.298392 0.567054
O O15 0.284195 0.000000 0.564105
O O16 0.250701 0.500000 0.939383
O O17 0.228119 0.716061 0.200467
O O18 0.127697 0.000000 0.148895
O O19 0.500000 0.707597 0.500000
O O20 0.461138 0.000000 0.448718
O O21 0.350815 0.000000 0.245319
#
# Coordination Sequence:
#
# PCOD9186777 Si02
#       8
#     8   8   8   8   8   8   8   8
#     4   9  19  35  53  73 103 138 166 198 247 300
#     4   9  17  30  49  70  94 127 165 202 244 294
#     4   8  13  22  38  62  90 118 151 195 243 288
#     4  11  21  35  56  82 108 136 168 203 246 296
#     4   8  13  22  38  62  90 119 152 193 242 291
#     4   9  17  30  49  70  93 125 165 204 244 292
#     4  10  19  35  56  79 106 137 168 200 245 300
#     4   9  18  33  51  71  97 132 169 201 242 297
#
# _framework density 22.837710999999999
#
# number of rings (size 3 to 8) (size 9 to 14) (size 15 to 20)
#    0.000    2.875    1.250    0.375    0.000    1.250 
#    0.000    1.250    0.000    6.750    0.000    0.000 
#    0.000   20.000    0.000    0.000    0.000    0.000 
#
# Total GULP energy -178590.185727 kJ/mol
# GULP energy per Si atom -5580.943304 kJ/mol
# Density = 2.278573 g / cm^3
# Si number density = 22.837711 Si / 1000 Ang^3
#
#
#
# Elastic Constant Matrix: (Units=GPa)
#
#
# Indices 1 2 3 4 5 6 
#
# 1 85.0877 -8.2555 52.7384 0.0000 -4.0035 0.0000
# 2 -8.2555 81.3065 5.3308 0.0000 0.2299 0.0000
# 3 52.7384 5.3308 159.6002 0.0000 -10.6574 0.0000
# 4 0.0000 0.0000 0.0000 0.3792 0.0000 2.8682
# 5 -4.0035 0.2299 -10.6574 0.0000 39.2884 0.0000
# 6 0.0000 0.0000 0.0000 2.8682 0.0000 9.9376
#
#
#
# Elastic Compliance Matrix: (Units=1/GPa)
#
#
# Indices 1 2 3 4 5 6 
#
# 1 0.015056 0.001858 -0.005026 0.000000 0.000160 0.000000
# 2 0.001858 0.012557 -0.001044 0.000000 -0.000167 0.000000
# 3 -0.005026 -0.001044 0.008074 0.000000 0.001684 0.000000
# 4 0.000000 0.000000 0.000000 -2.228974 0.000000 0.643337
# 5 0.000160 -0.000167 0.001684 0.000000 0.025927 0.000000
# 6 0.000000 0.000000 0.000000 0.643337 0.000000 -0.085055
#
#
# Mechanical properties :
#
#
# Convention : Reuss Voigt Hill
#
# Bulk Modulus (GPa) = 36.68348 47.29133 41.98741
# Shear Modulus (GPa) = -2.23723 28.33308 13.04792
#
# Velocity S-wave (km/s) = -0.99083 3.52607 2.39285
# Velocity P-wave (km/s) = 3.84559 6.10984 5.10483
#
# Compressibility (1/GPa) = 0.02726022
#
# Stress axis : x y z
#
# Youngs Moduli (GPa) = 66.41956 79.63861 123.85534
#
# Poissons Ratio (x) = -0.14795 0.62255
# Poissons Ratio (y) = -0.12339 0.12937
# Poissons Ratio (z) = 0.33385 0.08318
#
# Static dielectric constant tensor:
#      x y z
#    x 1.825150 0.000000 -0.012810 
#    y 0.000000 1.774850 0.000000 
#    z -0.012810 0.000000 1.855370 
# 
# From -- ./inp_files/375683.got.cif
#   From: 2010.05.17/outbox.cif.g08.bks.cpg/sg12_188_cif.got.tgz:375683.got - 2010.06.03 13:09:07.
