data_PCOD9186784
_publ_section_title
;
Structure prediction by ZEFSAII (Michael W. Deem and Ramdas Pophale) SiO2 
 PCOD9186784
Probable space group: C 2/M
;
_chemical_formula_sum "Si O2"
_cell_formula_units_Z 48
_cell_length_a 31.750750
_cell_length_b 8.751477
_cell_length_c 20.287617
_cell_angle_alpha 90.000000
_cell_angle_beta 28.326982
_cell_angle_gamma 90.000000
_cell_volume 2674.885254
_symmetry_space_group_name_H-M "C 2/M"
_symmetry_group_IT_number 12
_symmetry_cell_setting 'monoclinic'
loop_
_space_group_symop_operation_xyz
x,y,z
-x,y,-z
-x,-y,-z
x,-y,z
1/2+x,1/2+y,z
1/2-x,1/2+y,-z
1/2-x,1/2-y,-z
1/2+x,1/2-y,z
loop_
_atom_site_type_symbol
_atom_site_label
_atom_site_fract_x
_atom_site_fract_y
_atom_site_fract_z
Si Si1 0.238869 0.681935 0.157985
Si Si2 0.573066 0.818560 0.094483
Si Si3 0.233261 0.816684 0.312316
Si Si4 0.561659 0.683266 0.352814
Si Si5 0.579260 0.683156 0.940485
Si Si6 0.547243 0.682933 0.629918
O O1 0.245827 0.500000 0.149246
O O2 0.333306 0.752988 0.007649
O O3 0.221379 0.743783 0.256232
O O4 0.156335 0.736165 0.228136
O O5 0.560729 0.746185 0.039167
O O6 0.579582 0.000000 0.079561
O O7 0.495057 0.769222 0.250575
O O8 0.326841 0.755695 0.209844
O O9 0.148947 0.777949 0.473314
O O10 0.235981 0.000000 0.300731
O O11 0.500000 0.727712 0.500000
O O12 0.574781 0.500000 0.338850
O O13 0.509944 0.717415 0.356858
O O14 0.588272 0.500000 0.931129
O O15 0.500000 0.721755 0.000000
O O16 0.541884 0.500000 0.648409
#
# Coordination Sequence:
#
# PCOD9186784 Si02
#       6
#     8   8   8   8   8   8
#     4  11  21  34  54  80 112 149 192 235 276 325
#     4  11  23  38  58  82 113 148 186 229 278 333
#     4  10  19  35  59  84 111 147 187 226 276 332
#     4  10  19  35  56  79 110 149 194 235 276 324
#     4  10  21  39  63  88 113 142 179 225 276 333
#     4  10  21  37  57  81 114 150 184 231 283 327
#
# _framework density 17.944693999999998
#
# number of rings (size 3 to 8) (size 9 to 14) (size 15 to 20)
#    0.000    1.667    1.667    6.000    0.000    4.333 
#    0.000    0.833    0.000    0.000    0.000    0.000 
#    0.000    0.000    0.000    0.000    0.000    0.000 
#
# Total GULP energy -134090.951179 kJ/mol
# GULP energy per Si atom -5587.122966 kJ/mol
# Density = 1.790385 g / cm^3
# Si number density = 17.944694 Si / 1000 Ang^3
#
#
#
# Elastic Constant Matrix: (Units=GPa)
#
#
# Indices 1 2 3 4 5 6 
#
# 1 86.2131 41.8085 51.8598 -0.0003 -24.6104 -0.0005
# 2 41.8085 73.8270 50.6507 -0.0057 -10.7958 0.0002
# 3 51.8598 50.6507 132.3345 -0.0064 -13.6688 -0.0023
# 4 -0.0003 -0.0057 -0.0064 18.1201 0.0003 -16.4544
# 5 -24.6104 -10.7958 -13.6688 0.0003 24.1209 -0.0003
# 6 -0.0005 0.0002 -0.0023 -16.4544 -0.0003 14.2488
#
#
#
# Elastic Compliance Matrix: (Units=1/GPa)
#
#
# Indices 1 2 3 4 5 6 
#
# 1 0.022745 -0.007389 -0.004281 0.000066 0.017474 0.000076
# 2 -0.007389 0.021241 -0.005344 -0.000070 -0.001060 -0.000082
# 3 -0.004281 -0.005344 0.011239 -0.000077 -0.000390 -0.000088
# 4 0.000066 -0.000070 -0.000077 -1.134624 -0.000008 -1.310254
# 5 0.017474 -0.001060 -0.000390 -0.000008 0.058591 -0.000008
# 6 0.000076 -0.000082 -0.000088 -1.310254 -0.000008 -1.442888
#
#
# Mechanical properties :
#
#
# Convention : Reuss Voigt Hill
#
# Bulk Modulus (GPa) = 47.17223 64.55695 55.86459
# Shear Modulus (GPa) = -2.06390 21.16833 9.55222
#
# Velocity S-wave (km/s) = -1.07361 3.43832 2.30970
# Velocity P-wave (km/s) = 4.98074 7.19836 6.18967
#
# Compressibility (1/GPa) = 0.02119891
#
# Stress axis : x y z
#
# Youngs Moduli (GPa) = 43.96486 47.07956 88.97479
#
# Poissons Ratio (x) = 0.34786 0.38087
# Poissons Ratio (y) = 0.32484 0.47546
# Poissons Ratio (z) = 0.18820 0.25158
#
# Static dielectric constant tensor:
#      x y z
#    x 1.594350 0.000000 -0.010440 
#    y 0.000000 1.600360 0.000000 
#    z -0.010440 0.000000 1.610140 
# 
# From -- ./inp_files/295374.got.cif
#   From: 2010.05.17/outbox.cif.g08.bks.cpg/sg12_148_cif.got.tgz:295374.got - 2010.06.03 13:09:07.
