data_PCOD9186755
_publ_section_title
;
Structure prediction by ZEFSAII (Michael W. Deem and Ramdas Pophale) SiO2 
 PCOD9186755
Probable space group: C 2/M
;
_chemical_formula_sum "Si O2"
_cell_formula_units_Z 64
_cell_length_a 30.159395
_cell_length_b 9.471234
_cell_length_c 16.761378
_cell_angle_alpha 90.000000
_cell_angle_beta 133.690405
_cell_angle_gamma 90.000000
_cell_volume 3461.999204
_symmetry_space_group_name_H-M "C 2/M"
_symmetry_group_IT_number 12
_symmetry_cell_setting 'monoclinic'
loop_
_space_group_symop_operation_xyz
x,y,z
-x,y,-z
-x,-y,-z
x,-y,z
1/2+x,1/2+y,z
1/2-x,1/2+y,-z
1/2-x,1/2-y,-z
1/2+x,1/2-y,z
loop_
_atom_site_type_symbol
_atom_site_label
_atom_site_fract_x
_atom_site_fract_y
_atom_site_fract_z
Si Si1 0.614643 0.350575 0.938249
Si Si2 0.173869 0.838139 0.186380
Si Si3 0.221318 0.839874 0.748939
Si Si4 0.937491 0.329848 0.870326
Si Si5 0.100996 0.664852 0.643477
Si Si6 0.508884 0.835161 0.378865
Si Si7 0.793781 0.652558 0.004736
Si Si8 0.028875 0.836740 0.244607
O O1 0.628422 0.500000 0.913494
O O2 0.639828 0.220449 0.920488
O O3 0.543321 0.342328 0.865241
O O4 0.649685 0.350971 0.065526
O O5 0.238768 0.756227 0.262044
O O6 0.121682 0.744577 0.163901
O O7 0.178626 0.000000 0.223171
O O8 0.159757 0.761833 0.701198
O O9 0.209496 0.000000 0.704880
O O10 0.264065 0.854506 0.880279
O O11 0.930814 0.500000 0.858675
O O12 0.943074 0.259679 0.789968
O O13 0.000000 0.301110 0.000000
O O14 0.118736 0.500000 0.676148
O O15 0.058313 0.671616 0.511632
O O16 0.056045 0.706158 0.660807
O O17 0.530008 0.737071 0.332453
O O18 0.504248 0.000000 0.347850
O O19 0.796833 0.500000 0.045770
O O20 0.750000 0.750000 0.000000
O O21 0.051337 0.000000 0.273058
#
# Coordination Sequence:
#
# PCOD9186755 Si02
#       8
#     8   8   8   8   8   8   8   8
#     4   9  19  33  48  70 104 141 179 219 260 313
#     4  10  19  35  56  77 107 145 185 224 265 319
#     4  10  21  35  53  79 108 139 182 228 272 325
#     4  11  22  35  55  81 112 149 187 227 273 323
#     4   9  19  38  61  82 108 145 185 227 280 333
#     4   9  20  38  58  83 112 142 184 232 276 330
#     4  10  21  33  46  68 102 141 179 220 263 316
#     4  11  22  35  54  81 112 146 183 226 276 326
#
# _framework density 18.486429000000001
#
# number of rings (size 3 to 8) (size 9 to 14) (size 15 to 20)
#    0.000    2.125    1.250    2.625    1.750    4.500 
#    0.000    1.250    0.000    0.750    0.000    0.000 
#    0.000    0.000    0.000    0.000    0.000    0.000 
#
# Total GULP energy -178403.127651 kJ/mol
# GULP energy per Si atom -5575.097739 kJ/mol
# Density = 1.844435 g / cm^3
# Si number density = 18.486429 Si / 1000 Ang^3
#
#
#
# Elastic Constant Matrix: (Units=GPa)
#
#
# Indices 1 2 3 4 5 6 
#
# 1 89.9820 72.6236 18.0786 0.0000 -3.8562 0.0000
# 2 72.6236 151.0692 25.2962 0.0000 -7.8163 0.0000
# 3 18.0786 25.2962 40.7780 0.0000 -2.4153 0.0000
# 4 0.0000 0.0000 0.0000 20.6724 0.0000 -3.4080
# 5 -3.8562 -7.8163 -2.4153 0.0000 26.6229 0.0000
# 6 0.0000 0.0000 0.0000 -3.4080 0.0000 31.3780
#
#
#
# Elastic Compliance Matrix: (Units=1/GPa)
#
#
# Indices 1 2 3 4 5 6 
#
# 1 0.018481 -0.008386 -0.002995 0.000000 -0.000057 0.000000
# 2 -0.008386 0.011275 -0.003170 0.000000 0.001808 0.000000
# 3 -0.002995 -0.003170 0.027886 0.000000 0.001166 0.000000
# 4 0.000000 0.000000 0.000000 0.049256 0.000000 0.005350
# 5 -0.000057 0.001808 0.001166 0.000000 0.038190 0.000000
# 6 0.000000 0.000000 0.000000 0.005350 0.000000 0.032451
#
#
# Mechanical properties :
#
#
# Convention : Reuss Voigt Hill
#
# Bulk Modulus (GPa) = 35.03627 57.09176 46.06402
# Shear Modulus (GPa) = 23.13197 26.79005 24.96101
#
# Velocity S-wave (km/s) = 3.54120 3.81093 3.67854
# Velocity P-wave (km/s) = 5.97610 7.09326 6.55851
#
# Compressibility (1/GPa) = 0.02854185
#
# Stress axis : x y z
#
# Youngs Moduli (GPa) = 54.11097 88.69179 35.86044
#
# Poissons Ratio (x) = 0.74374 0.10739
# Poissons Ratio (y) = 0.45376 0.11366
# Poissons Ratio (z) = 0.16204 0.28111
#
# Static dielectric constant tensor:
#      x y z
#    x 1.645190 0.000000 -0.006140 
#    y 0.000000 1.686440 0.000000 
#    z -0.006140 0.000000 1.636450 
# 
# From -- ./inp_files/250001.got.cif
#   From: 2010.05.17/outbox.cif.g08.bks.cpg/sg12_126_cif.got.tgz:250001.got - 2010.06.03 13:09:07.
