data_PCOD9186467
_publ_section_title
;
Structure prediction by ZEFSAII (Michael W. Deem and Ramdas Pophale) SiO2 
 PCOD9186467
Probable space group: C 2/M
;
_chemical_formula_sum "Si O2"
_cell_formula_units_Z 40
_cell_length_a 14.049911
_cell_length_b 25.490028
_cell_length_c 9.741527
_cell_angle_alpha 90.000000
_cell_angle_beta 153.212372
_cell_angle_gamma 90.000000
_cell_volume 1572.330460
_symmetry_space_group_name_H-M "C 2/M"
_symmetry_group_IT_number 12
_symmetry_cell_setting 'monoclinic'
loop_
_space_group_symop_operation_xyz
x,y,z
-x,y,-z
-x,-y,-z
x,-y,z
1/2+x,1/2+y,z
1/2-x,1/2+y,-z
1/2-x,1/2-y,-z
1/2+x,1/2-y,z
loop_
_atom_site_type_symbol
_atom_site_label
_atom_site_fract_x
_atom_site_fract_y
_atom_site_fract_z
Si Si1 0.723467 0.555754 0.714109
Si Si2 0.249942 0.832365 0.786766
Si Si3 0.248260 0.717892 0.798341
Si Si4 0.319944 0.671169 0.615994
Si Si5 0.206384 0.943011 0.362052
O O1 0.500000 0.553817 0.500000
O O2 0.831429 0.500000 0.881216
O O3 0.832099 0.608081 0.913357
O O4 0.679183 0.558163 0.493635
O O5 0.310194 0.776553 0.930216
O O6 0.276155 0.826101 0.657221
O O7 0.000000 0.835608 0.500000
O O8 0.272358 0.715637 0.664586
O O9 0.000000 0.708009 0.500000
O O10 0.424458 0.676410 0.076503
O O11 0.236597 0.618262 0.583459
O O12 0.314076 0.000000 0.470192
O O13 0.000000 0.945798 0.000000
#
# Coordination Sequence:
#
# PCOD9186467 Si02
#       5
#     8   8   8   8   8
#     4   8  14  25  42  67  96 122 155 200 243 287
#     4   9  18  30  48  73  98 127 165 200 239 294
#     4  10  20  32  49  72  98 131 165 198 241 287
#     4  10  19  35  51  70 101 131 159 202 248 285
#     4   9  15  26  48  71  91 123 161 197 243 289
#
# _framework density 25.439945999999999
#
# number of rings (size 3 to 8) (size 9 to 14) (size 15 to 20)
#    0.000    2.800    2.000    0.600    0.000    3.200 
#    0.000    0.000    0.000    2.400    0.000    2.800 
#    0.000   35.200    0.000    6.400    0.000    0.200 
#
# Total GULP energy -111348.418433 kJ/mol
# GULP energy per Si atom -5567.420922 kJ/mol
# Density = 2.538204 g / cm^3
# Si number density = 25.439946 Si / 1000 Ang^3
#
#
#
# Elastic Constant Matrix: (Units=GPa)
#
#
# Indices 1 2 3 4 5 6 
#
# 1 50.0462 -4.6694 22.2573 0.0001 9.1920 0.0000
# 2 -4.6694 230.8738 22.5382 0.0000 3.0683 0.0000
# 3 22.2573 22.5382 147.0489 0.0001 -2.3709 -0.0001
# 4 0.0001 0.0000 0.0001 -9.1184 0.0001 -4.7289
# 5 9.1920 3.0683 -2.3709 0.0001 38.6789 0.0000
# 6 0.0000 0.0000 -0.0001 -4.7289 0.0000 26.2018
#
#
#
# Elastic Compliance Matrix: (Units=1/GPa)
#
#
# Indices 1 2 3 4 5 6 
#
# 1 0.022745 0.000894 -0.003672 0.000000 -0.005701 0.000000
# 2 0.000894 0.004438 -0.000826 0.000000 -0.000615 0.000000
# 3 -0.003672 -0.000826 0.007505 0.000000 0.001398 0.000000
# 4 0.000000 0.000000 0.000000 -0.100282 0.000000 -0.018099
# 5 -0.005701 -0.000615 0.001398 0.000000 0.027343 0.000000
# 6 0.000000 0.000000 0.000000 -0.018099 0.000000 0.034899
#
#
# Mechanical properties :
#
#
# Convention : Reuss Voigt Hill
#
# Bulk Modulus (GPa) = 36.38666 56.46901 46.42783
# Shear Modulus (GPa) = 384.16569 37.00865 210.58717
#
# Velocity S-wave (km/s) = 12.30190 3.81825 9.10812
# Velocity P-wave (km/s) = 14.70089 6.45631 11.35342
#
# Compressibility (1/GPa) = 0.02748260
#
# Stress axis : x y z
#
# Youngs Moduli (GPa) = 43.96564 225.31554 133.23968
#
# Poissons Ratio (x) = -0.20148 0.48921
# Poissons Ratio (y) = -0.03931 0.10999
# Poissons Ratio (z) = 0.16143 0.18600
#
# Static dielectric constant tensor:
#      x y z
#    x 1.976040 0.000000 0.084030 
#    y 0.000000 2.149760 0.000000 
#    z 0.084030 0.000000 2.140600 
# 
# From -- ./inp_files/148792.got.cif
#   From: 2010.05.17/outbox.cif.g08.bks.cpg/sg12_75_cif.got.tgz:148792.got - 2010.06.03 13:09:07.
