data_PCOD9186675
_publ_section_title
;
Structure prediction by ZEFSAII (Michael W. Deem and Ramdas Pophale) SiO2 
 PCOD9186675
Probable space group: C 2/M
;
_chemical_formula_sum "Si O2"
_cell_formula_units_Z 56
_cell_length_a 27.966016
_cell_length_b 21.801319
_cell_length_c 5.139731
_cell_angle_alpha 90.000000
_cell_angle_beta 63.365101
_cell_angle_gamma 90.000000
_cell_volume 2801.132371
_symmetry_space_group_name_H-M "C 2/M"
_symmetry_group_IT_number 12
_symmetry_cell_setting 'monoclinic'
loop_
_space_group_symop_operation_xyz
x,y,z
-x,y,-z
-x,-y,-z
x,-y,z
1/2+x,1/2+y,z
1/2-x,1/2+y,-z
1/2-x,1/2-y,-z
1/2+x,1/2-y,z
loop_
_atom_site_type_symbol
_atom_site_label
_atom_site_fract_x
_atom_site_fract_y
_atom_site_fract_z
Si Si1 0.620560 0.352881 0.648486
Si Si2 0.305650 0.431953 0.791641
Si Si3 0.329423 0.852303 0.499891
Si Si4 0.687417 0.929621 0.945888
Si Si5 0.623605 0.243960 0.268606
Si Si6 0.463893 0.711916 0.840043
Si Si7 0.789010 0.185676 0.201328
O O1 0.640606 0.418171 0.500793
O O2 0.607219 0.307691 0.445045
O O3 0.572782 0.344815 0.968503
O O4 0.674758 0.323365 0.634268
O O5 0.305972 0.500000 0.908480
O O6 0.251895 0.428494 0.747752
O O7 0.300336 0.376307 0.007118
O O8 0.338969 0.885418 0.202960
O O9 0.372783 0.807908 0.524002
O O10 0.320537 0.903940 0.744172
O O11 0.274064 0.813807 0.604406
O O12 0.669831 0.000000 0.965629
O O13 0.579998 0.237837 0.147867
O O14 0.683019 0.256850 0.010074
O O15 0.500000 0.699176 0.500000
O O16 0.500000 0.730380 0.000000
#
# Coordination Sequence:
#
# PCOD9186675 Si02
#       7
#     8   8   8   8   8   8   8
#     4  10  19  35  55  81 108 142 191 225 280 330
#     4   9  18  33  51  76 109 152 201 232 255 311
#     4  11  21  34  54  79 118 151 184 224 262 321
#     4  10  21  35  52  77 115 160 193 219 257 306
#     4  10  22  34  56  84 110 142 184 223 285 338
#     4  11  22  39  59  78 108 143 176 232 293 345
#     4   9  19  32  47  81 114 151 181 223 274 320
#
# _framework density 19.991917000000001
#
# number of rings (size 3 to 8) (size 9 to 14) (size 15 to 20)
#    0.000    2.000    2.857    0.857    4.000    1.714 
#    0.000    0.000    0.000    0.857    0.000    0.000 
#    0.000   11.429    0.000    0.000    0.000    0.000 
#
# Total GULP energy -156161.102199 kJ/mol
# GULP energy per Si atom -5577.182221 kJ/mol
# Density = 1.994641 g / cm^3
# Si number density = 19.991917 Si / 1000 Ang^3
#
#
#
# Elastic Constant Matrix: (Units=GPa)
#
#
# Indices 1 2 3 4 5 6 
#
# 1 87.4578 22.4656 10.2532 0.0000 24.9635 0.0000
# 2 22.4656 63.3831 7.7337 0.0000 3.8090 0.0000
# 3 10.2532 7.7337 72.1673 0.0000 7.6156 0.0000
# 4 0.0000 0.0000 0.0000 19.4829 0.0000 5.3006
# 5 24.9635 3.8090 7.6156 0.0000 33.9754 0.0000
# 6 0.0000 0.0000 0.0000 5.3006 0.0000 11.6241
#
#
#
# Elastic Compliance Matrix: (Units=1/GPa)
#
#
# Indices 1 2 3 4 5 6 
#
# 1 0.015903 -0.004905 -0.000572 0.000000 -0.011006 0.000000
# 2 -0.004905 0.017569 -0.001391 0.000000 0.001946 0.000000
# 3 -0.000572 -0.001391 0.014366 0.000000 -0.002644 0.000000
# 4 0.000000 0.000000 0.000000 0.058596 0.000000 -0.026720
# 5 -0.011006 0.001946 -0.002644 0.000000 0.037894 0.000000
# 6 0.000000 0.000000 0.000000 -0.026720 0.000000 0.098212
#
#
# Mechanical properties :
#
#
# Convention : Reuss Voigt Hill
#
# Bulk Modulus (GPa) = 29.32567 33.76813 31.54690
# Shear Modulus (GPa) = 18.68148 25.18688 21.93418
#
# Velocity S-wave (km/s) = 3.06020 3.55329 3.31592
# Velocity P-wave (km/s) = 5.21412 5.81051 5.52038
#
# Compressibility (1/GPa) = 0.03409982
#
# Stress axis : x y z
#
# Youngs Moduli (GPa) = 62.88187 56.91997 69.60852
#
# Poissons Ratio (x) = 0.27921 0.03983
# Poissons Ratio (y) = 0.30846 0.09684
# Poissons Ratio (z) = 0.03598 0.07919
#
# Static dielectric constant tensor:
#      x y z
#    x 1.747890 0.000000 0.005010 
#    y 0.000000 1.724850 0.000000 
#    z 0.005010 0.000000 1.807660 
# 
# From -- ./inp_files/25413.got.cif
#   From: 2010.05.17/outbox.cif.g08.bks.cpg/sg12_13_cif.got.tgz:25413.got - 2010.06.03 13:09:07.
