data_PCOD9186958
_publ_section_title
;
Structure prediction by ZEFSAII (Michael W. Deem and Ramdas Pophale) SiO2 
 PCOD9186958
Probable space group: C 2/M
;
_chemical_formula_sum "Si O2"
_cell_formula_units_Z 56
_cell_length_a 14.544214
_cell_length_b 28.819418
_cell_length_c 14.054426
_cell_angle_alpha 90.000000
_cell_angle_beta 151.248959
_cell_angle_gamma 90.000000
_cell_volume 2833.595757
_symmetry_space_group_name_H-M "C 2/M"
_symmetry_group_IT_number 12
_symmetry_cell_setting 'monoclinic'
loop_
_space_group_symop_operation_xyz
x,y,z
-x,y,-z
-x,-y,-z
x,-y,z
1/2+x,1/2+y,z
1/2-x,1/2+y,-z
1/2-x,1/2-y,-z
1/2+x,1/2-y,z
loop_
_atom_site_type_symbol
_atom_site_label
_atom_site_fract_x
_atom_site_fract_y
_atom_site_fract_z
Si Si1 0.486631 0.883358 0.843287
Si Si2 0.611212 0.945373 0.413244
Si Si3 0.070682 0.302111 0.779273
Si Si4 0.907212 0.118888 0.762177
Si Si5 0.968570 0.198796 0.256051
Si Si6 0.803773 0.379462 0.228927
Si Si7 0.673004 0.629170 0.718325
O O1 0.430154 0.928111 0.731315
O O2 0.476976 0.840150 0.762513
O O3 0.338742 0.868176 0.790075
O O4 0.700100 0.891371 0.079335
O O5 0.818570 0.924760 0.627422
O O6 0.456267 0.919055 0.340102
O O7 0.599966 0.000000 0.414430
O O8 0.973327 0.252350 0.679515
O O9 0.105916 0.329649 0.714071
O O10 0.276595 0.297173 0.017898
O O11 0.780863 0.122717 0.742794
O O12 0.902007 0.163708 0.688422
O O13 0.123682 0.113007 0.994703
O O14 0.916960 0.174307 0.310043
O O15 0.500000 0.606952 0.500000
#
# Coordination Sequence:
#
# PCOD9186958 Si02
#       7
#     8   8   8   8   8   8   8
#     4   9  20  37  57  79 110 147 183 231 283 330
#     4  11  23  40  61  83 108 143 190 242 295 349
#     4   8  16  33  54  82 116 151 186 223 268 323
#     4  10  20  36  58  84 117 154 188 231 283 337
#     4   9  17  31  56  83 113 151 187 221 268 328
#     4   9  20  37  56  83 120 153 187 233 283 334
#     4  10  19  35  57  80 109 146 185 226 276 331
#
# _framework density 19.762875000000001
#
# number of rings (size 3 to 8) (size 9 to 14) (size 15 to 20)
#    0.000    2.571    0.000    2.143    0.000    2.857 
#    0.000   17.857    0.000    4.286    0.000    0.000 
#    0.000    0.000    0.000    0.000    0.000    0.000 
#
# Total GULP energy -155887.493544 kJ/mol
# GULP energy per Si atom -5567.410484 kJ/mol
# Density = 1.971789 g / cm^3
# Si number density = 19.762875 Si / 1000 Ang^3
#
#
#
# Elastic Constant Matrix: (Units=GPa)
#
#
# Indices 1 2 3 4 5 6 
#
# 1 79.6125 42.5921 23.1532 0.0000 -2.7729 0.0000
# 2 42.5921 142.3242 41.5884 0.0000 3.4415 0.0000
# 3 23.1532 41.5884 128.3310 0.0001 -4.6231 0.0000
# 4 0.0000 0.0000 0.0001 19.0797 0.0000 6.9654
# 5 -2.7729 3.4415 -4.6231 0.0000 16.7134 0.0000
# 6 0.0000 0.0000 0.0000 6.9654 0.0000 11.5069
#
#
#
# Elastic Compliance Matrix: (Units=1/GPa)
#
#
# Indices 1 2 3 4 5 6 
#
# 1 0.015333 -0.004294 -0.001264 0.000000 0.003078 0.000000
# 2 -0.004294 0.009053 -0.002275 0.000000 -0.003206 0.000000
# 3 -0.001264 -0.002275 0.008855 0.000000 0.002708 0.000000
# 4 0.000000 0.000000 0.000000 0.067280 0.000000 -0.040726
# 5 0.003078 -0.003206 0.002708 0.000000 0.061752 0.000000
# 6 0.000000 0.000000 0.000000 -0.040726 0.000000 0.111556
#
#
# Mechanical properties :
#
#
# Convention : Reuss Voigt Hill
#
# Bulk Modulus (GPa) = 56.89409 62.77059 59.83234
# Shear Modulus (GPa) = 16.92891 25.65561 21.29226
#
# Velocity S-wave (km/s) = 2.92995 3.60692 3.28592
# Velocity P-wave (km/s) = 6.34799 7.01266 6.68859
#
# Compressibility (1/GPa) = 0.01757652
#
# Stress axis : x y z
#
# Youngs Moduli (GPa) = 65.22020 110.45644 112.92873
#
# Poissons Ratio (x) = 0.47425 0.14274
# Poissons Ratio (y) = 0.28003 0.25689
# Poissons Ratio (z) = 0.08244 0.25126
#
# Static dielectric constant tensor:
#      x y z
#    x 1.741490 0.000000 0.010340 
#    y 0.000000 1.657520 0.000000 
#    z 0.010340 0.000000 1.791620 
# 
# From -- ./inp_files/219152.got.cif
#   From: 2010.05.17/outbox.cif.g08.bks.cpg/sg12_110_cif.got.tgz:219152.got - 2010.06.03 13:09:07.
