data_PCOD9186672
_publ_section_title
;
Structure prediction by ZEFSAII (Michael W. Deem and Ramdas Pophale) SiO2 
 PCOD9186672
Probable space group: C 2/M
;
_chemical_formula_sum "Si O2"
_cell_formula_units_Z 56
_cell_length_a 12.191973
_cell_length_b 15.764810
_cell_length_c 15.533325
_cell_angle_alpha 90.000000
_cell_angle_beta 101.828519
_cell_angle_gamma 90.000000
_cell_volume 2922.172207
_symmetry_space_group_name_H-M "C 2/M"
_symmetry_group_IT_number 12
_symmetry_cell_setting 'monoclinic'
loop_
_space_group_symop_operation_xyz
x,y,z
-x,y,-z
-x,-y,-z
x,-y,z
1/2+x,1/2+y,z
1/2-x,1/2+y,-z
1/2-x,1/2-y,-z
1/2+x,1/2-y,z
loop_
_atom_site_type_symbol
_atom_site_label
_atom_site_fract_x
_atom_site_fract_y
_atom_site_fract_z
Si Si1 0.646073 0.288357 0.532535
Si Si2 0.694045 0.899408 0.339229
Si Si3 0.240622 0.399908 0.149430
Si Si4 0.042397 0.780975 0.832347
Si Si5 0.992633 0.727141 0.632248
Si Si6 0.315997 0.164046 0.032911
Si Si7 0.598703 0.405015 0.088113
O O1 0.750000 0.250000 0.500000
O O2 0.692420 0.364919 0.597629
O O3 0.601343 0.215230 0.590552
O O4 0.562487 0.299952 0.437966
O O5 0.696309 0.877169 0.237501
O O6 0.591235 0.850880 0.368418
O O7 0.684551 0.000000 0.345677
O O8 0.264000 0.500000 0.152808
O O9 0.355080 0.348418 0.150497
O O10 0.160628 0.378755 0.055459
O O11 0.081707 0.698566 0.893194
O O12 0.022547 0.757511 0.731031
O O13 0.934905 0.828502 0.854471
O O14 0.222252 0.109262 0.068458
O O15 0.250000 0.250000 0.000000
O O16 0.592840 0.500000 0.124876
O O17 0.500000 0.400704 0.000000
#
# Coordination Sequence:
#
# PCOD9186672 Si02
#       7
#     8   8   8   8   8   8   8
#     4   9  19  39  62  87 113 151 187 233 292 348
#     4  10  21  38  61  88 120 155 193 238 295 350
#     4  10  19  35  55  80 116 156 192 239 291 334
#     4  11  22  34  58  86 114 152 204 240 286 351
#     4  10  21  37  62  87 117 150 194 241 288 351
#     4  10  21  33  52  84 115 153 197 244 287 338
#     4  11  21  35  55  80 112 151 197 248 292 336
#
# _framework density 19.163824999999999
#
# number of rings (size 3 to 8) (size 9 to 14) (size 15 to 20)
#    0.000    1.857    4.286    0.857    4.000    0.000 
#    0.000   10.000    0.000    1.714    0.000    0.000 
#    0.000    0.000    0.000    0.000    0.000    0.000 
#
# Total GULP energy -155916.116870 kJ/mol
# GULP energy per Si atom -5568.432745 kJ/mol
# Density = 1.912021 g / cm^3
# Si number density = 19.163825 Si / 1000 Ang^3
#
#
#
# Elastic Constant Matrix: (Units=GPa)
#
#
# Indices 1 2 3 4 5 6 
#
# 1 58.4538 34.1903 47.2345 0.0000 -16.5831 0.0000
# 2 34.1903 73.0167 47.9844 0.0000 -2.1513 0.0000
# 3 47.2345 47.9844 159.3616 0.0000 4.3936 0.0000
# 4 0.0000 0.0000 0.0000 22.4279 0.0000 -3.6779
# 5 -16.5831 -2.1513 4.3936 0.0000 30.1484 0.0000
# 6 0.0000 0.0000 0.0000 -3.6779 0.0000 27.4672
#
#
#
# Elastic Compliance Matrix: (Units=1/GPa)
#
#
# Indices 1 2 3 4 5 6 
#
# 1 0.035345 -0.010876 -0.007747 0.000000 0.019794 0.000000
# 2 -0.010876 0.020539 -0.002848 0.000000 -0.004102 0.000000
# 3 -0.007747 -0.002848 0.009590 0.000000 -0.005862 0.000000
# 4 0.000000 0.000000 0.000000 0.045588 0.000000 0.006104
# 5 0.019794 -0.004102 -0.005862 0.000000 0.044619 0.000000
# 6 0.000000 0.000000 0.000000 0.006104 0.000000 0.037224
#
#
# Mechanical properties :
#
#
# Convention : Reuss Voigt Hill
#
# Bulk Modulus (GPa) = 44.38040 61.07229 52.72634
# Shear Modulus (GPa) = 20.54598 26.77024 23.65811
#
# Velocity S-wave (km/s) = 3.27788 3.74159 3.51738
# Velocity P-wave (km/s) = 6.12656 7.11363 6.63846
#
# Compressibility (1/GPa) = 0.02253247
#
# Stress axis : x y z
#
# Youngs Moduli (GPa) = 28.29291 48.68863 104.27234
#
# Poissons Ratio (x) = 0.52953 0.80780
# Poissons Ratio (y) = 0.30771 0.29692
# Poissons Ratio (z) = 0.21919 0.13864
#
# Static dielectric constant tensor:
#      x y z
#    x 1.870410 0.000000 0.014610 
#    y 0.000000 1.649360 0.000000 
#    z 0.014610 0.000000 1.698990 
# 
# From -- ./inp_files/204996.got.cif
#   From: 2010.05.17/outbox.cif.g08.bks.cpg/sg12_103_cif.got.tgz:204996.got - 2010.06.03 13:09:07.
