data_PCOD9186248
_publ_section_title
;
Structure prediction by ZEFSAII (Michael W. Deem and Ramdas Pophale) SiO2 
 PCOD9186248
Probable space group: C 2/M
;
_chemical_formula_sum "Si O2"
_cell_formula_units_Z 48
_cell_length_a 18.661380
_cell_length_b 13.607385
_cell_length_c 19.688538
_cell_angle_alpha 90.000000
_cell_angle_beta 151.931830
_cell_angle_gamma 90.000000
_cell_volume 2352.402347
_symmetry_space_group_name_H-M "C 2/M"
_symmetry_group_IT_number 12
_symmetry_cell_setting 'monoclinic'
loop_
_space_group_symop_operation_xyz
x,y,z
-x,y,-z
-x,-y,-z
x,-y,z
1/2+x,1/2+y,z
1/2-x,1/2+y,-z
1/2-x,1/2-y,-z
1/2+x,1/2-y,z
loop_
_atom_site_type_symbol
_atom_site_label
_atom_site_fract_x
_atom_site_fract_y
_atom_site_fract_z
Si Si1 0.531593 0.386421 0.646275
Si Si2 0.225406 0.716232 0.353850
Si Si3 0.690301 0.688196 0.034753
Si Si4 0.332409 0.780428 0.850284
Si Si5 0.581049 0.114173 0.873633
Si Si6 0.436302 0.389509 0.721503
O O1 0.511417 0.500000 0.611637
O O2 0.393948 0.324410 0.499974
O O3 0.693170 0.349519 0.754917
O O4 0.512987 0.376847 0.712097
O O5 0.187975 0.745566 0.245211
O O6 0.192816 0.809028 0.374394
O O7 0.098407 0.635419 0.269280
O O8 0.673045 0.690294 0.100912
O O9 0.850020 0.645548 0.141740
O O10 0.660849 0.802338 0.987517
O O11 0.563344 0.630013 0.885571
O O12 0.500000 0.826864 0.000000
O O13 0.615886 0.000000 0.917695
O O14 0.378340 0.500000 0.677472
#
# Coordination Sequence:
#
# PCOD9186248 Si02
#       6
#     8   8   8   8   8   8
#     4  11  25  42  63  93 128 167 207 255 314 372
#     4  11  23  41  63  92 129 165 203 256 313 371
#     4  10  21  38  57  93 127 159 203 261 313 355
#     4  12  23  41  61  88 128 172 205 250 311 373
#     4  10  19  34  60  86 117 158 204 252 303 363
#     4  10  21  40  68  95 123 162 211 260 311 366
#
# _framework density 20.404672000000001
#
# number of rings (size 3 to 8) (size 9 to 14) (size 15 to 20)
#    0.000    1.333    3.333    5.000    0.000    4.333 
#    0.000    2.500    0.000    3.000    0.000    0.000 
#    0.000    0.000    0.000    0.000    0.000    0.000 
#
# Total GULP energy -134062.327413 kJ/mol
# GULP energy per Si atom -5585.930309 kJ/mol
# Density = 2.035823 g / cm^3
# Si number density = 20.404672 Si / 1000 Ang^3
#
#
#
# Elastic Constant Matrix: (Units=GPa)
#
#
# Indices 1 2 3 4 5 6 
#
# 1 115.3530 21.2538 32.4026 0.0000 12.8366 0.0001
# 2 21.2538 53.8560 0.6872 0.0000 -2.6227 0.0000
# 3 32.4026 0.6872 80.4410 0.0000 15.1812 0.0001
# 4 0.0000 0.0000 0.0000 9.9158 0.0000 5.0306
# 5 12.8366 -2.6227 15.1812 0.0000 33.1858 0.0001
# 6 0.0001 0.0000 0.0001 5.0306 0.0001 6.4514
#
#
#
# Elastic Compliance Matrix: (Units=1/GPa)
#
#
# Indices 1 2 3 4 5 6 
#
# 1 0.010856 -0.004372 -0.003806 0.000000 -0.002803 0.000000
# 2 -0.004372 0.020417 0.001054 0.000000 0.002823 0.000000
# 3 -0.003806 0.001054 0.014953 0.000000 -0.005285 0.000000
# 4 0.000000 0.000000 0.000000 0.166857 0.000000 -0.130109
# 5 -0.002803 0.002823 -0.005285 0.000000 0.033858 0.000000
# 6 0.000000 0.000000 0.000000 -0.130109 0.000000 0.256459
#
#
# Mechanical properties :
#
#
# Convention : Reuss Voigt Hill
#
# Bulk Modulus (GPa) = 31.27214 39.81524 35.54369
# Shear Modulus (GPa) = 9.46415 22.93104 16.19760
#
# Velocity S-wave (km/s) = 2.15599 3.35597 2.82053
# Velocity P-wave (km/s) = 4.64295 5.87979 5.29759
#
# Compressibility (1/GPa) = 0.03197734
#
# Stress axis : x y z
#
# Youngs Moduli (GPa) = 92.11678 48.97767 66.87573
#
# Poissons Ratio (x) = 0.21414 0.25456
# Poissons Ratio (y) = 0.40274 -0.07049
# Poissons Ratio (z) = 0.35064 -0.05162
#
# Static dielectric constant tensor:
#      x y z
#    x 1.766140 0.000000 -0.008800 
#    y 0.000000 1.699590 0.000000 
#    z -0.008800 0.000000 1.756990 
# 
# From -- ./inp_files/278232.got.cif
#   From: 2010.05.17/outbox.cif.g08.bks.cpg/sg12_140_cif.got.tgz:278232.got - 2010.06.03 13:09:07.
