data_PCOD9186350
_publ_section_title
;
Structure prediction by ZEFSAII (Michael W. Deem and Ramdas Pophale) SiO2 
 PCOD9186350
Probable space group: C 2/M
;
_chemical_formula_sum "Si O2"
_cell_formula_units_Z 58
_cell_length_a 14.098299
_cell_length_b 11.938515
_cell_length_c 17.599294
_cell_angle_alpha 90.000000
_cell_angle_beta 101.320919
_cell_angle_gamma 90.000000
_cell_volume 2904.550552
_symmetry_space_group_name_H-M "C 2/M"
_symmetry_group_IT_number 12
_symmetry_cell_setting 'monoclinic'
loop_
_space_group_symop_operation_xyz
x,y,z
-x,y,-z
-x,-y,-z
x,-y,z
1/2+x,1/2+y,z
1/2-x,1/2+y,-z
1/2-x,1/2-y,-z
1/2+x,1/2-y,z
loop_
_atom_site_type_symbol
_atom_site_label
_atom_site_fract_x
_atom_site_fract_y
_atom_site_fract_z
Si Si1 0.354674 0.630008 0.577834
Si Si2 0.500000 0.000000 0.500000
Si Si3 0.604094 0.756119 0.813505
Si Si4 0.691759 0.627710 0.691002
Si Si5 0.702028 0.370342 0.137023
Si Si6 0.891100 0.256989 0.737440
Si Si7 0.867329 0.702184 0.447518
Si Si8 0.398397 0.629872 0.028492
O O1 0.379100 0.500000 0.568120
O O2 0.386057 0.670263 0.666434
O O3 0.238455 0.647219 0.553569
O O4 0.394786 0.718409 0.523008
O O5 0.438259 0.099387 0.447362
O O6 0.646553 0.659594 0.764980
O O7 0.685992 0.850751 0.826958
O O8 0.500527 0.795669 0.766644
O O9 0.596378 0.705112 0.896360
O O10 0.672476 0.500000 0.667014
O O11 0.807386 0.651622 0.709023
O O12 0.645898 0.715242 0.625171
O O13 0.674823 0.500000 0.137308
O O14 0.641555 0.303811 0.190210
O O15 0.678338 0.332779 0.047601
O O16 0.378772 0.500000 0.046595
O O17 0.500000 0.632862 0.000000
#
# Coordination Sequence:
#
# PCOD9186350 Si02
#       8
#     8   2   8   8   8   8   8   8
#     4  10  20  40  63  88 119 162 207 247 301 364
#     4  12  24  44  62  92 128 150 206 256 312 372
#     4  11  22  38  60  90 122 159 205 252 313 360
#     4  10  23  43  62  89 127 162 210 256 308 369
#     4  10  21  38  59  87 121 158 206 254 304 369
#     4  10  22  38  59  90 121 163 201 252 318 355
#     4  10  23  41  63  90 121 164 197 253 306 358
#     4  10  19  34  61  88 116 158 204 253 305 361
#
# _framework density 19.968667
#
# number of rings (size 3 to 8) (size 9 to 14) (size 15 to 20)
#    0.000    1.793    2.069    1.655    1.931    2.207 
#    2.483    0.690    0.000    0.414    0.000    0.000 
#    0.000    0.000    0.000    0.000    0.000    0.000 
#
# Total GULP energy -161699.600966 kJ/mol
# GULP energy per Si atom -5575.848309 kJ/mol
# Density = 1.992322 g / cm^3
# Si number density = 19.968667 Si / 1000 Ang^3
#
#
#
# Elastic Constant Matrix: (Units=GPa)
#
#
# Indices 1 2 3 4 5 6 
#
# 1 80.3817 8.7144 24.2739 0.0000 20.3961 0.0000
# 2 8.7144 100.1979 41.0316 0.0000 0.4071 0.0000
# 3 24.2739 41.0316 77.3607 0.0000 5.8686 0.0000
# 4 0.0000 0.0000 0.0000 17.3404 0.0000 5.9565
# 5 20.3961 0.4071 5.8686 0.0000 29.7288 0.0000
# 6 0.0000 0.0000 0.0000 5.9565 0.0000 11.0363
#
#
#
# Elastic Compliance Matrix: (Units=1/GPa)
#
#
# Indices 1 2 3 4 5 6 
#
# 1 0.016412 0.000513 -0.004637 0.000000 -0.010351 0.000000
# 2 0.000513 0.012806 -0.007019 0.000000 0.000858 0.000000
# 3 -0.004637 -0.007019 0.018127 0.000000 -0.000301 0.000000
# 4 0.000000 0.000000 0.000000 0.070794 0.000000 -0.038209
# 5 -0.010351 0.000858 -0.000301 0.000000 0.040787 0.000000
# 6 0.000000 0.000000 0.000000 -0.038209 0.000000 0.111233
#
#
# Mechanical properties :
#
#
# Convention : Reuss Voigt Hill
#
# Bulk Modulus (GPa) = 39.90228 45.10887 42.50558
# Shear Modulus (GPa) = 16.62261 23.88247 20.25254
#
# Velocity S-wave (km/s) = 2.88832 3.46207 3.18813
# Velocity P-wave (km/s) = 5.58113 6.21451 5.90632
#
# Compressibility (1/GPa) = 0.02506123
#
# Stress axis : x y z
#
# Youngs Moduli (GPa) = 60.93205 78.08702 55.16709
#
# Poissons Ratio (x) = -0.04009 0.25579
# Poissons Ratio (y) = -0.03128 0.38719
# Poissons Ratio (z) = 0.28252 0.54806
#
# Static dielectric constant tensor:
#      x y z
#    x 1.748620 0.000000 0.016790 
#    y 0.000000 1.643760 0.000000 
#    z 0.016790 0.000000 1.711100 
# 
# From -- ./inp_files/268793.got.cif
#   From: 2010.05.17/outbox.cif.g08.bks.cpg/sg12_135_cif.got.tgz:268793.got - 2010.06.03 13:09:07.
