data_PCOD9186092
_publ_section_title
;
Structure prediction by ZEFSAII (Michael W. Deem and Ramdas Pophale) SiO2 
 PCOD9186092
Probable space group: C 2/M
;
_chemical_formula_sum "Si O2"
_cell_formula_units_Z 64
_cell_length_a 30.658835
_cell_length_b 7.519686
_cell_length_c 24.794879
_cell_angle_alpha 90.000000
_cell_angle_beta 28.734844
_cell_angle_gamma 90.000000
_cell_volume 2748.165087
_symmetry_space_group_name_H-M "C 2/M"
_symmetry_group_IT_number 12
_symmetry_cell_setting 'monoclinic'
loop_
_space_group_symop_operation_xyz
x,y,z
-x,y,-z
-x,-y,-z
x,-y,z
1/2+x,1/2+y,z
1/2-x,1/2+y,-z
1/2-x,1/2-y,-z
1/2+x,1/2-y,z
loop_
_atom_site_type_symbol
_atom_site_label
_atom_site_fract_x
_atom_site_fract_y
_atom_site_fract_z
Si Si1 0.991053 0.283697 0.867502
Si Si2 0.503790 0.787069 0.435052
Si Si3 0.666122 0.216920 0.743757
Si Si4 0.362988 0.704107 0.495060
Si Si5 0.486125 0.209143 0.750504
Si Si6 0.128518 0.701189 0.902704
Si Si7 0.284880 0.789385 0.800688
Si Si8 0.189738 0.712389 0.116336
O O1 0.982506 0.500000 0.875153
O O2 0.091838 0.241605 0.779294
O O3 0.979556 0.218060 0.818521
O O4 0.924216 0.219923 0.988276
O O5 0.500000 0.718970 0.500000
O O6 0.431510 0.714191 0.471536
O O7 0.608429 0.758298 0.307610
O O8 0.487917 0.000000 0.452868
O O9 0.766145 0.281735 0.618549
O O10 0.629769 0.281717 0.841636
O O11 0.671187 0.000000 0.743487
O O12 0.345525 0.500000 0.500461
O O13 0.417615 0.777741 0.384323
O O14 0.409345 0.283412 0.793129
O O15 0.465910 0.000000 0.777095
O O16 0.092878 0.500000 0.935961
O O17 0.233085 0.698122 0.808527
O O18 0.254058 0.722449 0.892658
O O19 0.271203 0.000000 0.806592
O O20 0.180675 0.500000 0.135974
O O21 0.250000 0.750000 0.000000
#
# Coordination Sequence:
#
# PCOD9186092 Si02
#       8
#     8   8   8   8   8   8   8   8
#     4   9  18  34  59  84 107 143 186 231 282 333
#     4  10  20  36  57  78 106 146 186 221 266 331
#     4   9  19  35  55  84 115 140 177 235 291 329
#     4  11  22  35  54  81 116 150 183 231 280 324
#     4  10  20  37  57  78 110 149 192 230 266 329
#     4  10  19  34  59  86 110 139 183 231 277 339
#     4  10  20  34  51  76 111 143 171 213 268 320
#     4  10  20  34  52  76 108 140 176 223 269 319
#
# _framework density 23.288266
#
# number of rings (size 3 to 8) (size 9 to 14) (size 15 to 20)
#    0.000    2.125    1.250    2.250    0.000    4.750 
#    0.000    1.250    0.000    4.500    0.000    0.000 
#    0.000    0.000    0.000    0.000    0.000    0.000 
#
# Total GULP energy -178575.443388 kJ/mol
# GULP energy per Si atom -5580.482606 kJ/mol
# Density = 2.323526 g / cm^3
# Si number density = 23.288266 Si / 1000 Ang^3
#
#
#
# Elastic Constant Matrix: (Units=GPa)
#
#
# Indices 1 2 3 4 5 6 
#
# 1 116.5674 4.4695 23.0298 -0.0037 10.6473 0.0048
# 2 4.4695 46.2106 0.7509 0.0176 -4.5387 0.0477
# 3 23.0298 0.7509 89.9806 -0.0053 5.0024 0.0154
# 4 -0.0037 0.0176 -0.0053 9.6238 -0.0080 3.7975
# 5 10.6473 -4.5387 5.0024 -0.0080 38.1313 -0.0173
# 6 0.0048 0.0477 0.0154 3.7975 -0.0173 -1.9615
#
#
#
# Elastic Compliance Matrix: (Units=1/GPa)
#
#
# Indices 1 2 3 4 5 6 
#
# 1 0.009284 -0.001100 -0.002232 0.000001 -0.002430 0.000002
# 2 -0.001100 0.022036 -0.000066 -0.000135 0.002939 0.000245
# 3 -0.002232 -0.000066 0.011737 -0.000018 -0.000924 0.000058
# 4 0.000001 -0.000135 -0.000018 0.058908 0.000050 0.114044
# 5 -0.002430 0.002939 -0.000924 0.000050 0.027375 -0.000087
# 6 0.000002 0.000245 0.000058 0.114044 -0.000087 -0.289016
#
#
# Mechanical properties :
#
#
# Convention : Reuss Voigt Hill
#
# Bulk Modulus (GPa) = 27.57806 34.36211 30.97008
# Shear Modulus (GPa) = -35.51290 24.12594 -5.69348
#
# Velocity S-wave (km/s) = -3.90927 3.22214 -1.56528
# Velocity P-wave (km/s) = 2.91698 5.35071 3.17185
#
# Compressibility (1/GPa) = 0.03626071
#
# Stress axis : x y z
#
# Youngs Moduli (GPa) = 107.71393 45.38025 85.20321
#
# Poissons Ratio (x) = 0.04994 0.19016
# Poissons Ratio (y) = 0.11853 0.00560
# Poissons Ratio (z) = 0.24040 0.00298
#
# Static dielectric constant tensor:
#      x y z
#    x 1.978490 -0.000040 0.081740 
#    y -0.000040 1.877900 0.000010 
#    z 0.081740 0.000010 2.020660 
# 
# From -- ./inp_files/249866.got.cif
#   From: 2010.05.17/outbox.cif.g08.bks.cpg/sg12_125_cif.got.tgz:249866.got - 2010.06.03 13:09:07.
