data_PCOD9186892
_publ_section_title
;
Structure prediction by ZEFSAII (Michael W. Deem and Ramdas Pophale) SiO2 
 PCOD9186892
Probable space group: C 2/M
;
_chemical_formula_sum "Si O2"
_cell_formula_units_Z 56
_cell_length_a 19.673721
_cell_length_b 8.520330
_cell_length_c 20.008339
_cell_angle_alpha 90.000000
_cell_angle_beta 114.556226
_cell_angle_gamma 90.000000
_cell_volume 3050.579819
_symmetry_space_group_name_H-M "C 2/M"
_symmetry_group_IT_number 12
_symmetry_cell_setting 'monoclinic'
loop_
_space_group_symop_operation_xyz
x,y,z
-x,y,-z
-x,-y,-z
x,-y,z
1/2+x,1/2+y,z
1/2-x,1/2+y,-z
1/2-x,1/2-y,-z
1/2+x,1/2-y,z
loop_
_atom_site_type_symbol
_atom_site_label
_atom_site_fract_x
_atom_site_fract_y
_atom_site_fract_z
Si Si1 0.425932 0.809432 0.928011
Si Si2 0.659586 0.824482 0.809516
Si Si3 0.505950 0.312275 0.711199
Si Si4 0.049526 0.309234 0.584236
Si Si5 0.789385 0.678442 0.323359
Si Si6 0.621786 0.689713 0.237190
Si Si7 0.719060 0.820171 0.054898
O O1 0.413552 0.751186 0.846887
O O2 0.354926 0.749476 0.941878
O O3 0.425120 0.000000 0.924627
O O4 0.500000 0.763557 0.000000
O O5 0.574634 0.769971 0.777357
O O6 0.683901 0.830792 0.742445
O O7 0.713948 0.702807 0.866185
O O8 0.669047 0.000000 0.841875
O O9 0.515737 0.500000 0.716419
O O10 0.512974 0.255061 0.637564
O O11 0.431151 0.273610 0.721481
O O12 0.052651 0.500000 0.591304
O O13 0.135916 0.251807 0.612162
O O14 0.000000 0.268578 0.500000
O O15 0.780558 0.500000 0.346215
O O16 0.706296 0.749715 0.286323
O O17 0.626451 0.500000 0.232226
O O18 0.701583 0.000000 0.035418
O O19 0.750000 0.750000 0.000000
#
# Coordination Sequence:
#
# PCOD9186892 Si02
#       7
#     8   8   8   8   8   8   8
#     4  10  23  40  55  77 109 145 184 231 280 321
#     4  10  19  35  57  76 101 141 184 227 271 321
#     4  10  21  34  53  83 114 142 179 226 276 326
#     4   9  18  35  59  84 110 144 185 225 267 323
#     4   8  15  31  55  78 101 136 178 217 261 317
#     4  10  20  36  56  79 108 145 185 226 274 330
#     4  11  23  37  54  78 108 140 181 230 279 328
#
# _framework density 18.357165999999999
#
# number of rings (size 3 to 8) (size 9 to 14) (size 15 to 20)
#    0.000    2.286    1.429    2.143    2.000    2.286 
#    0.000    0.714    0.000    0.000    0.000    0.000 
#    0.000    0.000    0.000    0.000    0.000    0.000 
#
# Total GULP energy -155974.292480 kJ/mol
# GULP energy per Si atom -5570.510446 kJ/mol
# Density = 1.831538 g / cm^3
# Si number density = 18.357166 Si / 1000 Ang^3
#
#
#
# Elastic Constant Matrix: (Units=GPa)
#
#
# Indices 1 2 3 4 5 6 
#
# 1 152.1387 22.4352 67.7568 0.0000 13.7640 0.0000
# 2 22.4352 15.5065 3.7846 0.0000 -4.4438 0.0000
# 3 67.7568 3.7846 98.3356 0.0000 17.0093 0.0000
# 4 0.0000 0.0000 0.0000 23.2615 0.0000 -4.2586
# 5 13.7640 -4.4438 17.0093 0.0000 24.3482 0.0000
# 6 0.0000 0.0000 0.0000 -4.2586 0.0000 15.6021
#
#
#
# Elastic Compliance Matrix: (Units=1/GPa)
#
#
# Indices 1 2 3 4 5 6 
#
# 1 0.013143 -0.018873 -0.007335 0.000000 -0.005750 0.000000
# 2 -0.018873 0.097791 0.004900 0.000000 0.025093 0.000000
# 3 -0.007335 0.004900 0.016109 0.000000 -0.006213 0.000000
# 4 0.000000 0.000000 0.000000 0.045251 0.000000 0.012351
# 5 -0.005750 0.025093 -0.006213 0.000000 0.053241 0.000000
# 6 0.000000 0.000000 0.000000 0.012351 0.000000 0.067465
#
#
# Mechanical properties :
#
#
# Convention : Reuss Voigt Hill
#
# Bulk Modulus (GPa) = 11.84457 50.43711 31.14084
# Shear Modulus (GPa) = 13.74536 24.10930 18.92733
#
# Velocity S-wave (km/s) = 2.73934 3.62794 3.21450
# Velocity P-wave (km/s) = 4.05852 6.71449 5.54779
#
# Compressibility (1/GPa) = 0.08442688
#
# Stress axis : x y z
#
# Youngs Moduli (GPa) = 76.08561 10.22594 62.07532
#
# Poissons Ratio (x) = 0.19300 0.45533
# Poissons Ratio (y) = 1.43599 -0.30419
# Poissons Ratio (z) = 0.55809 -0.05011
#
# Static dielectric constant tensor:
#      x y z
#    x 1.652970 0.000000 0.015630 
#    y 0.000000 1.651330 0.000000 
#    z 0.015630 0.000000 2.402160 
# 
# From -- ./inp_files/275675.got.cif
#   From: 2010.05.17/outbox.cif.g08.bks.cpg/sg12_138_cif.got.tgz:275675.got - 2010.06.03 13:09:07.
