data_PCOD9186305
_publ_section_title
;
Structure prediction by ZEFSAII (Michael W. Deem and Ramdas Pophale) SiO2 
 PCOD9186305
Probable space group: C 2/M
;
_chemical_formula_sum "Si O2"
_cell_formula_units_Z 48
_cell_length_a 11.866274
_cell_length_b 21.756349
_cell_length_c 13.586248
_cell_angle_alpha 90.000000
_cell_angle_beta 141.254892
_cell_angle_gamma 90.000000
_cell_volume 2195.204373
_symmetry_space_group_name_H-M "C 2/M"
_symmetry_group_IT_number 12
_symmetry_cell_setting 'monoclinic'
loop_
_space_group_symop_operation_xyz
x,y,z
-x,y,-z
-x,-y,-z
x,-y,z
1/2+x,1/2+y,z
1/2-x,1/2+y,-z
1/2-x,1/2-y,-z
1/2+x,1/2-y,z
loop_
_atom_site_type_symbol
_atom_site_label
_atom_site_fract_x
_atom_site_fract_y
_atom_site_fract_z
Si Si1 0.951527 0.752009 0.586157
Si Si2 0.143491 0.570159 0.902802
Si Si3 0.898942 0.619099 0.327740
Si Si4 0.523671 0.386679 0.365615
Si Si5 0.951197 0.927675 0.824169
Si Si6 0.778266 0.572381 0.711967
O O1 0.750000 0.750000 0.500000
O O2 0.000000 0.758041 0.500000
O O3 0.042797 0.686508 0.669388
O O4 0.023111 0.815364 0.680158
O O5 0.171133 0.500000 0.952907
O O6 0.066461 0.573753 0.739174
O O7 0.981367 0.596319 0.857039
O O8 0.343861 0.596389 0.035723
O O9 0.688060 0.611128 0.207516
O O10 0.000000 0.606586 0.500000
O O11 0.606796 0.418566 0.327832
O O12 0.341808 0.420640 0.273338
O O13 0.666600 0.392495 0.551585
O O14 0.943625 0.000000 0.847422
O O15 0.783028 0.500000 0.689852
#
# Coordination Sequence:
#
# PCOD9186305 Si02
#       6
#     8   8   8   8   8   8
#     4  11  22  39  64  93 128 166 212 264 320 378
#     4  10  22  39  60  87 125 165 203 256 325 383
#     4  11  23  38  63  90 119 159 212 260 312 371
#     4  11  20  36  61  91 123 160 207 259 312 371
#     4  11  23  40  62  91 128 165 205 264 327 383
#     4  10  19  34  60  91 119 154 204 259 308 368
#
# _framework density 21.865846000000001
#
# number of rings (size 3 to 8) (size 9 to 14) (size 15 to 20)
#    0.000    1.333    1.667    7.000    0.000    4.667 
#    0.000    3.333    3.667    0.000    0.000    0.000 
#    0.000    0.000    0.000    0.000    0.000    0.000 
#
# Total GULP energy -133804.830457 kJ/mol
# GULP energy per Si atom -5575.201269 kJ/mol
# Density = 2.181608 g / cm^3
# Si number density = 21.865846 Si / 1000 Ang^3
#
#
#
# Elastic Constant Matrix: (Units=GPa)
#
#
# Indices 1 2 3 4 5 6 
#
# 1 149.7114 32.1146 30.1382 0.0000 39.6207 0.0000
# 2 32.1146 82.2627 21.9441 0.0000 16.1997 0.0000
# 3 30.1382 21.9441 50.5724 -0.0001 26.2769 0.0000
# 4 0.0000 0.0000 -0.0001 5.9765 0.0000 14.6846
# 5 39.6207 16.1997 26.2769 0.0000 54.2397 0.0000
# 6 0.0000 0.0000 0.0000 14.6846 0.0000 25.0204
#
#
#
# Elastic Compliance Matrix: (Units=1/GPa)
#
#
# Indices 1 2 3 4 5 6 
#
# 1 0.008775 -0.001970 -0.001804 0.000000 -0.004947 0.000000
# 2 -0.001970 0.014298 -0.004756 0.000000 -0.000527 0.000000
# 3 -0.001804 -0.004756 0.028719 0.000000 -0.011175 0.000000
# 4 0.000000 0.000000 0.000000 -0.378510 0.000000 0.222149
# 5 -0.004947 -0.000527 -0.011175 0.000000 0.027622 0.000000
# 6 0.000000 0.000000 0.000000 0.222149 0.000000 -0.090413
#
#
# Mechanical properties :
#
#
# Convention : Reuss Voigt Hill
#
# Bulk Modulus (GPa) = 28.79249 50.10450 39.44850
# Shear Modulus (GPa) = -13.85526 30.27061 8.20768
#
# Velocity S-wave (km/s) = -2.51997 3.72476 1.93954
# Velocity P-wave (km/s) = 2.17472 6.43915 4.80583
#
# Compressibility (1/GPa) = 0.03473128
#
# Stress axis : x y z
#
# Youngs Moduli (GPa) = 113.96629 69.94082 34.82054
#
# Poissons Ratio (x) = 0.13779 0.06280
# Poissons Ratio (y) = 0.22452 0.16561
# Poissons Ratio (z) = 0.20556 0.33265
#
# Static dielectric constant tensor:
#      x y z
#    x 1.864200 0.000000 -0.001450 
#    y 0.000000 1.768950 0.000000 
#    z -0.001450 0.000000 1.861970 
# 
# From -- ./inp_files/50826.got.cif
#   From: 2010.05.17/outbox.cif.g08.bks.cpg/sg12_26_cif.got.tgz:50826.got - 2010.06.03 13:09:07.
