data_PCOD9186600
_publ_section_title
;
Structure prediction by ZEFSAII (Michael W. Deem and Ramdas Pophale) SiO2 
 PCOD9186600
Probable space group: C 2/M
;
_chemical_formula_sum "Si O2"
_cell_formula_units_Z 64
_cell_length_a 26.187742
_cell_length_b 9.652801
_cell_length_c 16.274429
_cell_angle_alpha 90.000000
_cell_angle_beta 112.505805
_cell_angle_gamma 90.000000
_cell_volume 3800.618553
_symmetry_space_group_name_H-M "C 2/M"
_symmetry_group_IT_number 12
_symmetry_cell_setting 'monoclinic'
loop_
_space_group_symop_operation_xyz
x,y,z
-x,y,-z
-x,-y,-z
x,-y,z
1/2+x,1/2+y,z
1/2-x,1/2+y,-z
1/2-x,1/2-y,-z
1/2+x,1/2-y,z
loop_
_atom_site_type_symbol
_atom_site_label
_atom_site_fract_x
_atom_site_fract_y
_atom_site_fract_z
Si Si1 0.300384 0.167607 0.263246
Si Si2 0.673148 0.332480 0.199589
Si Si3 0.706956 0.155179 0.928189
Si Si4 0.917500 0.667831 0.400139
Si Si5 0.380543 0.156693 0.982246
Si Si6 0.478770 0.349311 0.079538
Si Si7 0.969262 0.667180 0.609313
Si Si8 0.578489 0.337790 0.268933
O O1 0.237824 0.207229 0.250247
O O2 0.306913 0.205220 0.171395
O O3 0.355534 0.219124 0.343227
O O4 0.301612 0.000000 0.270597
O O5 0.669786 0.500000 0.183667
O O6 0.647599 0.251839 0.105467
O O7 0.635116 0.301581 0.255621
O O8 0.730131 0.000000 0.932287
O O9 0.750000 0.250000 0.000000
O O10 0.656663 0.149733 0.959619
O O11 0.916485 0.500000 0.394738
O O12 0.938050 0.700620 0.504557
O O13 0.966434 0.709671 0.366894
O O14 0.388202 0.000000 0.955163
O O15 0.436143 0.225695 0.048977
O O16 0.453100 0.500000 0.085101
O O17 0.529881 0.326269 0.171313
O O18 0.500000 0.359504 0.000000
O O19 0.967845 0.500000 0.619686
O O20 0.939537 0.743934 0.665840
O O21 0.581965 0.500000 0.295487
#
# Coordination Sequence:
#
# PCOD9186600 Si02
#       8
#     8   8   8   8   8   8   8   8
#     4   9  17  31  54  76  98 134 179 214 246 300
#     4  10  19  35  55  71  98 145 182 208 251 307
#     4  10  20  32  49  74 103 137 173 214 254 302
#     4   8  16  33  56  82 104 129 169 211 256 316
#     4  11  22  32  47  76 108 134 170 223 267 299
#     4  10  20  36  53  69  99 143 183 211 243 305
#     4   9  18  34  58  81 105 133 162 209 267 312
#     4  10  21  35  52  76 103 134 177 214 248 305
#
# _framework density 16.839364
#
# number of rings (size 3 to 8) (size 9 to 14) (size 15 to 20)
#    0.000    2.375    2.500    1.125    1.750    1.750 
#    0.000    1.875    0.000    2.250    0.000    0.000 
#    0.000    0.000    0.000    0.000    0.000    0.000 
#
# Total GULP energy -178169.951078 kJ/mol
# GULP energy per Si atom -5567.810971 kJ/mol
# Density = 1.680104 g / cm^3
# Si number density = 16.839364 Si / 1000 Ang^3
#
#
#
# Elastic Constant Matrix: (Units=GPa)
#
#
# Indices 1 2 3 4 5 6 
#
# 1 124.6485 47.5784 61.9604 0.0000 -3.1684 0.0000
# 2 47.5784 46.5099 31.3738 0.0000 -1.1413 0.0000
# 3 61.9604 31.3738 81.8996 0.0000 -4.5641 0.0000
# 4 0.0000 0.0000 0.0000 81.5919 0.0000 4.3703
# 5 -3.1684 -1.1413 -4.5641 0.0000 31.3442 0.0000
# 6 0.0000 0.0000 0.0000 4.3703 0.0000 23.1597
#
#
#
# Elastic Compliance Matrix: (Units=1/GPa)
#
#
# Indices 1 2 3 4 5 6 
#
# 1 0.016316 -0.011280 -0.008019 0.000000 0.000071 0.000000
# 2 -0.011280 0.036801 -0.005598 0.000000 -0.000615 0.000000
# 3 -0.008019 -0.005598 0.020531 0.000000 0.001975 0.000000
# 4 0.000000 0.000000 0.000000 0.012381 0.000000 -0.002336
# 5 0.000071 -0.000615 0.001975 0.000000 0.032176 0.000000
# 6 0.000000 0.000000 0.000000 -0.002336 0.000000 0.043619
#
#
# Mechanical properties :
#
#
# Convention : Reuss Voigt Hill
#
# Bulk Modulus (GPa) = 41.92063 59.43145 50.67604
# Shear Modulus (GPa) = 22.77184 34.69552 28.73368
#
# Velocity S-wave (km/s) = 3.68135 4.54407 4.13527
# Velocity P-wave (km/s) = 6.55883 7.93103 7.27734
#
# Compressibility (1/GPa) = 0.02385460
#
# Stress axis : x y z
#
# Youngs Moduli (GPa) = 61.29054 27.17312 48.70673
#
# Poissons Ratio (x) = 0.30651 0.39056
# Poissons Ratio (y) = 0.69135 0.27267
# Poissons Ratio (z) = 0.49146 0.15212
#
# Static dielectric constant tensor:
#      x y z
#    x 1.572580 0.000000 0.006630 
#    y 0.000000 1.595350 0.000000 
#    z 0.006630 0.000000 1.545000 
# 
# From -- ./inp_files/244249.got.cif
#   From: 2010.05.17/outbox.cif.g08.bks.cpg/sg12_123_cif.got.tgz:244249.got - 2010.06.03 13:09:07.
