data_PCOD9186860
_publ_section_title
;
Structure prediction by ZEFSAII (Michael W. Deem and Ramdas Pophale) SiO2 
 PCOD9186860
Probable space group: C 2/M
;
_chemical_formula_sum "Si O2"
_cell_formula_units_Z 44
_cell_length_a 22.723635
_cell_length_b 12.536259
_cell_length_c 7.654810
_cell_angle_alpha 90.000000
_cell_angle_beta 61.761894
_cell_angle_gamma 90.000000
_cell_volume 1921.103000
_symmetry_space_group_name_H-M "C 2/M"
_symmetry_group_IT_number 12
_symmetry_cell_setting 'monoclinic'
loop_
_space_group_symop_operation_xyz
x,y,z
-x,y,-z
-x,-y,-z
x,-y,z
1/2+x,1/2+y,z
1/2-x,1/2+y,-z
1/2-x,1/2-y,-z
1/2+x,1/2-y,z
loop_
_atom_site_type_symbol
_atom_site_label
_atom_site_fract_x
_atom_site_fract_y
_atom_site_fract_z
Si Si1 0.466574 0.208461 0.240336
Si Si2 0.868808 0.884085 0.258801
Si Si3 0.564517 0.617507 0.219311
Si Si4 0.606480 0.000000 0.530649
Si Si5 0.731796 0.844830 0.277436
Si Si6 0.294103 0.617100 0.806797
O O1 0.402085 0.284393 0.305566
O O2 0.516532 0.281369 0.284275
O O3 0.447597 0.095318 0.346234
O O4 0.500000 0.193607 0.000000
O O5 0.790913 0.874955 0.325799
O O6 0.883487 0.000000 0.319163
O O7 0.903937 0.883890 0.019234
O O8 0.533062 0.500000 0.285462
O O9 0.627431 0.626383 0.259102
O O10 0.664417 0.907577 0.410893
O O11 0.726196 0.717058 0.279468
O O12 0.756224 0.874505 0.046414
O O13 0.278968 0.500000 0.755068
#
# Coordination Sequence:
#
# PCOD9186860 Si02
#       6
#     8   8   8   4   8   8
#     4  10  21  36  57  81 113 159 191 222 278 337
#     4   9  16  33  58  82 110 143 189 240 278 330
#     4   8  15  32  60  86 103 137 195 240 273 321
#     4  12  23  38  53  78 125 152 182 236 275 340
#     4  10  19  35  56  84 116 146 181 227 294 331
#     4   9  17  35  63  85 109 141 185 240 278 338
#
# _framework density 22.903507999999999
#
# number of rings (size 3 to 8) (size 9 to 14) (size 15 to 20)
#    0.000    2.545    1.818    1.909    0.000    2.909 
#    1.636    4.545    8.000    2.182    0.000    0.000 
#    0.000    0.000    0.000    0.000    0.000    0.000 
#
# Total GULP energy -122503.514927 kJ/mol
# GULP energy per Si atom -5568.341588 kJ/mol
# Density = 2.285138 g / cm^3
# Si number density = 22.903508 Si / 1000 Ang^3
#
#
#
# Elastic Constant Matrix: (Units=GPa)
#
#
# Indices 1 2 3 4 5 6 
#
# 1 48.2239 65.0145 22.9204 0.0000 -28.1259 0.0000
# 2 65.0145 275.5354 40.5933 0.0000 -21.9892 0.0000
# 3 22.9204 40.5933 112.3009 0.0000 -15.9965 0.0000
# 4 0.0000 0.0000 0.0000 17.8959 0.0000 -10.5792
# 5 -28.1259 -21.9892 -15.9965 0.0000 21.3783 0.0000
# 6 0.0000 0.0000 0.0000 -10.5792 0.0000 29.7772
#
#
#
# Elastic Compliance Matrix: (Units=1/GPa)
#
#
# Indices 1 2 3 4 5 6 
#
# 1 0.165370 -0.023847 0.002647 0.000000 0.195019 0.000000
# 2 -0.023847 0.007486 -0.001355 0.000000 -0.024688 0.000000
# 3 0.002647 -0.001355 0.010244 0.000000 0.009753 0.000000
# 4 0.000000 0.000000 0.000000 0.070735 0.000000 0.025131
# 5 0.195019 -0.024688 0.009753 0.000000 0.285254 0.000000
# 6 0.000000 0.000000 0.000000 0.025131 0.000000 0.042511
#
#
# Mechanical properties :
#
#
# Convention : Reuss Voigt Hill
#
# Bulk Modulus (GPa) = 7.24692 77.01297 42.12994
# Shear Modulus (GPa) = 7.43267 34.31240 20.87253
#
# Velocity S-wave (km/s) = 1.80340 3.87477 3.02209
# Velocity P-wave (km/s) = 2.73995 7.32915 5.53280
#
# Compressibility (1/GPa) = 0.13798973
#
# Stress axis : x y z
#
# Youngs Moduli (GPa) = 6.04703 133.59131 97.62190
#
# Poissons Ratio (x) = 3.18571 -0.25842
# Poissons Ratio (y) = 0.14420 0.13231
# Poissons Ratio (z) = -0.01601 0.18107
#
# Static dielectric constant tensor:
#      x y z
#    x 1.818080 0.000000 -0.006440 
#    y 0.000000 1.831840 0.000000 
#    z -0.006440 0.000000 1.910250 
# 
# From -- ./inp_files/94814.got.cif
#   From: 2010.05.17/outbox.cif.g08.bks.cpg/sg12_48_cif.got.tgz:94814.got - 2010.06.03 13:09:07.
