data_PCOD9186132
_publ_section_title
;
Structure prediction by ZEFSAII (Michael W. Deem and Ramdas Pophale) SiO2 
 PCOD9186132
Probable space group: C 2/M
;
_chemical_formula_sum "Si O2"
_cell_formula_units_Z 64
_cell_length_a 35.007416
_cell_length_b 22.617309
_cell_length_c 10.155235
_cell_angle_alpha 90.000000
_cell_angle_beta 24.586418
_cell_angle_gamma 90.000000
_cell_volume 3345.433526
_symmetry_space_group_name_H-M "C 2/M"
_symmetry_group_IT_number 12
_symmetry_cell_setting 'monoclinic'
loop_
_space_group_symop_operation_xyz
x,y,z
-x,y,-z
-x,-y,-z
x,-y,z
1/2+x,1/2+y,z
1/2-x,1/2+y,-z
1/2-x,1/2-y,-z
1/2+x,1/2-y,z
loop_
_atom_site_type_symbol
_atom_site_label
_atom_site_fract_x
_atom_site_fract_y
_atom_site_fract_z
Si Si1 0.890524 0.935200 0.333823
Si Si2 0.533936 0.933449 0.240626
Si Si3 0.007746 0.248092 0.325824
Si Si4 0.860753 0.844192 0.196606
Si Si5 0.872660 0.347845 0.687925
Si Si6 0.608926 0.567595 0.134105
Si Si7 0.223530 0.930863 0.042168
Si Si8 0.167742 0.658185 0.880660
O O1 0.867822 0.885099 0.301875
O O2 0.844722 0.926047 0.619198
O O3 0.858580 0.000000 0.386413
O O4 0.000000 0.936688 0.000000
O O5 0.500000 0.933584 0.500000
O O6 0.459221 0.892178 0.405724
O O7 0.533693 0.000000 0.192333
O O8 0.634266 0.904046 0.924728
O O9 0.000000 0.222642 0.500000
O O10 0.918418 0.281709 0.545535
O O11 0.054747 0.200521 0.084272
O O12 0.083064 0.298903 0.115923
O O13 0.760216 0.816643 0.530095
O O14 0.861449 0.885706 0.067155
O O15 0.797731 0.378078 0.827355
O O16 0.829996 0.350650 0.969037
O O17 0.500000 0.573512 0.500000
O O18 0.624476 0.500000 0.040018
O O19 0.665023 0.576038 0.093008
O O20 0.259724 0.000000 0.931826
#
# Coordination Sequence:
#
# PCOD9186132 Si02
#       8
#     8   8   8   8   8   8   8   8
#     4  10  21  35  55  85 116 140 175 235 299 341
#     4   8  14  24  44  76 114 148 178 222 284 345
#     4   9  20  35  56  78 112 156 195 233 285 333
#     4  12  20  34  59  82 109 149 194 236 283 335
#     4   9  16  33  53  82 114 149 190 240 281 341
#     4  10  22  38  56  82 117 154 191 226 280 357
#     4  10  19  34  59  87 117 152 186 230 289 352
#     4   9  18  31  51  82 114 141 187 245 284 325
#
# _framework density 19.130554
#
# number of rings (size 3 to 8) (size 9 to 14) (size 15 to 20)
#    0.000    2.375    1.250    3.750    0.000    3.500 
#    0.000    0.000    5.500    5.250    0.000    7.875 
#    0.000    0.000    0.000    0.000    0.000    0.000 
#
# Total GULP energy -178251.779716 kJ/mol
# GULP energy per Si atom -5570.368116 kJ/mol
# Density = 1.908701 g / cm^3
# Si number density = 19.130554 Si / 1000 Ang^3
#
#
#
# Elastic Constant Matrix: (Units=GPa)
#
#
# Indices 1 2 3 4 5 6 
#
# 1 58.8667 26.0133 14.8434 0.0000 -8.3259 0.0000
# 2 26.0133 64.3106 24.8900 0.0000 0.9240 0.0000
# 3 14.8434 24.8900 74.9065 0.0000 -9.1145 0.0000
# 4 0.0000 0.0000 0.0000 19.3247 0.0000 3.1933
# 5 -8.3259 0.9240 -9.1145 0.0000 20.5574 0.0000
# 6 0.0000 0.0000 0.0000 3.1933 0.0000 28.1009
#
#
#
# Elastic Compliance Matrix: (Units=1/GPa)
#
#
# Indices 1 2 3 4 5 6 
#
# 1 0.022396 -0.009085 -0.000281 0.000000 0.009354 0.000000
# 2 -0.009085 0.021789 -0.006349 0.000000 -0.007474 0.000000
# 3 -0.000281 -0.006349 0.016422 0.000000 0.007453 0.000000
# 4 0.000000 0.000000 0.000000 0.052738 0.000000 -0.005993
# 5 0.009354 -0.007474 0.007453 0.000000 0.056073 0.000000
# 6 0.000000 0.000000 0.000000 -0.005993 0.000000 0.036267
#
#
# Mechanical properties :
#
#
# Convention : Reuss Voigt Hill
#
# Bulk Modulus (GPa) = 34.27336 36.61969 35.44652
# Shear Modulus (GPa) = 20.25600 22.41907 21.33754
#
# Velocity S-wave (km/s) = 3.25750 3.42701 3.34333
# Velocity P-wave (km/s) = 5.66593 5.90278 5.78557
#
# Compressibility (1/GPa) = 0.02917718
#
# Stress axis : x y z
#
# Youngs Moduli (GPa) = 44.65093 45.89488 60.89305
#
# Poissons Ratio (x) = 0.41694 0.01712
# Poissons Ratio (y) = 0.40564 0.38662
# Poissons Ratio (z) = 0.01255 0.29140
#
# Static dielectric constant tensor:
#      x y z
#    x 1.674170 0.000000 -0.056510 
#    y 0.000000 1.716110 0.000000 
#    z -0.056510 0.000000 1.718110 
# 
# From -- ./inp_files/113609.got.cif
#   From: 2010.05.17/outbox.cif.g08.bks.cpg/sg12_57_cif.got.tgz:113609.got - 2010.06.03 13:09:07.
