data_PCOD9186138
_publ_section_title
;
Structure prediction by ZEFSAII (Michael W. Deem and Ramdas Pophale) SiO2 
 PCOD9186138
Probable space group: C 2/M
;
_chemical_formula_sum "Si O2"
_cell_formula_units_Z 64
_cell_length_a 15.218723
_cell_length_b 8.389828
_cell_length_c 28.836476
_cell_angle_alpha 90.000000
_cell_angle_beta 54.241478
_cell_angle_gamma 90.000000
_cell_volume 2987.824346
_symmetry_space_group_name_H-M "C 2/M"
_symmetry_group_IT_number 12
_symmetry_cell_setting 'monoclinic'
loop_
_space_group_symop_operation_xyz
x,y,z
-x,y,-z
-x,-y,-z
x,-y,z
1/2+x,1/2+y,z
1/2-x,1/2+y,-z
1/2-x,1/2-y,-z
1/2+x,1/2-y,z
loop_
_atom_site_type_symbol
_atom_site_label
_atom_site_fract_x
_atom_site_fract_y
_atom_site_fract_z
Si Si1 0.840657 0.307796 0.876487
Si Si2 0.394264 0.693322 0.060329
Si Si3 0.255523 0.310986 0.446194
Si Si4 0.048004 0.310673 0.250641
Si Si5 0.865337 0.813431 0.601208
Si Si6 0.173593 0.813508 0.722961
Si Si7 0.070287 0.691916 0.846689
Si Si8 0.495216 0.692882 0.360545
O O1 0.840431 0.500000 0.881110
O O2 0.720486 0.250837 0.925835
O O3 0.862257 0.271534 0.815461
O O4 0.947428 0.252880 0.871085
O O5 0.394083 0.500000 0.060121
O O6 0.401967 0.750100 0.110790
O O7 0.500000 0.748711 0.000000
O O8 0.259500 0.500000 0.446276
O O9 0.250000 0.250000 0.500000
O O10 0.162249 0.261356 0.439575
O O11 0.371888 0.254366 0.390672
O O12 0.027906 0.500000 0.253866
O O13 0.068677 0.262898 0.297036
O O14 0.940493 0.218766 0.267498
O O15 0.764669 0.782090 0.666986
O O16 0.966558 0.754306 0.600316
O O17 0.879198 0.000000 0.589109
O O18 0.150586 0.759153 0.782600
O O19 0.200642 0.000000 0.712498
O O20 0.073118 0.500000 0.843183
O O21 0.501539 0.500000 0.356662
#
# Coordination Sequence:
#
# PCOD9186138 Si02
#       8
#     8   8   8   8   8   8   8   8
#     4   8  18  36  55  81 116 154 192 238 295 352
#     4  10  21  38  59  84 116 156 200 244 295 358
#     4  11  24  44  66  89 121 164 204 252 299 350
#     4  10  19  34  59  87 120 158 199 244 299 356
#     4  11  23  40  62  92 124 160 202 248 299 356
#     4  11  21  36  59  88 123 158 196 245 305 364
#     4  10  21  38  58  83 115 154 197 246 299 354
#     4  10  23  40  60  89 125 159 199 245 299 354
#
# _framework density 21.420269000000001
#
# number of rings (size 3 to 8) (size 9 to 14) (size 15 to 20)
#    0.000    1.875    1.250    3.375    1.750    2.750 
#    0.000    5.625    0.000    0.000    0.000    0.000 
#    0.000    0.000    0.000    0.000    0.000    0.000 
#
# Total GULP energy -178768.782145 kJ/mol
# GULP energy per Si atom -5586.524442 kJ/mol
# Density = 2.137152 g / cm^3
# Si number density = 21.420269 Si / 1000 Ang^3
#
#
#
# Elastic Constant Matrix: (Units=GPa)
#
#
# Indices 1 2 3 4 5 6 
#
# 1 60.7055 4.6502 -9.2519 0.0000 12.5835 0.0000
# 2 4.6502 19.4601 -9.4277 0.0000 1.1711 0.0000
# 3 -9.2519 -9.4277 26.9477 0.0000 8.3769 0.0000
# 4 0.0000 0.0000 0.0000 23.2155 0.0000 10.4897
# 5 12.5835 1.1711 8.3769 0.0000 28.9910 0.0000
# 6 0.0000 0.0000 0.0000 10.4897 0.0000 23.1564
#
#
#
# Elastic Compliance Matrix: (Units=1/GPa)
#
#
# Indices 1 2 3 4 5 6 
#
# 1 0.020657 0.001317 0.011379 0.000000 -0.012307 0.000000
# 2 0.001317 0.064500 0.026374 0.000000 -0.010798 0.000000
# 3 0.011379 0.026374 0.057252 0.000000 -0.022547 0.000000
# 4 0.000000 0.000000 0.000000 0.054160 0.000000 -0.024534
# 5 -0.012307 -0.010798 -0.022547 0.000000 0.046787 0.000000
# 6 0.000000 0.000000 0.000000 -0.024534 0.000000 0.054298
#
#
# Mechanical properties :
#
#
# Convention : Reuss Voigt Hill
#
# Bulk Modulus (GPa) = 4.53413 8.78383 6.65898
# Shear Modulus (GPa) = 17.06310 23.14878 20.10594
#
# Velocity S-wave (km/s) = 2.82545 3.29096 3.06705
# Velocity P-wave (km/s) = 3.57289 4.30699 3.95700
#
# Compressibility (1/GPa) = 0.22054925
#
# Stress axis : x y z
#
# Youngs Moduli (GPa) = 48.40858 15.50398 17.46670
#
# Poissons Ratio (x) = -0.02042 -0.19875
# Poissons Ratio (y) = -0.06376 -0.46067
# Poissons Ratio (z) = -0.55084 -0.40891
#
# Static dielectric constant tensor:
#      x y z
#    x 1.759850 0.000000 -0.070020 
#    y 0.000000 1.728210 0.000000 
#    z -0.070020 0.000000 1.729320 
# 
# From -- ./inp_files/375395.got.cif
#   From: 2010.05.17/outbox.cif.g08.bks.cpg/sg12_188_cif.got.tgz:375395.got - 2010.06.03 13:09:07.
