data_PCOD9186450
_publ_section_title
;
Structure prediction by ZEFSAII (Michael W. Deem and Ramdas Pophale) SiO2 
 PCOD9186450
Probable space group: C 2/M
;
_chemical_formula_sum "Si O2"
_cell_formula_units_Z 58
_cell_length_a 26.856960
_cell_length_b 16.957995
_cell_length_c 11.687028
_cell_angle_alpha 90.000000
_cell_angle_beta 148.014897
_cell_angle_gamma 90.000000
_cell_volume 2819.449952
_symmetry_space_group_name_H-M "C 2/M"
_symmetry_group_IT_number 12
_symmetry_cell_setting 'monoclinic'
loop_
_space_group_symop_operation_xyz
x,y,z
-x,y,-z
-x,-y,-z
x,-y,z
1/2+x,1/2+y,z
1/2-x,1/2+y,-z
1/2-x,1/2-y,-z
1/2+x,1/2-y,z
loop_
_atom_site_type_symbol
_atom_site_label
_atom_site_fract_x
_atom_site_fract_y
_atom_site_fract_z
Si Si1 0.879513 0.199738 0.691040
Si Si2 0.677808 0.775111 0.192405
Si Si3 0.509458 0.863166 0.144103
Si Si4 0.901438 0.795694 0.375529
Si Si5 0.500000 0.000000 0.500000
Si Si6 0.619963 0.116193 0.582537
Si Si7 0.176137 0.148040 0.005002
Si Si8 0.523436 0.407602 0.286982
O O1 0.778103 0.194957 0.431931
O O2 0.856026 0.210454 0.778964
O O3 0.931623 0.281970 0.761458
O O4 0.946462 0.131226 0.774962
O O5 0.684610 0.731363 0.086392
O O6 0.596184 0.839784 0.026804
O O7 0.563890 0.901594 0.355579
O O8 0.500000 0.901767 0.000000
O O9 0.884384 0.709643 0.395333
O O10 0.914193 0.858785 0.500785
O O11 0.000000 0.789663 0.500000
O O12 0.832188 0.830916 0.145039
O O13 0.570138 0.068099 0.584241
O O14 0.730293 0.099475 0.786749
O O15 0.082593 0.108433 0.875045
O O16 0.541797 0.500000 0.323477
#
# Coordination Sequence:
#
# PCOD9186450 Si02
#       8
#     8   8   8   8   2   8   8   8
#     4  10  19  36  60  98 132 167 215 271 309 380
#     4  10  19  34  65  98 122 170 230 255 314 378
#     4  10  19  36  68  95 126 168 218 269 316 384
#     4  10  20  39  67  90 125 172 212 262 321 397
#     4  12  32  44  66  88 132 166 212 296 340 380
#     4  12  23  46  63  94 129 167 224 274 330 389
#     4  11  22  36  67  93 125 175 214 264 322 397
#     4  11  23  40  61  98 136 171 209 267 332 394
#
# _framework density 20.571387000000001
#
# number of rings (size 3 to 8) (size 9 to 14) (size 15 to 20)
#    0.000    1.379    4.828    1.241    0.966    2.483 
#    0.000    1.724    0.000    0.000    0.000    0.000 
#    0.000    0.000    0.000    0.000    0.000    0.000 
#
# Total GULP energy -161662.440679 kJ/mol
# GULP energy per Si atom -5574.566920 kJ/mol
# Density = 2.052457 g / cm^3
# Si number density = 20.571387 Si / 1000 Ang^3
#
#
#
# Elastic Constant Matrix: (Units=GPa)
#
#
# Indices 1 2 3 4 5 6 
#
# 1 93.9611 28.5533 41.0260 0.0000 11.0970 0.0000
# 2 28.5533 95.2309 20.9757 0.0000 2.5443 0.0000
# 3 41.0260 20.9757 140.1311 0.0000 7.1606 0.0000
# 4 0.0000 0.0000 0.0000 -7.1354 0.0000 -6.6168
# 5 11.0970 2.5443 7.1606 0.0000 29.5648 0.0000
# 6 0.0000 0.0000 0.0000 -6.6168 0.0000 -5.0251
#
#
#
# Elastic Compliance Matrix: (Units=1/GPa)
#
#
# Indices 1 2 3 4 5 6 
#
# 1 0.013525 -0.003228 -0.003272 0.000000 -0.004006 0.000000
# 2 -0.003228 0.011638 -0.000818 0.000000 0.000408 0.000000
# 3 -0.003272 -0.000818 0.008252 0.000000 -0.000700 0.000000
# 4 0.000000 0.000000 0.000000 0.633985 0.000000 -0.834804
# 5 -0.004006 0.000408 -0.000700 0.000000 0.035462 0.000000
# 6 0.000000 0.000000 0.000000 -0.834804 0.000000 0.900233
#
#
# Mechanical properties :
#
#
# Convention : Reuss Voigt Hill
#
# Bulk Modulus (GPa) = 53.24681 56.71481 54.98081
# Shear Modulus (GPa) = 3.07884 19.39872 11.23878
#
# Velocity S-wave (km/s) = 1.22471 3.07415 2.33991
# Velocity P-wave (km/s) = 5.28583 6.34273 5.83824
#
# Compressibility (1/GPa) = 0.01878047
#
# Stress axis : x y z
#
# Youngs Moduli (GPa) = 73.93553 85.92700 121.17821
#
# Poissons Ratio (x) = 0.27734 0.39649
# Poissons Ratio (y) = 0.23863 0.09911
# Poissons Ratio (z) = 0.24191 0.07028
#
# Static dielectric constant tensor:
#      x y z
#    x 1.758000 0.000000 -0.015940 
#    y 0.000000 1.643360 0.000000 
#    z -0.015940 0.000000 1.786340 
# 
# From -- ./inp_files/184456.got.cif
#   From: 2010.05.17/outbox.cif.g08.bks.cpg/sg12_93_cif.got.tgz:184456.got - 2010.06.03 13:09:07.
