data_PCOD9186678
_publ_section_title
;
Structure prediction by ZEFSAII (Michael W. Deem and Ramdas Pophale) SiO2 
 PCOD9186678
Probable space group: C 2/M
;
_chemical_formula_sum "Si O2"
_cell_formula_units_Z 40
_cell_length_a 20.677142
_cell_length_b 13.588064
_cell_length_c 9.254192
_cell_angle_alpha 90.000000
_cell_angle_beta 57.608060
_cell_angle_gamma 90.000000
_cell_volume 2195.515555
_symmetry_space_group_name_H-M "C 2/M"
_symmetry_group_IT_number 12
_symmetry_cell_setting 'monoclinic'
loop_
_space_group_symop_operation_xyz
x,y,z
-x,y,-z
-x,-y,-z
x,-y,z
1/2+x,1/2+y,z
1/2-x,1/2+y,-z
1/2-x,1/2-y,-z
1/2+x,1/2-y,z
loop_
_atom_site_type_symbol
_atom_site_label
_atom_site_fract_x
_atom_site_fract_y
_atom_site_fract_z
Si Si1 0.403227 0.683975 0.996785
Si Si2 0.705926 0.716297 0.408208
Si Si3 0.936811 0.115721 0.280869
Si Si4 0.735354 0.887602 0.154439
Si Si5 0.664901 0.110587 0.920698
O O1 0.476947 0.656788 0.814957
O O2 0.412331 0.633700 0.142871
O O3 0.323544 0.645456 0.026878
O O4 0.394542 0.800827 0.031768
O O5 0.750000 0.750000 0.500000
O O6 0.624491 0.671667 0.547786
O O7 0.701244 0.810130 0.308366
O O8 0.760821 0.637493 0.263887
O O9 0.936215 0.000000 0.311501
O O10 0.733941 0.000000 0.209999
O O11 0.691620 0.883818 0.055219
O O12 0.638051 0.000000 0.921662
#
# Coordination Sequence:
#
# PCOD9186678 Si02
#       5
#     8   8   8   8   8
#     4  10  19  35  55  81 112 146 181 221 275 331
#     4  11  20  34  56  85 114 138 183 234 272 320
#     4  11  21  34  55  84 115 142 174 228 284 328
#     4  10  20  37  59  81 109 152 188 221 271 328
#     4  10  21  38  58  79 112 151 188 223 268 327
#
# _framework density 18.218955999999999
#
# number of rings (size 3 to 8) (size 9 to 14) (size 15 to 20)
#    0.000    1.600    4.000    5.400    0.000    0.800 
#    0.000    7.000    0.000    9.600    0.000    0.000 
#    0.000    0.000    0.000    0.000    0.000    0.000 
#
# Total GULP energy -111664.119778 kJ/mol
# GULP energy per Si atom -5583.205989 kJ/mol
# Density = 1.817749 g / cm^3
# Si number density = 18.218956 Si / 1000 Ang^3
#
#
#
# Elastic Constant Matrix: (Units=GPa)
#
#
# Indices 1 2 3 4 5 6 
#
# 1 20.6795 20.7981 31.9748 0.0000 -18.2345 0.0000
# 2 20.7981 154.4254 72.7873 0.0000 -29.7441 0.0000
# 3 31.9748 72.7873 124.8404 0.0000 -29.4767 0.0000
# 4 0.0000 0.0000 0.0000 14.0739 0.0000 6.0942
# 5 -18.2345 -29.7441 -29.4767 0.0000 35.4025 0.0000
# 6 0.0000 0.0000 0.0000 6.0942 0.0000 21.9907
#
#
#
# Elastic Compliance Matrix: (Units=1/GPa)
#
#
# Indices 1 2 3 4 5 6 
#
# 1 0.118844 0.002861 -0.021267 0.000000 0.045908 0.000000
# 2 0.002861 0.009464 -0.005010 0.000000 0.005253 0.000000
# 3 -0.021267 -0.005010 0.015930 0.000000 -0.001900 0.000000
# 4 0.000000 0.000000 0.000000 0.080742 0.000000 -0.022376
# 5 0.045908 0.005253 -0.001900 0.000000 0.054724 0.000000
# 6 0.000000 0.000000 0.000000 -0.022376 0.000000 0.051675
#
#
# Mechanical properties :
#
#
# Convention : Reuss Voigt Hill
#
# Bulk Modulus (GPa) = 10.26651 61.22952 35.74802
# Shear Modulus (GPa) = 12.17495 25.91911 19.04703
#
# Velocity S-wave (km/s) = 2.58787 3.77589 3.23685
# Velocity P-wave (km/s) = 3.81795 7.25881 5.79944
#
# Compressibility (1/GPa) = 0.09740405
#
# Stress axis : x y z
#
# Youngs Moduli (GPa) = 8.41439 105.66835 62.77542
#
# Poissons Ratio (x) = -0.30227 1.33506
# Poissons Ratio (y) = -0.02407 0.31451
# Poissons Ratio (z) = 0.17895 0.52940
#
# Static dielectric constant tensor:
#      x y z
#    x 1.624950 0.000000 0.002620 
#    y 0.000000 1.640340 0.000000 
#    z 0.002620 0.000000 1.612150 
# 
# From -- ./inp_files/85494.got.cif
#   From: 2010.05.17/outbox.cif.g08.bks.cpg/sg12_43_cif.got.tgz:85494.got - 2010.06.03 13:09:07.
