data_PCOD9186064
_publ_section_title
;
Structure prediction by ZEFSAII (Michael W. Deem and Ramdas Pophale) SiO2 
 PCOD9186064
Probable space group: C 2/M
;
_chemical_formula_sum "Si O2"
_cell_formula_units_Z 64
_cell_length_a 20.780986
_cell_length_b 8.091579
_cell_length_c 21.582445
_cell_angle_alpha 90.000000
_cell_angle_beta 115.822259
_cell_angle_gamma 90.000000
_cell_volume 3266.741527
_symmetry_space_group_name_H-M "C 2/M"
_symmetry_group_IT_number 12
_symmetry_cell_setting 'monoclinic'
loop_
_space_group_symop_operation_xyz
x,y,z
-x,y,-z
-x,-y,-z
x,-y,z
1/2+x,1/2+y,z
1/2-x,1/2+y,-z
1/2-x,1/2-y,-z
1/2+x,1/2-y,z
loop_
_atom_site_type_symbol
_atom_site_label
_atom_site_fract_x
_atom_site_fract_y
_atom_site_fract_z
Si Si1 0.001588 0.300165 0.733198
Si Si2 0.077132 0.198342 0.054137
Si Si3 0.164136 0.298338 0.794308
Si Si4 0.392851 0.802663 0.792744
Si Si5 0.233354 0.299741 0.694142
Si Si6 0.886883 0.692781 0.444340
Si Si7 0.722594 0.300436 0.055523
Si Si8 0.488686 0.309192 0.589862
O O1 0.001201 0.500000 0.733992
O O2 0.951485 0.241315 0.767913
O O3 0.976042 0.245056 0.654674
O O4 0.083663 0.243756 0.774188
O O5 0.093754 0.233729 0.132944
O O6 0.143568 0.260768 0.040732
O O7 0.075380 0.000000 0.046125
O O8 0.000000 0.263820 0.000000
O O9 0.163970 0.500000 0.794329
O O10 0.190907 0.245518 0.737997
O O11 0.220899 0.242701 0.869157
O O12 0.314286 0.758013 0.734955
O O13 0.398490 0.000000 0.799287
O O14 0.233059 0.500000 0.693415
O O15 0.187454 0.244712 0.615499
O O16 0.879825 0.500000 0.457226
O O17 0.920166 0.783680 0.517191
O O18 0.946668 0.708620 0.415060
O O19 0.721055 0.500000 0.057629
O O20 0.750000 0.250000 0.000000
O O21 0.509962 0.500000 0.597019
#
# Coordination Sequence:
#
# PCOD9186064 Si02
#       8
#     8   8   8   8   8   8   8   8
#     4  10  21  39  58  81 114 154 195 233 286 347
#     4  10  22  41  61  81 114 156 194 230 281 351
#     4   9  17  35  60  80 105 146 194 235 272 333
#     4  11  24  38  59  87 117 150 189 243 290 337
#     4  10  19  37  63  84 109 152 196 233 281 344
#     4  10  19  34  59  84 112 156 195 230 284 351
#     4  10  21  37  58  84 113 147 184 232 285 331
#     4  11  21  33  53  87 122 149 185 244 293 331
#
# _framework density 19.591387999999998
#
# number of rings (size 3 to 8) (size 9 to 14) (size 15 to 20)
#    0.000    1.875    2.500    2.625    1.750    2.750 
#    0.000    1.250    0.000    0.000    0.000    0.000 
#    0.000    0.000    0.000    0.000    0.000    0.000 
#
# Total GULP energy -178701.737221 kJ/mol
# GULP energy per Si atom -5584.429288 kJ/mol
# Density = 1.954680 g / cm^3
# Si number density = 19.591388 Si / 1000 Ang^3
#
#
#
# Elastic Constant Matrix: (Units=GPa)
#
#
# Indices 1 2 3 4 5 6 
#
# 1 161.9764 5.5665 72.8918 0.0000 10.9111 0.0000
# 2 5.5665 13.2608 2.0878 0.0000 2.6572 0.0000
# 3 72.8918 2.0878 117.3653 0.0000 17.4128 0.0000
# 4 0.0000 0.0000 0.0000 8.1591 0.0000 -11.2227
# 5 10.9111 2.6572 17.4128 0.0000 32.9562 0.0000
# 6 0.0000 0.0000 0.0000 -11.2227 0.0000 11.3531
#
#
#
# Elastic Compliance Matrix: (Units=1/GPa)
#
#
# Indices 1 2 3 4 5 6 
#
# 1 0.008672 -0.002834 -0.005364 0.000000 0.000191 0.000000
# 2 -0.002834 0.077600 0.001268 0.000000 -0.005988 0.000000
# 3 -0.005364 0.001268 0.012566 0.000000 -0.004966 0.000000
# 4 0.000000 0.000000 0.000000 -0.340745 0.000000 -0.336833
# 5 0.000191 -0.005988 -0.004966 0.000000 0.033387 0.000000
# 6 0.000000 0.000000 0.000000 -0.336833 0.000000 -0.244884
#
#
# Mechanical properties :
#
#
# Convention : Reuss Voigt Hill
#
# Bulk Modulus (GPa) = 11.76769 50.41051 31.08910
# Shear Modulus (GPa) = -12.15898 24.63077 6.23590
#
# Velocity S-wave (km/s) = -2.49394 3.54958 1.78603
# Velocity P-wave (km/s) = 1.50778 6.52581 4.48959
#
# Compressibility (1/GPa) = 0.08497843
#
# Stress axis : x y z
#
# Youngs Moduli (GPa) = 115.31232 12.88659 79.58008
#
# Poissons Ratio (x) = 0.03652 0.42686
# Poissons Ratio (y) = 0.32682 -0.10093
# Poissons Ratio (z) = 0.61853 -0.01634
#
# Static dielectric constant tensor:
#      x y z
#    x 1.675530 0.000000 0.018270 
#    y 0.000000 1.686830 0.000000 
#    z 0.018270 0.000000 1.675190 
# 
# From -- ./inp_files/320136.got.cif
#   From: 2010.05.17/outbox.cif.g08.bks.cpg/sg12_161_cif.got.tgz:320136.got - 2010.06.03 13:09:07.
