data_PCOD9186162
_publ_section_title
;
Structure prediction by ZEFSAII (Michael W. Deem and Ramdas Pophale) SiO2 
 PCOD9186162
Probable space group: C 2/M
;
_chemical_formula_sum "Si O2"
_cell_formula_units_Z 64
_cell_length_a 10.173475
_cell_length_b 15.650165
_cell_length_c 17.325339
_cell_angle_alpha 90.000000
_cell_angle_beta 82.618826
_cell_angle_gamma 90.000000
_cell_volume 2735.622567
_symmetry_space_group_name_H-M "C 2/M"
_symmetry_group_IT_number 12
_symmetry_cell_setting 'monoclinic'
loop_
_space_group_symop_operation_xyz
x,y,z
-x,y,-z
-x,-y,-z
x,-y,z
1/2+x,1/2+y,z
1/2-x,1/2+y,-z
1/2-x,1/2-y,-z
1/2+x,1/2-y,z
loop_
_atom_site_type_symbol
_atom_site_label
_atom_site_fract_x
_atom_site_fract_y
_atom_site_fract_z
Si Si1 0.499650 0.099380 0.119308
Si Si2 0.075677 0.220472 0.650341
Si Si3 0.354878 0.091864 0.363821
Si Si4 0.850408 0.093491 0.479163
Si Si5 0.988001 0.907833 0.889929
Si Si6 0.225143 0.351731 0.992955
Si Si7 0.342817 0.360537 0.750915
Si Si8 0.135665 0.755612 0.814689
O O1 0.384221 0.122177 0.064757
O O2 0.470330 0.177434 0.179281
O O3 0.483577 0.000000 0.143483
O O4 0.645285 0.112669 0.072707
O O5 0.063754 0.321046 0.636409
O O6 0.156990 0.171530 0.579135
O O7 0.143672 0.207425 0.728182
O O8 0.934089 0.178503 0.677299
O O9 0.251169 0.096526 0.442505
O O10 0.272025 0.094802 0.289638
O O11 0.424913 0.000000 0.362951
O O12 0.000000 0.096494 0.500000
O O13 0.834255 0.000000 0.441754
O O14 0.865190 0.891779 0.956952
O O15 0.926585 0.910838 0.807574
O O16 0.085276 0.826439 0.877774
O O17 0.049850 0.000000 0.900826
O O18 0.250000 0.250000 0.000000
O O19 0.276899 0.288863 0.811188
#
# Coordination Sequence:
#
# PCOD9186162 Si02
#       8
#     8   8   8   8   8   8   8   8
#     4  11  22  39  62  89 115 150 197 237 283 340
#     4  10  21  35  56  86 119 151 188 238 295 337
#     4  10  20  35  58  88 116 147 192 239 284 337
#     4  10  19  34  59  89 115 146 191 243 290 336
#     4  11  21  36  59  84 113 152 195 235 288 343
#     4  11  21  36  61  90 119 145 183 241 289 340
#     4  10  20  36  57  83 116 152 195 237 285 334
#     4  10  22  36  55  88 117 150 190 242 288 333
#
# _framework density 23.395040999999999
#
# number of rings (size 3 to 8) (size 9 to 14) (size 15 to 20)
#    0.000    1.625    3.750    2.250    0.000    4.000 
#    0.000    0.625    0.000    7.875    0.000    0.000 
#    0.000    0.000    0.000    0.000    0.000    0.000 
#
# Total GULP energy -178650.594259 kJ/mol
# GULP energy per Si atom -5582.831071 kJ/mol
# Density = 2.334179 g / cm^3
# Si number density = 23.395041 Si / 1000 Ang^3
#
#
#
# Elastic Constant Matrix: (Units=GPa)
#
#
# Indices 1 2 3 4 5 6 
#
# 1 40.4727 29.6452 12.0599 0.0000 -11.7320 0.0000
# 2 29.6452 181.3130 45.0405 0.0000 -5.9632 0.0000
# 3 12.0599 45.0405 100.8299 0.0000 -12.5940 0.0000
# 4 0.0000 0.0000 0.0000 21.8159 0.0000 9.7267
# 5 -11.7320 -5.9632 -12.5940 0.0000 28.5606 0.0000
# 6 0.0000 0.0000 0.0000 9.7267 0.0000 17.5071
#
#
#
# Elastic Compliance Matrix: (Units=1/GPa)
#
#
# Indices 1 2 3 4 5 6 
#
# 1 0.031702 -0.004746 -0.000179 0.000000 0.011953 0.000000
# 2 -0.004746 0.006914 -0.002735 0.000000 -0.001712 0.000000
# 3 -0.000179 -0.002735 0.011726 0.000000 0.004526 0.000000
# 4 0.000000 0.000000 0.000000 0.060932 0.000000 -0.033853
# 5 0.011953 -0.001712 0.004526 0.000000 0.041562 0.000000
# 6 0.000000 0.000000 0.000000 -0.033853 0.000000 0.075928
#
#
# Mechanical properties :
#
#
# Convention : Reuss Voigt Hill
#
# Bulk Modulus (GPa) = 28.55217 55.12295 41.83756
# Shear Modulus (GPa) = 19.54979 29.30141 24.42560
#
# Velocity S-wave (km/s) = 2.89388 3.54285 3.23468
# Velocity P-wave (km/s) = 4.83703 6.35206 5.64560
#
# Compressibility (1/GPa) = 0.03502361
#
# Stress axis : x y z
#
# Youngs Moduli (GPa) = 31.54346 144.62689 85.28021
#
# Poissons Ratio (x) = 0.68638 0.01526
# Poissons Ratio (y) = 0.14970 0.23322
# Poissons Ratio (z) = 0.00564 0.39552
#
# Static dielectric constant tensor:
#      x y z
#    x 1.909510 0.000000 0.046000 
#    y 0.000000 1.940080 0.000000 
#    z 0.046000 0.000000 1.932240 
# 
# From -- ./inp_files/305414.got.cif
#   From: 2010.05.17/outbox.cif.g08.bks.cpg/sg12_153_cif.got.tgz:305414.got - 2010.06.03 13:09:07.
