data_PCOD9186318
_publ_section_title
;
Structure prediction by ZEFSAII (Michael W. Deem and Ramdas Pophale) SiO2 
 PCOD9186318
Probable space group: C 2/M
;
_chemical_formula_sum "Si O2"
_cell_formula_units_Z 64
_cell_length_a 28.815121
_cell_length_b 9.299205
_cell_length_c 16.974225
_cell_angle_alpha 90.000000
_cell_angle_beta 46.177491
_cell_angle_gamma 90.000000
_cell_volume 3281.598863
_symmetry_space_group_name_H-M "C 2/M"
_symmetry_group_IT_number 12
_symmetry_cell_setting 'monoclinic'
loop_
_space_group_symop_operation_xyz
x,y,z
-x,y,-z
-x,-y,-z
x,-y,z
1/2+x,1/2+y,z
1/2-x,1/2+y,-z
1/2-x,1/2-y,-z
1/2+x,1/2-y,z
loop_
_atom_site_type_symbol
_atom_site_label
_atom_site_fract_x
_atom_site_fract_y
_atom_site_fract_z
Si Si1 0.464241 0.825490 0.963530
Si Si2 0.316969 0.168636 0.147144
Si Si3 0.687311 0.327584 0.538119
Si Si4 0.110284 0.271035 0.343353
Si Si5 0.225611 0.161609 0.103298
Si Si6 0.940220 0.671912 0.286415
Si Si7 0.788913 0.661325 0.644124
Si Si8 0.978140 0.665242 0.422045
O O1 0.504477 0.785344 0.839502
O O2 0.464213 0.000000 0.965169
O O3 0.500000 0.774597 0.000000
O O4 0.389986 0.783728 0.050387
O O5 0.278343 0.175183 0.110636
O O6 0.278822 0.271078 0.251183
O O7 0.315053 0.000000 0.175571
O O8 0.691342 0.500000 0.537085
O O9 0.750000 0.250000 0.500000
O O10 0.623584 0.263876 0.653540
O O11 0.682810 0.269048 0.453814
O O12 0.156702 0.189936 0.226830
O O13 0.165725 0.343842 0.332000
O O14 0.053615 0.334302 0.354938
O O15 0.062463 0.228438 0.473166
O O16 0.224039 0.000000 0.076510
O O17 0.250000 0.250000 0.000000
O O18 0.926520 0.500000 0.293835
O O19 0.964675 0.693833 0.346922
O O20 0.783921 0.500000 0.617538
O O21 0.955577 0.500000 0.465502
#
# Coordination Sequence:
#
# PCOD9186318 Si02
#       8
#     8   8   8   8   8   8   8   8
#     4   9  19  36  61  90 119 156 203 250 305 369
#     4   9  20  38  59  87 119 158 202 250 306 366
#     4  12  26  43  64  90 123 160 202 254 314 369
#     4  10  20  36  59  89 124 163 206 253 304 368
#     4  10  23  39  58  85 120 161 211 260 312 367
#     4  10  21  39  64  94 125 157 207 260 305 367
#     4  11  21  38  63  92 123 158 205 255 307 367
#     4  10  19  34  60  92 123 164 208 251 304 370
#
# _framework density 19.502687000000002
#
# number of rings (size 3 to 8) (size 9 to 14) (size 15 to 20)
#    0.000    1.875    1.250    3.000    3.500    3.500 
#    0.000    2.500    0.000    0.750    0.000    0.000 
#    0.000    0.000    0.000    0.000    0.000    0.000 
#
# Total GULP energy -178146.588727 kJ/mol
# GULP energy per Si atom -5567.080898 kJ/mol
# Density = 1.945830 g / cm^3
# Si number density = 19.502687 Si / 1000 Ang^3
#
#
#
# Elastic Constant Matrix: (Units=GPa)
#
#
# Indices 1 2 3 4 5 6 
#
# 1 88.8727 29.2499 53.2442 0.0000 -23.9077 0.0001
# 2 29.2499 80.7487 48.5055 0.0027 -7.9788 -0.0007
# 3 53.2442 48.5055 151.6872 0.0010 -26.9794 -0.0003
# 4 0.0000 0.0027 0.0010 29.0600 -0.0004 -3.2552
# 5 -23.9077 -7.9788 -26.9794 -0.0004 37.0539 -0.0001
# 6 0.0001 -0.0007 -0.0003 -3.2552 -0.0001 16.9056
#
#
#
# Elastic Compliance Matrix: (Units=1/GPa)
#
#
# Indices 1 2 3 4 5 6 
#
# 1 0.016308 -0.003129 -0.003414 0.000001 0.007362 0.000000
# 2 -0.003129 0.015932 -0.004302 -0.000001 -0.001721 0.000000
# 3 -0.003414 -0.004302 0.009891 0.000000 0.004072 0.000000
# 4 0.000001 -0.000001 0.000000 0.035170 0.000001 0.006772
# 5 0.007362 -0.001721 0.004072 0.000001 0.034333 0.000000
# 6 0.000000 0.000000 0.000000 0.006772 0.000000 0.060456
#
#
# Mechanical properties :
#
#
# Convention : Reuss Voigt Hill
#
# Bulk Modulus (GPa) = 48.92407 64.81198 56.86803
# Shear Modulus (GPa) = 24.92596 29.29116 27.10856
#
# Velocity S-wave (km/s) = 3.57890 3.87964 3.73230
# Velocity P-wave (km/s) = 6.49756 7.30571 6.91345
#
# Compressibility (1/GPa) = 0.02043984
#
# Stress axis : x y z
#
# Youngs Moduli (GPa) = 61.31995 62.76733 101.10109
#
# Poissons Ratio (x) = 0.19639 0.34519
# Poissons Ratio (y) = 0.19186 0.43497
# Poissons Ratio (z) = 0.20936 0.27005
#
# Static dielectric constant tensor:
#      x y z
#    x 1.698440 0.000000 0.002510 
#    y 0.000000 1.690220 0.000000 
#    z 0.002510 0.000000 1.714350 
# 
# From -- ./inp_files/295492.got.cif
#   From: 2010.05.17/outbox.cif.g08.bks.cpg/sg12_148_cif.got.tgz:295492.got - 2010.06.03 13:09:07.
