data_PCOD9186752
_publ_section_title
;
Structure prediction by ZEFSAII (Michael W. Deem and Ramdas Pophale) SiO2 
 PCOD9186752
Probable space group: C 2/M
;
_chemical_formula_sum "Si O2"
_cell_formula_units_Z 52
_cell_length_a 17.081213
_cell_length_b 8.388508
_cell_length_c 23.627525
_cell_angle_alpha 90.000000
_cell_angle_beta 48.410827
_cell_angle_gamma 90.000000
_cell_volume 2532.088399
_symmetry_space_group_name_H-M "C 2/M"
_symmetry_group_IT_number 12
_symmetry_cell_setting 'monoclinic'
loop_
_space_group_symop_operation_xyz
x,y,z
-x,y,-z
-x,-y,-z
x,-y,z
1/2+x,1/2+y,z
1/2-x,1/2+y,-z
1/2-x,1/2-y,-z
1/2+x,1/2-y,z
loop_
_atom_site_type_symbol
_atom_site_label
_atom_site_fract_x
_atom_site_fract_y
_atom_site_fract_z
Si Si1 0.738471 0.000000 0.598805
Si Si2 0.463458 0.693050 0.954115
Si Si3 0.995359 0.693130 0.821775
Si Si4 0.940224 0.000000 0.425306
Si Si5 0.261166 0.811379 0.911153
Si Si6 0.442033 0.241173 0.327683
Si Si7 0.820900 0.000000 0.682715
Si Si8 0.182086 0.321773 0.242475
O O1 0.664069 0.856397 0.617147
O O2 0.848984 0.000000 0.514592
O O3 0.753116 0.000000 0.659040
O O4 0.466173 0.500000 0.947789
O O5 0.526072 0.765201 0.871112
O O6 0.500000 0.732114 0.000000
O O7 0.343026 0.754713 0.010600
O O8 0.002136 0.500000 0.809419
O O9 0.874511 0.750559 0.874234
O O10 0.052502 0.780214 0.742177
O O11 0.933086 0.142202 0.384300
O O12 0.056956 0.000000 0.394078
O O13 0.254734 0.798238 0.846183
O O14 0.262885 0.000000 0.922873
O O15 0.559176 0.171414 0.282282
O O16 0.803995 0.164266 0.725942
O O17 0.207302 0.500000 0.253690
#
# Coordination Sequence:
#
# PCOD9186752 Si02
#       8
#     4   8   8   4   8   8   4   8
#     4  12  21  40  60  90 126 145 182 256 303 335
#     4  10  21  34  49  76 112 146 179 227 284 331
#     4  10  19  35  56  77 105 142 186 234 275 330
#     4  10  23  40  64  87 115 157 195 231 294 374
#     4   8  16  33  55  76 104 147 191 231 275 326
#     4  10  20  38  63  88 111 153 199 241 293 346
#     4  10  23  36  60  93 124 156 196 241 297 357
#     4   9  17  38  62  82 119 164 202 239 288 355
#
# _framework density 20.536408000000002
#
# number of rings (size 3 to 8) (size 9 to 14) (size 15 to 20)
#    0.000    2.308    1.538    2.077    1.077    1.538 
#    4.154    0.000    0.000    1.846    0.000    0.000 
#    0.000    0.000    0.000    0.000    0.000    0.000 
#
# Total GULP energy -144817.000162 kJ/mol
# GULP energy per Si atom -5569.884622 kJ/mol
# Density = 2.048967 g / cm^3
# Si number density = 20.536408 Si / 1000 Ang^3
#
#
#
# Elastic Constant Matrix: (Units=GPa)
#
#
# Indices 1 2 3 4 5 6 
#
# 1 47.0602 18.0433 -0.5985 0.0000 9.8372 0.0002
# 2 18.0433 53.9120 13.5130 0.0000 11.9955 0.0004
# 3 -0.5985 13.5130 86.9656 0.0000 2.5395 0.0000
# 4 0.0000 0.0000 0.0000 24.5757 0.0000 2.3739
# 5 9.8372 11.9955 2.5395 0.0000 31.9222 0.0000
# 6 0.0002 0.0004 0.0000 2.3739 0.0000 14.4690
#
#
#
# Elastic Compliance Matrix: (Units=1/GPa)
#
#
# Indices 1 2 3 4 5 6 
#
# 1 0.025278 -0.007727 0.001521 0.000000 -0.005007 0.000000
# 2 -0.007727 0.023376 -0.003507 0.000000 -0.006124 -0.000001
# 3 0.001521 -0.003507 0.012057 0.000000 -0.000110 0.000000
# 4 0.000000 0.000000 0.000000 0.041346 0.000000 -0.006784
# 5 -0.005007 -0.006124 -0.000110 0.000000 0.035179 0.000000
# 6 0.000000 -0.000001 0.000000 -0.006784 0.000000 0.070226
#
#
# Mechanical properties :
#
#
# Convention : Reuss Voigt Hill
#
# Bulk Modulus (GPa) = 24.22139 27.76147 25.99143
# Shear Modulus (GPa) = 20.77699 24.65872 22.71785
#
# Velocity S-wave (km/s) = 3.18420 3.46892 3.32960
# Velocity P-wave (km/s) = 5.03376 5.43986 5.24074
#
# Compressibility (1/GPa) = 0.04128583
#
# Stress axis : x y z
#
# Youngs Moduli (GPa) = 39.56006 42.77813 82.93689
#
# Poissons Ratio (x) = 0.33056 -0.12614
# Poissons Ratio (y) = 0.30569 0.29083
# Poissons Ratio (z) = -0.06017 0.15001
#
# Static dielectric constant tensor:
#      x y z
#    x 1.770000 0.000000 -0.009550 
#    y 0.000000 1.696130 0.000000 
#    z -0.009550 0.000000 1.716910 
# 
# From -- ./inp_files/274474.got.cif
#   From: 2010.05.17/outbox.cif.g08.bks.cpg/sg12_138_cif.got.tgz:274474.got - 2010.06.03 13:09:07.
