data_PCOD9186839
_publ_section_title
;
Structure prediction by ZEFSAII (Michael W. Deem and Ramdas Pophale) SiO2 
 PCOD9186839
Probable space group: C 2/M
;
_chemical_formula_sum "Si O2"
_cell_formula_units_Z 48
_cell_length_a 23.309813
_cell_length_b 15.360692
_cell_length_c 19.774249
_cell_angle_alpha 90.000000
_cell_angle_beta 16.579986
_cell_angle_gamma 90.000000
_cell_volume 2020.379356
_symmetry_space_group_name_H-M "C 2/M"
_symmetry_group_IT_number 12
_symmetry_cell_setting 'monoclinic'
loop_
_space_group_symop_operation_xyz
x,y,z
-x,y,-z
-x,-y,-z
x,-y,z
1/2+x,1/2+y,z
1/2-x,1/2+y,-z
1/2-x,1/2-y,-z
1/2+x,1/2-y,z
loop_
_atom_site_type_symbol
_atom_site_label
_atom_site_fract_x
_atom_site_fract_y
_atom_site_fract_z
Si Si1 0.276724 0.092245 0.720355
Si Si2 0.034350 0.096034 0.132761
Si Si3 0.222723 0.599841 0.008369
Si Si4 0.728111 0.720311 0.267256
Si Si5 0.675732 0.600659 0.447473
Si Si6 0.464619 0.213747 0.205572
O O1 0.500000 0.092290 0.500000
O O2 0.242641 0.186884 0.726834
O O3 0.253253 0.000000 0.708465
O O4 0.128970 0.090783 0.951460
O O5 0.214928 0.108974 0.983420
O O6 0.910295 0.184950 0.275617
O O7 0.944885 0.000000 0.249852
O O8 0.151081 0.500000 0.079026
O O9 0.435744 0.609256 0.728451
O O10 0.070995 0.670439 0.150279
O O11 0.500000 0.720147 0.500000
O O12 0.748532 0.641400 0.295186
O O13 0.870895 0.713491 0.041345
O O14 0.727329 0.500000 0.393673
O O15 0.786452 0.654838 0.379669
#
# Coordination Sequence:
#
# PCOD9186839 Si02
#       6
#     8   8   8   8   8   8
#     4   8  15  30  56  85 111 141 182 231 279 334
#     4   9  19  36  59  86 115 148 187 233 282 335
#     4  10  21  38  59  83 116 153 188 231 281 333
#     4  10  19  35  56  82 114 148 188 232 282 334
#     4  11  24  38  56  84 116 150 192 238 279 330
#     4  11  21  37  60  83 114 153 190 231 283 336
#
# _framework density 23.757915000000001
#
# number of rings (size 3 to 8) (size 9 to 14) (size 15 to 20)
#    0.000    2.167    1.667    1.500    0.000    3.000 
#    0.000    0.833    0.000    5.000    0.000    0.000 
#    0.000    0.000    0.000    0.000    0.000    0.000 
#
# Total GULP energy -134202.961742 kJ/mol
# GULP energy per Si atom -5591.790073 kJ/mol
# Density = 2.370384 g / cm^3
# Si number density = 23.757915 Si / 1000 Ang^3
#
#
#
# Elastic Constant Matrix: (Units=GPa)
#
#
# Indices 1 2 3 4 5 6 
#
# 1 54.1687 44.0735 19.3786 -0.0125 -9.2337 -0.0023
# 2 44.0735 224.1600 32.7473 -0.0209 -21.0068 -0.0017
# 3 19.3786 32.7473 58.0553 -0.0749 3.3358 0.0467
# 4 -0.0125 -0.0209 -0.0749 9.8722 0.0192 -3.0290
# 5 -9.2337 -21.0068 3.3358 0.0192 28.0497 -0.0152
# 6 -0.0023 -0.0017 0.0467 -3.0290 -0.0152 36.9736
#
#
#
# Elastic Compliance Matrix: (Units=1/GPa)
#
#
# Indices 1 2 3 4 5 6 
#
# 1 0.024626 -0.003247 -0.006761 -0.000037 0.006479 0.000010
# 2 -0.003247 0.005779 -0.002380 -0.000016 0.003542 0.000003
# 3 -0.006761 -0.002380 0.021199 0.000155 -0.006529 -0.000017
# 4 -0.000037 -0.000016 0.000155 0.103907 -0.000109 0.008512
# 5 0.006479 0.003542 -0.006529 -0.000109 0.041213 0.000017
# 6 0.000010 0.000003 -0.000017 0.008512 0.000017 0.027744
#
#
# Mechanical properties :
#
#
# Convention : Reuss Voigt Hill
#
# Bulk Modulus (GPa) = 37.27239 58.75364 48.01302
# Shear Modulus (GPa) = 19.36589 30.99140 25.17864
#
# Velocity S-wave (km/s) = 2.85815 3.61566 3.25899
# Velocity P-wave (km/s) = 5.15893 6.49727 5.86639
#
# Compressibility (1/GPa) = 0.02682951
#
# Stress axis : x y z
#
# Youngs Moduli (GPa) = 40.60794 173.03803 47.17144
#
# Poissons Ratio (x) = 0.56185 0.31892
# Poissons Ratio (y) = 0.13185 0.11225
# Poissons Ratio (z) = 0.27454 0.41175
#
# Static dielectric constant tensor:
#      x y z
#    x 1.903640 -0.000010 -0.004620 
#    y -0.000010 1.921090 0.000040 
#    z -0.004620 0.000040 1.883850 
# 
# From -- ./inp_files/325610.got.cif
#   From: 2010.05.17/outbox.cif.g08.bks.cpg/sg12_163_cif.got.tgz:325610.got - 2010.06.03 13:09:07.
