data_PCOD9186130
_publ_section_title
;
Structure prediction by ZEFSAII (Michael W. Deem and Ramdas Pophale) SiO2 
 PCOD9186130
Probable space group: C 2/M
;
_chemical_formula_sum "Si O2"
_cell_formula_units_Z 64
_cell_length_a 26.386503
_cell_length_b 9.103283
_cell_length_c 15.293856
_cell_angle_alpha 90.000000
_cell_angle_beta 62.303546
_cell_angle_gamma 90.000000
_cell_volume 3252.725237
_symmetry_space_group_name_H-M "C 2/M"
_symmetry_group_IT_number 12
_symmetry_cell_setting 'monoclinic'
loop_
_space_group_symop_operation_xyz
x,y,z
-x,y,-z
-x,-y,-z
x,-y,z
1/2+x,1/2+y,z
1/2-x,1/2+y,-z
1/2-x,1/2-y,-z
1/2+x,1/2-y,z
loop_
_atom_site_type_symbol
_atom_site_label
_atom_site_fract_x
_atom_site_fract_y
_atom_site_fract_z
Si Si1 0.562501 0.165094 0.489542
Si Si2 0.628955 0.178292 0.265933
Si Si3 0.433134 0.825040 0.198253
Si Si4 0.772672 0.832323 0.566767
Si Si5 0.379825 0.323556 0.072503
Si Si6 0.249216 0.176384 0.768911
Si Si7 0.897452 0.166326 0.389573
Si Si8 0.065160 0.322633 0.140105
O O1 0.500000 0.152473 0.500000
O O2 0.601724 0.226728 0.380022
O O3 0.558363 0.259763 0.579906
O O4 0.583512 0.000000 0.496228
O O5 0.696153 0.218072 0.214706
O O6 0.592299 0.225330 0.211216
O O7 0.625106 0.000000 0.270181
O O8 0.417113 0.745992 0.121026
O O9 0.392171 0.762361 0.306887
O O10 0.497765 0.791797 0.179246
O O11 0.427573 0.000000 0.193101
O O12 0.750000 0.750000 0.500000
O O13 0.757427 0.750536 0.668114
O O14 0.840330 0.834305 0.493448
O O15 0.751848 0.000000 0.586946
O O16 0.385848 0.500000 0.067946
O O17 0.312988 0.286939 0.143005
O O18 0.401047 0.255300 0.965019
O O19 0.251271 0.000000 0.755671
O O20 0.911646 0.000000 0.353225
O O21 0.071505 0.500000 0.128903
#
# Coordination Sequence:
#
# PCOD9186130 Si02
#       8
#     8   8   8   8   8   8   8   8
#     4  10  19  34  59  87 115 155 203 241 281 344
#     4   9  18  36  61  86 117 155 197 247 293 342
#     4  11  23  40  63  89 118 155 203 251 296 358
#     4  11  23  37  56  84 118 155 198 241 289 350
#     4  11  24  40  60  89 121 154 197 248 307 367
#     4  10  21  39  61  85 118 159 199 242 297 355
#     4  11  23  37  55  86 123 155 188 235 298 355
#     4  10  22  41  64  89 115 151 202 252 299 355
#
# _framework density 19.675809999999998
#
# number of rings (size 3 to 8) (size 9 to 14) (size 15 to 20)
#    0.000    1.625    1.250    3.375    0.000   10.750 
#    0.000    1.250    0.000    0.000    0.000    0.000 
#    0.000    0.000    0.000    0.000    0.000    0.000 
#
# Total GULP energy -178691.854992 kJ/mol
# GULP energy per Si atom -5584.120468 kJ/mol
# Density = 1.963103 g / cm^3
# Si number density = 19.675810 Si / 1000 Ang^3
#
#
#
# Elastic Constant Matrix: (Units=GPa)
#
#
# Indices 1 2 3 4 5 6 
#
# 1 90.5697 29.8192 29.0191 0.0000 11.9632 0.0000
# 2 29.8192 36.8480 25.2463 0.0000 -4.2393 0.0000
# 3 29.0191 25.2463 98.9396 0.0000 4.8164 0.0000
# 4 0.0000 0.0000 0.0000 34.7143 0.0000 -0.2334
# 5 11.9632 -4.2393 4.8164 0.0000 33.4168 0.0000
# 6 0.0000 0.0000 0.0000 -0.2334 0.0000 12.6155
#
#
#
# Elastic Compliance Matrix: (Units=1/GPa)
#
#
# Indices 1 2 3 4 5 6 
#
# 1 0.016969 -0.013891 -0.001058 0.000000 -0.007685 0.000000
# 2 -0.013891 0.045264 -0.008054 0.000000 0.011876 0.000000
# 3 -0.001058 -0.008054 0.012592 0.000000 -0.002458 0.000000
# 4 0.000000 0.000000 0.000000 0.028810 0.000000 0.000533
# 5 -0.007685 0.011876 -0.002458 0.000000 0.034537 0.000000
# 6 0.000000 0.000000 0.000000 0.000533 0.000000 0.079278
#
#
# Mechanical properties :
#
#
# Convention : Reuss Voigt Hill
#
# Bulk Modulus (GPa) = 34.69940 43.83628 39.26784
# Shear Modulus (GPa) = 18.31080 25.63417 21.97249
#
# Velocity S-wave (km/s) = 3.05392 3.61338 3.34537
# Velocity P-wave (km/s) = 5.48718 6.30368 5.90955
#
# Compressibility (1/GPa) = 0.02881894
#
# Stress axis : x y z
#
# Youngs Moduli (GPa) = 58.93162 22.09250 79.41338
#
# Poissons Ratio (x) = 0.30689 0.08405
# Poissons Ratio (y) = 0.81862 0.63959
# Poissons Ratio (z) = 0.06237 0.17793
#
# Static dielectric constant tensor:
#      x y z
#    x 1.748230 0.000000 -0.020660 
#    y 0.000000 1.688390 0.000000 
#    z -0.020660 0.000000 1.670310 
# 
# From -- ./inp_files/243868.got.cif
#   From: 2010.05.17/outbox.cif.g08.bks.cpg/sg12_122_cif.got.tgz:243868.got - 2010.06.03 13:09:07.
