data_PCOD9186999
_publ_section_title
;
Structure prediction by ZEFSAII (Michael W. Deem and Ramdas Pophale) SiO2 
 PCOD9186999
Probable space group: C 2/M
;
_chemical_formula_sum "Si O2"
_cell_formula_units_Z 56
_cell_length_a 9.618964
_cell_length_b 18.333667
_cell_length_c 20.728816
_cell_angle_alpha 90.000000
_cell_angle_beta 58.200703
_cell_angle_gamma 90.000000
_cell_volume 3106.844621
_symmetry_space_group_name_H-M "C 2/M"
_symmetry_group_IT_number 12
_symmetry_cell_setting 'monoclinic'
loop_
_space_group_symop_operation_xyz
x,y,z
-x,y,-z
-x,-y,-z
x,-y,z
1/2+x,1/2+y,z
1/2-x,1/2+y,-z
1/2-x,1/2-y,-z
1/2+x,1/2-y,z
loop_
_atom_site_type_symbol
_atom_site_label
_atom_site_fract_x
_atom_site_fract_y
_atom_site_fract_z
Si Si1 0.526462 0.915399 0.565486
Si Si2 0.551975 0.828943 0.178039
Si Si3 0.171064 0.916474 0.422117
Si Si4 0.787876 0.361693 0.726826
Si Si5 0.824501 0.194474 0.693639
Si Si6 0.415896 0.336743 0.809534
Si Si7 0.431421 0.913882 0.088388
O O1 0.500000 0.883016 0.500000
O O2 0.683097 0.887669 0.567497
O O3 0.371953 0.911441 0.651951
O O4 0.568507 0.000000 0.544168
O O5 0.634419 0.865603 0.220509
O O6 0.362385 0.820506 0.241901
O O7 0.614291 0.745470 0.156320
O O8 0.545769 0.873610 0.113237
O O9 0.142812 0.857513 0.373626
O O10 0.000000 0.922306 0.500000
O O11 0.214125 0.000000 0.388949
O O12 0.832573 0.281452 0.687154
O O13 0.593105 0.366964 0.785705
O O14 0.931771 0.172439 0.728609
O O15 0.254891 0.383948 0.862661
O O16 0.430318 0.000000 0.102572
O O17 0.500000 0.901885 0.000000
#
# Coordination Sequence:
#
# PCOD9186999 Si02
#       7
#     8   8   8   8   8   8   8
#     4  10  22  37  50  72 108 146 185 233 284 332
#     4   9  18  37  59  83 115 149 188 229 280 345
#     4  10  21  36  53  74 105 145 192 235 282 346
#     4  10  19  35  57  82 110 142 186 239 282 331
#     4   9  18  34  54  81 108 141 189 233 276 330
#     4   9  20  35  58  86 115 147 186 234 282 340
#     4  10  22  40  61  88 121 153 188 231 278 337
#
# _framework density 18.024719000000001
#
# number of rings (size 3 to 8) (size 9 to 14) (size 15 to 20)
#    0.000    2.429    1.429    0.857    2.000    4.571 
#    0.000    2.143    0.000    1.714    0.000    0.000 
#    0.000    0.000    0.000    0.000    0.000    0.000 
#
# Total GULP energy -155868.691166 kJ/mol
# GULP energy per Si atom -5566.738970 kJ/mol
# Density = 1.798369 g / cm^3
# Si number density = 18.024719 Si / 1000 Ang^3
#
#
#
# Elastic Constant Matrix: (Units=GPa)
#
#
# Indices 1 2 3 4 5 6 
#
# 1 79.8700 25.7671 29.3343 0.0000 26.5287 -0.0001
# 2 25.7671 59.9793 52.3000 0.0000 19.8078 0.0000
# 3 29.3343 52.3000 72.2312 0.0000 20.6565 0.0000
# 4 0.0000 0.0000 0.0000 52.1931 0.0000 18.2605
# 5 26.5287 19.8078 20.6565 0.0000 27.6356 0.0000
# 6 -0.0001 0.0000 0.0000 18.2605 0.0000 56.9058
#
#
#
# Elastic Compliance Matrix: (Units=1/GPa)
#
#
# Indices 1 2 3 4 5 6 
#
# 1 0.018939 -0.000430 -0.002886 0.000000 -0.015715 0.000000
# 2 -0.000430 0.047566 -0.031332 0.000000 -0.010261 0.000000
# 3 -0.002886 -0.031332 0.038777 0.000000 -0.003757 0.000000
# 4 0.000000 0.000000 0.000000 0.021583 0.000000 -0.006926
# 5 -0.015715 -0.010261 -0.003757 0.000000 0.061433 0.000000
# 6 0.000000 0.000000 0.000000 -0.006926 0.000000 0.019795
#
#
# Mechanical properties :
#
#
# Convention : Reuss Voigt Hill
#
# Bulk Modulus (GPa) = 27.78824 47.43147 37.60985
# Shear Modulus (GPa) = 17.27811 34.32553 25.80182
#
# Velocity S-wave (km/s) = 3.09945 4.36863 3.78758
# Velocity P-wave (km/s) = 5.31592 7.19850 6.32761
#
# Compressibility (1/GPa) = 0.03598645
#
# Stress axis : x y z
#
# Youngs Moduli (GPa) = 52.80214 21.02343 25.78840
#
# Poissons Ratio (x) = 0.00904 0.07442
# Poissons Ratio (y) = 0.02270 0.80800
# Poissons Ratio (z) = 0.15239 0.65870
#
# Static dielectric constant tensor:
#      x y z
#    x 1.637390 0.000000 0.036250 
#    y 0.000000 1.684780 0.000000 
#    z 0.036250 0.000000 1.609010 
# 
# From -- ./inp_files/257013.got.cif
#   From: 2010.05.17/outbox.cif.g08.bks.cpg/sg12_129_cif.got.tgz:257013.got - 2010.06.03 13:09:07.
