data_PCOD9186937
_publ_section_title
;
Structure prediction by ZEFSAII (Michael W. Deem and Ramdas Pophale) SiO2 
 PCOD9186937
Probable space group: C 2/M
;
_chemical_formula_sum "Si O2"
_cell_formula_units_Z 40
_cell_length_a 10.104011
_cell_length_b 29.058715
_cell_length_c 8.039651
_cell_angle_alpha 90.000000
_cell_angle_beta 127.961080
_cell_angle_gamma 90.000000
_cell_volume 1861.100737
_symmetry_space_group_name_H-M "C 2/M"
_symmetry_group_IT_number 12
_symmetry_cell_setting 'monoclinic'
loop_
_space_group_symop_operation_xyz
x,y,z
-x,y,-z
-x,-y,-z
x,-y,z
1/2+x,1/2+y,z
1/2-x,1/2+y,-z
1/2-x,1/2-y,-z
1/2+x,1/2-y,z
loop_
_atom_site_type_symbol
_atom_site_label
_atom_site_fract_x
_atom_site_fract_y
_atom_site_fract_z
Si Si1 0.419241 0.891752 0.772295
Si Si2 0.259869 0.637733 0.859653
Si Si3 0.699905 0.948154 0.609096
Si Si4 0.666242 0.677661 0.740332
Si Si5 0.698621 0.229235 0.639444
O O1 0.567457 0.869662 0.775704
O O2 0.308703 0.926958 0.581509
O O3 0.304820 0.851066 0.749869
O O4 0.500000 0.914009 0.000000
O O5 0.292559 0.588960 0.797330
O O6 0.643205 0.653154 0.899628
O O7 0.275842 0.680176 0.745193
O O8 0.500000 0.949778 0.500000
O O9 0.765072 0.000000 0.670085
O O10 0.500000 0.678251 0.500000
O O11 0.733120 0.730018 0.798706
O O12 0.500000 0.221562 0.500000
O O13 0.750000 0.250000 0.500000
#
# Coordination Sequence:
#
# PCOD9186937 Si02
#       5
#     8   8   8   8   8
#     4   9  18  34  56  79 108 142 177 222 274 324
#     4  10  19  35  57  79 108 143 180 225 274 322
#     4   9  17  31  54  82 105 131 177 231 276 320
#     4  10  21  35  52  79 111 144 182 222 267 324
#     4  11  21  35  56  83 113 145 183 225 274 328
#
# _framework density 21.492659
#
# number of rings (size 3 to 8) (size 9 to 14) (size 15 to 20)
#    0.000    2.200    0.000    4.800    0.000    0.400 
#    0.000   16.000    0.000    3.600    0.000    0.000 
#    0.000    0.000    0.000    0.000    0.000    0.000 
#
# Total GULP energy -111662.913504 kJ/mol
# GULP energy per Si atom -5583.145675 kJ/mol
# Density = 2.144374 g / cm^3
# Si number density = 21.492659 Si / 1000 Ang^3
#
#
#
# Elastic Constant Matrix: (Units=GPa)
#
#
# Indices 1 2 3 4 5 6 
#
# 1 69.4917 26.0350 33.0626 0.0000 -6.5632 0.0000
# 2 26.0350 205.7116 83.9204 0.0000 -27.8813 0.0000
# 3 33.0626 83.9204 98.5960 0.0000 -32.3271 0.0000
# 4 0.0000 0.0000 0.0000 2.2352 0.0000 12.3561
# 5 -6.5632 -27.8813 -32.3271 0.0000 28.7977 0.0000
# 6 0.0000 0.0000 0.0000 12.3561 0.0000 7.0957
#
#
#
# Elastic Compliance Matrix: (Units=1/GPa)
#
#
# Indices 1 2 3 4 5 6 
#
# 1 0.017431 0.000262 -0.007410 0.000000 -0.004091 0.000000
# 2 0.000262 0.007451 -0.006401 0.000000 0.000088 0.000000
# 3 -0.007410 -0.006401 0.024512 0.000000 0.019629 0.000000
# 4 0.000000 0.000000 0.000000 -0.051864 0.000000 0.090314
# 5 -0.004091 0.000088 0.019629 0.000000 0.055913 0.000000
# 6 0.000000 0.000000 0.000000 0.090314 0.000000 -0.016337
#
#
# Mechanical properties :
#
#
# Convention : Reuss Voigt Hill
#
# Bulk Modulus (GPa) = 44.85088 73.31502 59.08295
# Shear Modulus (GPa) = 69.79837 23.01114 46.40476
#
# Velocity S-wave (km/s) = 5.70491 3.27563 4.65165
# Velocity P-wave (km/s) = 8.01922 6.96362 7.50999
#
# Compressibility (1/GPa) = 0.02229611
#
# Stress axis : x y z
#
# Youngs Moduli (GPa) = 57.36912 134.20393 40.79706
#
# Poissons Ratio (x) = -0.03520 0.30230
# Poissons Ratio (y) = -0.01505 0.26115
# Poissons Ratio (z) = 0.42510 0.85907
#
# Static dielectric constant tensor:
#      x y z
#    x 1.841710 0.000000 -0.011220 
#    y 0.000000 1.782310 0.000000 
#    z -0.011220 0.000000 1.839880 
# 
# From -- ./inp_files/41887.got.cif
#   From: 2010.05.17/outbox.cif.g08.bks.cpg/sg12_21_cif.got.tgz:41887.got - 2010.06.03 13:09:07.
