data_PCOD9186800
_publ_section_title
;
Structure prediction by ZEFSAII (Michael W. Deem and Ramdas Pophale) SiO2 
 PCOD9186800
Probable space group: C 2/M
;
_chemical_formula_sum "Si O2"
_cell_formula_units_Z 56
_cell_length_a 28.708220
_cell_length_b 14.413683
_cell_length_c 8.101517
_cell_angle_alpha 90.000000
_cell_angle_beta 60.016266
_cell_angle_gamma 90.000000
_cell_volume 2903.684137
_symmetry_space_group_name_H-M "C 2/M"
_symmetry_group_IT_number 12
_symmetry_cell_setting 'monoclinic'
loop_
_space_group_symop_operation_xyz
x,y,z
-x,y,-z
-x,-y,-z
x,-y,z
1/2+x,1/2+y,z
1/2-x,1/2+y,-z
1/2-x,1/2-y,-z
1/2+x,1/2-y,z
loop_
_atom_site_type_symbol
_atom_site_label
_atom_site_fract_x
_atom_site_fract_y
_atom_site_fract_z
Si Si1 0.678440 0.894297 0.944160
Si Si2 0.339240 0.891564 0.655412
Si Si3 0.771550 0.770458 0.646150
Si Si4 0.875952 0.109805 0.384056
Si Si5 0.493732 0.396389 0.318897
Si Si6 0.094368 0.605383 0.791032
Si Si7 0.054615 0.795245 0.981394
O O1 0.725904 0.822227 0.830573
O O2 0.641495 0.891661 0.845926
O O3 0.699598 0.000000 0.917415
O O4 0.647978 0.876679 0.172730
O O5 0.290303 0.824926 0.695653
O O6 0.383593 0.874559 0.432912
O O7 0.325415 0.000000 0.660545
O O8 0.750000 0.750000 0.500000
O O9 0.824405 0.835489 0.540041
O O10 0.893007 0.152390 0.176476
O O11 0.931314 0.126808 0.387898
O O12 0.866317 0.000000 0.394518
O O13 0.500000 0.405637 0.500000
O O14 0.505225 0.500000 0.225748
O O15 0.538448 0.318985 0.193757
O O16 0.072433 0.500000 0.831626
O O17 0.058226 0.690252 0.915028
O O18 0.000000 0.838504 0.000000
#
# Coordination Sequence:
#
# PCOD9186800 Si02
#       7
#     8   8   8   8   8   8   8
#     4  10  21  37  58  81 111 151 187 233 286 332
#     4  10  21  37  56  78 109 149 191 230 276 333
#     4  12  21  35  57  83 117 151 190 236 284 339
#     4  10  20  34  55  83 111 146 188 231 280 343
#     4   9  19  36  58  83 114 147 182 232 291 346
#     4  10  20  38  58  80 111 147 191 233 279 338
#     4  10  19  35  56  80 109 144 183 229 287 337
#
# _framework density 19.285844999999998
#
# number of rings (size 3 to 8) (size 9 to 14) (size 15 to 20)
#    0.000    1.857    2.857    1.286    0.000    3.714 
#    0.000    1.429    0.000    2.143    0.000    0.000 
#    0.000    0.000    0.000    0.000    0.000    0.000 
#
# Total GULP energy -155886.331152 kJ/mol
# GULP energy per Si atom -5567.368970 kJ/mol
# Density = 1.924195 g / cm^3
# Si number density = 19.285845 Si / 1000 Ang^3
#
#
#
# Elastic Constant Matrix: (Units=GPa)
#
#
# Indices 1 2 3 4 5 6 
#
# 1 34.3172 20.3740 30.2130 0.0000 -4.1810 0.0000
# 2 20.3740 105.3328 66.7565 0.0000 -9.6027 0.0000
# 3 30.2130 66.7565 119.9269 0.0000 6.3501 0.0000
# 4 0.0000 0.0000 0.0000 33.1202 0.0000 -5.7487
# 5 -4.1810 -9.6027 6.3501 0.0000 22.4582 0.0000
# 6 0.0000 0.0000 0.0000 -5.7487 0.0000 25.0172
#
#
#
# Elastic Compliance Matrix: (Units=1/GPa)
#
#
# Indices 1 2 3 4 5 6 
#
# 1 0.039691 -0.000081 -0.010501 0.000000 0.010324 0.000000
# 2 -0.000081 0.016564 -0.009720 0.000000 0.009816 0.000000
# 3 -0.010501 -0.009720 0.016972 0.000000 -0.010910 0.000000
# 4 0.000000 0.000000 0.000000 0.031447 0.000000 0.007226
# 5 0.010324 0.009816 -0.010910 0.000000 0.053731 0.000000
# 6 0.000000 0.000000 0.000000 0.007226 0.000000 0.041633
#
#
# Mechanical properties :
#
#
# Convention : Reuss Voigt Hill
#
# Bulk Modulus (GPa) = 30.65229 54.91820 42.78524
# Shear Modulus (GPa) = 19.87945 25.60133 22.74039
#
# Velocity S-wave (km/s) = 3.21406 3.64740 3.43756
# Velocity P-wave (km/s) = 5.44993 6.80263 6.16350
#
# Compressibility (1/GPa) = 0.03262399
#
# Stress axis : x y z
#
# Youngs Moduli (GPa) = 25.19479 60.37078 58.92065
#
# Poissons Ratio (x) = 0.00489 0.61872
# Poissons Ratio (y) = 0.00204 0.57269
# Poissons Ratio (z) = 0.26457 0.58679
#
# Static dielectric constant tensor:
#      x y z
#    x 1.706770 0.000000 0.104690 
#    y 0.000000 1.696940 0.000000 
#    z 0.104690 0.000000 1.844480 
# 
# From -- ./inp_files/111561.got.cif
#   From: 2010.05.17/outbox.cif.g08.bks.cpg/sg12_56_cif.got.tgz:111561.got - 2010.06.03 13:09:07.
