data_PCOD9186579
_publ_section_title
;
Structure prediction by ZEFSAII (Michael W. Deem and Ramdas Pophale) SiO2 
 PCOD9186579
Probable space group: C 2/M
;
_chemical_formula_sum "Si O2"
_cell_formula_units_Z 52
_cell_length_a 13.703818
_cell_length_b 20.586777
_cell_length_c 23.843145
_cell_angle_alpha 90.000000
_cell_angle_beta 155.262228
_cell_angle_gamma 90.000000
_cell_volume 2814.839066
_symmetry_space_group_name_H-M "C 2/M"
_symmetry_group_IT_number 12
_symmetry_cell_setting 'monoclinic'
loop_
_space_group_symop_operation_xyz
x,y,z
-x,y,-z
-x,-y,-z
x,-y,z
1/2+x,1/2+y,z
1/2-x,1/2+y,-z
1/2-x,1/2-y,-z
1/2+x,1/2-y,z
loop_
_atom_site_type_symbol
_atom_site_label
_atom_site_fract_x
_atom_site_fract_y
_atom_site_fract_z
Si Si1 0.781765 0.282406 0.696293
Si Si2 0.105370 0.425223 0.422395
Si Si3 0.995843 0.075075 0.720620
Si Si4 0.259408 0.297558 0.450393
Si Si5 0.661044 0.365198 0.247771
Si Si6 0.000000 0.632763 0.000000
Si Si7 0.675725 0.823739 0.972760
O O1 0.529202 0.310642 0.577656
O O2 0.830280 0.269450 0.655817
O O3 0.776197 0.211105 0.722107
O O4 0.968351 0.331099 0.820523
O O5 0.101368 0.500000 0.400377
O O6 0.333051 0.417542 0.581284
O O7 0.130536 0.365478 0.393112
O O8 0.866246 0.409167 0.330637
O O9 0.268436 0.093990 0.859174
O O10 0.878746 0.116613 0.708492
O O11 0.984301 0.000000 0.731560
O O12 0.250000 0.250000 0.500000
O O13 0.402859 0.369178 0.085550
O O14 0.083808 0.670978 0.988491
O O15 0.750000 0.750000 0.000000
#
# Coordination Sequence:
#
# PCOD9186579 Si02
#       7
#     8   8   8   8   8   4   8
#     4  10  21  36  57  85 113 148 198 242 290 341
#     4  11  22  36  56  85 118 154 194 241 297 354
#     4  10  20  32  54  83 112 148 189 238 295 352
#     4  11  21  36  60  85 115 151 195 246 290 347
#     4  10  19  35  54  81 116 146 186 243 297 349
#     4  10  19  36  58  76 118 150 187 236 284 360
#     4   9  20  36  52  82 113 148 187 237 297 342
#
# _framework density 18.473524999999999
#
# number of rings (size 3 to 8) (size 9 to 14) (size 15 to 20)
#    0.000    1.846    1.538    3.000    2.154    3.692 
#    0.000    1.538    0.000    7.385    0.000    0.000 
#    0.000    0.000    0.000    0.000    0.000    0.000 
#
# Total GULP energy -144785.410098 kJ/mol
# GULP energy per Si atom -5568.669619 kJ/mol
# Density = 1.843148 g / cm^3
# Si number density = 18.473525 Si / 1000 Ang^3
#
#
#
# Elastic Constant Matrix: (Units=GPa)
#
#
# Indices 1 2 3 4 5 6 
#
# 1 75.6117 24.2392 32.2882 0.0023 7.2426 -0.0015
# 2 24.2392 72.6090 11.0803 0.0019 5.4246 0.0005
# 3 32.2882 11.0803 84.3084 0.0111 1.8152 0.0043
# 4 0.0023 0.0019 0.0111 25.5584 0.0066 3.5494
# 5 7.2426 5.4246 1.8152 0.0066 27.9679 0.0021
# 6 -0.0015 0.0005 0.0043 3.5494 0.0021 22.5307
#
#
#
# Elastic Compliance Matrix: (Units=1/GPa)
#
#
# Indices 1 2 3 4 5 6 
#
# 1 0.017641 -0.004720 -0.006066 0.000002 -0.003259 0.000002
# 2 -0.004720 0.015510 -0.000193 0.000000 -0.001774 0.000000
# 3 -0.006066 -0.000193 0.014195 -0.000005 0.000687 -0.000002
# 4 0.000002 0.000000 -0.000005 0.040001 -0.000009 -0.006302
# 5 -0.003259 -0.001774 0.000687 -0.000009 0.036899 -0.000002
# 6 0.000002 0.000000 -0.000002 -0.006302 -0.000002 0.045377
#
#
# Mechanical properties :
#
#
# Convention : Reuss Voigt Hill
#
# Bulk Modulus (GPa) = 39.38662 40.86050 40.12356
# Shear Modulus (GPa) = 24.99480 26.20615 25.60048
#
# Velocity S-wave (km/s) = 3.68231 3.77049 3.72666
# Velocity P-wave (km/s) = 6.28061 6.41263 6.34697
#
# Compressibility (1/GPa) = 0.02538933
#
# Stress axis : x y z
#
# Youngs Moduli (GPa) = 56.68632 64.47463 70.44874
#
# Poissons Ratio (x) = 0.30432 0.42731
# Poissons Ratio (y) = 0.26756 0.01357
# Poissons Ratio (z) = 0.34384 0.01242
#
# Static dielectric constant tensor:
#      x y z
#    x 1.649100 0.000000 -0.003430 
#    y 0.000000 1.630730 -0.000010 
#    z -0.003430 -0.000010 1.734570 
# 
# From -- ./inp_files/306921.got.cif
#   From: 2010.05.17/outbox.cif.g08.bks.cpg/sg12_154_cif.got.tgz:306921.got - 2010.06.03 13:09:07.
