data_PCOD9186368
_publ_section_title
;
Structure prediction by ZEFSAII (Michael W. Deem and Ramdas Pophale) SiO2 
 PCOD9186368
Probable space group: C 2/M
;
_chemical_formula_sum "Si O2"
_cell_formula_units_Z 48
_cell_length_a 17.731072
_cell_length_b 14.846869
_cell_length_c 11.126395
_cell_angle_alpha 90.000000
_cell_angle_beta 129.067077
_cell_angle_gamma 90.000000
_cell_volume 2274.127043
_symmetry_space_group_name_H-M "C 2/M"
_symmetry_group_IT_number 12
_symmetry_cell_setting 'monoclinic'
loop_
_space_group_symop_operation_xyz
x,y,z
-x,y,-z
-x,-y,-z
x,-y,z
1/2+x,1/2+y,z
1/2-x,1/2+y,-z
1/2-x,1/2-y,-z
1/2+x,1/2-y,z
loop_
_atom_site_type_symbol
_atom_site_label
_atom_site_fract_x
_atom_site_fract_y
_atom_site_fract_z
Si Si1 0.275988 0.811625 0.358531
Si Si2 0.589313 0.250301 0.290645
Si Si3 0.912546 0.602158 0.341823
Si Si4 0.026372 0.103379 0.667894
Si Si5 0.065746 0.607100 0.909968
Si Si6 0.231876 0.182151 0.868466
O O1 0.340568 0.799823 0.542505
O O2 0.163696 0.802868 0.278418
O O3 0.316552 0.895716 0.325150
O O4 0.299101 0.736387 0.281690
O O5 0.527142 0.323239 0.302516
O O6 0.523701 0.175090 0.157950
O O7 0.942492 0.500000 0.352734
O O8 0.909214 0.633505 0.203371
O O9 0.000000 0.650038 0.500000
O O10 0.141567 0.117537 0.804811
O O11 0.000000 0.116547 0.500000
O O12 0.999080 0.000000 0.670086
O O13 0.043632 0.500000 0.902362
O O14 0.169407 0.631100 0.070663
O O15 0.250000 0.250000 0.000000
#
# Coordination Sequence:
#
# PCOD9186368 Si02
#       6
#     8   8   8   8   8   8
#     4  11  23  38  61  93 124 168 205 248 320 366
#     4  11  23  41  63  89 129 165 206 259 304 372
#     4  10  19  34  61  91 119 156 211 264 304 360
#     4  11  23  42  67  91 123 169 215 254 302 369
#     4  11  23  40  65  94 122 162 209 261 314 360
#     4  12  22  39  66  92 125 162 206 259 305 372
#
# _framework density 21.106999999999999
#
# number of rings (size 3 to 8) (size 9 to 14) (size 15 to 20)
#    0.000    1.000    6.667    0.500    0.000    1.333 
#    0.000    5.000    0.000    1.000    0.000    0.000 
#    0.000    0.000    0.000    0.000    0.000    0.000 
#
# Total GULP energy -133769.298434 kJ/mol
# GULP energy per Si atom -5573.720768 kJ/mol
# Density = 2.105896 g / cm^3
# Si number density = 21.107000 Si / 1000 Ang^3
#
#
#
# Elastic Constant Matrix: (Units=GPa)
#
#
# Indices 1 2 3 4 5 6 
#
# 1 99.0506 21.7797 10.3419 0.0000 18.5191 0.0000
# 2 21.7797 93.6661 21.9923 0.0000 21.6311 0.0000
# 3 10.3419 21.9923 64.1520 0.0000 15.7743 0.0000
# 4 0.0000 0.0000 0.0000 8.1719 0.0000 4.4969
# 5 18.5191 21.6311 15.7743 0.0000 37.2554 0.0000
# 6 0.0000 0.0000 0.0000 4.4969 0.0000 18.6054
#
#
#
# Elastic Compliance Matrix: (Units=1/GPa)
#
#
# Indices 1 2 3 4 5 6 
#
# 1 0.011320 -0.001515 -0.000154 0.000000 -0.004682 0.000000
# 2 -0.001515 0.012984 -0.002833 0.000000 -0.005586 0.000000
# 3 -0.000154 -0.002833 0.018039 0.000000 -0.005916 0.000000
# 4 0.000000 0.000000 0.000000 0.141143 0.000000 -0.034114
# 5 -0.004682 -0.005586 -0.005916 0.000000 0.034917 0.000000
# 6 0.000000 0.000000 0.000000 -0.034114 0.000000 0.061993
#
#
# Mechanical properties :
#
#
# Convention : Reuss Voigt Hill
#
# Bulk Modulus (GPa) = 29.99550 40.56626 35.28088
# Shear Modulus (GPa) = 16.63813 26.32353 21.48083
#
# Velocity S-wave (km/s) = 2.81067 3.53533 3.19362
# Velocity P-wave (km/s) = 4.97747 5.99381 5.50913
#
# Compressibility (1/GPa) = 0.03333834
#
# Stress axis : x y z
#
# Youngs Moduli (GPa) = 88.33551 77.01970 55.43589
#
# Poissons Ratio (x) = 0.11666 0.00856
# Poissons Ratio (y) = 0.13380 0.15707
# Poissons Ratio (z) = 0.01363 0.21822
#
# Static dielectric constant tensor:
#      x y z
#    x 1.810950 0.000000 0.020510 
#    y 0.000000 1.830260 0.000000 
#    z 0.020510 0.000000 1.909600 
# 
# From -- ./inp_files/166884.got.cif
#   From: 2010.05.17/outbox.cif.g08.bks.cpg/sg12_84_cif.got.tgz:166884.got - 2010.06.03 13:09:07.
