data_PCOD9186385
_publ_section_title
;
Structure prediction by ZEFSAII (Michael W. Deem and Ramdas Pophale) SiO2 
 PCOD9186385
Probable space group: C 2/M
;
_chemical_formula_sum "Si O2"
_cell_formula_units_Z 58
_cell_length_a 26.407217
_cell_length_b 18.174998
_cell_length_c 12.312497
_cell_angle_alpha 90.000000
_cell_angle_beta 150.274384
_cell_angle_gamma 90.000000
_cell_volume 2930.156436
_symmetry_space_group_name_H-M "C 2/M"
_symmetry_group_IT_number 12
_symmetry_cell_setting 'monoclinic'
loop_
_space_group_symop_operation_xyz
x,y,z
-x,y,-z
-x,-y,-z
x,-y,z
1/2+x,1/2+y,z
1/2-x,1/2+y,-z
1/2-x,1/2-y,-z
1/2+x,1/2-y,z
loop_
_atom_site_type_symbol
_atom_site_label
_atom_site_fract_x
_atom_site_fract_y
_atom_site_fract_z
Si Si1 0.987359 0.813231 0.601004
Si Si2 0.260484 0.164860 0.332971
Si Si3 0.812909 0.329986 0.803896
Si Si4 0.185397 0.085513 0.991864
Si Si5 0.000000 0.000000 0.000000
Si Si6 0.634607 0.364311 0.307756
Si Si7 0.466517 0.221100 0.777784
Si Si8 0.712840 0.413985 0.794396
O O1 0.984251 0.751490 0.687750
O O2 0.886098 0.863941 0.416900
O O3 0.000000 0.786141 0.500000
O O4 0.082980 0.866100 0.803226
O O5 0.232810 0.249321 0.253172
O O6 0.256140 0.115494 0.218779
O O7 0.175200 0.140353 0.260229
O O8 0.370888 0.166485 0.593786
O O9 0.736501 0.362795 0.571562
O O10 0.803242 0.382205 0.889826
O O11 0.929118 0.314941 0.986945
O O12 0.160555 0.000000 0.962675
O O13 0.231591 0.093661 0.957770
O O14 0.935396 0.064691 0.814781
O O15 0.572003 0.292220 0.227465
O O16 0.692685 0.500000 0.734739
#
# Coordination Sequence:
#
# PCOD9186385 Si02
#       8
#     8   8   8   8   2   8   8   8
#     4  10  19  34  61  94 126 164 209 260 324 376
#     4  11  23  40  62  93 128 169 216 256 318 381
#     4  11  22  40  64  91 127 168 210 259 315 381
#     4  10  22  38  60  91 131 167 209 271 325 375
#     4  12  28  44  68  98 122 156 206 268 316 372
#     4  11  26  41  66  98 125 162 208 265 321 374
#     4  11  22  41  62  95 127 170 206 262 312 375
#     4  10  21  38  61  91 129 168 210 269 329 377
#
# _framework density 19.794166000000001
#
# number of rings (size 3 to 8) (size 9 to 14) (size 15 to 20)
#    0.000    1.379    4.138    2.897    1.931    4.966 
#    0.000    0.690    0.000    2.483    0.000    0.000 
#    0.000    0.000    0.000    0.000    0.000    0.000 
#
# Total GULP energy -161801.964038 kJ/mol
# GULP energy per Si atom -5579.378070 kJ/mol
# Density = 1.974911 g / cm^3
# Si number density = 19.794166 Si / 1000 Ang^3
#
#
#
# Elastic Constant Matrix: (Units=GPa)
#
#
# Indices 1 2 3 4 5 6 
#
# 1 61.0465 24.6587 32.8142 0.0000 0.6636 0.0000
# 2 24.6587 24.2126 18.3283 0.0000 -5.2041 0.0000
# 3 32.8142 18.3283 114.3633 0.0000 12.0811 0.0000
# 4 0.0000 0.0000 0.0000 31.2247 0.0000 -13.9428
# 5 0.6636 -5.2041 12.0811 0.0000 30.9152 0.0000
# 6 0.0000 0.0000 0.0000 -13.9428 0.0000 9.2702
#
#
#
# Elastic Compliance Matrix: (Units=1/GPa)
#
#
# Indices 1 2 3 4 5 6 
#
# 1 0.029907 -0.028637 -0.003562 0.000000 -0.004071 0.000000
# 2 -0.028637 0.078558 -0.006086 0.000000 0.016217 0.000000
# 3 -0.003562 -0.006086 0.011308 0.000000 -0.005367 0.000000
# 4 0.000000 0.000000 0.000000 0.097522 0.000000 0.146677
# 5 -0.004071 0.016217 -0.005367 0.000000 0.037261 0.000000
# 6 0.000000 0.000000 0.000000 0.146677 0.000000 0.328481
#
#
# Mechanical properties :
#
#
# Convention : Reuss Voigt Hill
#
# Bulk Modulus (GPa) = 23.14617 39.02497 31.08557
# Shear Modulus (GPa) = 7.41829 22.53676 14.97753
#
# Velocity S-wave (km/s) = 1.93800 3.37791 2.75374
# Velocity P-wave (km/s) = 4.08982 5.91370 5.08422
#
# Compressibility (1/GPa) = 0.04320369
#
# Stress axis : x y z
#
# Youngs Moduli (GPa) = 33.43680 12.72938 88.42953
#
# Poissons Ratio (x) = 0.36453 0.31496
# Poissons Ratio (y) = 0.95753 0.53822
# Poissons Ratio (z) = 0.11909 0.07748
#
# Static dielectric constant tensor:
#      x y z
#    x 1.731700 0.000000 -0.007860 
#    y 0.000000 1.652290 0.000000 
#    z -0.007860 0.000000 1.724570 
# 
# From -- ./inp_files/184462.got.cif
#   From: 2010.05.17/outbox.cif.g08.bks.cpg/sg12_93_cif.got.tgz:184462.got - 2010.06.03 13:09:07.
