data_PCOD9186481
_publ_section_title
;
Structure prediction by ZEFSAII (Michael W. Deem and Ramdas Pophale) SiO2 
 PCOD9186481
Probable space group: C 2/M
;
_chemical_formula_sum "Si O2"
_cell_formula_units_Z 42
_cell_length_a 5.253859
_cell_length_b 30.853839
_cell_length_c 14.881903
_cell_angle_alpha 90.000000
_cell_angle_beta 120.776803
_cell_angle_gamma 90.000000
_cell_volume 2072.639389
_symmetry_space_group_name_H-M "C 2/M"
_symmetry_group_IT_number 12
_symmetry_cell_setting 'monoclinic'
loop_
_space_group_symop_operation_xyz
x,y,z
-x,y,-z
-x,-y,-z
x,-y,z
1/2+x,1/2+y,z
1/2-x,1/2+y,-z
1/2-x,1/2-y,-z
1/2+x,1/2-y,z
loop_
_atom_site_type_symbol
_atom_site_label
_atom_site_fract_x
_atom_site_fract_y
_atom_site_fract_z
Si Si1 0.924360 0.769159 0.617960
Si Si2 0.719309 0.049466 0.853058
Si Si3 0.725899 0.102870 0.109251
Si Si4 0.500000 0.000000 0.500000
Si Si5 0.384460 0.075902 0.614067
Si Si6 0.059095 0.869492 0.345855
O O1 0.750000 0.750000 0.500000
O O2 0.749569 0.750302 0.670543
O O3 0.920834 0.820695 0.615966
O O4 0.480003 0.066200 0.881470
O O5 0.558720 0.052893 0.727666
O O6 0.003972 0.080392 0.894930
O O7 0.803904 0.000000 0.884173
O O8 0.868366 0.128640 0.218668
O O9 0.500000 0.126242 0.000000
O O10 0.345046 0.038382 0.534108
O O11 0.112099 0.100626 0.612633
O O12 0.618455 0.111283 0.618518
#
# Coordination Sequence:
#
# PCOD9186481 Si02
#       6
#     8   8   8   2   8   8
#     4  10  21  37  62  88 111 138 180 234 285 353
#     4  10  19  35  52  76 114 144 191 244 282 310
#     4  10  21  34  55  80 106 149 190 229 283 342
#     4  12  24  38  56  82 110 158 208 230 260 330
#     4  10  23  37  56  79 115 158 191 230 276 334
#     4  10  22  41  57  81 117 149 180 237 295 333
#
# _framework density 20.264016000000002
#
# number of rings (size 3 to 8) (size 9 to 14) (size 15 to 20)
#    0.000    1.905    0.952    2.286    0.000    9.143 
#    0.000    0.000    0.000    1.143    0.000    0.000 
#    0.000    0.000    0.000    0.000    0.000    0.000 
#
# Total GULP energy -117020.499498 kJ/mol
# GULP energy per Si atom -5572.404738 kJ/mol
# Density = 2.021789 g / cm^3
# Si number density = 20.264016 Si / 1000 Ang^3
#
#
#
# Elastic Constant Matrix: (Units=GPa)
#
#
# Indices 1 2 3 4 5 6 
#
# 1 163.5413 43.5383 3.3261 0.0000 -15.3450 0.0000
# 2 43.5383 143.5231 30.8114 0.0000 -2.9342 0.0000
# 3 3.3261 30.8114 76.9723 0.0000 -8.5284 0.0000
# 4 0.0000 0.0000 0.0000 -8.5990 0.0000 -8.2668
# 5 -15.3450 -2.9342 -8.5284 0.0000 18.0855 0.0000
# 6 0.0000 0.0000 0.0000 -8.2668 0.0000 17.0421
#
#
#
# Elastic Compliance Matrix: (Units=1/GPa)
#
#
# Indices 1 2 3 4 5 6 
#
# 1 0.007328 -0.002381 0.001353 0.000000 0.006470 0.000000
# 2 -0.002381 0.008397 -0.003515 0.000000 -0.002316 0.000000
# 3 0.001353 -0.003515 0.015198 0.000000 0.007745 0.000000
# 4 0.000000 0.000000 0.000000 -0.079308 0.000000 -0.038471
# 5 0.006470 -0.002316 0.007745 0.000000 0.064059 0.000000
# 6 0.000000 0.000000 0.000000 -0.038471 0.000000 0.040017
#
#
# Mechanical properties :
#
#
# Convention : Reuss Voigt Hill
#
# Bulk Modulus (GPa) = 45.79213 59.93202 52.86208
# Shear Modulus (GPa) = 69.39072 25.72980 47.56026
#
# Velocity S-wave (km/s) = 5.85813 3.56719 4.84987
# Velocity P-wave (km/s) = 8.27065 6.82688 7.58320
#
# Compressibility (1/GPa) = 0.02183781
#
# Stress axis : x y z
#
# Youngs Moduli (GPa) = 136.46070 119.08817 65.79663
#
# Poissons Ratio (x) = 0.28358 -0.08905
# Poissons Ratio (y) = 0.32495 0.23127
# Poissons Ratio (z) = -0.18468 0.41859
#
# Static dielectric constant tensor:
#      x y z
#    x 1.736040 0.000000 0.014690 
#    y 0.000000 1.634300 0.000000 
#    z 0.014690 0.000000 1.795750 
# 
# From -- ./inp_files/192111.got.cif
#   From: 2010.05.17/outbox.cif.g08.bks.cpg/sg12_97_cif.got.tgz:192111.got - 2010.06.03 13:09:07.
