data_PCOD9186180
_publ_section_title
;
Structure prediction by ZEFSAII (Michael W. Deem and Ramdas Pophale) SiO2 
 PCOD9186180
Probable space group: C 2/M
;
_chemical_formula_sum "Si O2"
_cell_formula_units_Z 48
_cell_length_a 19.858058
_cell_length_b 9.053161
_cell_length_c 24.233460
_cell_angle_alpha 90.000000
_cell_angle_beta 35.529194
_cell_angle_gamma 90.000000
_cell_volume 2531.725097
_symmetry_space_group_name_H-M "C 2/M"
_symmetry_group_IT_number 12
_symmetry_cell_setting 'monoclinic'
loop_
_space_group_symop_operation_xyz
x,y,z
-x,y,-z
-x,-y,-z
x,-y,z
1/2+x,1/2+y,z
1/2-x,1/2+y,-z
1/2-x,1/2-y,-z
1/2+x,1/2-y,z
loop_
_atom_site_type_symbol
_atom_site_label
_atom_site_fract_x
_atom_site_fract_y
_atom_site_fract_z
Si Si1 0.432267 0.674851 0.396878
Si Si2 0.870727 0.323538 0.107081
Si Si3 0.371758 0.172303 0.906889
Si Si4 0.846883 0.328737 0.794186
Si Si5 0.261813 0.324682 0.406952
Si Si6 0.896849 0.822809 0.205401
O O1 0.450086 0.500000 0.389787
O O2 0.553716 0.757388 0.309676
O O3 0.358399 0.702778 0.389930
O O4 0.351803 0.735798 0.499446
O O5 0.861163 0.500000 0.116998
O O6 0.772589 0.259053 0.132722
O O7 0.853059 0.249459 0.178370
O O8 0.000000 0.286903 0.000000
O O9 0.388326 0.178962 0.829858
O O10 0.476621 0.256500 0.866162
O O11 0.369599 0.000000 0.925246
O O12 0.250000 0.250000 0.000000
O O13 0.828474 0.500000 0.792292
O O14 0.236685 0.500000 0.424934
O O15 0.315092 0.286809 0.312156
O O16 0.903573 0.000000 0.196120
#
# Coordination Sequence:
#
# PCOD9186180 Si02
#       6
#     8   8   8   8   8   8
#     4  10  19  34  59  89 121 156 194 241 294 352
#     4  11  25  43  62  85 118 160 202 247 299 356
#     4  11  23  37  58  87 118 152 196 248 298 350
#     4  11  23  39  60  87 119 157 199 245 296 353
#     4   9  19  35  57  88 122 156 192 238 296 353
#     4  11  22  39  62  88 120 156 197 244 296 354
#
# _framework density 18.959405
#
# number of rings (size 3 to 8) (size 9 to 14) (size 15 to 20)
#    0.000    1.500    1.667    3.500    0.000    8.000 
#    0.000    0.833    0.000    5.000    0.000    0.000 
#    0.000    0.000    0.000    0.000    0.000    0.000 
#
# Total GULP energy -134162.155977 kJ/mol
# GULP energy per Si atom -5590.089832 kJ/mol
# Density = 1.891625 g / cm^3
# Si number density = 18.959405 Si / 1000 Ang^3
#
#
#
# Elastic Constant Matrix: (Units=GPa)
#
#
# Indices 1 2 3 4 5 6 
#
# 1 27.8987 7.6603 -18.3587 0.0000 2.7310 0.0000
# 2 7.6603 70.5620 41.9650 0.0002 -1.2024 -0.0003
# 3 -18.3587 41.9650 79.0548 0.0000 0.2359 0.0000
# 4 0.0000 0.0002 0.0000 34.8308 0.0000 -3.2953
# 5 2.7310 -1.2024 0.2359 0.0000 29.7147 0.0000
# 6 0.0000 -0.0003 0.0000 -3.2953 0.0000 31.5141
#
#
#
# Elastic Compliance Matrix: (Units=1/GPa)
#
#
# Indices 1 2 3 4 5 6 
#
# 1 0.058817 -0.021380 0.025027 0.000000 -0.006470 0.000000
# 2 -0.021380 0.028507 -0.020107 0.000000 0.003278 0.000000
# 3 0.025027 -0.020107 0.029145 0.000000 -0.003345 0.000000
# 4 0.000000 0.000000 0.000000 0.028997 0.000000 0.003032
# 5 -0.006470 0.003278 -0.003345 0.000000 0.034407 0.000000
# 6 0.000000 0.000000 0.000000 0.003032 0.000000 0.032049
#
#
# Mechanical properties :
#
#
# Convention : Reuss Voigt Hill
#
# Bulk Modulus (GPa) = 11.96899 26.67208 19.32054
# Shear Modulus (GPa) = 18.33576 28.96185 23.64880
#
# Velocity S-wave (km/s) = 3.11321 3.91266 3.53560
# Velocity P-wave (km/s) = 4.38741 5.87455 5.18458
#
# Compressibility (1/GPa) = 0.08354921
#
# Stress axis : x y z
#
# Youngs Moduli (GPa) = 17.00198 35.07904 34.31118
#
# Poissons Ratio (x) = 0.74998 -0.85871
# Poissons Ratio (y) = 0.36350 0.68990
# Poissons Ratio (z) = -0.42551 0.70534
#
# Static dielectric constant tensor:
#      x y z
#    x 1.648490 0.000000 0.013150 
#    y 0.000000 1.630690 0.000000 
#    z 0.013150 0.000000 1.639330 
# 
# From -- ./inp_files/221716.got.cif
#   From: 2010.05.17/outbox.cif.g08.bks.cpg/sg12_111_cif.got.tgz:221716.got - 2010.06.03 13:09:07.
