data_PCOD9186688
_publ_section_title
;
Structure prediction by ZEFSAII (Michael W. Deem and Ramdas Pophale) SiO2 
 PCOD9186688
Probable space group: C 2/M
;
_chemical_formula_sum "Si O2"
_cell_formula_units_Z 56
_cell_length_a 16.248877
_cell_length_b 21.226983
_cell_length_c 8.900327
_cell_angle_alpha 90.000000
_cell_angle_beta 90.910871
_cell_angle_gamma 90.000000
_cell_volume 3069.465122
_symmetry_space_group_name_H-M "C 2/M"
_symmetry_group_IT_number 12
_symmetry_cell_setting 'monoclinic'
loop_
_space_group_symop_operation_xyz
x,y,z
-x,y,-z
-x,-y,-z
x,-y,z
1/2+x,1/2+y,z
1/2-x,1/2+y,-z
1/2-x,1/2-y,-z
1/2+x,1/2-y,z
loop_
_atom_site_type_symbol
_atom_site_label
_atom_site_fract_x
_atom_site_fract_y
_atom_site_fract_z
Si Si1 0.525660 0.680804 0.219225
Si Si2 0.560993 0.073095 0.860898
Si Si3 0.046356 0.693763 0.658964
Si Si4 0.746990 0.426916 0.139351
Si Si5 0.179149 0.834305 0.387984
Si Si6 0.132040 0.150331 0.933780
Si Si7 0.289994 0.727764 0.311120
O O1 0.495877 0.751706 0.243256
O O2 0.581651 0.659095 0.359867
O O3 0.444308 0.639389 0.182746
O O4 0.585178 0.677557 0.077420
O O5 0.542972 0.126165 0.737074
O O6 0.657638 0.082265 0.902452
O O7 0.551794 0.000000 0.809858
O O8 0.500000 0.081803 0.000000
O O9 0.139223 0.720775 0.647032
O O10 0.000000 0.692178 0.500000
O O11 0.734118 0.500000 0.172120
O O12 0.724189 0.386018 0.286455
O O13 0.687306 0.404999 0.002812
O O14 0.206118 0.766195 0.321422
O O15 0.203647 0.826742 0.562472
O O16 0.190577 0.199248 0.849830
#
# Coordination Sequence:
#
# PCOD9186688 Si02
#       7
#     8   8   8   8   8   8   8
#     4   9  19  33  52  84 113 141 179 231 290 328
#     4  10  23  40  57  80 113 153 196 232 274 338
#     4  11  20  34  55  84 113 151 182 231 287 337
#     4  10  21  40  59  78 111 156 193 230 275 335
#     4  10  19  35  55  81 116 146 183 232 286 347
#     4   9  20  35  53  83 111 143 184 234 277 330
#     4  10  20  33  53  85 114 145 182 236 292 330
#
# _framework density 18.244221
#
# number of rings (size 3 to 8) (size 9 to 14) (size 15 to 20)
#    0.000    2.143    2.857    0.000    4.000    3.714 
#    0.000    6.429    0.000    0.000    0.000   14.000 
#    0.000    0.000    0.000    0.000    0.000    0.000 
#
# Total GULP energy -156014.475462 kJ/mol
# GULP energy per Si atom -5571.945552 kJ/mol
# Density = 1.820270 g / cm^3
# Si number density = 18.244221 Si / 1000 Ang^3
#
#
#
# Elastic Constant Matrix: (Units=GPa)
#
#
# Indices 1 2 3 4 5 6 
#
# 1 76.8374 39.6414 19.9190 0.0000 2.2004 0.0000
# 2 39.6414 83.9506 42.2257 0.0000 5.1241 0.0000
# 3 19.9190 42.2257 40.8781 0.0000 5.7938 0.0000
# 4 0.0000 0.0000 0.0000 17.3628 0.0000 2.0539
# 5 2.2004 5.1241 5.7938 0.0000 29.0971 0.0000
# 6 0.0000 0.0000 0.0000 2.0539 0.0000 27.4472
#
#
#
# Elastic Compliance Matrix: (Units=1/GPa)
#
#
# Indices 1 2 3 4 5 6 
#
# 1 0.017207 -0.008131 -0.000004 0.000000 0.000132 0.000000
# 2 -0.008131 0.028652 -0.025733 0.000000 0.000693 0.000000
# 3 -0.000004 -0.025733 0.051868 0.000000 -0.005796 0.000000
# 4 0.000000 0.000000 0.000000 0.058109 0.000000 -0.004348
# 5 0.000132 0.000693 -0.005796 0.000000 0.035390 0.000000
# 6 0.000000 0.000000 0.000000 -0.004348 0.000000 0.036759
#
#
# Mechanical properties :
#
#
# Convention : Reuss Voigt Hill
#
# Bulk Modulus (GPa) = 33.34376 45.02647 39.18512
# Shear Modulus (GPa) = 16.35502 21.44008 18.89755
#
# Velocity S-wave (km/s) = 2.99732 3.43180 3.22189
# Velocity P-wave (km/s) = 5.50406 6.35896 5.94689
#
# Compressibility (1/GPa) = 0.02999062
#
# Stress axis : x y z
#
# Youngs Moduli (GPa) = 58.11711 34.90149 19.27985
#
# Poissons Ratio (x) = 0.28378 0.00008
# Poissons Ratio (y) = 0.47255 0.49613
# Poissons Ratio (z) = 0.00024 0.89811
#
# Static dielectric constant tensor:
#      x y z
#    x 1.677450 0.000000 0.022290 
#    y 0.000000 1.590530 0.000000 
#    z 0.022290 0.000000 1.644910 
# 
# From -- ./inp_files/76954.got.cif
#   From: 2010.05.17/outbox.cif.g08.bks.cpg/sg12_39_cif.got.tgz:76954.got - 2010.06.03 13:09:07.
