data_PCOD9186192
_publ_section_title
;
Structure prediction by ZEFSAII (Michael W. Deem and Ramdas Pophale) SiO2 
 PCOD9186192
Probable space group: C 2/M
;
_chemical_formula_sum "Si O2"
_cell_formula_units_Z 44
_cell_length_a 22.905945
_cell_length_b 16.385046
_cell_length_c 15.225513
_cell_angle_alpha 90.000000
_cell_angle_beta 22.425638
_cell_angle_gamma 90.000000
_cell_volume 2179.938237
_symmetry_space_group_name_H-M "C 2/M"
_symmetry_group_IT_number 12
_symmetry_cell_setting 'monoclinic'
loop_
_space_group_symop_operation_xyz
x,y,z
-x,y,-z
-x,-y,-z
x,-y,z
1/2+x,1/2+y,z
1/2-x,1/2+y,-z
1/2-x,1/2-y,-z
1/2+x,1/2-y,z
loop_
_atom_site_type_symbol
_atom_site_label
_atom_site_fract_x
_atom_site_fract_y
_atom_site_fract_z
Si Si1 0.036378 0.183330 0.123677
Si Si2 0.267609 0.405211 0.578346
Si Si3 0.834711 0.909409 0.685909
Si Si4 0.500000 0.217739 0.000000
Si Si5 0.149427 0.309552 0.078359
Si Si6 0.845840 0.403711 0.760438
O O1 0.013161 0.255700 0.228502
O O2 0.892064 0.123846 0.334578
O O3 0.052450 0.223983 0.006427
O O4 0.193056 0.138503 0.935132
O O5 0.221750 0.500000 0.628623
O O6 0.346027 0.399997 0.565883
O O7 0.127086 0.342890 0.782098
O O8 0.000000 0.907175 0.500000
O O9 0.767388 0.000000 0.794876
O O10 0.736899 0.841612 0.870950
O O11 0.126973 0.384701 0.174671
O O12 0.250000 0.250000 0.000000
O O13 0.831617 0.500000 0.765873
O O14 0.000000 0.371886 0.500000
#
# Coordination Sequence:
#
# PCOD9186192 Si02
#       6
#     8   8   8   4   8   8
#     4  11  24  41  68  94 131 171 218 266 323 383
#     4  11  24  44  67  92 130 172 218 271 323 382
#     4  10  19  34  59  90 123 159 207 266 331 390
#     4  12  25  46  67  94 130 174 226 274 313 376
#     4  10  20  33  58  91 121 160 205 261 316 383
#     4  10  22  40  63  95 135 170 207 262 330 398
#
# _framework density 20.184056999999999
#
# number of rings (size 3 to 8) (size 9 to 14) (size 15 to 20)
#    0.000    1.455    1.818    4.091    2.545    4.364 
#    0.000    1.818    0.000    0.000    0.000    0.000 
#    0.000    0.000    0.000    0.000    0.000    0.000 
#
# Total GULP energy -122744.451521 kJ/mol
# GULP energy per Si atom -5579.293251 kJ/mol
# Density = 2.013812 g / cm^3
# Si number density = 20.184057 Si / 1000 Ang^3
#
#
#
# Elastic Constant Matrix: (Units=GPa)
#
#
# Indices 1 2 3 4 5 6 
#
# 1 62.0978 23.2656 4.4570 0.0000 9.2837 -0.0002
# 2 23.2656 85.9610 35.8139 0.0002 5.3969 0.0001
# 3 4.4570 35.8139 85.9566 0.0000 2.5299 0.0001
# 4 0.0000 0.0002 0.0000 35.8615 0.0000 -3.2760
# 5 9.2837 5.3969 2.5299 0.0000 21.0142 0.0002
# 6 -0.0002 0.0001 0.0001 -3.2760 0.0002 19.0040
#
#
#
# Elastic Compliance Matrix: (Units=1/GPa)
#
#
# Indices 1 2 3 4 5 6 
#
# 1 0.019070 -0.005305 0.001434 0.000000 -0.007235 0.000000
# 2 -0.005305 0.015733 -0.006252 0.000000 -0.000944 0.000000
# 3 0.001434 -0.006252 0.014186 0.000000 -0.000736 0.000000
# 4 0.000000 0.000000 0.000000 0.028331 0.000000 0.004884
# 5 -0.007235 -0.000944 -0.000736 0.000000 0.051114 -0.000001
# 6 0.000000 0.000000 0.000000 0.004884 -0.000001 0.053462
#
#
# Mechanical properties :
#
#
# Convention : Reuss Voigt Hill
#
# Bulk Modulus (GPa) = 34.79031 40.12095 37.45563
# Shear Modulus (GPa) = 23.61571 26.54120 25.07845
#
# Velocity S-wave (km/s) = 3.42426 3.63017 3.52872
# Velocity P-wave (km/s) = 5.73655 6.12303 5.93294
#
# Compressibility (1/GPa) = 0.02874364
#
# Stress axis : x y z
#
# Youngs Moduli (GPa) = 52.43899 63.56018 70.49147
#
# Poissons Ratio (x) = 0.33716 -0.10111
# Poissons Ratio (y) = 0.27817 0.44074
# Poissons Ratio (z) = -0.07521 0.39740
#
# Static dielectric constant tensor:
#      x y z
#    x 1.715010 0.000000 0.011830 
#    y 0.000000 1.762740 0.000000 
#    z 0.011830 0.000000 1.729460 
# 
# From -- ./inp_files/241396.got.cif
#   From: 2010.05.17/outbox.cif.g08.bks.cpg/sg12_121_cif.got.tgz:241396.got - 2010.06.03 13:09:07.
