data_PCOD9186731
_publ_section_title
;
Structure prediction by ZEFSAII (Michael W. Deem and Ramdas Pophale) SiO2 
 PCOD9186731
Probable space group: C 2/M
;
_chemical_formula_sum "Si O2"
_cell_formula_units_Z 56
_cell_length_a 15.636234
_cell_length_b 14.378861
_cell_length_c 17.843721
_cell_angle_alpha 90.000000
_cell_angle_beta 147.427231
_cell_angle_gamma 90.000000
_cell_volume 2159.848003
_symmetry_space_group_name_H-M "C 2/M"
_symmetry_group_IT_number 12
_symmetry_cell_setting 'monoclinic'
loop_
_space_group_symop_operation_xyz
x,y,z
-x,y,-z
-x,-y,-z
x,-y,z
1/2+x,1/2+y,z
1/2-x,1/2+y,-z
1/2-x,1/2-y,-z
1/2+x,1/2-y,z
loop_
_atom_site_type_symbol
_atom_site_label
_atom_site_fract_x
_atom_site_fract_y
_atom_site_fract_z
Si Si1 0.319336 0.644294 0.372012
Si Si2 0.192115 0.888711 0.800955
Si Si3 0.986578 0.105459 0.072570
Si Si4 0.002689 0.386113 0.680141
Si Si5 0.830815 0.105975 0.545500
Si Si6 0.799493 0.613399 0.035729
Si Si7 0.336385 0.856077 0.350759
O O1 0.500000 0.607856 0.500000
O O2 0.242813 0.625484 0.234811
O O3 0.267616 0.604291 0.412754
O O4 0.327097 0.754848 0.380046
O O5 0.295087 0.854147 0.946776
O O6 0.008530 0.852725 0.674419
O O7 0.179210 0.000000 0.798287
O O8 0.164697 0.100965 0.235644
O O9 0.865047 0.141722 0.044784
O O10 0.926824 0.000000 0.014012
O O11 0.000000 0.151303 0.000000
O O12 0.003077 0.500000 0.677567
O O13 0.129383 0.351407 0.712952
O O14 0.824119 0.352930 0.528672
O O15 0.063603 0.355917 0.806719
O O16 0.848345 0.000000 0.585878
O O17 0.807465 0.500000 0.039158
O O18 0.500000 0.901157 0.500000
#
# Coordination Sequence:
#
# PCOD9186731 Si02
#       7
#     8   8   8   8   8   8   8
#     4   9  19  38  54  78 111 144 179 216 272 322
#     4   9  17  33  59  83 102 134 182 226 261 317
#     4  10  19  35  56  75 103 146 183 217 264 315
#     4  10  20  36  55  80 111 139 173 224 279 317
#     4   9  18  34  60  85 105 135 180 231 271 311
#     4   9  18  33  54  79 105 135 173 219 272 319
#     4  11  23  36  52  79 111 148 180 216 266 324
#
# _framework density 25.92775
#
# number of rings (size 3 to 8) (size 9 to 14) (size 15 to 20)
#    0.000    2.429    1.429    0.857    2.000    2.857 
#    2.571    5.000    0.000    3.429    0.000    0.000 
#    0.000    0.000    0.000    0.000    0.000    0.000 
#
# Total GULP energy -156400.820065 kJ/mol
# GULP energy per Si atom -5585.743574 kJ/mol
# Density = 2.586874 g / cm^3
# Si number density = 25.927750 Si / 1000 Ang^3
#
#
#
# Elastic Constant Matrix: (Units=GPa)
#
#
# Indices 1 2 3 4 5 6 
#
# 1 44.3366 -4.6634 16.2323 -0.0155 -13.9005 0.0173
# 2 -4.6634 76.8917 1.7010 0.0654 -5.9339 -0.0689
# 3 16.2323 1.7010 107.5269 0.0664 -17.0256 -0.0685
# 4 -0.0155 0.0654 0.0664-1691.5168 0.0338 1771.4623
# 5 -13.9005 -5.9339 -17.0256 0.0338 58.2979 -0.0354
# 6 0.0173 -0.0689 -0.0685 1771.4623 -0.0354-1846.0331
#
#
#
# Elastic Compliance Matrix: (Units=1/GPa)
#
#
# Indices 1 2 3 4 5 6 
#
# 1 0.025580 0.002037 -0.003036 -0.000003 0.005420 -0.000003
# 2 0.002037 0.013270 -0.000238 0.000001 0.001767 0.000000
# 3 -0.003036 -0.000238 0.010111 0.000000 0.002205 -0.000001
# 4 -0.000003 0.000001 0.000000 0.119234 -0.000001 0.114418
# 5 0.005420 0.001767 0.002205 -0.000001 0.019269 -0.000001
# 6 -0.000003 0.000000 -0.000001 0.114418 -0.000001 0.109254
#
#
# Mechanical properties :
#
#
# Convention : Reuss Voigt Hill
#
# Bulk Modulus (GPa) = 21.51072 28.36612 24.93842
# Shear Modulus (GPa) = 15.88876 -681.48474 -332.79799
#
# Velocity S-wave (km/s) = 2.47818 -16.22993 -11.34172
# Velocity P-wave (km/s) = 4.06238 18.44586 12.72295
#
# Compressibility (1/GPa) = 0.04648844
#
# Stress axis : x y z
#
# Youngs Moduli (GPa) = 39.09365 75.35539 98.90092
#
# Poissons Ratio (x) = -0.15348 0.30022
# Poissons Ratio (y) = -0.07963 0.02350
# Poissons Ratio (z) = 0.11867 0.01791
#
# Static dielectric constant tensor:
#      x y z
#    x 2.053440 0.000000 -0.044870 
#    y 0.000000 2.035780 0.000000 
#    z -0.044870 0.000000 2.048940 
# 
# From -- ./inp_files/89669.got.cif
#   From: 2010.05.17/outbox.cif.g08.bks.cpg/sg12_45_cif.got.tgz:89669.got - 2010.06.03 13:09:07.
