data_PCOD9186872
_publ_section_title
;
Structure prediction by ZEFSAII (Michael W. Deem and Ramdas Pophale) SiO2 
 PCOD9186872
Probable space group: C 2/M
;
_chemical_formula_sum "Si O2"
_cell_formula_units_Z 40
_cell_length_a 8.294270
_cell_length_b 28.053803
_cell_length_c 9.685715
_cell_angle_alpha 90.000000
_cell_angle_beta 46.040169
_cell_angle_gamma 90.000000
_cell_volume 1622.293807
_symmetry_space_group_name_H-M "C 2/M"
_symmetry_group_IT_number 12
_symmetry_cell_setting 'monoclinic'
loop_
_space_group_symop_operation_xyz
x,y,z
-x,y,-z
-x,-y,-z
x,-y,z
1/2+x,1/2+y,z
1/2-x,1/2+y,-z
1/2-x,1/2-y,-z
1/2+x,1/2-y,z
loop_
_atom_site_type_symbol
_atom_site_label
_atom_site_fract_x
_atom_site_fract_y
_atom_site_fract_z
Si Si1 0.170848 0.601639 0.701496
Si Si2 0.381364 0.696661 0.220880
Si Si3 0.193998 0.405297 0.286481
Si Si4 0.765259 0.298827 0.222875
Si Si5 0.529025 0.556165 0.275496
O O1 0.223861 0.657794 0.676681
O O2 0.338743 0.576149 0.494021
O O3 0.246334 0.581366 0.804392
O O4 0.920422 0.593605 0.795117
O O5 0.233018 0.649473 0.308153
O O6 0.567591 0.695184 0.229633
O O7 0.256973 0.747277 0.298841
O O8 0.500000 0.695459 0.000000
O O9 0.425354 0.430340 0.189428
O O10 0.000000 0.426637 0.500000
O O11 0.000000 0.301226 0.000000
O O12 0.553007 0.500000 0.274819
#
# Coordination Sequence:
#
# PCOD9186872 Si02
#       5
#     8   8   8   8   8
#     4  10  19  35  56  86 116 145 192 236 288 338
#     4  11  21  38  58  86 120 159 198 232 284 357
#     4  10  21  37  57  90 120 151 195 242 291 339
#     4  11  21  36  59  86 117 157 197 233 287 349
#     4  10  21  38  61  85 114 154 195 242 295 348
#
# _framework density 24.656445999999999
#
# number of rings (size 3 to 8) (size 9 to 14) (size 15 to 20)
#    0.000    1.600    2.000    6.000    0.000    4.400 
#    3.600    3.000    0.000    3.000    0.000    0.000 
#    0.000    0.000    0.000    0.000    0.000    0.000 
#
# Total GULP energy -111914.921063 kJ/mol
# GULP energy per Si atom -5595.746053 kJ/mol
# Density = 2.460033 g / cm^3
# Si number density = 24.656446 Si / 1000 Ang^3
#
#
#
# Elastic Constant Matrix: (Units=GPa)
#
#
# Indices 1 2 3 4 5 6 
#
# 1 260.2838 8.7750 30.7512 0.0000 -12.8115 0.0000
# 2 8.7750 88.4426 -7.2731 0.0000 -5.0032 0.0000
# 3 30.7512 -7.2731 67.2803 0.0000 -3.8495 0.0000
# 4 0.0000 0.0000 0.0000 53.7524 0.0000 7.1625
# 5 -12.8115 -5.0032 -3.8495 0.0000 34.7462 0.0000
# 6 0.0000 0.0000 0.0000 7.1625 0.0000 22.4723
#
#
#
# Elastic Compliance Matrix: (Units=1/GPa)
#
#
# Indices 1 2 3 4 5 6 
#
# 1 0.004142 -0.000495 -0.001875 0.000000 0.001248 0.000000
# 2 -0.000495 0.011579 0.001573 0.000000 0.001659 0.000000
# 3 -0.001875 0.001573 0.015965 0.000000 0.001304 0.000000
# 4 0.000000 0.000000 0.000000 0.019429 0.000000 -0.006192
# 5 0.001248 0.001659 0.001304 0.000000 0.029624 0.000000
# 6 0.000000 0.000000 0.000000 -0.006192 0.000000 0.046473
#
#
# Mechanical properties :
#
#
# Convention : Reuss Voigt Hill
#
# Bulk Modulus (GPa) = 33.23174 53.39033 43.31104
# Shear Modulus (GPa) = 36.01389 47.77773 41.89581
#
# Velocity S-wave (km/s) = 3.82596 4.40675 4.12659
# Velocity P-wave (km/s) = 5.74669 6.89879 6.34893
#
# Compressibility (1/GPa) = 0.03009171
#
# Stress axis : x y z
#
# Youngs Moduli (GPa) = 241.45315 86.36309 62.63780
#
# Poissons Ratio (x) = 0.04271 0.11745
# Poissons Ratio (y) = 0.11940 -0.09851
# Poissons Ratio (z) = 0.45273 -0.13582
#
# Static dielectric constant tensor:
#      x y z
#    x 2.003430 0.000000 0.062890 
#    y 0.000000 1.904550 0.000000 
#    z 0.062890 0.000000 2.103820 
# 
# From -- ./inp_files/40535.got.cif
#   From: 2010.05.17/outbox.cif.g08.bks.cpg/sg12_21_cif.got.tgz:40535.got - 2010.06.03 13:09:07.
