data_PCOD9186754
_publ_section_title
;
Structure prediction by ZEFSAII (Michael W. Deem and Ramdas Pophale) SiO2 
 PCOD9186754
Probable space group: C 2/M
;
_chemical_formula_sum "Si O2"
_cell_formula_units_Z 64
_cell_length_a 15.237283
_cell_length_b 7.732291
_cell_length_c 30.990217
_cell_angle_alpha 90.000000
_cell_angle_beta 120.919154
_cell_angle_gamma 90.000000
_cell_volume 3132.373613
_symmetry_space_group_name_H-M "C 2/M"
_symmetry_group_IT_number 12
_symmetry_cell_setting 'monoclinic'
loop_
_space_group_symop_operation_xyz
x,y,z
-x,y,-z
-x,-y,-z
x,-y,z
1/2+x,1/2+y,z
1/2-x,1/2+y,-z
1/2-x,1/2-y,-z
1/2+x,1/2-y,z
loop_
_atom_site_type_symbol
_atom_site_label
_atom_site_fract_x
_atom_site_fract_y
_atom_site_fract_z
Si Si1 0.702331 0.299044 0.691785
Si Si2 0.069751 0.199248 0.247219
Si Si3 0.918027 0.787892 0.421533
Si Si4 0.853185 0.792583 0.499737
Si Si5 0.143973 0.787798 0.771431
Si Si6 0.488170 0.202295 0.862610
Si Si7 0.182557 0.289210 0.116659
Si Si8 0.782376 0.793470 0.056448
O O1 0.672008 0.500000 0.686593
O O2 0.823691 0.289389 0.716191
O O3 0.640944 0.224998 0.635759
O O4 0.677941 0.225578 0.732947
O O5 0.043582 0.208054 0.189797
O O6 0.969961 0.270304 0.245940
O O7 0.082529 0.000000 0.263080
O O8 0.861961 0.733272 0.451895
O O9 0.037676 0.735135 0.452377
O O10 0.916376 0.000000 0.421318
O O11 0.750000 0.750000 0.500000
O O12 0.857026 0.000000 0.499633
O O13 0.223540 0.735876 0.828695
O O14 0.144947 0.000000 0.772420
O O15 0.420366 0.267073 0.885504
O O16 0.606610 0.221924 0.903294
O O17 0.463763 0.000000 0.849740
O O18 0.180602 0.500000 0.115201
O O19 0.203475 0.231144 0.073301
O O20 0.789445 0.000000 0.061675
O O21 0.750000 0.750000 0.000000
#
# Coordination Sequence:
#
# PCOD9186754 Si02
#       8
#     8   8   8   8   8   8   8   8
#     4  10  19  35  56  77 105 144 188 223 259 322
#     4  11  21  34  53  81 113 143 175 222 275 318
#     4   8  17  33  53  76 107 145 182 224 270 323
#     4   9  17  33  55  79 106 142 186 226 274 325
#     4   9  17  32  53  76 103 141 178 209 261 328
#     4  11  21  37  61  84 105 141 187 221 260 323
#     4   9  18  35  58  79 105 142 177 211 260 326
#     4  11  23  41  60  82 112 142 177 225 277 323
#
# _framework density 20.431789999999999
#
# number of rings (size 3 to 8) (size 9 to 14) (size 15 to 20)
#    0.000    2.250    2.500    1.875    0.000    1.500 
#    0.000   11.250    0.000    0.000    0.000    0.000 
#    0.000    0.000    0.000    0.000    0.000    0.000 
#
# Total GULP energy -178586.045619 kJ/mol
# GULP energy per Si atom -5580.813926 kJ/mol
# Density = 2.038529 g / cm^3
# Si number density = 20.431790 Si / 1000 Ang^3
#
#
#
# Elastic Constant Matrix: (Units=GPa)
#
#
# Indices 1 2 3 4 5 6 
#
# 1 86.7993 -2.3020 -20.1358 0.0000 -1.9321 0.0000
# 2 -2.3020 30.0779 -5.0671 0.0000 -4.3760 0.0000
# 3 -20.1358 -5.0671 50.8470 0.0000 0.5240 0.0000
# 4 0.0000 0.0000 0.0000 8.5480 0.0000 4.9300
# 5 -1.9321 -4.3760 0.5240 0.0000 20.5461 0.0000
# 6 0.0000 0.0000 0.0000 4.9300 0.0000 24.0744
#
#
#
# Elastic Compliance Matrix: (Units=1/GPa)
#
#
# Indices 1 2 3 4 5 6 
#
# 1 0.012834 0.002092 0.005275 0.000000 0.001518 0.000000
# 2 0.002092 0.035229 0.004261 0.000000 0.007591 0.000000
# 3 0.005275 0.004261 0.022172 0.000000 0.000838 0.000000
# 4 0.000000 0.000000 0.000000 0.132654 0.000000 -0.027165
# 5 0.001518 0.007591 0.000838 0.000000 0.050409 0.000000
# 6 0.000000 0.000000 0.000000 -0.027165 0.000000 0.047101
#
#
# Mechanical properties :
#
#
# Convention : Reuss Voigt Hill
#
# Bulk Modulus (GPa) = 10.69631 12.52383 11.61007
# Shear Modulus (GPa) = 16.21758 23.64895 19.93327
#
# Velocity S-wave (km/s) = 2.82040 3.40584 3.12685
# Velocity P-wave (km/s) = 3.98155 4.64857 4.32793
#
# Compressibility (1/GPa) = 0.09349015
#
# Stress axis : x y z
#
# Youngs Moduli (GPa) = 77.91915 28.38547 45.10238
#
# Poissons Ratio (x) = -0.05937 -0.23792
# Poissons Ratio (y) = -0.16299 -0.19217
# Poissons Ratio (z) = -0.41103 -0.12095
#
# Static dielectric constant tensor:
#      x y z
#    x 1.723660 0.000000 -0.020790 
#    y 0.000000 1.794340 0.000000 
#    z -0.020790 0.000000 1.682050 
# 
# From -- ./inp_files/375074.got.cif
#   From: 2010.05.17/outbox.cif.g08.bks.cpg/sg12_188_cif.got.tgz:375074.got - 2010.06.03 13:09:07.
