data_PCOD9186965
_publ_section_title
;
Structure prediction by ZEFSAII (Michael W. Deem and Ramdas Pophale) SiO2 
 PCOD9186965
Probable space group: C 2/M
;
_chemical_formula_sum "Si O2"
_cell_formula_units_Z 64
_cell_length_a 23.040864
_cell_length_b 31.252291
_cell_length_c 7.588283
_cell_angle_alpha 90.000000
_cell_angle_beta 148.129869
_cell_angle_gamma 90.000000
_cell_volume 2885.057753
_symmetry_space_group_name_H-M "C 2/M"
_symmetry_group_IT_number 12
_symmetry_cell_setting 'monoclinic'
loop_
_space_group_symop_operation_xyz
x,y,z
-x,y,-z
-x,-y,-z
x,-y,z
1/2+x,1/2+y,z
1/2-x,1/2+y,-z
1/2-x,1/2-y,-z
1/2+x,1/2-y,z
loop_
_atom_site_type_symbol
_atom_site_label
_atom_site_fract_x
_atom_site_fract_y
_atom_site_fract_z
Si Si1 0.436725 0.673098 0.147569
Si Si2 0.209813 0.888572 0.651850
Si Si3 0.144686 0.206329 0.541670
Si Si4 0.585881 0.867638 0.577860
Si Si5 0.081090 0.452840 0.374784
Si Si6 0.494860 0.577838 0.275969
Si Si7 0.268849 0.547292 0.593295
Si Si8 0.782078 0.701631 0.267590
O O1 0.500000 0.672350 0.500000
O O2 0.514278 0.704699 0.239955
O O3 0.446779 0.624810 0.111171
O O4 0.311162 0.684630 0.843753
O O5 0.170839 0.839345 0.518063
O O6 0.255370 0.914806 0.604576
O O7 0.112949 0.917933 0.487673
O O8 0.303831 0.881873 0.037874
O O9 0.177678 0.252691 0.558101
O O10 0.214272 0.205161 0.906322
O O11 0.500000 0.850105 0.500000
O O12 0.544001 0.911961 0.388834
O O13 0.621316 0.831896 0.527112
O O14 0.080567 0.500000 0.460595
O O15 0.202631 0.445309 0.604469
O O16 0.000000 0.455030 0.000000
O O17 0.500000 0.572049 0.500000
O O18 0.400177 0.547381 0.960352
O O19 0.234122 0.500000 0.440177
#
# Coordination Sequence:
#
# PCOD9186965 Si02
#       8
#     8   8   8   8   8   8   8   8
#     4   8  14  27  47  70 100 142 180 215 266 329
#     4  10  21  36  54  83 118 150 189 234 290 348
#     4   8  16  28  47  75 110 150 183 219 273 338
#     4  11  22  36  59  88 114 145 190 244 291 333
#     4  10  22  41  61  80 109 153 195 231 287 354
#     4  10  19  35  57  80 112 152 192 231 285 350
#     4  11  23  38  59  85 113 149 192 242 292 338
#     4   9  16  28  49  78 109 140 184 231 274 328
#
# _framework density 22.183263
#
# number of rings (size 3 to 8) (size 9 to 14) (size 15 to 20)
#    0.000    2.375    0.000    4.875    0.000    5.500 
#    0.000    0.000    0.000    6.000    0.000    0.000 
#    0.000    0.000    0.000    0.000    0.000    0.000 
#
# Total GULP energy -178542.262035 kJ/mol
# GULP energy per Si atom -5579.445689 kJ/mol
# Density = 2.213277 g / cm^3
# Si number density = 22.183263 Si / 1000 Ang^3
#
#
#
# Elastic Constant Matrix: (Units=GPa)
#
#
# Indices 1 2 3 4 5 6 
#
# 1 49.5023 29.2317 11.2421 0.0000 13.4361 0.0000
# 2 29.2317 97.8887 13.1872 0.0000 5.7256 0.0000
# 3 11.2421 13.1872 45.8192 0.0000 14.3843 0.0000
# 4 0.0000 0.0000 0.0000 27.5388 0.0000 -0.3784
# 5 13.4361 5.7256 14.3843 0.0000 36.2341 0.0000
# 6 0.0000 0.0000 0.0000 -0.3784 0.0000 20.2655
#
#
#
# Elastic Compliance Matrix: (Units=1/GPa)
#
#
# Indices 1 2 3 4 5 6 
#
# 1 0.027224 -0.007384 -0.002001 0.000000 -0.008134 0.000000
# 2 -0.007384 0.012640 -0.002352 0.000000 0.001675 0.000000
# 3 -0.002001 -0.002352 0.025867 0.000000 -0.009155 0.000000
# 4 0.000000 0.000000 0.000000 0.036322 0.000000 0.000678
# 5 -0.008134 0.001675 -0.009155 0.000000 0.033984 0.000000
# 6 0.000000 0.000000 0.000000 0.000678 0.000000 0.049358
#
#
# Mechanical properties :
#
#
# Convention : Reuss Voigt Hill
#
# Bulk Modulus (GPa) = 23.66495 33.39246 28.52871
# Shear Modulus (GPa) = 22.42626 26.11096 24.26861
#
# Velocity S-wave (km/s) = 3.18300 3.43455 3.31116
# Velocity P-wave (km/s) = 4.91932 5.55102 5.24469
#
# Compressibility (1/GPa) = 0.04225658
#
# Stress axis : x y z
#
# Youngs Moduli (GPa) = 36.73271 79.11603 38.65961
#
# Poissons Ratio (x) = 0.58422 0.07735
# Poissons Ratio (y) = 0.27125 0.09092
# Poissons Ratio (z) = 0.07349 0.18606
#
# Static dielectric constant tensor:
#      x y z
#    x 1.856900 0.000000 -0.016270 
#    y 0.000000 1.810500 0.000000 
#    z -0.016270 0.000000 1.865020 
# 
# From -- ./inp_files/100241.got.cif
#   From: 2010.05.17/outbox.cif.g08.bks.cpg/sg12_51_cif.got.tgz:100241.got - 2010.06.03 13:09:07.
