data_PCOD9186436
_publ_section_title
;
Structure prediction by ZEFSAII (Michael W. Deem and Ramdas Pophale) SiO2 
 PCOD9186436
Probable space group: C 2/M
;
_chemical_formula_sum "Si O2"
_cell_formula_units_Z 64
_cell_length_a 9.003743
_cell_length_b 27.474184
_cell_length_c 12.993953
_cell_angle_alpha 90.000000
_cell_angle_beta 80.151858
_cell_angle_gamma 90.000000
_cell_volume 3166.956035
_symmetry_space_group_name_H-M "C 2/M"
_symmetry_group_IT_number 12
_symmetry_cell_setting 'monoclinic'
loop_
_space_group_symop_operation_xyz
x,y,z
-x,y,-z
-x,-y,-z
x,-y,z
1/2+x,1/2+y,z
1/2-x,1/2+y,-z
1/2-x,1/2-y,-z
1/2+x,1/2-y,z
loop_
_atom_site_type_symbol
_atom_site_label
_atom_site_fract_x
_atom_site_fract_y
_atom_site_fract_z
Si Si1 0.550205 0.123885 0.290141
Si Si2 0.784550 0.052683 0.166943
Si Si3 0.495841 0.691819 0.291957
Si Si4 0.745630 0.647911 0.539607
Si Si5 0.332089 0.205395 0.325366
Si Si6 0.947169 0.885514 0.887136
Si Si7 0.860280 0.554273 0.435465
Si Si8 0.672599 0.054594 0.950452
O O1 0.681667 0.097494 0.213551
O O2 0.631090 0.144752 0.383360
O O3 0.450440 0.167807 0.260406
O O4 0.434836 0.080169 0.328869
O O5 0.955735 0.068175 0.163253
O O6 0.747109 0.000000 0.219673
O O7 0.756636 0.048536 0.049367
O O8 0.412890 0.661176 0.391188
O O9 0.400325 0.741341 0.304318
O O10 0.667237 0.703605 0.297547
O O11 0.502332 0.660243 0.187255
O O12 0.803852 0.685622 0.445876
O O13 0.744367 0.593872 0.492048
O O14 0.773496 0.902182 0.891005
O O15 0.000000 0.877276 0.000000
O O16 0.804150 0.500000 0.425569
O O17 0.000000 0.551991 0.500000
O O18 0.670791 0.000000 0.900966
O O19 0.500000 0.067018 0.000000
#
# Coordination Sequence:
#
# PCOD9186436 Si02
#       8
#     8   8   8   8   8   8   8   8
#     4  10  19  35  59  90 123 159 207 250 303 362
#     4  10  19  34  63  93 125 163 207 248 297 374
#     4  12  24  42  63  90 117 160 208 265 317 370
#     4  10  20  38  59  89 121 161 205 256 305 361
#     4  11  25  39  63  85 123 157 211 261 313 366
#     4  10  22  41  64  91 127 160 203 252 312 370
#     4   8  15  28  50  81 118 155 195 237 287 353
#     4   9  19  36  61  93 128 162 201 251 310 368
#
# _framework density 20.208680000000001
#
# number of rings (size 3 to 8) (size 9 to 14) (size 15 to 20)
#    0.000    2.000    1.250    3.375    1.750    3.000 
#    0.000    0.625    0.000    7.500    0.000    0.000 
#    0.000    0.000    0.000    0.000    0.000    0.000 
#
# Total GULP energy -178376.457035 kJ/mol
# GULP energy per Si atom -5574.264282 kJ/mol
# Density = 2.016268 g / cm^3
# Si number density = 20.208680 Si / 1000 Ang^3
#
#
#
# Elastic Constant Matrix: (Units=GPa)
#
#
# Indices 1 2 3 4 5 6 
#
# 1 92.2649 47.8085 10.5613 0.0000 -14.5557 0.0000
# 2 47.8085 129.9163 41.5855 0.0000 -14.4778 0.0000
# 3 10.5613 41.5855 47.7823 0.0000 -11.0277 0.0000
# 4 0.0000 0.0000 0.0000 21.6820 0.0000 -18.9020
# 5 -14.5557 -14.4778 -11.0277 0.0000 24.9034 0.0000
# 6 0.0000 0.0000 0.0000 -18.9020 0.0000 56.2072
#
#
#
# Elastic Compliance Matrix: (Units=1/GPa)
#
#
# Indices 1 2 3 4 5 6 
#
# 1 0.014410 -0.005594 0.003204 0.000000 0.006589 0.000000
# 2 -0.005594 0.012964 -0.010093 0.000000 -0.000202 0.000000
# 3 0.003204 -0.010093 0.031279 0.000000 0.009856 0.000000
# 4 0.000000 0.000000 0.000000 0.065251 0.000000 0.021943
# 5 0.006589 -0.000202 0.009856 0.000000 0.048253 0.000000
# 6 0.000000 0.000000 0.000000 0.021943 0.000000 0.025171
#
#
# Mechanical properties :
#
#
# Convention : Reuss Voigt Hill
#
# Bulk Modulus (GPa) = 29.68505 52.20823 40.94664
# Shear Modulus (GPa) = 21.41124 31.89241 26.65182
#
# Velocity S-wave (km/s) = 3.25854 3.97691 3.63551
# Velocity P-wave (km/s) = 5.37388 6.85408 6.15861
#
# Compressibility (1/GPa) = 0.03368699
#
# Stress axis : x y z
#
# Youngs Moduli (GPa) = 69.39750 77.13658 31.97064
#
# Poissons Ratio (x) = 0.43151 -0.10245
# Poissons Ratio (y) = 0.38822 0.32268
# Poissons Ratio (z) = -0.22237 0.77854
#
# Static dielectric constant tensor:
#      x y z
#    x 1.738390 0.000000 -0.005470 
#    y 0.000000 1.750400 0.000000 
#    z -0.005470 0.000000 1.762370 
# 
# From -- ./inp_files/199794.got.cif
#   From: 2010.05.17/outbox.cif.g08.bks.cpg/sg12_100_cif.got.tgz:199794.got - 2010.06.03 13:09:07.
