data_PCOD9186651
_publ_section_title
;
Structure prediction by ZEFSAII (Michael W. Deem and Ramdas Pophale) SiO2 
 PCOD9186651
Probable space group: C 2/M
;
_chemical_formula_sum "Si O2"
_cell_formula_units_Z 56
_cell_length_a 19.073252
_cell_length_b 25.917042
_cell_length_c 9.038821
_cell_angle_alpha 90.000000
_cell_angle_beta 139.098457
_cell_angle_gamma 90.000000
_cell_volume 2925.532187
_symmetry_space_group_name_H-M "C 2/M"
_symmetry_group_IT_number 12
_symmetry_cell_setting 'monoclinic'
loop_
_space_group_symop_operation_xyz
x,y,z
-x,y,-z
-x,-y,-z
x,-y,z
1/2+x,1/2+y,z
1/2-x,1/2+y,-z
1/2-x,1/2-y,-z
1/2+x,1/2-y,z
loop_
_atom_site_type_symbol
_atom_site_label
_atom_site_fract_x
_atom_site_fract_y
_atom_site_fract_z
Si Si1 0.204087 0.693263 0.939400
Si Si2 0.970628 0.058205 0.781242
Si Si3 0.554196 0.722286 0.249967
Si Si4 0.115615 0.665803 0.483875
Si Si5 0.075383 0.349319 0.983087
Si Si6 0.075297 0.855715 0.761055
Si Si7 0.727562 0.632034 0.508771
O O1 0.135722 0.677106 0.687039
O O2 0.250000 0.750000 0.000000
O O3 0.137033 0.692221 0.982918
O O4 0.304637 0.654461 0.100427
O O5 0.856419 0.086696 0.598866
O O6 0.054513 0.094833 0.830579
O O7 0.967734 0.000000 0.717416
O O8 0.000000 0.056495 0.000000
O O9 0.591814 0.777753 0.371891
O O10 0.468332 0.694058 0.218964
O O11 0.657909 0.684435 0.419177
O O12 0.500000 0.723197 0.000000
O O13 0.217406 0.640326 0.564012
O O14 0.012363 0.630888 0.275473
O O15 0.174222 0.376849 0.221243
O O16 0.000000 0.334754 0.000000
O O17 0.000000 0.861940 0.500000
#
# Coordination Sequence:
#
# PCOD9186651 Si02
#       7
#     8   8   8   8   8   8   8
#     4  12  22  35  53  79 114 156 196 236 284 333
#     4  10  21  39  62  88 116 147 185 233 294 358
#     4  11  20  33  51  78 114 153 191 232 281 339
#     4  11  21  33  52  78 111 152 197 234 274 328
#     4  10  22  37  52  72 105 146 190 233 275 331
#     4  11  22  36  55  84 119 150 189 239 289 342
#     4  10  19  35  55  79 109 146 187 229 281 339
#
# _framework density 19.141815999999999
#
# number of rings (size 3 to 8) (size 9 to 14) (size 15 to 20)
#    0.000    1.286    0.000    9.857    0.000    1.429 
#    0.000    0.714    0.000    3.857    0.000    0.000 
#    0.000   17.143    0.000    0.000    0.000    0.000 
#
# Total GULP energy -156124.181468 kJ/mol
# GULP energy per Si atom -5575.863624 kJ/mol
# Density = 1.909825 g / cm^3
# Si number density = 19.141816 Si / 1000 Ang^3
#
#
#
# Elastic Constant Matrix: (Units=GPa)
#
#
# Indices 1 2 3 4 5 6 
#
# 1 105.3074 24.6084 20.9239 0.0000 10.9548 0.0000
# 2 24.6084 80.9533 17.3116 0.0000 11.3074 0.0000
# 3 20.9239 17.3116 121.3495 0.0000 3.5600 0.0000
# 4 0.0000 0.0000 0.0000 18.3354 0.0000 -3.4072
# 5 10.9548 11.3074 3.5600 0.0000 41.8443 0.0000
# 6 0.0000 0.0000 0.0000 -3.4072 0.0000 11.5333
#
#
#
# Elastic Compliance Matrix: (Units=1/GPa)
#
#
# Indices 1 2 3 4 5 6 
#
# 1 0.010594 -0.002652 -0.001391 0.000000 -0.001938 0.000000
# 2 -0.002652 0.013876 -0.001436 0.000000 -0.002933 0.000000
# 3 -0.001391 -0.001436 0.008685 0.000000 0.000013 0.000000
# 4 0.000000 0.000000 0.000000 0.057707 0.000000 0.017048
# 5 -0.001938 -0.002933 0.000013 0.000000 0.025197 0.000000
# 6 0.000000 0.000000 0.000000 0.017048 0.000000 0.091742
#
#
# Mechanical properties :
#
#
# Convention : Reuss Voigt Hill
#
# Bulk Modulus (GPa) = 45.05445 48.14425 46.59935
# Shear Modulus (GPa) = 22.10839 30.66036 26.38438
#
# Velocity S-wave (km/s) = 3.40218 4.00653 3.71666
# Velocity P-wave (km/s) = 6.24671 6.82707 6.54333
#
# Compressibility (1/GPa) = 0.02219537
#
# Stress axis : x y z
#
# Youngs Moduli (GPa) = 94.39426 72.06801 115.14010
#
# Poissons Ratio (x) = 0.19113 0.16021
# Poissons Ratio (y) = 0.25034 0.16536
# Poissons Ratio (z) = 0.13135 0.10350
#
# Static dielectric constant tensor:
#      x y z
#    x 1.713740 0.000000 -0.003270 
#    y 0.000000 1.656090 0.000000 
#    z -0.003270 0.000000 1.736350 
# 
# From -- ./inp_files/53289.got.cif
#   From: 2010.05.17/outbox.cif.g08.bks.cpg/sg12_27_cif.got.tgz:53289.got - 2010.06.03 13:09:07.
