data_PCOD9186497
_publ_section_title
;
Structure prediction by ZEFSAII (Michael W. Deem and Ramdas Pophale) SiO2 
 PCOD9186497
Probable space group: C 2/M
;
_chemical_formula_sum "Si O2"
_cell_formula_units_Z 64
_cell_length_a 31.547316
_cell_length_b 23.257021
_cell_length_c 10.290519
_cell_angle_alpha 90.000000
_cell_angle_beta 29.930471
_cell_angle_gamma 90.000000
_cell_volume 3767.121926
_symmetry_space_group_name_H-M "C 2/M"
_symmetry_group_IT_number 12
_symmetry_cell_setting 'monoclinic'
loop_
_space_group_symop_operation_xyz
x,y,z
-x,y,-z
-x,-y,-z
x,-y,z
1/2+x,1/2+y,z
1/2-x,1/2+y,-z
1/2-x,1/2-y,-z
1/2+x,1/2-y,z
loop_
_atom_site_type_symbol
_atom_site_label
_atom_site_fract_x
_atom_site_fract_y
_atom_site_fract_z
Si Si1 0.590750 0.213376 0.772592
Si Si2 0.259064 0.434745 0.356326
Si Si3 0.368977 0.109477 0.516581
Si Si4 0.398061 0.433601 0.773855
Si Si5 0.165788 0.354700 0.804233
Si Si6 0.206081 0.831013 0.060047
Si Si7 0.482918 0.067517 0.692707
Si Si8 0.244712 0.775348 0.227014
O O1 0.585686 0.157308 0.692718
O O2 0.615733 0.190795 0.847580
O O3 0.668945 0.250223 0.514228
O O4 0.500000 0.243280 0.000000
O O5 0.257108 0.500000 0.412564
O O6 0.187088 0.428278 0.434529
O O7 0.234209 0.387642 0.530361
O O8 0.348856 0.425456 0.043064
O O9 0.436483 0.078349 0.427918
O O10 0.299635 0.142470 0.787956
O O11 0.500000 0.429077 0.500000
O O12 0.376915 0.500000 0.790856
O O13 0.358692 0.382991 0.791180
O O14 0.205646 0.321264 0.819100
O O15 0.097717 0.400593 0.033955
O O16 0.204601 0.803954 0.205737
O O17 0.199495 0.778847 0.973193
O O18 0.500000 0.088190 0.500000
O O19 0.465834 0.000000 0.732137
#
# Coordination Sequence:
#
# PCOD9186497 Si02
#       8
#     8   8   8   8   8   8   8   8
#     4  10  19  35  53  76 101 139 180 225 268 317
#     4   9  18  32  55  81 106 143 183 221 273 325
#     4   9  17  33  54  73 107 138 176 221 269 322
#     4   9  18  36  60  85 108 134 182 238 275 316
#     4  11  21  36  54  77 113 148 182 221 273 320
#     4   9  19  38  57  80 108 143 181 220 279 326
#     4  11  22  33  50  80 113 145 184 224 266 325
#     4  10  21  37  55  77 113 146 178 224 263 331
#
# _framework density 16.989096
#
# number of rings (size 3 to 8) (size 9 to 14) (size 15 to 20)
#    0.000    2.250    1.250    2.625    0.000    0.500 
#    4.500    3.125    0.000    0.000    0.000    2.625 
#    0.000    0.000    0.000    0.000    0.000    0.000 
#
# Total GULP energy -178365.623597 kJ/mol
# GULP energy per Si atom -5573.925737 kJ/mol
# Density = 1.695043 g / cm^3
# Si number density = 16.989096 Si / 1000 Ang^3
#
#
#
# Elastic Constant Matrix: (Units=GPa)
#
#
# Indices 1 2 3 4 5 6 
#
# 1 63.9652 32.8413 35.3765 0.0000 0.1678 0.0000
# 2 32.8413 79.3589 29.2894 0.0000 -3.4527 0.0000
# 3 35.3765 29.2894 76.7837 0.0000 -6.5066 0.0000
# 4 0.0000 0.0000 0.0000 6.7232 0.0000 5.9174
# 5 0.1678 -3.4527 -6.5066 0.0000 19.5534 0.0000
# 6 0.0000 0.0000 0.0000 5.9174 0.0000 16.8011
#
#
#
# Elastic Compliance Matrix: (Units=1/GPa)
#
#
# Indices 1 2 3 4 5 6 
#
# 1 0.024066 -0.006890 -0.008829 0.000000 -0.004361 0.000000
# 2 -0.006890 0.016649 -0.003007 0.000000 0.001998 0.000000
# 3 -0.008829 -0.003007 0.018728 0.000000 0.005777 0.000000
# 4 0.000000 0.000000 0.000000 0.215562 0.000000 -0.075922
# 5 -0.004361 0.001998 0.005777 0.000000 0.053455 0.000000
# 6 0.000000 0.000000 0.000000 -0.075922 0.000000 0.086260
#
#
# Mechanical properties :
#
#
# Convention : Reuss Voigt Hill
#
# Bulk Modulus (GPa) = 45.47489 46.12470 45.79979
# Shear Modulus (GPa) = 10.88136 16.78889 13.83512
#
# Velocity S-wave (km/s) = 2.53354 3.14700 2.85678
# Velocity P-wave (km/s) = 5.94841 6.35715 6.15617
#
# Compressibility (1/GPa) = 0.02199016
#
# Stress axis : x y z
#
# Youngs Moduli (GPa) = 41.55322 60.06305 53.39633
#
# Poissons Ratio (x) = 0.41385 0.47143
# Poissons Ratio (y) = 0.28631 0.16056
# Poissons Ratio (z) = 0.36687 0.18061
#
# Static dielectric constant tensor:
#      x y z
#    x 1.551510 0.000000 0.007470 
#    y 0.000000 1.577980 0.000000 
#    z 0.007470 0.000000 1.583460 
# 
# From -- ./inp_files/113626.got.cif
#   From: 2010.05.17/outbox.cif.g08.bks.cpg/sg12_57_cif.got.tgz:113626.got - 2010.06.03 13:09:07.
