data_PCOD9186050
_publ_section_title
;
Structure prediction by ZEFSAII (Michael W. Deem and Ramdas Pophale) SiO2 
 PCOD9186050
Probable space group: C 2/M
;
_chemical_formula_sum "Si O2"
_cell_formula_units_Z 40
_cell_length_a 17.219727
_cell_length_b 13.838081
_cell_length_c 13.627089
_cell_angle_alpha 90.000000
_cell_angle_beta 35.890447
_cell_angle_gamma 90.000000
_cell_volume 1903.613001
_symmetry_space_group_name_H-M "C 2/M"
_symmetry_group_IT_number 12
_symmetry_cell_setting 'monoclinic'
loop_
_space_group_symop_operation_xyz
x,y,z
-x,y,-z
-x,-y,-z
x,-y,z
1/2+x,1/2+y,z
1/2-x,1/2+y,-z
1/2-x,1/2-y,-z
1/2+x,1/2-y,z
loop_
_atom_site_type_symbol
_atom_site_label
_atom_site_fract_x
_atom_site_fract_y
_atom_site_fract_z
Si Si1 0.039372 0.109954 0.129639
Si Si2 0.834806 0.792946 0.824910
Si Si3 0.158488 0.388082 0.842767
Si Si4 0.184774 0.387938 0.275428
Si Si5 0.280692 0.722052 0.357335
O O1 0.065368 0.139494 0.216660
O O2 0.929802 0.181731 0.201772
O O3 0.991238 0.000000 0.174034
O O4 0.170797 0.115042 0.926868
O O5 0.731152 0.854183 0.867146
O O6 0.887703 0.701063 0.707720
O O7 0.750000 0.750000 0.000000
O O8 0.182299 0.500000 0.802162
O O9 0.225667 0.321944 0.693385
O O10 0.000000 0.372727 0.000000
O O11 0.139302 0.500000 0.312135
O O12 0.200125 0.355324 0.373141
O O13 0.250000 0.750000 0.500000
#
# Coordination Sequence:
#
# PCOD9186050 Si02
#       5
#     8   8   8   8   8
#     4  10  19  34  59  84 105 135 177 225 269 310
#     4   9  17  31  54  84 111 131 170 222 268 314
#     4  10  20  35  54  76 106 142 177 215 262 316
#     4   9  18  34  57  81 105 136 175 219 265 314
#     4  11  22  35  52  75 107 141 178 220 264 315
#
# _framework density 21.012674000000001
#
# number of rings (size 3 to 8) (size 9 to 14) (size 15 to 20)
#    0.000    2.200    0.000    5.400    0.000    4.000 
#    0.000    5.000    0.000    7.200    0.000    0.000 
#    0.000    0.000    0.000    0.000    0.000    0.000 
#
# Total GULP energy -111501.880735 kJ/mol
# GULP energy per Si atom -5575.094037 kJ/mol
# Density = 2.096485 g / cm^3
# Si number density = 21.012674 Si / 1000 Ang^3
#
#
#
# Elastic Constant Matrix: (Units=GPa)
#
#
# Indices 1 2 3 4 5 6 
#
# 1 82.3201 21.6371 17.8886 0.0000 21.0489 0.0000
# 2 21.6371 132.1392 19.7162 0.0000 10.1196 0.0000
# 3 17.8886 19.7162 50.6680 0.0000 11.8572 0.0000
# 4 0.0000 0.0000 0.0000 3.2019 0.0000 6.0353
# 5 21.0489 10.1196 11.8572 0.0000 35.5895 0.0000
# 6 0.0000 0.0000 0.0000 6.0353 0.0000 25.7350
#
#
#
# Elastic Compliance Matrix: (Units=1/GPa)
#
#
# Indices 1 2 3 4 5 6 
#
# 1 0.015105 -0.001448 -0.003010 0.000000 -0.007519 0.000000
# 2 -0.001448 0.008233 -0.002543 0.000000 -0.000637 0.000000
# 3 -0.003010 -0.002543 0.022996 0.000000 -0.005158 0.000000
# 4 0.000000 0.000000 0.000000 0.559760 0.000000 -0.131274
# 5 -0.007519 -0.000637 -0.005158 0.000000 0.034445 0.000000
# 6 0.000000 0.000000 0.000000 -0.131274 0.000000 0.069644
#
#
# Mechanical properties :
#
#
# Convention : Reuss Voigt Hill
#
# Bulk Modulus (GPa) = 30.93001 42.62345 36.77673
# Shear Modulus (GPa) = 6.80307 26.63095 16.71701
#
# Velocity S-wave (km/s) = 1.80129 3.56388 2.82364
# Velocity P-wave (km/s) = 4.36782 6.10440 5.30761
#
# Compressibility (1/GPa) = 0.03233106
#
# Stress axis : x y z
#
# Youngs Moduli (GPa) = 66.20304 121.45913 43.48645
#
# Poissons Ratio (x) = 0.17593 0.13088
# Poissons Ratio (y) = 0.09589 0.11060
# Poissons Ratio (z) = 0.19925 0.30891
#
# Static dielectric constant tensor:
#      x y z
#    x 1.802880 0.000000 -0.010770 
#    y 0.000000 1.761100 0.000000 
#    z -0.010770 0.000000 1.765990 
# 
# From -- ./inp_files/142505.got.cif
#   From: 2010.05.17/outbox.cif.g08.bks.cpg/sg12_72_cif.got.tgz:142505.got - 2010.06.03 13:09:07.
