data_PCOD9186871
_publ_section_title
;
Structure prediction by ZEFSAII (Michael W. Deem and Ramdas Pophale) SiO2 
 PCOD9186871
Probable space group: C 2/M
;
_chemical_formula_sum "Si O2"
_cell_formula_units_Z 40
_cell_length_a 9.675113
_cell_length_b 16.323252
_cell_length_c 20.263723
_cell_angle_alpha 90.000000
_cell_angle_beta 138.558100
_cell_angle_gamma 90.000000
_cell_volume 2118.108795
_symmetry_space_group_name_H-M "C 2/M"
_symmetry_group_IT_number 12
_symmetry_cell_setting 'monoclinic'
loop_
_space_group_symop_operation_xyz
x,y,z
-x,y,-z
-x,-y,-z
x,-y,z
1/2+x,1/2+y,z
1/2-x,1/2+y,-z
1/2-x,1/2-y,-z
1/2+x,1/2-y,z
loop_
_atom_site_type_symbol
_atom_site_label
_atom_site_fract_x
_atom_site_fract_y
_atom_site_fract_z
Si Si1 0.763847 0.698854 0.724376
Si Si2 0.248239 0.000000 0.163809
Si Si3 0.980986 0.351578 0.312465
Si Si4 0.415946 0.178448 0.042157
Si Si5 0.749470 0.500000 0.011518
Si Si6 0.869311 0.168378 0.519361
O O1 0.664446 0.788345 0.700225
O O2 0.552810 0.644603 0.635954
O O3 0.908947 0.692401 0.711386
O O4 0.902208 0.678604 0.837487
O O5 0.339801 0.078444 0.232308
O O6 0.000174 0.000000 0.077943
O O7 0.318216 0.000000 0.112739
O O8 0.172637 0.385630 0.425813
O O9 0.500000 0.198572 0.000000
O O10 0.250000 0.250000 0.000000
O O11 0.324055 0.086142 0.007976
O O12 0.750000 0.250000 0.500000
O O13 0.000000 0.186631 0.500000
#
# Coordination Sequence:
#
# PCOD9186871 Si02
#       6
#     8   4   8   8   4   8
#     4  10  19  35  56  86 114 147 194 243 285 348
#     4  11  22  38  60  84 121 156 194 248 300 348
#     4  10  19  36  59  85 112 152 192 240 295 351
#     4  12  25  40  63  90 119 161 204 243 298 360
#     4  11  25  42  57  85 126 161 198 250 303 347
#     4   8  16  30  53  81 111 142 186 236 290 339
#
# _framework density 18.88477
#
# number of rings (size 3 to 8) (size 9 to 14) (size 15 to 20)
#    0.000    1.800    2.000    2.700    2.800    0.000 
#    0.000    5.500    0.000    0.000    0.000   64.400 
#    0.000    0.000    0.000    0.000    0.000    0.000 
#
# Total GULP energy -111399.375056 kJ/mol
# GULP energy per Si atom -5569.968753 kJ/mol
# Density = 1.884179 g / cm^3
# Si number density = 18.884770 Si / 1000 Ang^3
#
#
#
# Elastic Constant Matrix: (Units=GPa)
#
#
# Indices 1 2 3 4 5 6 
#
# 1 56.9050 38.9260 29.9150 0.0001 4.5118 0.0000
# 2 38.9260 87.5546 30.6501 0.0000 10.0900 0.0000
# 3 29.9150 30.6501 147.1297 0.0002 -2.2105 0.0000
# 4 0.0001 0.0000 0.0002 -28.7080 0.0001 -1.0454
# 5 4.5118 10.0900 -2.2105 0.0001 22.5597 0.0000
# 6 0.0000 0.0000 0.0000 -1.0454 0.0000 23.5546
#
#
#
# Elastic Compliance Matrix: (Units=1/GPa)
#
#
# Indices 1 2 3 4 5 6 
#
# 1 0.026575 -0.010588 -0.003211 0.000000 -0.000894 0.000000
# 2 -0.010588 0.017337 -0.001546 0.000000 -0.005788 0.000000
# 3 -0.003211 -0.001546 0.007803 0.000000 0.002098 0.000000
# 4 0.000000 0.000000 0.000000 -0.034777 0.000000 -0.001544
# 5 -0.000894 -0.005788 0.002098 0.000000 0.047300 0.000000
# 6 0.000000 0.000000 0.000000 -0.001544 0.000000 0.042386
#
#
# Mechanical properties :
#
#
# Convention : Reuss Voigt Hill
#
# Bulk Modulus (GPa) = 47.56154 54.50794 51.03474
# Shear Modulus (GPa) = 34.64499 16.28782 25.46640
#
# Velocity S-wave (km/s) = 4.28781 2.93999 3.67620
# Velocity P-wave (km/s) = 7.05362 6.36010 6.71582
#
# Compressibility (1/GPa) = 0.02102539
#
# Stress axis : x y z
#
# Youngs Moduli (GPa) = 37.62982 57.68060 128.15321
#
# Poissons Ratio (x) = 0.61071 0.41151
# Poissons Ratio (y) = 0.39842 0.19810
# Poissons Ratio (z) = 0.12083 0.08916
#
# Static dielectric constant tensor:
#      x y z
#    x 1.662090 0.000000 -0.009720 
#    y 0.000000 1.657430 0.000000 
#    z -0.009720 0.000000 1.729430 
# 
# From -- ./inp_files/194682.got.cif
#   From: 2010.05.17/outbox.cif.g08.bks.cpg/sg12_98_cif.got.tgz:194682.got - 2010.06.03 13:09:07.
