data_PCOD9186084
_publ_section_title
;
Structure prediction by ZEFSAII (Michael W. Deem and Ramdas Pophale) SiO2 
 PCOD9186084
Probable space group: C 2/M
;
_chemical_formula_sum "Si O2"
_cell_formula_units_Z 48
_cell_length_a 25.808436
_cell_length_b 8.346011
_cell_length_c 24.692288
_cell_angle_alpha 90.000000
_cell_angle_beta 29.566738
_cell_angle_gamma 90.000000
_cell_volume 2624.422169
_symmetry_space_group_name_H-M "C 2/M"
_symmetry_group_IT_number 12
_symmetry_cell_setting 'monoclinic'
loop_
_space_group_symop_operation_xyz
x,y,z
-x,y,-z
-x,-y,-z
x,-y,z
1/2+x,1/2+y,z
1/2-x,1/2+y,-z
1/2-x,1/2-y,-z
1/2+x,1/2-y,z
loop_
_atom_site_type_symbol
_atom_site_label
_atom_site_fract_x
_atom_site_fract_y
_atom_site_fract_z
Si Si1 0.369360 0.691367 0.884401
Si Si2 0.508476 0.304194 0.120208
Si Si3 0.313254 0.304735 0.125073
Si Si4 0.208999 0.805886 0.730225
Si Si5 0.903348 0.308542 0.734576
Si Si6 0.057900 0.191586 0.502456
O O1 0.367499 0.500000 0.888724
O O2 0.440861 0.749918 0.869353
O O3 0.411463 0.743733 0.787818
O O4 0.250000 0.750000 0.000000
O O5 0.508574 0.500000 0.120319
O O6 0.389770 0.253392 0.216142
O O7 0.585666 0.254037 0.001204
O O8 0.313548 0.500000 0.124940
O O9 0.311145 0.253752 0.189334
O O10 0.206981 0.252113 0.191499
O O11 0.321418 0.743769 0.609134
O O12 0.212323 0.000000 0.726960
O O13 0.899097 0.500000 0.741022
O O14 0.996025 0.257392 0.610403
O O15 0.000000 0.249742 0.500000
O O16 0.051661 0.000000 0.508896
#
# Coordination Sequence:
#
# PCOD9186084 Si02
#       6
#     8   8   8   8   8   8
#     4  11  21  36  57  84 117 152 189 230 277 330
#     4   9  18  33  55  85 116 146 185 230 278 330
#     4   9  16  29  54  86 114 138 176 230 279 327
#     4  10  19  34  59  85 111 147 188 231 278 333
#     4  11  21  36  59  86 111 144 193 236 275 329
#     4  11  23  38  56  81 116 150 183 229 284 338
#
# _framework density 18.289739999999998
#
# number of rings (size 3 to 8) (size 9 to 14) (size 15 to 20)
#    0.000    1.833    3.333    2.000    0.000    2.667 
#    0.000    2.500    0.000    1.000    0.000    0.000 
#    0.000    0.000    0.000    0.000    0.000    0.000 
#
# Total GULP energy -134025.524454 kJ/mol
# GULP energy per Si atom -5584.396852 kJ/mol
# Density = 1.824811 g / cm^3
# Si number density = 18.289740 Si / 1000 Ang^3
#
#
#
# Elastic Constant Matrix: (Units=GPa)
#
#
# Indices 1 2 3 4 5 6 
#
# 1 99.3879 11.4535 66.8531 0.0008 -8.2694 -0.0005
# 2 11.4535 21.4491 11.7039 -0.0024 -0.2153 0.0019
# 3 66.8531 11.7039 141.3356 -0.0063 -5.9070 0.0047
# 4 0.0008 -0.0024 -0.0063 14.8505 0.0019 2.4346
# 5 -8.2694 -0.2153 -5.9070 0.0019 37.1255 -0.0014
# 6 -0.0005 0.0019 0.0047 2.4346 -0.0014 19.3830
#
#
#
# Elastic Compliance Matrix: (Units=1/GPa)
#
#
# Indices 1 2 3 4 5 6 
#
# 1 0.015333 -0.004461 -0.006787 -0.000005 0.002310 0.000003
# 2 -0.004461 0.050131 -0.002084 0.000009 -0.001035 -0.000006
# 3 -0.006787 -0.002084 0.010464 0.000005 0.000141 -0.000003
# 4 -0.000005 0.000009 0.000005 0.068754 -0.000004 -0.008636
# 5 0.002310 -0.001035 0.000141 -0.000004 0.027467 0.000003
# 6 0.000003 -0.000006 -0.000003 -0.008636 0.000003 0.052676
#
#
# Mechanical properties :
#
#
# Convention : Reuss Voigt Hill
#
# Bulk Modulus (GPa) = 20.29894 49.13264 34.71579
# Shear Modulus (GPa) = 18.66295 25.74925 22.20610
#
# Velocity S-wave (km/s) = 3.19784 3.75621 3.48821
# Velocity P-wave (km/s) = 4.97570 6.76269 5.93681
#
# Compressibility (1/GPa) = 0.04926367
#
# Stress axis : x y z
#
# Youngs Moduli (GPa) = 65.21923 19.94766 95.56555
#
# Poissons Ratio (x) = 0.08899 0.64857
# Poissons Ratio (y) = 0.29095 0.19920
# Poissons Ratio (z) = 0.44262 0.04158
#
# Static dielectric constant tensor:
#      x y z
#    x 1.642980 0.000000 -0.005310 
#    y 0.000000 1.638600 0.000000 
#    z -0.005310 0.000000 1.591730 
# 
# From -- ./inp_files/173040.got.cif
#   From: 2010.05.17/outbox.cif.g08.bks.cpg/sg12_87_cif.got.tgz:173040.got - 2010.06.03 13:09:07.
