data_PCOD9186886
_publ_section_title
;
Structure prediction by ZEFSAII (Michael W. Deem and Ramdas Pophale) SiO2 
 PCOD9186886
Probable space group: C 2/M
;
_chemical_formula_sum "Si O2"
_cell_formula_units_Z 64
_cell_length_a 22.093819
_cell_length_b 21.933864
_cell_length_c 6.556665
_cell_angle_alpha 90.000000
_cell_angle_beta 65.248843
_cell_angle_gamma 90.000000
_cell_volume 2885.487602
_symmetry_space_group_name_H-M "C 2/M"
_symmetry_group_IT_number 12
_symmetry_cell_setting 'monoclinic'
loop_
_space_group_symop_operation_xyz
x,y,z
-x,y,-z
-x,-y,-z
x,-y,z
1/2+x,1/2+y,z
1/2-x,1/2+y,-z
1/2-x,1/2-y,-z
1/2+x,1/2-y,z
loop_
_atom_site_type_symbol
_atom_site_label
_atom_site_fract_x
_atom_site_fract_y
_atom_site_fract_z
Si Si1 0.171203 0.570462 0.469194
Si Si2 0.329581 0.567620 0.309370
Si Si3 0.369626 0.169663 0.184059
Si Si4 0.549146 0.769493 0.245223
Si Si5 0.149267 0.887580 0.298174
Si Si6 0.170236 0.251212 0.376240
Si Si7 0.720285 0.147598 0.068080
Si Si8 0.057132 0.865489 0.073484
O O1 0.155174 0.500000 0.480177
O O2 0.249931 0.577474 0.414844
O O3 0.128713 0.607399 0.692646
O O4 0.167269 0.605361 0.260255
O O5 0.343689 0.500000 0.198612
O O6 0.349535 0.566909 0.518261
O O7 0.375344 0.620304 0.147194
O O8 0.352595 0.221533 0.375851
O O9 0.309036 0.164924 0.109574
O O10 0.434788 0.185104 0.961269
O O11 0.500000 0.784804 0.500000
O O12 0.617704 0.764531 0.271717
O O13 0.536239 0.703655 0.160433
O O14 0.166332 0.821402 0.376188
O O15 0.213425 0.892131 0.060742
O O16 0.081489 0.889507 0.262304
O O17 0.230674 0.293589 0.203340
O O18 0.000000 0.890003 0.000000
#
# Coordination Sequence:
#
# PCOD9186886 Si02
#       8
#     8   8   8   8   8   8   8   8
#     4  10  21  38  61  90 125 164 207 250 301 365
#     4  11  24  41  62  87 117 164 216 260 309 357
#     4  10  20  38  59  93 127 158 197 247 311 366
#     4  10  23  39  63  92 121 161 204 246 304 371
#     4  11  21  38  60  88 120 162 203 257 312 361
#     4   9  21  35  57  90 126 156 198 244 309 375
#     4  10  19  35  56  90 124 159 198 245 309 371
#     4  11  26  42  63  84 120 164 213 261 305 362
#
# _framework density 22.179959
#
# number of rings (size 3 to 8) (size 9 to 14) (size 15 to 20)
#    0.000    1.750    2.500    1.125    5.250    2.250 
#    0.000    0.625    0.000    0.375    0.000    7.875 
#    0.000    0.000    0.000    0.000    0.000    0.000 
#
# Total GULP energy -178337.745773 kJ/mol
# GULP energy per Si atom -5573.054555 kJ/mol
# Density = 2.212948 g / cm^3
# Si number density = 22.179959 Si / 1000 Ang^3
#
#
#
# Elastic Constant Matrix: (Units=GPa)
#
#
# Indices 1 2 3 4 5 6 
#
# 1 45.9300 -21.5390 -2.9311 0.0000 21.4447 0.0000
# 2 -21.5390 84.3827 39.6339 0.0000 -1.7591 0.0000
# 3 -2.9311 39.6339 127.4669 0.0000 0.7497 0.0000
# 4 0.0000 0.0000 0.0000 20.2807 0.0000 3.4259
# 5 21.4447 -1.7591 0.7497 0.0000 38.2225 0.0000
# 6 0.0000 0.0000 0.0000 3.4259 0.0000 10.7373
#
#
#
# Elastic Compliance Matrix: (Units=1/GPa)
#
#
# Indices 1 2 3 4 5 6 
#
# 1 0.035062 0.009506 -0.002037 0.000000 -0.019194 0.000000
# 2 0.009506 0.016475 -0.004878 0.000000 -0.004479 0.000000
# 3 -0.002037 -0.004878 0.009311 0.000000 0.000736 0.000000
# 4 0.000000 0.000000 0.000000 0.052117 0.000000 -0.016629
# 5 -0.019194 -0.004479 0.000736 0.000000 0.036711 0.000000
# 6 0.000000 0.000000 0.000000 -0.016629 0.000000 0.098439
#
#
# Mechanical properties :
#
#
# Convention : Reuss Voigt Hill
#
# Bulk Modulus (GPa) = 15.14440 32.01189 23.57815
# Shear Modulus (GPa) = 18.87212 30.02249 24.44731
#
# Velocity S-wave (km/s) = 2.92012 3.68310 3.32358
# Velocity P-wave (km/s) = 4.26758 5.70536 5.03803
#
# Compressibility (1/GPa) = 0.06603099
#
# Stress axis : x y z
#
# Youngs Moduli (GPa) = 28.52106 60.69853 107.40385
#
# Poissons Ratio (x) = -0.57701 0.21874
# Poissons Ratio (y) = -0.27112 0.52388
# Poissons Ratio (z) = 0.05809 0.29607
#
# Static dielectric constant tensor:
#      x y z
#    x 1.892650 0.000000 -0.044970 
#    y 0.000000 1.881510 0.000000 
#    z -0.044970 0.000000 1.900070 
# 
# From -- ./inp_files/26209.got.cif
#   From: 2010.05.17/outbox.cif.g08.bks.cpg/sg12_14_cif.got.tgz:26209.got - 2010.06.03 13:09:07.
