data_PCOD9186606
_publ_section_title
;
Structure prediction by ZEFSAII (Michael W. Deem and Ramdas Pophale) SiO2 
 PCOD9186606
Probable space group: C 2/M
;
_chemical_formula_sum "Si O2"
_cell_formula_units_Z 40
_cell_length_a 20.020182
_cell_length_b 24.448495
_cell_length_c 7.176055
_cell_angle_alpha 90.000000
_cell_angle_beta 149.430012
_cell_angle_gamma 90.000000
_cell_volume 1786.381195
_symmetry_space_group_name_H-M "C 2/M"
_symmetry_group_IT_number 12
_symmetry_cell_setting 'monoclinic'
loop_
_space_group_symop_operation_xyz
x,y,z
-x,y,-z
-x,-y,-z
x,-y,z
1/2+x,1/2+y,z
1/2-x,1/2+y,-z
1/2-x,1/2-y,-z
1/2+x,1/2-y,z
loop_
_atom_site_type_symbol
_atom_site_label
_atom_site_fract_x
_atom_site_fract_y
_atom_site_fract_z
Si Si1 0.803154 0.349474 0.319204
Si Si2 0.465096 0.776267 0.202166
Si Si3 0.246851 0.640112 0.382801
Si Si4 0.995197 0.437760 0.214069
Si Si5 0.573139 0.341256 0.502613
O O1 0.922246 0.307679 0.641954
O O2 0.735098 0.364250 0.351775
O O3 0.876660 0.403568 0.419341
O O4 0.706227 0.324564 0.933997
O O5 0.500000 0.789972 0.500000
O O6 0.489598 0.711931 0.245046
O O7 0.322543 0.800696 0.816884
O O8 0.372583 0.632177 0.554598
O O9 0.134706 0.596815 0.054093
O O10 0.992374 0.500000 0.271190
O O11 0.000000 0.438075 0.000000
O O12 0.500000 0.371450 0.500000
#
# Coordination Sequence:
#
# PCOD9186606 Si02
#       5
#     8   8   8   8   8
#     4  10  20  37  57  81 111 141 180 230 274 322
#     4  10  19  35  55  74 108 147 178 225 279 306
#     4  10  21  38  56  82 112 140 183 234 270 321
#     4   8  16  34  63  90 107 130 174 232 289 326
#     4  11  24  37  51  75 114 156 186 219 266 320
#
# _framework density 22.391635000000001
#
# number of rings (size 3 to 8) (size 9 to 14) (size 15 to 20)
#    0.000    2.200    2.000    2.400    2.800    1.600 
#    7.200    2.000    0.000    2.400    0.000    5.600 
#    0.000    0.000    0.000    0.000    0.000    0.000 
#
# Total GULP energy -111688.700550 kJ/mol
# GULP energy per Si atom -5584.435028 kJ/mol
# Density = 2.234067 g / cm^3
# Si number density = 22.391635 Si / 1000 Ang^3
#
#
#
# Elastic Constant Matrix: (Units=GPa)
#
#
# Indices 1 2 3 4 5 6 
#
# 1 166.5798 24.8492 8.0980 0.0000 21.7277 0.0000
# 2 24.8492 109.2372 27.1217 0.0000 15.2409 0.0000
# 3 8.0980 27.1217 60.1894 0.0000 2.8787 0.0000
# 4 0.0000 0.0000 0.0000 -2.1705 0.0000 8.7821
# 5 21.7277 15.2409 2.8787 0.0000 37.1878 0.0000
# 6 0.0000 0.0000 0.0000 8.7821 0.0000 0.9930
#
#
#
# Elastic Compliance Matrix: (Units=1/GPa)
#
#
# Indices 1 2 3 4 5 6 
#
# 1 0.006609 -0.000948 -0.000297 0.000000 -0.003450 0.000000
# 2 -0.000948 0.011033 -0.004672 0.000000 -0.003606 0.000000
# 3 -0.000297 -0.004672 0.018729 0.000000 0.000638 0.000000
# 4 0.000000 0.000000 0.000000 -0.012525 0.000000 0.110772
# 5 -0.003450 -0.003606 0.000638 0.000000 0.030335 0.000000
# 6 0.000000 0.000000 0.000000 0.110772 0.000000 0.027377
#
#
# Mechanical properties :
#
#
# Convention : Reuss Voigt Hill
#
# Bulk Modulus (GPa) = 40.75434 50.68267 45.71851
# Shear Modulus (GPa) = 49.22714 25.59790 37.41252
#
# Velocity S-wave (km/s) = 4.69386 3.38478 4.09201
# Velocity P-wave (km/s) = 6.90048 6.16112 6.54126
#
# Compressibility (1/GPa) = 0.02453726
#
# Stress axis : x y z
#
# Youngs Moduli (GPa) = 151.30877 90.63632 53.39411
#
# Poissons Ratio (x) = 0.08596 0.01585
# Poissons Ratio (y) = 0.14350 0.24943
# Poissons Ratio (z) = 0.04491 0.42341
#
# Static dielectric constant tensor:
#      x y z
#    x 1.941820 0.000000 0.032280 
#    y 0.000000 1.796570 0.000000 
#    z 0.032280 0.000000 1.860020 
# 
# From -- ./inp_files/90756.got.cif
#   From: 2010.05.17/outbox.cif.g08.bks.cpg/sg12_46_cif.got.tgz:90756.got - 2010.06.03 13:09:07.
