data_PCOD9186039
_publ_section_title
;
Structure prediction by ZEFSAII (Michael W. Deem and Ramdas Pophale) SiO2 
 PCOD9186039
Probable space group: C 2/M
;
_chemical_formula_sum "Si O2"
_cell_formula_units_Z 64
_cell_length_a 21.664797
_cell_length_b 18.538013
_cell_length_c 19.081091
_cell_angle_alpha 90.000000
_cell_angle_beta 151.609681
_cell_angle_gamma 90.000000
_cell_volume 3643.755426
_symmetry_space_group_name_H-M "C 2/M"
_symmetry_group_IT_number 12
_symmetry_cell_setting 'monoclinic'
loop_
_space_group_symop_operation_xyz
x,y,z
-x,y,-z
-x,-y,-z
x,-y,z
1/2+x,1/2+y,z
1/2-x,1/2+y,-z
1/2-x,1/2-y,-z
1/2+x,1/2-y,z
loop_
_atom_site_type_symbol
_atom_site_label
_atom_site_fract_x
_atom_site_fract_y
_atom_site_fract_z
Si Si1 0.120523 0.414159 0.811710
Si Si2 0.628661 0.169650 0.673166
Si Si3 0.122322 0.814214 0.169250
Si Si4 0.336373 0.138062 0.565151
Si Si5 0.639172 0.413253 0.848182
Si Si6 0.574860 0.581812 0.250828
Si Si7 0.457602 0.667143 0.382461
Si Si8 0.724394 0.716014 0.581969
O O1 0.130597 0.500000 0.809594
O O2 0.137579 0.371944 0.755542
O O3 0.977909 0.394182 0.697183
O O4 0.230100 0.394242 0.978486
O O5 0.500000 0.148554 0.500000
O O6 0.756705 0.155452 0.754916
O O7 0.610761 0.255554 0.669973
O O8 0.074534 0.868106 0.182458
O O9 0.179934 0.743404 0.262804
O O10 0.000000 0.797967 0.000000
O O11 0.222274 0.085797 0.425384
O O12 0.320265 0.211208 0.503278
O O13 0.300006 0.163064 0.606345
O O14 0.634333 0.500000 0.835219
O O15 0.520414 0.392269 0.782047
O O16 0.623326 0.377159 0.756167
O O17 0.537176 0.500000 0.195808
O O18 0.500000 0.633982 0.500000
O O19 0.594714 0.682672 0.482597
#
# Coordination Sequence:
#
# PCOD9186039 Si02
#       8
#     8   8   8   8   8   8   8   8
#     4  11  23  38  56  86 124 156 189 237 286 335
#     4  11  21  37  57  85 120 158 195 226 275 346
#     4  11  22  34  53  84 118 147 185 234 281 333
#     4  10  19  34  59  81 109 145 191 233 280 327
#     4  10  23  40  59  85 114 148 197 244 290 344
#     4  10  20  36  57  79 109 154 196 227 269 334
#     4  11  20  39  63  81 110 148 188 243 289 346
#     4  10  19  36  56  83 111 143 187 237 279 337
#
# _framework density 17.564295999999999
#
# number of rings (size 3 to 8) (size 9 to 14) (size 15 to 20)
#    0.000    1.500    5.000    1.875    0.000    2.750 
#    0.000    0.000    0.000    0.000    0.000    1.750 
#    0.000    0.000    0.000    0.000    0.000    0.000 
#
# Total GULP energy -178526.852263 kJ/mol
# GULP energy per Si atom -5578.964133 kJ/mol
# Density = 1.752432 g / cm^3
# Si number density = 17.564296 Si / 1000 Ang^3
#
#
#
# Elastic Constant Matrix: (Units=GPa)
#
#
# Indices 1 2 3 4 5 6 
#
# 1 76.9160 17.1975 38.7908 -0.0001 -12.3303 0.0003
# 2 17.1975 38.5985 26.6145 -0.0004 -20.9069 0.0003
# 3 38.7908 26.6145 124.0290 -0.0007 -21.7055 0.0003
# 4 -0.0001 -0.0004 -0.0007 10.5183 -0.0003 4.6835
# 5 -12.3303 -20.9069 -21.7055 -0.0003 27.5475 0.0001
# 6 0.0003 0.0003 0.0003 4.6835 0.0001 16.7539
#
#
#
# Elastic Compliance Matrix: (Units=1/GPa)
#
#
# Indices 1 2 3 4 5 6 
#
# 1 0.016050 -0.003747 -0.004009 0.000000 0.001182 0.000000
# 2 -0.003747 0.046810 -0.003421 0.000003 0.031154 -0.000002
# 3 -0.004009 -0.003421 0.010767 0.000001 0.004093 0.000000
# 4 0.000000 0.000003 0.000001 0.108589 0.000004 -0.030355
# 5 0.001182 0.031154 0.004093 0.000004 0.063699 -0.000002
# 6 0.000000 -0.000002 0.000000 -0.030355 -0.000002 0.068173
#
#
# Mechanical properties :
#
#
# Convention : Reuss Voigt Hill
#
# Bulk Modulus (GPa) = 19.50303 44.97212 32.23757
# Shear Modulus (GPa) = 14.14297 21.42665 17.78481
#
# Velocity S-wave (km/s) = 2.84070 3.49649 3.18552
# Velocity P-wave (km/s) = 4.67839 6.47769 5.65013
#
# Compressibility (1/GPa) = 0.05127407
#
# Stress axis : x y z
#
# Youngs Moduli (GPa) = 62.30445 21.36281 92.87819
#
# Poissons Ratio (x) = 0.08004 0.37235
# Poissons Ratio (y) = 0.23344 0.31772
# Poissons Ratio (z) = 0.24978 0.07308
#
# Static dielectric constant tensor:
#      x y z
#    x 1.608370 0.000000 -0.011390 
#    y 0.000000 1.594750 0.000000 
#    z -0.011390 0.000000 1.590030 
# 
# From -- ./inp_files/285226.got.cif
#   From: 2010.05.17/outbox.cif.g08.bks.cpg/sg12_143_cif.got.tgz:285226.got - 2010.06.03 13:09:07.
