data_PCOD9186277
_publ_section_title
;
Structure prediction by ZEFSAII (Michael W. Deem and Ramdas Pophale) SiO2 
 PCOD9186277
Probable space group: C 2/M
;
_chemical_formula_sum "Si O2"
_cell_formula_units_Z 58
_cell_length_a 13.857158
_cell_length_b 20.384106
_cell_length_c 11.447686
_cell_angle_alpha 90.000000
_cell_angle_beta 83.942926
_cell_angle_gamma 90.000000
_cell_volume 3215.527352
_symmetry_space_group_name_H-M "C 2/M"
_symmetry_group_IT_number 12
_symmetry_cell_setting 'monoclinic'
loop_
_space_group_symop_operation_xyz
x,y,z
-x,y,-z
-x,-y,-z
x,-y,z
1/2+x,1/2+y,z
1/2-x,1/2+y,-z
1/2-x,1/2-y,-z
1/2+x,1/2-y,z
loop_
_atom_site_type_symbol
_atom_site_label
_atom_site_fract_x
_atom_site_fract_y
_atom_site_fract_z
Si Si1 0.319924 0.422050 0.271274
Si Si2 0.500000 0.000000 0.500000
Si Si3 0.527156 0.664925 0.627571
Si Si4 0.365751 0.121499 0.561156
Si Si5 0.605844 0.791670 0.929153
Si Si6 0.649050 0.792161 0.654295
Si Si7 0.743915 0.328193 0.919196
Si Si8 0.642653 0.753381 0.294830
O O1 0.323424 0.500000 0.267467
O O2 0.419503 0.389749 0.303272
O O3 0.239108 0.396603 0.373459
O O4 0.287951 0.390686 0.151542
O O5 0.431254 0.058100 0.564672
O O6 0.500000 0.643233 0.500000
O O7 0.599018 0.727371 0.607915
O O8 0.434032 0.695492 0.704105
O O9 0.361080 0.145974 0.428546
O O10 0.401343 0.185403 0.627907
O O11 0.605213 0.801625 0.789629
O O12 0.650081 0.718563 0.945747
O O13 0.500000 0.800059 0.000000
O O14 0.690178 0.837643 0.974985
O O15 0.761959 0.773978 0.653606
O O16 0.816378 0.285080 0.828269
#
# Coordination Sequence:
#
# PCOD9186277 Si02
#       8
#     8   2   8   8   8   8   8   8
#     4  11  23  41  59  83 127 166 196 235 297 372
#     4  12  24  32  52  80 112 164 184 214 288 354
#     4  12  20  32  57  91 119 157 196 245 297 352
#     4  11  20  37  54  85 120 150 192 233 292 366
#     4  10  19  35  60  94 117 143 195 260 305 337
#     4  11  20  36  58  91 119 150 189 255 312 337
#     4   9  20  36  60  90 116 156 193 247 303 347
#     4  10  19  34  60  89 116 146 193 248 300 345
#
# _framework density 18.037476999999999
#
# number of rings (size 3 to 8) (size 9 to 14) (size 15 to 20)
#    0.000    1.379    6.207    2.897    0.000    1.379 
#    0.000    0.000    1.517    0.828    0.000    0.000 
#    0.000    0.000    0.000    0.000    0.000    0.000 
#
# Total GULP energy -161583.844578 kJ/mol
# GULP energy per Si atom -5571.856710 kJ/mol
# Density = 1.799642 g / cm^3
# Si number density = 18.037477 Si / 1000 Ang^3
#
#
#
# Elastic Constant Matrix: (Units=GPa)
#
#
# Indices 1 2 3 4 5 6 
#
# 1 76.8998 32.2955 11.5611 0.0000 -3.0821 0.0000
# 2 32.2955 106.8707 38.3424 0.0000 3.9979 0.0000
# 3 11.5611 38.3424 78.0790 0.0000 12.9720 0.0000
# 4 0.0000 0.0000 0.0000 18.0661 0.0000 -3.5919
# 5 -3.0821 3.9979 12.9720 0.0000 23.3874 0.0000
# 6 0.0000 0.0000 0.0000 -3.5919 0.0000 19.7322
#
#
#
# Elastic Compliance Matrix: (Units=1/GPa)
#
#
# Indices 1 2 3 4 5 6 
#
# 1 0.015089 -0.004480 -0.000542 0.000000 0.003055 0.000000
# 2 -0.004480 0.012722 -0.005645 0.000000 0.000366 0.000000
# 3 -0.000542 -0.005645 0.017086 0.000000 -0.008583 0.000000
# 4 0.000000 0.000000 0.000000 0.057431 0.000000 0.010454
# 5 0.003055 0.000366 -0.008583 0.000000 0.047859 0.000000
# 6 0.000000 0.000000 0.000000 0.010454 0.000000 0.052582
#
#
# Mechanical properties :
#
#
# Convention : Reuss Voigt Hill
#
# Bulk Modulus (GPa) = 42.43742 47.36084 44.89913
# Shear Modulus (GPa) = 21.55571 24.21383 22.88477
#
# Velocity S-wave (km/s) = 3.46070 3.66788 3.56579
# Velocity P-wave (km/s) = 6.28864 6.65219 6.47297
#
# Compressibility (1/GPa) = 0.02356411
#
# Stress axis : x y z
#
# Youngs Moduli (GPa) = 66.27262 78.60102 58.52747
#
# Poissons Ratio (x) = 0.35211 0.03172
# Poissons Ratio (y) = 0.29688 0.33040
# Poissons Ratio (z) = 0.03591 0.44372
#
# Static dielectric constant tensor:
#      x y z
#    x 1.674600 0.000000 0.009920 
#    y 0.000000 1.564690 0.000000 
#    z 0.009920 0.000000 1.677840 
# 
# From -- ./inp_files/145547.got.cif
#   From: 2010.05.17/outbox.cif.g08.bks.cpg/sg12_73_cif.got.tgz:145547.got - 2010.06.03 13:09:07.
