data_PCOD9186405
_publ_section_title
;
Structure prediction by ZEFSAII (Michael W. Deem and Ramdas Pophale) SiO2 
 PCOD9186405
Probable space group: C 2/M
;
_chemical_formula_sum "Si O2"
_cell_formula_units_Z 56
_cell_length_a 22.811660
_cell_length_b 14.726977
_cell_length_c 9.364412
_cell_angle_alpha 90.000000
_cell_angle_beta 113.941571
_cell_angle_gamma 90.000000
_cell_volume 2875.266392
_symmetry_space_group_name_H-M "C 2/M"
_symmetry_group_IT_number 12
_symmetry_cell_setting 'monoclinic'
loop_
_space_group_symop_operation_xyz
x,y,z
-x,y,-z
-x,-y,-z
x,-y,z
1/2+x,1/2+y,z
1/2-x,1/2+y,-z
1/2-x,1/2-y,-z
1/2+x,1/2-y,z
loop_
_atom_site_type_symbol
_atom_site_label
_atom_site_fract_x
_atom_site_fract_y
_atom_site_fract_z
Si Si1 0.822415 0.252017 0.812872
Si Si2 0.628707 0.901753 0.928696
Si Si3 0.375190 0.605659 0.665164
Si Si4 0.984407 0.603089 0.817014
Si Si5 0.311181 0.835388 0.288825
Si Si6 0.772366 0.400968 0.552207
Si Si7 0.438404 0.752151 0.544926
O O1 0.863375 0.167264 0.794803
O O2 0.753550 0.220845 0.804256
O O3 0.804449 0.317340 0.663278
O O4 0.857983 0.316267 0.958565
O O5 0.554312 0.899949 0.814362
O O6 0.671226 0.892657 0.831226
O O7 0.640119 0.000000 0.009893
O O8 0.390101 0.500000 0.707968
O O9 0.304677 0.608702 0.521549
O O10 0.425277 0.656950 0.612555
O O11 0.957266 0.500000 0.788857
O O12 0.946294 0.673892 0.681676
O O13 0.000000 0.625602 0.000000
O O14 0.293453 0.894305 0.409238
O O15 0.374087 0.777354 0.393297
O O16 0.789129 0.500000 0.626676
O O17 0.500000 0.752010 0.500000
#
# Coordination Sequence:
#
# PCOD9186405 Si02
#       7
#     8   8   8   8   8   8   8
#     4  11  20  39  63  88 119 156 202 254 310 356
#     4  11  23  38  58  90 129 158 193 247 310 374
#     4  10  21  39  62  88 115 150 208 263 298 346
#     4  10  23  39  57  87 123 162 202 240 296 371
#     4  11  21  38  56  92 123 160 198 243 301 368
#     4  10  19  34  62  91 117 147 195 251 307 366
#     4  12  22  39  63  86 123 167 203 248 301 351
#
# _framework density 19.476455999999999
#
# number of rings (size 3 to 8) (size 9 to 14) (size 15 to 20)
#    0.000    1.286    4.286    3.000    0.000    2.286 
#    0.000    0.000    0.000    4.714    0.000    0.000 
#    0.000    0.000    0.000    0.000    0.000    0.000 
#
# Total GULP energy -156262.677748 kJ/mol
# GULP energy per Si atom -5580.809920 kJ/mol
# Density = 1.943213 g / cm^3
# Si number density = 19.476456 Si / 1000 Ang^3
#
#
#
# Elastic Constant Matrix: (Units=GPa)
#
#
# Indices 1 2 3 4 5 6 
#
# 1 103.8967 37.5842 7.8131 0.0000 -9.0995 0.0000
# 2 37.5842 142.4457 31.5382 0.0000 -3.3019 0.0000
# 3 7.8131 31.5382 38.5452 0.0000 -5.8413 0.0000
# 4 0.0000 0.0000 0.0000 -60.3184 0.0000 13.9701
# 5 -9.0995 -3.3019 -5.8413 0.0000 23.5759 0.0000
# 6 0.0000 0.0000 0.0000 13.9701 0.0000 18.8833
#
#
#
# Elastic Compliance Matrix: (Units=1/GPa)
#
#
# Indices 1 2 3 4 5 6 
#
# 1 0.010998 -0.002992 0.000830 0.000000 0.004031 0.000000
# 2 -0.002992 0.009394 -0.007331 0.000000 -0.001655 0.000000
# 3 0.000830 -0.007331 0.032902 0.000000 0.007445 0.000000
# 4 0.000000 0.000000 0.000000 -0.014154 0.000000 0.010471
# 5 0.004031 -0.001655 0.007445 0.000000 0.045585 0.000000
# 6 0.000000 0.000000 0.000000 0.010471 0.000000 0.045210
#
#
# Mechanical properties :
#
#
# Convention : Reuss Voigt Hill
#
# Bulk Modulus (GPa) = 29.14789 48.75095 38.94942
# Shear Modulus (GPa) = 31.18011 10.29164 20.73588
#
# Velocity S-wave (km/s) = 4.00548 2.30122 3.26646
# Velocity P-wave (km/s) = 6.03242 5.66973 5.85388
#
# Compressibility (1/GPa) = 0.03430780
#
# Stress axis : x y z
#
# Youngs Moduli (GPa) = 90.92568 106.44606 30.39328
#
# Poissons Ratio (x) = 0.31850 -0.02522
# Poissons Ratio (y) = 0.27206 0.22281
# Poissons Ratio (z) = -0.07545 0.78036
#
# Static dielectric constant tensor:
#      x y z
#    x 1.697260 0.000000 -0.005910 
#    y 0.000000 1.701000 0.000000 
#    z -0.005910 0.000000 1.681830 
# 
# From -- ./inp_files/96241.got.cif
#   From: 2010.05.17/outbox.cif.g08.bks.cpg/sg12_49_cif.got.tgz:96241.got - 2010.06.03 13:09:07.
