data_PCOD9186091
_publ_section_title
;
Structure prediction by ZEFSAII (Michael W. Deem and Ramdas Pophale) SiO2 
 PCOD9186091
Probable space group: C 2/M
;
_chemical_formula_sum "Si O2"
_cell_formula_units_Z 48
_cell_length_a 20.978731
_cell_length_b 12.883883
_cell_length_c 8.861260
_cell_angle_alpha 90.000000
_cell_angle_beta 86.733040
_cell_angle_gamma 90.000000
_cell_volume 2391.195563
_symmetry_space_group_name_H-M "C 2/M"
_symmetry_group_IT_number 12
_symmetry_cell_setting 'monoclinic'
loop_
_space_group_symop_operation_xyz
x,y,z
-x,y,-z
-x,-y,-z
x,-y,z
1/2+x,1/2+y,z
1/2-x,1/2+y,-z
1/2-x,1/2-y,-z
1/2+x,1/2-y,z
loop_
_atom_site_type_symbol
_atom_site_label
_atom_site_fract_x
_atom_site_fract_y
_atom_site_fract_z
Si Si1 0.377137 0.386668 0.159331
Si Si2 0.484127 0.306028 0.335501
Si Si3 0.885106 0.381735 0.391327
Si Si4 0.662019 0.115969 0.254694
Si Si5 0.067177 0.277556 0.075332
Si Si6 0.274476 0.744096 0.325400
O O1 0.364856 0.500000 0.096212
O O2 0.441210 0.385290 0.249308
O O3 0.321973 0.350244 0.280192
O O4 0.390901 0.298102 0.034346
O O5 0.500000 0.340588 0.500000
O O6 0.441784 0.199693 0.352692
O O7 0.546047 0.282650 0.229056
O O8 0.901861 0.500000 0.350853
O O9 0.868709 0.377499 0.572731
O O10 0.821855 0.343189 0.308743
O O11 0.609507 0.129181 0.131812
O O12 0.712414 0.211246 0.237631
O O13 0.690930 0.000000 0.241034
O O14 0.000000 0.302600 0.000000
O O15 0.250000 0.750000 0.500000
#
# Coordination Sequence:
#
# PCOD9186091 Si02
#       6
#     8   8   8   8   8   8
#     4  10  22  40  60  82 116 160 194 236 301 352
#     4  10  19  35  59  86 117 151 200 251 286 341
#     4   9  18  33  58  89 118 152 190 240 299 349
#     4  10  19  34  59  85 116 158 196 237 295 351
#     4  10  22  37  56  84 123 158 195 244 292 346
#     4   9  19  37  61  86 115 144 191 247 288 347
#
# _framework density 20.073640000000001
#
# number of rings (size 3 to 8) (size 9 to 14) (size 15 to 20)
#    0.000    2.333    1.667    0.500    0.000    6.000 
#    0.000    7.500    0.000    0.000    0.000    0.000 
#    0.000    0.000    0.000    0.000    0.000    0.000 
#
# Total GULP energy -133638.524894 kJ/mol
# GULP energy per Si atom -5568.271871 kJ/mol
# Density = 2.002795 g / cm^3
# Si number density = 20.073640 Si / 1000 Ang^3
#
#
#
# Elastic Constant Matrix: (Units=GPa)
#
#
# Indices 1 2 3 4 5 6 
#
# 1 43.6998 19.5658 15.4803 0.0000 -5.4498 0.0000
# 2 19.5658 92.9644 19.2723 0.0000 1.3169 0.0000
# 3 15.4803 19.2723 71.0235 0.0000 3.8734 0.0000
# 4 0.0000 0.0000 0.0000 15.1747 0.0000 6.3856
# 5 -5.4498 1.3169 3.8734 0.0000 31.1794 0.0000
# 6 0.0000 0.0000 0.0000 6.3856 0.0000 12.7039
#
#
#
# Elastic Compliance Matrix: (Units=1/GPa)
#
#
# Indices 1 2 3 4 5 6 
#
# 1 0.027521 -0.004837 -0.004993 0.000000 0.005635 0.000000
# 2 -0.004837 0.012248 -0.002210 0.000000 -0.001088 0.000000
# 3 -0.004993 -0.002210 0.015918 0.000000 -0.002757 0.000000
# 4 0.000000 0.000000 0.000000 0.083577 0.000000 -0.042010
# 5 0.005635 -0.001088 -0.002757 0.000000 0.033446 0.000000
# 6 0.000000 0.000000 0.000000 -0.042010 0.000000 0.099832
#
#
# Mechanical properties :
#
#
# Convention : Reuss Voigt Hill
#
# Bulk Modulus (GPa) = 31.63858 35.14718 33.39288
# Shear Modulus (GPa) = 16.27828 22.03622 19.15725
#
# Velocity S-wave (km/s) = 2.85077 3.31685 3.09260
# Velocity P-wave (km/s) = 5.16055 5.67590 5.42435
#
# Compressibility (1/GPa) = 0.03160699
#
# Stress axis : x y z
#
# Youngs Moduli (GPa) = 36.33649 81.64357 62.82107
#
# Poissons Ratio (x) = 0.39490 0.31368
# Poissons Ratio (y) = 0.17575 0.13884
# Poissons Ratio (z) = 0.18144 0.18043
#
# Static dielectric constant tensor:
#      x y z
#    x 1.793650 0.000000 0.002930 
#    y 0.000000 1.782580 0.000000 
#    z 0.002930 0.000000 1.707560 
# 
# From -- ./inp_files/94416.got.cif
#   From: 2010.05.17/outbox.cif.g08.bks.cpg/sg12_48_cif.got.tgz:94416.got - 2010.06.03 13:09:07.
