data_PCOD9186251
_publ_section_title
;
Structure prediction by ZEFSAII (Michael W. Deem and Ramdas Pophale) SiO2 
 PCOD9186251
Probable space group: C 2/M
;
_chemical_formula_sum "Si O2"
_cell_formula_units_Z 44
_cell_length_a 8.428850
_cell_length_b 24.668145
_cell_length_c 11.808980
_cell_angle_alpha 90.000000
_cell_angle_beta 123.547031
_cell_angle_gamma 90.000000
_cell_volume 2046.386346
_symmetry_space_group_name_H-M "C 2/M"
_symmetry_group_IT_number 12
_symmetry_cell_setting 'monoclinic'
loop_
_space_group_symop_operation_xyz
x,y,z
-x,y,-z
-x,-y,-z
x,-y,z
1/2+x,1/2+y,z
1/2-x,1/2+y,-z
1/2-x,1/2-y,-z
1/2+x,1/2-y,z
loop_
_atom_site_type_symbol
_atom_site_label
_atom_site_fract_x
_atom_site_fract_y
_atom_site_fract_z
Si Si1 0.911145 0.294645 0.684432
Si Si2 0.000000 0.775765 0.500000
Si Si3 0.689552 0.403162 0.873304
Si Si4 0.929236 0.789087 0.092922
Si Si5 0.490728 0.500000 0.682350
Si Si6 0.326308 0.000000 0.622678
Si Si7 0.472941 0.905214 0.180167
O O1 0.977059 0.263515 0.598605
O O2 0.690928 0.310858 0.583225
O O3 0.035525 0.346027 0.767572
O O4 0.921173 0.249974 0.787184
O O5 0.618397 0.341554 0.852599
O O6 0.533214 0.446513 0.773117
O O7 0.858121 0.404076 0.846910
O O8 0.785901 0.417659 0.032359
O O9 0.750000 0.750000 0.000000
O O10 0.000000 0.808483 0.000000
O O11 0.656979 0.500000 0.650936
O O12 0.287744 0.500000 0.539939
O O13 0.459534 0.051483 0.701088
#
# Coordination Sequence:
#
# PCOD9186251 Si02
#       7
#     8   4   8   8   4   4   8
#     4  11  22  38  58  85 121 158 198 246 298 364
#     4  10  24  38  54  84 120 162 196 238 300 368
#     4  10  20  35  58  91 118 158 195 259 304 356
#     4  12  23  38  62  92 122 157 201 249 305 358
#     4   9  19  35  56  84 125 153 205 247 305 354
#     4   9  19  33  55  87 115 163 200 250 292 361
#     4  10  19  34  60  86 121 153 204 250 303 355
#
# _framework density 21.501315999999999
#
# number of rings (size 3 to 8) (size 9 to 14) (size 15 to 20)
#    0.000    1.636    1.818    3.818    0.000    8.000 
#    0.000    0.455    0.000    0.545    0.000    0.000 
#    0.000    0.000    0.000    0.000    0.000    0.000 
#
# Total GULP energy -122974.514063 kJ/mol
# GULP energy per Si atom -5589.750639 kJ/mol
# Density = 2.145238 g / cm^3
# Si number density = 21.501316 Si / 1000 Ang^3
#
#
#
# Elastic Constant Matrix: (Units=GPa)
#
#
# Indices 1 2 3 4 5 6 
#
# 1 20.4821 -4.6518 8.0091 0.0000 5.9321 0.0000
# 2 -4.6518 134.0690 64.0631 0.0000 12.4861 0.0000
# 3 8.0091 64.0631 139.1324 0.0000 13.4802 0.0000
# 4 0.0000 0.0000 0.0000 28.4388 0.0000 -2.1943
# 5 5.9321 12.4861 13.4802 0.0000 28.7548 0.0000
# 6 0.0000 0.0000 0.0000 -2.1943 0.0000 19.8552
#
#
#
# Elastic Compliance Matrix: (Units=1/GPa)
#
#
# Indices 1 2 3 4 5 6 
#
# 1 0.055024 0.005079 -0.004392 0.000000 -0.011498 0.000000
# 2 0.005079 0.010165 -0.004655 0.000000 -0.003279 0.000000
# 3 -0.004392 -0.004655 0.009742 0.000000 -0.001640 0.000000
# 4 0.000000 0.000000 0.000000 0.035466 0.000000 0.003920
# 5 -0.011498 -0.003279 -0.001640 0.000000 0.039341 0.000000
# 6 0.000000 0.000000 0.000000 0.003920 0.000000 0.050798
#
#
# Mechanical properties :
#
#
# Convention : Reuss Voigt Hill
#
# Bulk Modulus (GPa) = 14.92661 47.61380 31.27020
# Shear Modulus (GPa) = 21.66341 30.49397 26.07869
#
# Velocity S-wave (km/s) = 3.17762 3.77003 3.48643
# Velocity P-wave (km/s) = 4.51888 6.41432 5.54814
#
# Compressibility (1/GPa) = 0.06699445
#
# Stress axis : x y z
#
# Youngs Moduli (GPa) = 18.17399 98.37900 102.64353
#
# Poissons Ratio (x) = -0.49962 0.45079
# Poissons Ratio (y) = -0.09230 0.47780
# Poissons Ratio (z) = 0.07982 0.45795
#
# Static dielectric constant tensor:
#      x y z
#    x 1.783260 0.000000 0.018550 
#    y 0.000000 1.739150 0.000000 
#    z 0.018550 0.000000 1.806020 
# 
# From -- ./inp_files/122695.got.cif
#   From: 2010.05.17/outbox.cif.g08.bks.cpg/sg12_62_cif.got.tgz:122695.got - 2010.06.03 13:09:07.
