data_PCOD9186930
_publ_section_title
;
Structure prediction by ZEFSAII (Michael W. Deem and Ramdas Pophale) SiO2 
 PCOD9186930
Probable space group: C 2/M
;
_chemical_formula_sum "Si O2"
_cell_formula_units_Z 48
_cell_length_a 24.396187
_cell_length_b 8.369455
_cell_length_c 17.747117
_cell_angle_alpha 90.000000
_cell_angle_beta 133.027327
_cell_angle_gamma 90.000000
_cell_volume 2648.995128
_symmetry_space_group_name_H-M "C 2/M"
_symmetry_group_IT_number 12
_symmetry_cell_setting 'monoclinic'
loop_
_space_group_symop_operation_xyz
x,y,z
-x,y,-z
-x,-y,-z
x,-y,z
1/2+x,1/2+y,z
1/2-x,1/2+y,-z
1/2-x,1/2-y,-z
1/2+x,1/2-y,z
loop_
_atom_site_type_symbol
_atom_site_label
_atom_site_fract_x
_atom_site_fract_y
_atom_site_fract_z
Si Si1 0.557839 0.194999 0.490375
Si Si2 0.254756 0.807085 0.124422
Si Si3 0.309139 0.808768 0.618080
Si Si4 0.772674 0.693364 0.311942
Si Si5 0.131159 0.809032 0.889071
Si Si6 0.530910 0.193051 0.294042
O O1 0.500000 0.249151 0.500000
O O2 0.642618 0.244494 0.588280
O O3 0.534975 0.245943 0.385175
O O4 0.557108 0.000000 0.490141
O O5 0.253229 0.752124 0.209228
O O6 0.329085 0.753273 0.149731
O O7 0.254763 0.000000 0.125154
O O8 0.184162 0.752585 0.007716
O O9 0.250000 0.750000 0.500000
O O10 0.282273 0.752626 0.674575
O O11 0.392826 0.752860 0.675139
O O12 0.309208 0.000000 0.615562
O O13 0.771646 0.500000 0.311712
O O14 0.046143 0.751989 0.814041
O O15 0.133060 0.000000 0.889955
O O16 0.530277 0.000000 0.293009
#
# Coordination Sequence:
#
# PCOD9186930 Si02
#       6
#     8   8   8   8   8   8
#     4   9  16  28  50  77 102 132 173 215 260 320
#     4   9  19  36  58  81 109 146 181 217 271 330
#     4  11  22  37  56  78 108 145 184 224 271 323
#     4  10  19  35  57  79 105 141 184 225 267 319
#     4  10  20  34  55  84 112 141 180 225 270 316
#     4  10  20  35  53  76 106 144 183 216 266 329
#
# _framework density 18.120080000000002
#
# number of rings (size 3 to 8) (size 9 to 14) (size 15 to 20)
#    0.000    2.167    1.667    2.000    0.000    5.333 
#    0.000    0.833    0.000    7.000    0.000    0.000 
#    0.000    0.000    0.000    0.000    0.000    0.000 
#
# Total GULP energy -133966.843407 kJ/mol
# GULP energy per Si atom -5581.951809 kJ/mol
# Density = 1.807884 g / cm^3
# Si number density = 18.120080 Si / 1000 Ang^3
#
#
#
# Elastic Constant Matrix: (Units=GPa)
#
#
# Indices 1 2 3 4 5 6 
#
# 1 138.5958 15.0305 65.6749 0.0000 20.2193 0.0000
# 2 15.0305 7.4591 14.2811 0.0000 -0.4177 0.0000
# 3 65.6749 14.2811 97.5159 0.0000 14.1022 0.0000
# 4 0.0000 0.0000 0.0000 21.4391 0.0000 2.6419
# 5 20.2193 -0.4177 14.1022 0.0000 31.7120 0.0000
# 6 0.0000 0.0000 0.0000 2.6419 0.0000 29.3464
#
#
#
# Elastic Compliance Matrix: (Units=1/GPa)
#
#
# Indices 1 2 3 4 5 6 
#
# 1 0.012081 -0.014773 -0.005163 0.000000 -0.005601 0.000000
# 2 -0.014773 0.211869 -0.024414 0.000000 0.023067 0.000000
# 3 -0.005163 -0.024414 0.018038 0.000000 -0.005051 0.000000
# 4 0.000000 0.000000 0.000000 0.047167 0.000000 -0.004246
# 5 -0.005601 0.023067 -0.005051 0.000000 0.037655 0.000000
# 6 0.000000 0.000000 0.000000 -0.004246 0.000000 0.034458
#
#
# Mechanical properties :
#
#
# Convention : Reuss Voigt Hill
#
# Bulk Modulus (GPa) = 6.52369 48.17152 27.34761
# Shear Modulus (GPa) = 9.97876 26.40511 18.19194
#
# Velocity S-wave (km/s) = 2.34925 3.82151 3.17198
# Velocity P-wave (km/s) = 3.31160 6.79075 5.34233
#
# Compressibility (1/GPa) = 0.15328739
#
# Stress axis : x y z
#
# Youngs Moduli (GPa) = 82.77524 4.71989 55.43960
#
# Poissons Ratio (x) = 0.06973 0.28622
# Poissons Ratio (y) = 1.22284 1.35353
# Poissons Ratio (z) = 0.42734 0.11523
#
# Static dielectric constant tensor:
#      x y z
#    x 1.600510 0.000000 -0.002590 
#    y 0.000000 1.632220 0.000000 
#    z -0.002590 0.000000 1.616410 
# 
# From -- ./inp_files/281808.got.cif
#   From: 2010.05.17/outbox.cif.g08.bks.cpg/sg12_141_cif.got.tgz:281808.got - 2010.06.03 13:09:07.
