data_PCOD9186489
_publ_section_title
;
Structure prediction by ZEFSAII (Michael W. Deem and Ramdas Pophale) SiO2 
 PCOD9186489
Probable space group: C 2/M
;
_chemical_formula_sum "Si O2"
_cell_formula_units_Z 56
_cell_length_a 14.761960
_cell_length_b 26.419011
_cell_length_c 16.249456
_cell_angle_alpha 90.000000
_cell_angle_beta 27.388491
_cell_angle_gamma 90.000000
_cell_volume 2915.261246
_symmetry_space_group_name_H-M "C 2/M"
_symmetry_group_IT_number 12
_symmetry_cell_setting 'monoclinic'
loop_
_space_group_symop_operation_xyz
x,y,z
-x,y,-z
-x,-y,-z
x,-y,z
1/2+x,1/2+y,z
1/2-x,1/2+y,-z
1/2-x,1/2-y,-z
1/2+x,1/2-y,z
loop_
_atom_site_type_symbol
_atom_site_label
_atom_site_fract_x
_atom_site_fract_y
_atom_site_fract_z
Si Si1 0.403431 0.204454 0.298776
Si Si2 0.354112 0.362070 0.376280
Si Si3 0.803200 0.650785 0.060730
Si Si4 0.177322 0.203735 0.744729
Si Si5 0.755925 0.440430 0.219900
Si Si6 0.290677 0.442510 0.557414
Si Si7 0.759109 0.736382 0.848695
O O1 0.240008 0.178974 0.486555
O O2 0.294137 0.246816 0.334059
O O3 0.572332 0.228634 0.220160
O O4 0.525575 0.165849 0.141782
O O5 0.591307 0.358942 0.188505
O O6 0.292593 0.345917 0.334328
O O7 0.271262 0.411932 0.488255
O O8 0.831186 0.601799 0.095410
O O9 0.777821 0.703452 0.132361
O O10 0.299693 0.209623 0.729273
O O11 0.944820 0.211189 0.955146
O O12 0.806185 0.500000 0.166336
O O13 0.522298 0.439536 0.391366
O O14 0.796417 0.427328 0.283044
O O15 0.229172 0.500000 0.593568
#
# Coordination Sequence:
#
# PCOD9186489 Si02
#       7
#     8   8   8   8   8   8   8
#     4  11  21  36  49  78 109 135 180 218 249 317
#     4  11  20  33  54  76 101 140 177 210 260 314
#     4  10  19  35  53  71 108 145 170 212 265 299
#     4  10  20  35  52  77 104 141 180 210 259 315
#     4   8  15  30  52  77 104 139 179 214 258 316
#     4   8  16  31  50  77 107 134 175 221 262 312
#     4  10  20  35  54  73 110 144 168 219 264 300
#
# _framework density 19.209256
#
# number of rings (size 3 to 8) (size 9 to 14) (size 15 to 20)
#    0.000    2.286    2.857    2.143    2.000    0.571 
#    0.000    0.714    0.000    1.714    0.000    5.000 
#    0.000    0.000    0.000    0.000    0.000    0.000 
#
# Total GULP energy -156091.306484 kJ/mol
# GULP energy per Si atom -5574.689517 kJ/mol
# Density = 1.916554 g / cm^3
# Si number density = 19.209256 Si / 1000 Ang^3
#
#
#
# Elastic Constant Matrix: (Units=GPa)
#
#
# Indices 1 2 3 4 5 6 
#
# 1 63.6609 47.6615 9.1997 -0.1080 27.6862 0.1699
# 2 47.6615 102.6657 39.7361 -0.5566 28.7100 0.8085
# 3 9.1997 39.7361 68.6277 -0.6878 15.5020 0.8324
# 4 -0.1080 -0.5566 -0.6878 -29.0494 -0.0426 92.4507
# 5 27.6862 28.7100 15.5020 -0.0426 33.6762 0.0403
# 6 0.1699 0.8085 0.8324 92.4507 0.0403 -83.9961
#
#
#
# Elastic Compliance Matrix: (Units=1/GPa)
#
#
# Indices 1 2 3 4 5 6 
#
# 1 0.032376 -0.012410 0.007219 0.000000 -0.019360 0.000008
# 2 -0.012410 0.019738 -0.009229 -0.000048 -0.002376 0.000020
# 3 0.007219 -0.009229 0.020657 -0.000030 -0.007576 0.000094
# 4 0.000000 -0.000048 -0.000030 0.013754 0.000054 0.015138
# 5 -0.019360 -0.002376 -0.007576 0.000054 0.051124 -0.000053
# 6 0.000008 0.000020 0.000094 0.015138 -0.000053 0.004757
#
#
# Mechanical properties :
#
#
# Convention : Reuss Voigt Hill
#
# Bulk Modulus (GPa) = 22.76341 47.57211 35.16776
# Shear Modulus (GPa) = 26.89755 -6.65007 10.12374
#
# Velocity S-wave (km/s) = 3.74604 -1.86264 2.29819
# Velocity P-wave (km/s) = 5.53049 4.49367 5.03882
#
# Compressibility (1/GPa) = 0.04393014
#
# Stress axis : x y z
#
# Youngs Moduli (GPa) = 30.88696 50.66471 48.40962
#
# Poissons Ratio (x) = 0.62877 -0.34945
# Poissons Ratio (y) = 0.38332 0.44676
# Poissons Ratio (z) = -0.22296 0.46757
#
# Static dielectric constant tensor:
#      x y z
#    x 1.668840 -0.000020 0.006980 
#    y -0.000020 1.700980 0.000070 
#    z 0.006980 0.000070 1.743920 
# 
# From -- ./inp_files/219064.got.cif
#   From: 2010.05.17/outbox.cif.g08.bks.cpg/sg12_110_cif.got.tgz:219064.got - 2010.06.03 13:09:07.
