data_PCOD9186868
_publ_section_title
;
Structure prediction by ZEFSAII (Michael W. Deem and Ramdas Pophale) SiO2 
 PCOD9186868
Probable space group: C 2/M
;
_chemical_formula_sum "Si O2"
_cell_formula_units_Z 56
_cell_length_a 13.649118
_cell_length_b 19.301073
_cell_length_c 11.099243
_cell_angle_alpha 90.000000
_cell_angle_beta 74.772447
_cell_angle_gamma 90.000000
_cell_volume 2821.352441
_symmetry_space_group_name_H-M "C 2/M"
_symmetry_group_IT_number 12
_symmetry_cell_setting 'monoclinic'
loop_
_space_group_symop_operation_xyz
x,y,z
-x,y,-z
-x,-y,-z
x,-y,z
1/2+x,1/2+y,z
1/2-x,1/2+y,-z
1/2-x,1/2-y,-z
1/2+x,1/2-y,z
loop_
_atom_site_type_symbol
_atom_site_label
_atom_site_fract_x
_atom_site_fract_y
_atom_site_fract_z
Si Si1 0.425087 0.079283 0.753624
Si Si2 0.289554 0.332916 0.568074
Si Si3 0.842215 0.422224 0.250723
Si Si4 0.374924 0.724436 0.315002
Si Si5 0.118748 0.200422 0.963789
Si Si6 0.681484 0.147187 0.994286
Si Si7 0.067558 0.722411 0.359036
O O1 0.547588 0.085103 0.722953
O O2 0.389874 0.146753 0.688692
O O3 0.401030 0.000000 0.722484
O O4 0.378286 0.094544 0.900192
O O5 0.251700 0.405098 0.631830
O O6 0.344377 0.334487 0.421444
O O7 0.185271 0.288902 0.605936
O O8 0.356533 0.284667 0.634218
O O9 0.836139 0.500000 0.207171
O O10 0.832885 0.372766 0.139361
O O11 0.347844 0.707696 0.187217
O O12 0.491540 0.747119 0.283709
O O13 0.133928 0.275915 0.019648
O O14 0.200790 0.152010 0.003862
O O15 0.000000 0.180269 0.000000
O O16 0.000000 0.712802 0.500000
#
# Coordination Sequence:
#
# PCOD9186868 Si02
#       7
#     8   8   8   8   8   8   8
#     4  11  22  37  57  85 125 158 191 239 298 360
#     4  10  20  35  59  87 118 155 193 241 293 341
#     4  11  22  38  61  88 119 156 198 241 292 358
#     4  10  19  35  56  85 120 145 190 245 293 343
#     4  11  22  34  60  91 117 150 197 257 291 341
#     4  11  22  36  55  88 121 152 197 240 299 353
#     4  10  20  34  58  86 116 153 196 241 292 347
#
# _framework density 19.848637
#
# number of rings (size 3 to 8) (size 9 to 14) (size 15 to 20)
#    0.000    1.429    2.857    3.429    4.000    1.429 
#    0.000    0.000    0.000    6.429    0.000    0.000 
#    0.000    0.000    0.000    0.000    0.000    0.000 
#
# Total GULP energy -156185.650214 kJ/mol
# GULP energy per Si atom -5578.058936 kJ/mol
# Density = 1.980346 g / cm^3
# Si number density = 19.848637 Si / 1000 Ang^3
#
#
#
# Elastic Constant Matrix: (Units=GPa)
#
#
# Indices 1 2 3 4 5 6 
#
# 1 83.1413 17.5955 -2.4209 0.0000 -4.3939 0.0000
# 2 17.5955 50.0099 1.8815 0.0000 -11.9036 0.0000
# 3 -2.4209 1.8815 45.3116 0.0000 -18.2369 0.0000
# 4 0.0000 0.0000 0.0000 24.7731 0.0000 -4.3433
# 5 -4.3939 -11.9036 -18.2369 0.0000 25.0358 0.0000
# 6 0.0000 0.0000 0.0000 -4.3433 0.0000 19.0819
#
#
#
# Elastic Compliance Matrix: (Units=1/GPa)
#
#
# Indices 1 2 3 4 5 6 
#
# 1 0.013053 -0.004355 0.001368 0.000000 0.001217 0.000000
# 2 -0.004355 0.024757 0.004484 0.000000 0.014273 0.000000
# 3 0.001368 0.004484 0.032414 0.000000 0.025983 0.000000
# 4 0.000000 0.000000 0.000000 0.042044 0.000000 0.009570
# 5 0.001217 0.014273 0.025983 0.000000 0.065870 0.000000
# 6 0.000000 0.000000 0.000000 0.009570 0.000000 0.054584
#
#
# Mechanical properties :
#
#
# Convention : Reuss Voigt Hill
#
# Bulk Modulus (GPa) = 13.65766 23.61945 18.63855
# Shear Modulus (GPa) = 19.67471 24.53861 22.10666
#
# Velocity S-wave (km/s) = 3.15181 3.51990 3.34093
# Velocity P-wave (km/s) = 4.48788 5.33341 4.92881
#
# Compressibility (1/GPa) = 0.07321900
#
# Stress axis : x y z
#
# Youngs Moduli (GPa) = 76.60812 40.39310 30.85083
#
# Poissons Ratio (x) = 0.17589 -0.04221
# Poissons Ratio (y) = 0.33359 -0.13833
# Poissons Ratio (z) = -0.10481 -0.18112
#
# Static dielectric constant tensor:
#      x y z
#    x 1.757690 0.000000 0.011690 
#    y 0.000000 1.719600 0.000000 
#    z 0.011690 0.000000 1.754610 
# 
# From -- ./inp_files/147078.got.cif
#   From: 2010.05.17/outbox.cif.g08.bks.cpg/sg12_74_cif.got.tgz:147078.got - 2010.06.03 13:09:07.
