data_PCOD9186536
_publ_section_title
;
Structure prediction by ZEFSAII (Michael W. Deem and Ramdas Pophale) SiO2 
 PCOD9186536
Probable space group: C 2/M
;
_chemical_formula_sum "Si O2"
_cell_formula_units_Z 40
_cell_length_a 8.243459
_cell_length_b 34.257534
_cell_length_c 13.857797
_cell_angle_alpha 90.000000
_cell_angle_beta 32.670128
_cell_angle_gamma 90.000000
_cell_volume 2112.486160
_symmetry_space_group_name_H-M "C 2/M"
_symmetry_group_IT_number 12
_symmetry_cell_setting 'monoclinic'
loop_
_space_group_symop_operation_xyz
x,y,z
-x,y,-z
-x,-y,-z
x,-y,z
1/2+x,1/2+y,z
1/2-x,1/2+y,-z
1/2-x,1/2-y,-z
1/2+x,1/2-y,z
loop_
_atom_site_type_symbol
_atom_site_label
_atom_site_fract_x
_atom_site_fract_y
_atom_site_fract_z
Si Si1 0.256413 0.500000 0.792294
Si Si2 0.850129 0.793912 0.813971
Si Si3 0.799531 0.938685 0.501773
Si Si4 0.186570 0.848980 0.505777
Si Si5 0.369342 0.782253 0.674857
Si Si6 0.143228 0.500000 0.202479
O O1 0.482308 0.462882 0.679001
O O2 0.058740 0.500000 0.793423
O O3 0.000000 0.500000 0.000000
O O4 0.915780 0.756159 0.714226
O O5 0.985389 0.831079 0.691656
O O6 0.018101 0.788703 0.831305
O O7 0.500000 0.797749 0.000000
O O8 0.738281 0.893750 0.509604
O O9 0.491043 0.962517 0.673298
O O10 0.000000 0.938892 0.500000
O O11 0.469580 0.819723 0.360130
O O12 0.000000 0.846786 0.500000
O O13 0.500000 0.777685 0.500000
O O14 0.500000 0.500000 0.000000
#
# Coordination Sequence:
#
# PCOD9186536 Si02
#       6
#     4   8   8   8   8   4
#     4   9  17  33  56  80 104 135 171 209 252 302
#     4  11  21  34  52  76 102 132 170 218 258 298
#     4   8  17  34  55  74 103 141 171 202 254 314
#     4  10  19  35  54  73 100 139 174 206 253 309
#     4  10  20  35  53  72  99 137 173 209 254 309
#     4   9  17  35  56  78 102 133 173 209 250 308
#
# _framework density 18.935034999999999
#
# number of rings (size 3 to 8) (size 9 to 14) (size 15 to 20)
#    0.000    2.400    0.000    6.000    0.000    0.800 
#    0.000   15.000    0.000    0.000    0.000    0.000 
#    0.000    0.000    0.000    0.000    0.000    0.000 
#
# Total GULP energy -111526.805989 kJ/mol
# GULP energy per Si atom -5576.340299 kJ/mol
# Density = 1.889194 g / cm^3
# Si number density = 18.935035 Si / 1000 Ang^3
#
#
#
# Elastic Constant Matrix: (Units=GPa)
#
#
# Indices 1 2 3 4 5 6 
#
# 1 62.9435 38.1603 20.3702 0.0000 -22.3381 0.0000
# 2 38.1603 189.1754 72.3628 0.0000 -9.3354 0.0000
# 3 20.3702 72.3628 114.8796 0.0000 -28.7023 0.0000
# 4 0.0000 0.0000 0.0000 5.0056 0.0000 -1.0936
# 5 -22.3381 -9.3354 -28.7023 0.0000 35.1490 0.0000
# 6 0.0000 0.0000 0.0000 -1.0936 0.0000 19.2805
#
#
#
# Elastic Compliance Matrix: (Units=1/GPa)
#
#
# Indices 1 2 3 4 5 6 
#
# 1 0.023811 -0.005193 0.003122 0.000000 0.016302 0.000000
# 2 -0.005193 0.008232 -0.005707 0.000000 -0.005774 0.000000
# 3 0.003122 -0.005707 0.014904 0.000000 0.012639 0.000000
# 4 0.000000 0.000000 0.000000 0.202285 0.000000 0.011474
# 5 0.016302 -0.005774 0.012639 0.000000 0.047598 0.000000
# 6 0.000000 0.000000 0.000000 0.011474 0.000000 0.052517
#
#
# Mechanical properties :
#
#
# Convention : Reuss Voigt Hill
#
# Bulk Modulus (GPa) = 31.85675 69.86502 50.86088
# Shear Modulus (GPa) = 13.32039 27.62737 20.47388
#
# Velocity S-wave (km/s) = 2.65519 3.82391 3.29183
# Velocity P-wave (km/s) = 5.12453 7.51490 6.43174
#
# Compressibility (1/GPa) = 0.03139052
#
# Stress axis : x y z
#
# Youngs Moduli (GPa) = 41.99794 121.48192 67.09715
#
# Poissons Ratio (x) = 0.63083 -0.20948
# Poissons Ratio (y) = 0.21809 0.38292
# Poissons Ratio (z) = -0.13112 0.69330
#
# Static dielectric constant tensor:
#      x y z
#    x 1.721550 0.000000 -0.010360 
#    y 0.000000 1.643530 0.000000 
#    z -0.010360 0.000000 1.687190 
# 
# From -- ./inp_files/68773.got.cif
#   From: 2010.05.17/outbox.cif.g08.bks.cpg/sg12_35_cif.got.tgz:68773.got - 2010.06.03 13:09:07.
