data_PCOD9186225
_publ_section_title
;
Structure prediction by ZEFSAII (Michael W. Deem and Ramdas Pophale) SiO2 
 PCOD9186225
Probable space group: C 2/M
;
_chemical_formula_sum "Si O2"
_cell_formula_units_Z 64
_cell_length_a 23.494853
_cell_length_b 17.359699
_cell_length_c 13.077069
_cell_angle_alpha 90.000000
_cell_angle_beta 136.716050
_cell_angle_gamma 90.000000
_cell_volume 3656.834500
_symmetry_space_group_name_H-M "C 2/M"
_symmetry_group_IT_number 12
_symmetry_cell_setting 'monoclinic'
loop_
_space_group_symop_operation_xyz
x,y,z
-x,y,-z
-x,-y,-z
x,-y,z
1/2+x,1/2+y,z
1/2-x,1/2+y,-z
1/2-x,1/2-y,-z
1/2+x,1/2-y,z
loop_
_atom_site_type_symbol
_atom_site_label
_atom_site_fract_x
_atom_site_fract_y
_atom_site_fract_z
Si Si1 0.672845 0.592403 0.097559
Si Si2 0.490737 0.648402 0.800895
Si Si3 0.680350 0.407267 0.333811
Si Si4 0.275904 0.661402 0.045633
Si Si5 0.450574 0.409138 0.330733
Si Si6 0.820056 0.592745 0.676297
Si Si7 0.657027 0.091594 0.060857
Si Si8 0.511245 0.183747 0.133297
O O1 0.672879 0.500000 0.091494
O O2 0.704614 0.617056 0.250748
O O3 0.577914 0.621207 0.963112
O O4 0.722412 0.625331 0.065902
O O5 0.411348 0.621267 0.759938
O O6 0.491101 0.611140 0.689003
O O7 0.488905 0.740675 0.797654
O O8 0.678756 0.500000 0.332808
O O9 0.745137 0.382360 0.505177
O O10 0.368429 0.642919 0.209634
O O11 0.212995 0.622358 0.042442
O O12 0.250000 0.750000 0.000000
O O13 0.500000 0.396724 0.500000
O O14 0.426541 0.500000 0.293621
O O15 0.830900 0.500000 0.681384
O O16 0.805314 0.609345 0.777181
O O17 0.904030 0.635579 0.753043
O O18 0.648868 0.000000 0.042874
O O19 0.566932 0.130764 0.941929
O O20 0.500000 0.209384 0.000000
#
# Coordination Sequence:
#
# PCOD9186225 Si02
#       8
#     8   8   8   8   8   8   8   8
#     4  10  20  36  55  78 110 147 183 220 270 326
#     4  11  20  33  54  82 109 143 181 220 274 333
#     4  10  20  34  55  80 108 143 180 221 268 330
#     4  11  22  37  57  82 115 147 186 233 279 331
#     4  10  22  39  58  82 116 150 184 233 287 333
#     4   9  20  36  54  81 111 141 183 232 277 321
#     4  10  19  34  60  82 103 143 192 230 267 327
#     4  10  20  35  54  79 112 144 177 227 283 326
#
# _framework density 17.501476
#
# number of rings (size 3 to 8) (size 9 to 14) (size 15 to 20)
#    0.000    1.875    0.000    6.000    1.750    4.000 
#    2.250    0.000    0.000    0.000    0.000    3.500 
#    0.000    0.000    0.000    0.000    0.000    0.000 
#
# Total GULP energy -178607.363972 kJ/mol
# GULP energy per Si atom -5581.480124 kJ/mol
# Density = 1.746164 g / cm^3
# Si number density = 17.501476 Si / 1000 Ang^3
#
#
#
# Elastic Constant Matrix: (Units=GPa)
#
#
# Indices 1 2 3 4 5 6 
#
# 1 130.0492 47.1723 60.3512 0.0000 -12.8144 0.0000
# 2 47.1723 69.8022 43.8323 0.0000 -7.7917 0.0000
# 3 60.3512 43.8323 88.5301 0.0000 -18.1332 0.0000
# 4 0.0000 0.0000 0.0000 13.6388 0.0000 24.4725
# 5 -12.8144 -7.7917 -18.1332 0.0000 17.0303 0.0000
# 6 0.0000 0.0000 0.0000 24.4725 0.0000 96.3396
#
#
#
# Elastic Compliance Matrix: (Units=1/GPa)
#
#
# Indices 1 2 3 4 5 6 
#
# 1 0.012102 -0.004370 -0.005922 0.000000 0.000801 0.000000
# 2 -0.004370 0.022414 -0.008558 0.000000 -0.002145 0.000000
# 3 -0.005922 -0.008558 0.022835 0.000000 0.015943 0.000000
# 4 0.000000 0.000000 0.000000 0.134731 0.000000 -0.034225
# 5 0.000801 -0.002145 0.015943 0.000000 0.075315 0.000000
# 6 0.000000 0.000000 0.000000 -0.034225 0.000000 0.019074
#
#
# Mechanical properties :
#
#
# Convention : Reuss Voigt Hill
#
# Bulk Modulus (GPa) = 50.88790 65.67703 58.28246
# Shear Modulus (GPa) = 15.11853 34.53678 24.82765
#
# Velocity S-wave (km/s) = 2.94231 4.44708 3.77052
# Velocity P-wave (km/s) = 6.37827 7.99854 7.23391
#
# Compressibility (1/GPa) = 0.01965104
#
# Stress axis : x y z
#
# Youngs Moduli (GPa) = 82.63314 44.61526 43.79244
#
# Poissons Ratio (x) = 0.19498 0.25934
# Poissons Ratio (y) = 0.36113 0.37476
# Poissons Ratio (z) = 0.48935 0.38180
#
# Static dielectric constant tensor:
#      x y z
#    x 1.595290 0.000000 -0.019480 
#    y 0.000000 1.589990 0.000000 
#    z -0.019480 0.000000 1.595560 
# 
# From -- ./inp_files/168796.got.cif
#   From: 2010.05.17/outbox.cif.g08.bks.cpg/sg12_85_cif.got.tgz:168796.got - 2010.06.03 13:09:07.
