data_PCOD9186756
_publ_section_title
;
Structure prediction by ZEFSAII (Michael W. Deem and Ramdas Pophale) SiO2 
 PCOD9186756
Probable space group: C 2/M
;
_chemical_formula_sum "Si O2"
_cell_formula_units_Z 48
_cell_length_a 9.201427
_cell_length_b 15.638507
_cell_length_c 15.237699
_cell_angle_alpha 90.000000
_cell_angle_beta 81.315794
_cell_angle_gamma 90.000000
_cell_volume 2167.515213
_symmetry_space_group_name_H-M "C 2/M"
_symmetry_group_IT_number 12
_symmetry_cell_setting 'monoclinic'
loop_
_space_group_symop_operation_xyz
x,y,z
-x,y,-z
-x,-y,-z
x,-y,z
1/2+x,1/2+y,z
1/2-x,1/2+y,-z
1/2-x,1/2-y,-z
1/2+x,1/2-y,z
loop_
_atom_site_type_symbol
_atom_site_label
_atom_site_fract_x
_atom_site_fract_y
_atom_site_fract_z
Si Si1 0.829954 0.000000 0.906187
Si Si2 0.978313 0.000000 0.704994
Si Si3 0.460209 0.816290 0.173718
Si Si4 0.516387 0.000000 0.837012
Si Si5 0.993363 0.846197 0.405163
Si Si6 0.170182 0.314650 0.622855
Si Si7 0.162454 0.500000 0.633641
Si Si8 0.181183 0.186288 0.076726
O O1 0.662350 0.000000 0.884374
O O2 0.850570 0.090168 0.952396
O O3 0.934281 0.000000 0.810306
O O4 0.825258 0.000000 0.662896
O O5 0.054256 0.913397 0.664773
O O6 0.425608 0.810301 0.279346
O O7 0.302307 0.822982 0.141884
O O8 0.541636 0.734081 0.129470
O O9 0.548077 0.904868 0.143289
O O10 0.561773 0.000000 0.730165
O O11 0.883612 0.766914 0.425175
O O12 0.000000 0.890006 0.500000
O O13 0.157234 0.812202 0.369749
O O14 0.144037 0.409916 0.586672
O O15 0.250000 0.250000 0.000000
#
# Coordination Sequence:
#
# PCOD9186756 Si02
#       8
#     4   4   8   4   8   8   4   8
#     4   9  18  36  56  77 107 147 183 216 266 329
#     4   9  17  34  57  77 101 145 191 222 255 323
#     4  10  19  36  57  79 104 144 189 223 267 330
#     4   7  14  29  54  76  95 129 185 228 247 300
#     4  11  21  34  54  84 112 139 179 232 281 322
#     4  10  19  35  56  77 107 147 184 222 269 331
#     4   7  14  29  51  74  98 135 179 216 259 312
#     4  11  22  36  56  83 112 142 181 234 280 318
#
# _framework density 22.145174000000001
#
# number of rings (size 3 to 8) (size 9 to 14) (size 15 to 20)
#    0.000    2.333    0.000    6.250    0.000    0.667 
#    0.000    6.250    0.000    2.000    0.000    0.000 
#    0.000    0.000    0.000    0.000    0.000    0.000 
#
# Total GULP energy -133871.685115 kJ/mol
# GULP energy per Si atom -5577.986880 kJ/mol
# Density = 2.209477 g / cm^3
# Si number density = 22.145174 Si / 1000 Ang^3
#
#
#
# Elastic Constant Matrix: (Units=GPa)
#
#
# Indices 1 2 3 4 5 6 
#
# 1 34.4287 28.3078 -7.9161 0.0000 -12.1730 0.0000
# 2 28.3078 175.0231 4.2583 0.0000 -11.6323 0.0000
# 3 -7.9161 4.2583 26.5401 0.0000 -5.0856 0.0000
# 4 0.0000 0.0000 0.0000 25.1517 0.0000 -1.2541
# 5 -12.1730 -11.6323 -5.0856 0.0000 23.7060 0.0000
# 6 0.0000 0.0000 0.0000 -1.2541 0.0000 22.7543
#
#
#
# Elastic Compliance Matrix: (Units=1/GPa)
#
#
# Indices 1 2 3 4 5 6 
#
# 1 0.048359 -0.006592 0.020461 0.000000 0.025987 0.000000
# 2 -0.006592 0.006809 -0.003199 0.000000 -0.000730 0.000000
# 3 0.020461 -0.003199 0.047980 0.000000 0.019230 0.000000
# 4 0.000000 0.000000 0.000000 0.039868 0.000000 0.002197
# 5 0.025987 -0.000730 0.019230 0.000000 0.059295 0.000000
# 6 0.000000 0.000000 0.000000 0.002197 0.000000 0.044069
#
#
# Mechanical properties :
#
#
# Convention : Reuss Voigt Hill
#
# Bulk Modulus (GPa) = 8.03285 31.69910 19.86598
# Shear Modulus (GPa) = 18.75927 28.41187 23.58557
#
# Velocity S-wave (km/s) = 2.91366 3.58576 3.26704
# Velocity P-wave (km/s) = 3.86710 5.61149 4.81889
#
# Compressibility (1/GPa) = 0.12448876
#
# Stress axis : x y z
#
# Youngs Moduli (GPa) = 20.67884 146.86420 20.84203
#
# Poissons Ratio (x) = 0.96814 -0.42645
# Poissons Ratio (y) = 0.13632 0.06667
# Poissons Ratio (z) = -0.42312 0.46976
#
# Static dielectric constant tensor:
#      x y z
#    x 1.810570 0.000000 0.004440 
#    y 0.000000 1.920580 0.000000 
#    z 0.004440 0.000000 1.814820 
# 
# From -- ./inp_files/262149.got.cif
#   From: 2010.05.17/outbox.cif.g08.bks.cpg/sg12_132_cif.got.tgz:262149.got - 2010.06.03 13:09:07.
