data_PCOD9186514
_publ_section_title
;
Structure prediction by ZEFSAII (Michael W. Deem and Ramdas Pophale) SiO2 
 PCOD9186514
Probable space group: C 2/M
;
_chemical_formula_sum "Si O2"
_cell_formula_units_Z 48
_cell_length_a 10.065380
_cell_length_b 23.834067
_cell_length_c 13.770622
_cell_angle_alpha 90.000000
_cell_angle_beta 53.462505
_cell_angle_gamma 90.000000
_cell_volume 2654.300965
_symmetry_space_group_name_H-M "C 2/M"
_symmetry_group_IT_number 12
_symmetry_cell_setting 'monoclinic'
loop_
_space_group_symop_operation_xyz
x,y,z
-x,y,-z
-x,-y,-z
x,-y,z
1/2+x,1/2+y,z
1/2-x,1/2+y,-z
1/2-x,1/2-y,-z
1/2+x,1/2-y,z
loop_
_atom_site_type_symbol
_atom_site_label
_atom_site_fract_x
_atom_site_fract_y
_atom_site_fract_z
Si Si1 0.658533 0.066903 0.496842
Si Si2 0.986237 0.878836 0.707901
Si Si3 0.916719 0.826692 0.936199
Si Si4 0.781635 0.379182 0.327793
Si Si5 0.900241 0.785620 0.466795
Si Si6 0.032544 0.301554 0.099637
O O1 0.500000 0.085390 0.500000
O O2 0.833701 0.093111 0.384166
O O3 0.644317 0.082456 0.618177
O O4 0.669912 0.000000 0.483108
O O5 0.001849 0.814382 0.662404
O O6 0.938119 0.871237 0.840476
O O7 0.844038 0.904633 0.698976
O O8 0.994159 0.765386 0.875369
O O9 0.723391 0.814861 0.037582
O O10 0.000000 0.845295 0.000000
O O11 0.669516 0.336374 0.438256
O O12 0.916463 0.341442 0.213935
O O13 0.750000 0.750000 0.500000
O O14 0.000000 0.748818 0.500000
O O15 0.000000 0.312753 0.000000
#
# Coordination Sequence:
#
# PCOD9186514 Si02
#       6
#     8   8   8   8   8   8
#     4  10  23  41  61  84 105 131 175 236 296 340
#     4  10  20  36  54  79 108 141 185 223 269 327
#     4  10  21  33  53  82 117 158 189 217 258 310
#     4  10  20  35  56  78 107 144 182 224 268 325
#     4   9  18  30  45  71 105 138 174 218 262 311
#     4  10  19  35  53  80 119 156 189 219 254 312
#
# _framework density 18.083856999999998
#
# number of rings (size 3 to 8) (size 9 to 14) (size 15 to 20)
#    0.000    2.167    1.667    2.500    2.333    4.000 
#    0.000    0.000    0.000    2.000    0.000    0.000 
#    0.000    0.000    0.000    0.000    0.000    0.000 
#
# Total GULP energy -133605.362354 kJ/mol
# GULP energy per Si atom -5566.890098 kJ/mol
# Density = 1.804270 g / cm^3
# Si number density = 18.083857 Si / 1000 Ang^3
#
#
#
# Elastic Constant Matrix: (Units=GPa)
#
#
# Indices 1 2 3 4 5 6 
#
# 1 166.3351 29.5352 37.9512 0.0000 23.5034 0.0000
# 2 29.5352 29.2322 18.7816 0.0000 4.7625 0.0000
# 3 37.9512 18.7816 85.3294 0.0000 16.3382 0.0000
# 4 0.0000 0.0000 0.0000 12.5583 0.0000 11.4357
# 5 23.5034 4.7625 16.3382 0.0000 33.8352 0.0000
# 6 0.0000 0.0000 0.0000 11.4357 0.0000 4.2775
#
#
#
# Elastic Compliance Matrix: (Units=1/GPa)
#
#
# Indices 1 2 3 4 5 6 
#
# 1 0.008065 -0.006620 -0.001362 0.000000 -0.004013 0.000000
# 2 -0.006620 0.045348 -0.007377 0.000000 0.001778 0.000000
# 3 -0.001362 -0.007377 0.014951 0.000000 -0.005235 0.000000
# 4 0.000000 0.000000 0.000000 -0.055512 0.000000 0.148406
# 5 -0.004013 0.001778 -0.005235 0.000000 0.034620 0.000000
# 6 0.000000 0.000000 0.000000 0.148406 0.000000 -0.162974
#
#
# Mechanical properties :
#
#
# Convention : Reuss Voigt Hill
#
# Bulk Modulus (GPa) = 26.56329 50.38140 38.47235
# Shear Modulus (GPa) = -69.21927 23.10946 -23.05491
#
# Velocity S-wave (km/s) = -6.19354 3.57866 -3.57443
# Velocity P-wave (km/s) = 6.03537 6.70791 2.07007
#
# Compressibility (1/GPa) = 0.03764594
#
# Stress axis : x y z
#
# Youngs Moduli (GPa) = 123.98991 22.05172 66.88477
#
# Poissons Ratio (x) = 0.14599 0.09107
# Poissons Ratio (y) = 0.82083 0.49344
# Poissons Ratio (z) = 0.16882 0.16269
#
# Static dielectric constant tensor:
#      x y z
#    x 1.713630 0.000000 0.036600 
#    y 0.000000 1.608320 0.000000 
#    z 0.036600 0.000000 1.636880 
# 
# From -- ./inp_files/121876.got.cif
#   From: 2010.05.17/outbox.cif.g08.bks.cpg/sg12_61_cif.got.tgz:121876.got - 2010.06.03 13:09:07.
