data_PCOD9186328
_publ_section_title
;
Structure prediction by ZEFSAII (Michael W. Deem and Ramdas Pophale) SiO2 
 PCOD9186328
Probable space group: C 2/M
;
_chemical_formula_sum "Si O2"
_cell_formula_units_Z 40
_cell_length_a 22.562434
_cell_length_b 22.351815
_cell_length_c 12.392703
_cell_angle_alpha 90.000000
_cell_angle_beta 162.060891
_cell_angle_gamma 90.000000
_cell_volume 1924.970521
_symmetry_space_group_name_H-M "C 2/M"
_symmetry_group_IT_number 12
_symmetry_cell_setting 'monoclinic'
loop_
_space_group_symop_operation_xyz
x,y,z
-x,y,-z
-x,-y,-z
x,-y,z
1/2+x,1/2+y,z
1/2-x,1/2+y,-z
1/2-x,1/2-y,-z
1/2+x,1/2-y,z
loop_
_atom_site_type_symbol
_atom_site_label
_atom_site_fract_x
_atom_site_fract_y
_atom_site_fract_z
Si Si1 0.074249 0.842641 0.947240
Si Si2 0.644159 0.068225 0.649473
Si Si3 0.205307 0.068709 0.472122
Si Si4 0.536077 0.893390 0.886534
Si Si5 0.167269 0.277623 0.197421
O O1 0.998765 0.899398 0.882775
O O2 0.873879 0.806298 0.583740
O O3 0.199774 0.877721 0.075679
O O4 0.195253 0.790822 0.212898
O O5 0.500000 0.071815 0.500000
O O6 0.523476 0.078699 0.329913
O O7 0.725990 0.000000 0.788799
O O8 0.353620 0.100842 0.649705
O O9 0.197479 0.000000 0.429655
O O10 0.295727 0.075278 0.750353
O O11 0.595953 0.824063 0.982967
O O12 0.000000 0.278938 0.000000
#
# Coordination Sequence:
#
# PCOD9186328 Si02
#       5
#     8   8   8   8   8
#     4  11  23  37  62  92 125 163 207 249 311 369
#     4  11  25  44  63  87 124 169 212 255 300 357
#     4  10  19  34  60  94 124 152 196 257 318 371
#     4  10  19  38  62  90 124 161 199 249 314 368
#     4  11  21  39  62  96 131 162 194 252 319 380
#
# _framework density 20.779539
#
# number of rings (size 3 to 8) (size 9 to 14) (size 15 to 20)
#    0.000    1.400    4.000    4.800    2.800    0.000 
#    0.000   10.000    0.000   10.800    0.000    0.000 
#    0.000    0.000    0.000    0.000    0.000    0.000 
#
# Total GULP energy -111507.764907 kJ/mol
# GULP energy per Si atom -5575.388245 kJ/mol
# Density = 2.073224 g / cm^3
# Si number density = 20.779539 Si / 1000 Ang^3
#
#
#
# Elastic Constant Matrix: (Units=GPa)
#
#
# Indices 1 2 3 4 5 6 
#
# 1 82.7873 26.4315 19.6330 0.0000 5.6794 0.0000
# 2 26.4315 128.9801 31.4182 0.0000 15.3244 0.0000
# 3 19.6330 31.4182 91.2637 0.0000 0.6765 0.0000
# 4 0.0000 0.0000 0.0000 14.6814 0.0000 9.7142
# 5 5.6794 15.3244 0.6765 0.0000 23.9355 0.0000
# 6 0.0000 0.0000 0.0000 9.7142 0.0000 24.1596
#
#
#
# Elastic Compliance Matrix: (Units=1/GPa)
#
#
# Indices 1 2 3 4 5 6 
#
# 1 0.013356 -0.001989 -0.002175 0.000000 -0.001834 0.000000
# 2 -0.001989 0.009500 -0.002802 0.000000 -0.005531 0.000000
# 3 -0.002175 -0.002802 0.012375 0.000000 0.001960 0.000000
# 4 0.000000 0.000000 0.000000 0.092803 0.000000 -0.037315
# 5 -0.001834 -0.005531 0.001960 0.000000 0.045700 0.000000
# 6 0.000000 0.000000 0.000000 -0.037315 0.000000 0.056395
#
#
# Mechanical properties :
#
#
# Convention : Reuss Voigt Hill
#
# Bulk Modulus (GPa) = 46.94851 50.88850 48.91850
# Shear Modulus (GPa) = 19.90751 27.59186 23.74968
#
# Velocity S-wave (km/s) = 3.09857 3.64790 3.38440
# Velocity P-wave (km/s) = 5.95350 6.50275 6.23418
#
# Compressibility (1/GPa) = 0.02129993
#
# Stress axis : x y z
#
# Youngs Moduli (GPa) = 74.87369 105.25824 80.80773
#
# Poissons Ratio (x) = 0.20939 0.17573
# Poissons Ratio (y) = 0.14895 0.22639
# Poissons Ratio (z) = 0.16283 0.29490
#
# Static dielectric constant tensor:
#      x y z
#    x 1.719320 0.000000 -0.052020 
#    y 0.000000 1.774870 0.000000 
#    z -0.052020 0.000000 1.874480 
# 
# From -- ./inp_files/39322.got.cif
#   From: 2010.05.17/outbox.cif.g08.bks.cpg/sg12_20_cif.got.tgz:39322.got - 2010.06.03 13:09:07.
