data_PCOD9186131
_publ_section_title
;
Structure prediction by ZEFSAII (Michael W. Deem and Ramdas Pophale) SiO2 
 PCOD9186131
Probable space group: C 2/M
;
_chemical_formula_sum "Si O2"
_cell_formula_units_Z 64
_cell_length_a 25.455876
_cell_length_b 8.165044
_cell_length_c 14.932852
_cell_angle_alpha 90.000000
_cell_angle_beta 88.612072
_cell_angle_gamma 90.000000
_cell_volume 3102.858015
_symmetry_space_group_name_H-M "C 2/M"
_symmetry_group_IT_number 12
_symmetry_cell_setting 'monoclinic'
loop_
_space_group_symop_operation_xyz
x,y,z
-x,y,-z
-x,-y,-z
x,-y,z
1/2+x,1/2+y,z
1/2-x,1/2+y,-z
1/2-x,1/2-y,-z
1/2+x,1/2-y,z
loop_
_atom_site_type_symbol
_atom_site_label
_atom_site_fract_x
_atom_site_fract_y
_atom_site_fract_z
Si Si1 0.863088 0.688968 0.141758
Si Si2 0.917875 0.309577 0.486461
Si Si3 0.306935 0.689547 0.469170
Si Si4 0.308956 0.802110 0.970290
Si Si5 0.331911 0.307792 0.767924
Si Si6 0.941270 0.302090 0.678976
Si Si7 0.221537 0.814336 0.732407
Si Si8 0.443985 0.200632 0.286228
O O1 0.878123 0.500000 0.127159
O O2 0.849558 0.759165 0.044995
O O3 0.807840 0.697958 0.197194
O O4 0.906158 0.761795 0.208286
O O5 0.933280 0.500000 0.480742
O O6 0.855413 0.292346 0.503979
O O7 0.944037 0.241228 0.575485
O O8 0.928954 0.239914 0.387129
O O9 0.314066 0.500000 0.494725
O O10 0.250000 0.750000 0.500000
O O11 0.306187 0.702143 0.361775
O O12 0.310096 0.000000 0.968604
O O13 0.250000 0.750000 0.000000
O O14 0.324598 0.737806 0.872307
O O15 0.325362 0.500000 0.755913
O O16 0.388290 0.256590 0.727918
O O17 0.283003 0.221686 0.720680
O O18 0.939157 0.500000 0.675095
O O19 0.994823 0.257858 0.727637
O O20 0.215098 0.000000 0.765739
O O21 0.438658 0.000000 0.287632
#
# Coordination Sequence:
#
# PCOD9186131 Si02
#       8
#     8   8   8   8   8   8   8   8
#     4  10  20  36  61  90 116 146 187 235 289 346
#     4  10  19  34  59  87 116 152 195 242 289 344
#     4  11  23  35  50  78 115 156 194 235 290 347
#     4  11  22  37  61  92 121 151 191 238 295 356
#     4  12  25  40  59  84 117 158 198 242 297 351
#     4  10  21  38  60  87 118 155 199 245 292 342
#     4  11  22  36  56  82 115 151 190 238 293 347
#     4   9  18  36  62  89 118 153 196 242 289 347
#
# _framework density 20.626145000000001
#
# number of rings (size 3 to 8) (size 9 to 14) (size 15 to 20)
#    0.000    1.500    2.500    3.375    0.000    7.000 
#    0.000    1.875    0.000    5.250    0.000    0.000 
#    0.000    0.000    0.000    0.000    0.000    0.000 
#
# Total GULP energy -178717.913872 kJ/mol
# GULP energy per Si atom -5584.934809 kJ/mol
# Density = 2.057920 g / cm^3
# Si number density = 20.626145 Si / 1000 Ang^3
#
#
#
# Elastic Constant Matrix: (Units=GPa)
#
#
# Indices 1 2 3 4 5 6 
#
# 1 109.9724 -9.0011 40.4660 0.0000 23.5895 0.0000
# 2 -9.0011 22.7754 11.7737 0.0000 5.2327 0.0000
# 3 40.4660 11.7737 84.0355 0.0000 20.9493 0.0000
# 4 0.0000 0.0000 0.0000 16.6207 0.0000 -4.3473
# 5 23.5895 5.2327 20.9493 0.0000 31.6566 0.0000
# 6 0.0000 0.0000 0.0000 -4.3473 0.0000 20.7003
#
#
#
# Elastic Compliance Matrix: (Units=1/GPa)
#
#
# Indices 1 2 3 4 5 6 
#
# 1 0.013968 0.010575 -0.006200 0.000000 -0.008053 0.000000
# 2 0.010575 0.055794 -0.010354 0.000000 -0.010251 0.000000
# 3 -0.006200 -0.010354 0.017673 0.000000 -0.005364 0.000000
# 4 0.000000 0.000000 0.000000 0.063663 0.000000 0.013370
# 5 -0.008053 -0.010251 -0.005364 0.000000 0.042834 0.000000
# 6 0.000000 0.000000 0.000000 0.013370 0.000000 0.051116
#
#
# Mechanical properties :
#
#
# Convention : Reuss Voigt Hill
#
# Bulk Modulus (GPa) = 13.24890 33.69563 23.47226
# Shear Modulus (GPa) = 17.72018 25.36517 21.54267
#
# Velocity S-wave (km/s) = 2.93424 3.51059 3.23528
# Velocity P-wave (km/s) = 4.23285 5.72750 5.03593
#
# Compressibility (1/GPa) = 0.07547796
#
# Stress axis : x y z
#
# Youngs Moduli (GPa) = 71.59421 17.92306 56.58337
#
# Poissons Ratio (x) = -0.18954 0.35081
# Poissons Ratio (y) = -0.75714 0.58586
# Poissons Ratio (z) = 0.44388 0.18557
#
# Static dielectric constant tensor:
#      x y z
#    x 1.723170 0.000000 0.022330 
#    y 0.000000 1.741620 0.000000 
#    z 0.022330 0.000000 1.756420 
# 
# From -- ./inp_files/238588.got.cif
#   From: 2010.05.17/outbox.cif.g08.bks.cpg/sg12_120_cif.got.tgz:238588.got - 2010.06.03 13:09:07.
