data_PCOD9186669
_publ_section_title
;
Structure prediction by ZEFSAII (Michael W. Deem and Ramdas Pophale) SiO2 
 PCOD9186669
Probable space group: C 2/M
;
_chemical_formula_sum "Si O2"
_cell_formula_units_Z 48
_cell_length_a 11.209769
_cell_length_b 16.151100
_cell_length_c 12.204153
_cell_angle_alpha 90.000000
_cell_angle_beta 109.524212
_cell_angle_gamma 90.000000
_cell_volume 2082.514010
_symmetry_space_group_name_H-M "C 2/M"
_symmetry_group_IT_number 12
_symmetry_cell_setting 'monoclinic'
loop_
_space_group_symop_operation_xyz
x,y,z
-x,y,-z
-x,-y,-z
x,-y,z
1/2+x,1/2+y,z
1/2-x,1/2+y,-z
1/2-x,1/2-y,-z
1/2+x,1/2-y,z
loop_
_atom_site_type_symbol
_atom_site_label
_atom_site_fract_x
_atom_site_fract_y
_atom_site_fract_z
Si Si1 0.499519 0.000000 0.224095
Si Si2 0.676170 0.500000 0.895201
Si Si3 0.274389 0.500000 0.831217
Si Si4 0.484672 0.819995 0.758293
Si Si5 0.272586 0.500000 0.329352
Si Si6 0.127642 0.668643 0.586269
Si Si7 0.475961 0.640529 0.864407
Si Si8 0.715678 0.654535 0.553734
O O1 0.369243 0.000000 0.253147
O O2 0.499488 0.092664 0.170858
O O3 0.629302 0.000000 0.333771
O O4 0.756087 0.500000 0.808817
O O5 0.589053 0.581480 0.858522
O O6 0.731522 0.500000 0.035740
O O7 0.352536 0.581340 0.820369
O O8 0.599469 0.820798 0.705652
O O9 0.478153 0.731277 0.813661
O O10 0.349692 0.827398 0.655843
O O11 0.342089 0.580083 0.395291
O O12 0.249144 0.631233 0.560705
O O13 0.137285 0.762391 0.541713
O O14 0.000000 0.627929 0.500000
O O15 0.500000 0.652517 0.000000
#
# Coordination Sequence:
#
# PCOD9186669 Si02
#       8
#     4   4   4   8   4   8   8   8
#     4  10  23  37  50  87 116 148 189 239 283 331
#     4   9  18  37  60  81 111 154 190 240 285 340
#     4   9  20  39  58  82 117 146 193 244 283 336
#     4  10  20  35  56  81 112 151 189 230 280 341
#     4  10  19  35  55  80 113 149 185 226 292 339
#     4   9  18  34  55  76 106 142 184 230 280 337
#     4   9  19  38  61  84 110 152 196 234 288 338
#     4   9  19  33  52  78 109 144 180 229 285 336
#
# _framework density 23.049064000000001
#
# number of rings (size 3 to 8) (size 9 to 14) (size 15 to 20)
#    0.000    2.667    0.000    2.000    2.333    1.000 
#    6.000    5.417    0.000    0.000    0.000    0.000 
#    0.000    0.000    0.000    0.000    0.000    0.000 
#
# Total GULP energy -133648.096017 kJ/mol
# GULP energy per Si atom -5568.670667 kJ/mol
# Density = 2.299660 g / cm^3
# Si number density = 23.049064 Si / 1000 Ang^3
#
#
#
# Elastic Constant Matrix: (Units=GPa)
#
#
# Indices 1 2 3 4 5 6 
#
# 1 67.2606 15.6069 23.2454 0.0000 -7.4185 0.0000
# 2 15.6069 186.1806 52.7728 0.0000 -12.0745 0.0000
# 3 23.2454 52.7728 78.5020 0.0000 -20.4891 0.0000
# 4 0.0000 0.0000 0.0000 22.5081 0.0000 2.8441
# 5 -7.4185 -12.0745 -20.4891 0.0000 26.3144 0.0000
# 6 0.0000 0.0000 0.0000 2.8441 0.0000 19.6921
#
#
#
# Elastic Compliance Matrix: (Units=1/GPa)
#
#
# Indices 1 2 3 4 5 6 
#
# 1 0.016586 -0.000010 -0.004626 0.000000 0.001070 0.000000
# 2 -0.000010 0.006642 -0.004603 0.000000 -0.000539 0.000000
# 3 -0.004626 -0.004603 0.020471 0.000000 0.012523 0.000000
# 4 0.000000 0.000000 0.000000 0.045254 0.000000 -0.006536
# 5 0.001070 -0.000539 0.012523 0.000000 0.047807 0.000000
# 6 0.000000 0.000000 0.000000 -0.006536 0.000000 0.051726
#
#
# Mechanical properties :
#
#
# Convention : Reuss Voigt Hill
#
# Bulk Modulus (GPa) = 39.64646 57.24373 48.44510
# Shear Modulus (GPa) = 23.21586 29.72411 26.46998
#
# Velocity S-wave (km/s) = 3.17714 3.59500 3.39251
# Velocity P-wave (km/s) = 5.54051 6.49011 6.03402
#
# Compressibility (1/GPa) = 0.02522293
#
# Stress axis : x y z
#
# Youngs Moduli (GPa) = 60.29021 150.56635 48.85002
#
# Poissons Ratio (x) = 0.00149 0.22596
# Poissons Ratio (y) = 0.00060 0.22483
# Poissons Ratio (z) = 0.27887 0.69299
#
# Static dielectric constant tensor:
#      x y z
#    x 1.920120 0.000000 -0.030770 
#    y 0.000000 1.929270 0.000000 
#    z -0.030770 0.000000 1.922650 
# 
# From -- ./inp_files/204495.got.cif
#   From: 2010.05.17/outbox.cif.g08.bks.cpg/sg12_103_cif.got.tgz:204495.got - 2010.06.03 13:09:07.
