data_PCOD9186875
_publ_section_title
;
Structure prediction by ZEFSAII (Michael W. Deem and Ramdas Pophale) SiO2 
 PCOD9186875
Probable space group: C 2/M
;
_chemical_formula_sum "Si O2"
_cell_formula_units_Z 44
_cell_length_a 11.596928
_cell_length_b 18.097042
_cell_length_c 11.686569
_cell_angle_alpha 90.000000
_cell_angle_beta 70.582012
_cell_angle_gamma 90.000000
_cell_volume 2313.149851
_symmetry_space_group_name_H-M "C 2/M"
_symmetry_group_IT_number 12
_symmetry_cell_setting 'monoclinic'
loop_
_space_group_symop_operation_xyz
x,y,z
-x,y,-z
-x,-y,-z
x,-y,z
1/2+x,1/2+y,z
1/2-x,1/2+y,-z
1/2-x,1/2-y,-z
1/2+x,1/2-y,z
loop_
_atom_site_type_symbol
_atom_site_label
_atom_site_fract_x
_atom_site_fract_y
_atom_site_fract_z
Si Si1 0.744780 0.835465 0.543914
Si Si2 0.142861 0.839678 0.932080
Si Si3 0.503868 0.183997 0.291958
Si Si4 0.000000 0.198751 0.500000
Si Si5 0.120859 0.322665 0.015655
Si Si6 0.711269 0.086965 0.315964
O O1 0.750000 0.750000 0.500000
O O2 0.637085 0.838708 0.670950
O O3 0.717061 0.884893 0.443533
O O4 0.879794 0.850323 0.541525
O O5 0.250253 0.860927 0.990163
O O6 0.188808 0.872048 0.796512
O O7 0.148165 0.750206 0.932201
O O8 0.000000 0.859950 0.000000
O O9 0.509455 0.247454 0.386566
O O10 0.567345 0.207190 0.154234
O O11 0.581388 0.114727 0.311246
O O12 0.000000 0.361742 0.000000
O O13 0.725781 0.000000 0.302517
#
# Coordination Sequence:
#
# PCOD9186875 Si02
#       6
#     8   8   8   4   8   8
#     4  10  20  34  55  88 115 147 190 239 293 343
#     4   9  20  34  54  82 115 154 192 238 289 339
#     4  10  19  35  56  87 116 149 192 236 297 338
#     4  10  20  32  56  88 118 146 180 248 292 350
#     4   9  19  32  55  88 117 143 192 247 292 340
#     4  11  22  38  58  84 119 156 199 237 284 353
#
# _framework density 19.021681999999998
#
# number of rings (size 3 to 8) (size 9 to 14) (size 15 to 20)
#    0.000    2.182    3.636    0.000   10.182    3.273 
#    0.000    0.455    0.000    8.727    0.000    0.000 
#    0.000    0.000    0.000    0.000    0.000    0.000 
#
# Total GULP energy -122495.392003 kJ/mol
# GULP energy per Si atom -5567.972364 kJ/mol
# Density = 1.897839 g / cm^3
# Si number density = 19.021682 Si / 1000 Ang^3
#
#
#
# Elastic Constant Matrix: (Units=GPa)
#
#
# Indices 1 2 3 4 5 6 
#
# 1 145.1496 1.6320 19.4749 0.0000 -29.1374 0.0000
# 2 1.6320 50.3310 29.1168 0.0000 -5.7525 0.0000
# 3 19.4749 29.1168 65.2771 0.0000 -19.6505 0.0000
# 4 0.0000 0.0000 0.0000 12.2599 0.0000 4.3571
# 5 -29.1374 -5.7525 -19.6505 0.0000 37.7093 0.0000
# 6 0.0000 0.0000 0.0000 4.3571 0.0000 0.2284
#
#
#
# Elastic Compliance Matrix: (Units=1/GPa)
#
#
# Indices 1 2 3 4 5 6 
#
# 1 0.008219 0.001076 -0.001151 0.000000 0.005915 0.000000
# 2 0.001076 0.027125 -0.012957 0.000000 -0.001783 0.000000
# 3 -0.001151 -0.012957 0.024408 0.000000 0.009853 0.000000
# 4 0.000000 0.000000 0.000000 -0.014116 0.000000 0.269226
# 5 0.005915 -0.001783 0.009853 0.000000 0.035952 0.000000
# 6 0.000000 0.000000 0.000000 0.269226 0.000000 -0.757539
#
#
# Mechanical properties :
#
#
# Convention : Reuss Voigt Hill
#
# Bulk Modulus (GPa) = 29.68434 40.13389 34.90911
# Shear Modulus (GPa) = -7.82895 24.07513 8.12309
#
# Velocity S-wave (km/s) = -2.03095 3.56148 2.06875
# Velocity P-wave (km/s) = 3.18430 6.16904 4.90901
#
# Compressibility (1/GPa) = 0.03368779
#
# Stress axis : x y z
#
# Youngs Moduli (GPa) = 121.66645 36.86579 40.96964
#
# Poissons Ratio (x) = -0.03965 0.04717
# Poissons Ratio (y) = -0.13086 0.53084
# Poissons Ratio (z) = 0.14007 0.47766
#
# Static dielectric constant tensor:
#      x y z
#    x 1.814170 0.000000 0.008790 
#    y 0.000000 1.624310 0.000000 
#    z 0.008790 0.000000 1.674310 
# 
# From -- ./inp_files/130949.got.cif
#   From: 2010.05.17/outbox.cif.g08.bks.cpg/sg12_66_cif.got.tgz:130949.got - 2010.06.03 13:09:07.
