data_PCOD9186585
_publ_section_title
;
Structure prediction by ZEFSAII (Michael W. Deem and Ramdas Pophale) SiO2 
 PCOD9186585
Probable space group: C 2/M
;
_chemical_formula_sum "Si O2"
_cell_formula_units_Z 48
_cell_length_a 14.804842
_cell_length_b 10.914700
_cell_length_c 23.761513
_cell_angle_alpha 90.000000
_cell_angle_beta 141.164200
_cell_angle_gamma 90.000000
_cell_volume 2407.797671
_symmetry_space_group_name_H-M "C 2/M"
_symmetry_group_IT_number 12
_symmetry_cell_setting 'monoclinic'
loop_
_space_group_symop_operation_xyz
x,y,z
-x,y,-z
-x,-y,-z
x,-y,z
1/2+x,1/2+y,z
1/2-x,1/2+y,-z
1/2-x,1/2-y,-z
1/2+x,1/2-y,z
loop_
_atom_site_type_symbol
_atom_site_label
_atom_site_fract_x
_atom_site_fract_y
_atom_site_fract_z
Si Si1 0.888658 0.000000 0.579851
Si Si2 0.500000 0.802003 0.000000
Si Si3 0.802072 0.301839 0.807463
Si Si4 0.032321 0.803701 0.850482
Si Si5 0.808345 0.000000 0.331183
Si Si6 0.277162 0.368342 0.959482
Si Si7 0.344877 0.000000 0.626567
Si Si8 0.986749 0.772053 0.702398
O O1 0.741465 0.000000 0.473936
O O2 0.908380 0.874578 0.625555
O O3 0.023044 0.000000 0.601495
O O4 0.406820 0.862265 0.905083
O O5 0.377814 0.722766 0.972978
O O6 0.761743 0.386081 0.735445
O O7 0.652971 0.265734 0.763628
O O8 0.896636 0.194414 0.825898
O O9 0.111514 0.671660 0.882830
O O10 0.988453 0.830473 0.765907
O O11 0.158731 0.871073 0.946023
O O12 0.766360 0.000000 0.375324
O O13 0.289240 0.500000 0.938318
O O14 0.426331 0.867512 0.670797
#
# Coordination Sequence:
#
# PCOD9186585 Si02
#       8
#     4   4   8   8   4   8   4   8
#     4  10  25  44  68  99 130 160 207 272 347 384
#     4  10  19  35  54  84 132 162 211 257 306 364
#     4  10  21  38  56  93 126 167 214 258 307 367
#     4  10  21  37  55  87 124 168 215 257 314 368
#     4  10  21  39  66  94 123 167 215 261 319 393
#     4  10  21  34  55  82 121 171 220 259 302 367
#     4  12  23  44  74  96 121 166 216 275 321 398
#     4  11  23  42  68  95 130 166 215 264 324 390
#
# _framework density 19.935229
#
# number of rings (size 3 to 8) (size 9 to 14) (size 15 to 20)
#    0.000    1.667    3.333    1.000    3.500    0.333 
#    6.000    0.000    0.000    1.000    0.000    0.000 
#    0.000    0.000    0.000    0.000    0.000    0.000 
#
# Total GULP energy -133665.559011 kJ/mol
# GULP energy per Si atom -5569.398292 kJ/mol
# Density = 1.988986 g / cm^3
# Si number density = 19.935229 Si / 1000 Ang^3
#
#
#
# Elastic Constant Matrix: (Units=GPa)
#
#
# Indices 1 2 3 4 5 6 
#
# 1 82.6586 12.7846 22.9222 0.0000 -19.2764 0.0000
# 2 12.7846 75.3834 15.0177 0.0000 -5.9363 0.0000
# 3 22.9222 15.0177 105.9722 0.0000 -17.1820 0.0000
# 4 0.0000 0.0000 0.0000 1212.9356 0.0000 631.3821
# 5 -19.2764 -5.9363 -17.1820 0.0000 24.1359 0.0000
# 6 0.0000 0.0000 0.0000 631.3821 0.0000 331.7906
#
#
#
# Elastic Compliance Matrix: (Units=1/GPa)
#
#
# Indices 1 2 3 4 5 6 
#
# 1 0.015223 -0.001463 -0.001326 0.000000 0.010855 0.000000
# 2 -0.001463 0.013899 -0.001457 0.000000 0.001213 0.000000
# 3 -0.001326 -0.001457 0.010966 0.000000 0.006389 0.000000
# 4 0.000000 0.000000 0.000000 0.087378 0.000000 -0.166276
# 5 0.010855 0.001213 0.006389 0.000000 0.054948 0.000000
# 6 0.000000 0.000000 0.000000 -0.166276 0.000000 0.319429
#
#
# Mechanical properties :
#
#
# Convention : Reuss Voigt Hill
#
# Bulk Modulus (GPa) = 31.64763 40.60702 36.12732
# Shear Modulus (GPa) = 9.59939 327.99172 168.79556
#
# Velocity S-wave (km/s) = 2.19676 12.84079 9.21172
# Velocity P-wave (km/s) = 4.72695 15.50037 11.45874
#
# Compressibility (1/GPa) = 0.03159795
#
# Stress axis : x y z
#
# Youngs Moduli (GPa) = 65.68927 71.94589 91.19498
#
# Poissons Ratio (x) = 0.10525 0.12089
# Poissons Ratio (y) = 0.09610 0.13283
# Poissons Ratio (z) = 0.08708 0.10479
#
# Static dielectric constant tensor:
#      x y z
#    x 1.702170 0.000000 -0.019550 
#    y 0.000000 1.771820 0.000000 
#    z -0.019550 0.000000 1.721940 
# 
# From -- ./inp_files/310312.got.cif
#   From: 2010.05.17/outbox.cif.g08.bks.cpg/sg12_156_cif.got.tgz:310312.got - 2010.06.03 13:09:07.
