data_PCOD9186199
_publ_section_title
;
Structure prediction by ZEFSAII (Michael W. Deem and Ramdas Pophale) SiO2 
 PCOD9186199
Probable space group: C 2/M
;
_chemical_formula_sum "Si O2"
_cell_formula_units_Z 64
_cell_length_a 34.059844
_cell_length_b 14.862075
_cell_length_c 24.053584
_cell_angle_alpha 90.000000
_cell_angle_beta 16.728360
_cell_angle_gamma 90.000000
_cell_volume 3504.651768
_symmetry_space_group_name_H-M "C 2/M"
_symmetry_group_IT_number 12
_symmetry_cell_setting 'monoclinic'
loop_
_space_group_symop_operation_xyz
x,y,z
-x,y,-z
-x,-y,-z
x,-y,z
1/2+x,1/2+y,z
1/2-x,1/2+y,-z
1/2-x,1/2-y,-z
1/2+x,1/2-y,z
loop_
_atom_site_type_symbol
_atom_site_label
_atom_site_fract_x
_atom_site_fract_y
_atom_site_fract_z
Si Si1 0.109861 0.105694 0.459903
Si Si2 0.432715 0.099292 0.749583
Si Si3 0.949849 0.274152 0.630653
Si Si4 0.125791 0.605197 0.976414
Si Si5 0.803447 0.401375 0.532715
Si Si6 0.849465 0.206590 0.481137
Si Si7 0.654388 0.224005 0.047025
Si Si8 0.174199 0.395773 0.631163
O O1 0.244391 0.114216 0.239175
O O2 0.149612 0.141578 0.467004
O O3 0.999415 0.175632 0.584360
O O4 0.068648 0.000000 0.516044
O O5 0.500004 0.151565 0.606733
O O6 0.547733 0.090170 0.641189
O O7 0.323632 0.162712 0.927929
O O8 0.383682 0.000000 0.800940
O O9 0.000000 0.287231 0.500000
O O10 0.786866 0.283161 0.856208
O O11 0.110661 0.500000 0.011721
O O12 0.145817 0.661218 0.004753
O O13 0.981591 0.632502 0.144954
O O14 0.735938 0.500000 0.635988
O O15 0.767811 0.300932 0.602531
O O16 0.809712 0.391356 0.457486
O O17 0.780818 0.162188 0.520689
O O18 0.009253 0.227474 0.252277
O O19 0.190897 0.500000 0.624713
#
# Coordination Sequence:
#
# PCOD9186199 Si02
#       8
#     8   8   8   8   8   8   8   8
#     4  11  24  40  57  86 126 160 190 236 295 356
#     4  10  20  37  61  86 112 147 196 250 290 337
#     4  12  24  41  59  84 119 158 199 243 294 354
#     4  10  20  36  59  88 118 155 198 235 285 353
#     4   9  17  31  56  85 110 141 189 240 281 333
#     4  11  21  36  57  87 122 153 192 240 295 342
#     4  11  21  36  60  85 118 148 203 245 290 342
#     4  10  19  34  59  91 121 152 191 237 291 353
#
# _framework density 18.261443
#
# number of rings (size 3 to 8) (size 9 to 14) (size 15 to 20)
#    0.000    1.500    6.250    1.500    0.000    2.000 
#    0.000    2.500    0.000    0.000    0.000    2.625 
#    0.000    0.250    0.000    0.000    0.000    0.000 
#
# Total GULP energy -178215.274735 kJ/mol
# GULP energy per Si atom -5569.227335 kJ/mol
# Density = 1.821988 g / cm^3
# Si number density = 18.261443 Si / 1000 Ang^3
#
#
#
# Elastic Constant Matrix: (Units=GPa)
#
#
# Indices 1 2 3 4 5 6 
#
# 1 96.1676 35.0492 32.1707 -0.0003 15.2945 -0.0005
# 2 35.0492 78.7091 24.7859 -0.0003 7.7818 -0.0005
# 3 32.1707 24.7859 47.5088 -0.0006 4.3830 -0.0004
# 4 -0.0003 -0.0003 -0.0006 -21.5594 0.0002 -73.4572
# 5 15.2945 7.7818 4.3830 0.0002 24.5356 0.0001
# 6 -0.0005 -0.0005 -0.0004 -73.4572 0.0001 -117.6764
#
#
#
# Elastic Compliance Matrix: (Units=1/GPa)
#
#
# Indices 1 2 3 4 5 6 
#
# 1 0.015532 -0.003721 -0.007922 0.000000 -0.007087 0.000000
# 2 -0.003721 0.016389 -0.005862 0.000000 -0.001831 0.000000
# 3 -0.007922 -0.005862 0.029328 0.000000 0.001559 0.000000
# 4 0.000000 0.000000 0.000000 0.041161 0.000000 -0.025694
# 5 -0.007087 -0.001831 0.001559 0.000000 0.045477 0.000000
# 6 0.000000 0.000000 0.000000 -0.025694 0.000000 0.007541
#
#
# Mechanical properties :
#
#
# Convention : Reuss Voigt Hill
#
# Bulk Modulus (GPa) = 38.11202 45.15524 41.63363
# Shear Modulus (GPa) = 25.10240 -14.24806 5.42717
#
# Velocity S-wave (km/s) = 3.71160 -2.79628 1.72580
# Velocity P-wave (km/s) = 6.26765 3.78882 5.17874
#
# Compressibility (1/GPa) = 0.02623844
#
# Stress axis : x y z
#
# Youngs Moduli (GPa) = 64.38321 61.01701 34.09739
#
# Poissons Ratio (x) = 0.22704 0.27014
# Poissons Ratio (y) = 0.23957 0.19987
# Poissons Ratio (z) = 0.51008 0.35766
#
# Static dielectric constant tensor:
#      x y z
#    x 1.639090 0.000000 -0.019180 
#    y 0.000000 1.700160 0.000000 
#    z -0.019180 0.000000 1.626940 
# 
# From -- ./inp_files/330382.got.cif
#   From: 2010.05.17/outbox.cif.g08.bks.cpg/sg12_166_cif.got.tgz:330382.got - 2010.06.03 13:09:07.
