data_PCOD9186253
_publ_section_title
;
Structure prediction by ZEFSAII (Michael W. Deem and Ramdas Pophale) SiO2 
 PCOD9186253
Probable space group: C 2/M
;
_chemical_formula_sum "Si O2"
_cell_formula_units_Z 50
_cell_length_a 8.275173
_cell_length_b 17.297960
_cell_length_c 18.754390
_cell_angle_alpha 90.000000
_cell_angle_beta 44.573670
_cell_angle_gamma 90.000000
_cell_volume 1884.101193
_symmetry_space_group_name_H-M "C 2/M"
_symmetry_group_IT_number 12
_symmetry_cell_setting 'monoclinic'
loop_
_space_group_symop_operation_xyz
x,y,z
-x,y,-z
-x,-y,-z
x,-y,z
1/2+x,1/2+y,z
1/2-x,1/2+y,-z
1/2-x,1/2-y,-z
1/2+x,1/2-y,z
loop_
_atom_site_type_symbol
_atom_site_label
_atom_site_fract_x
_atom_site_fract_y
_atom_site_fract_z
Si Si1 0.500000 0.500000 0.500000
Si Si2 0.733085 0.416141 0.062712
Si Si3 0.673036 0.368175 0.227018
Si Si4 0.224398 0.710863 0.365946
Si Si5 0.391690 0.289469 0.146755
Si Si6 0.052583 0.582228 0.215420
Si Si7 0.695839 0.865859 0.570369
O O1 0.380900 0.429646 0.489605
O O2 0.696783 0.500000 0.037842
O O3 0.607226 0.417699 0.179060
O O4 0.627570 0.337620 0.062555
O O5 0.000000 0.413879 0.000000
O O6 0.438035 0.335006 0.333672
O O7 0.830460 0.297597 0.145912
O O8 0.837788 0.410227 0.230271
O O9 0.316962 0.715591 0.254334
O O10 0.224043 0.793661 0.404817
O O11 0.975768 0.671232 0.433814
O O12 0.214977 0.344280 0.159892
O O13 0.168538 0.500000 0.167169
O O14 0.956117 0.584965 0.325752
#
# Coordination Sequence:
#
# PCOD9186253 Si02
#       7
#     2   8   8   8   8   8   8
#     4  12  28  40  60  94 132 158 186 226 298 380
#     4  10  22  38  52  79 128 167 192 241 315 367
#     4  11  19  36  60  91 109 149 211 255 288 340
#     4  10  19  37  65  85 113 155 202 245 285 341
#     4  10  19  34  60  87 109 151 209 252 291 343
#     4  11  19  33  58  87 115 145 197 260 292 330
#     4  11  21  40  62  88 118 158 189 238 295 353
#
# _framework density 26.537851
#
# number of rings (size 3 to 8) (size 9 to 14) (size 15 to 20)
#    0.000    1.440    5.600    1.920    0.000    1.280 
#    2.880    0.800    0.000    6.720    0.000    0.000 
#    0.000    0.000    0.000    0.000    0.000    0.000 
#
# Total GULP energy -139414.607121 kJ/mol
# GULP energy per Si atom -5576.584285 kJ/mol
# Density = 2.647745 g / cm^3
# Si number density = 26.537851 Si / 1000 Ang^3
#
#
#
# Elastic Constant Matrix: (Units=GPa)
#
#
# Indices 1 2 3 4 5 6 
#
# 1 120.5915 59.5711 18.3883 -0.0003 -11.7438 -0.0015
# 2 59.5711 231.1797 41.9829 0.0002 -15.1835 -0.0009
# 3 18.3883 41.9829 75.4441 -0.0006 -19.1178 -0.0019
# 4 -0.0003 0.0002 -0.0006 -31.2270 0.0005 -0.9725
# 5 -11.7438 -15.1835 -19.1178 0.0005 44.3015 0.0013
# 6 -0.0015 -0.0009 -0.0019 -0.9725 0.0013 -18.7695
#
#
#
# Elastic Compliance Matrix: (Units=1/GPa)
#
#
# Indices 1 2 3 4 5 6 
#
# 1 0.009664 -0.002262 -0.000723 0.000000 0.001474 0.000000
# 2 -0.002262 0.005354 -0.002374 0.000000 0.000211 0.000000
# 3 -0.000723 -0.002374 0.016278 0.000000 0.006019 -0.000001
# 4 0.000000 0.000000 0.000000 -0.032075 0.000000 0.001662
# 5 0.001474 0.000211 0.006019 0.000000 0.025633 0.000001
# 6 0.000000 0.000000 -0.000001 0.001662 0.000001 -0.053364
#
#
# Mechanical properties :
#
#
# Convention : Reuss Voigt Hill
#
# Bulk Modulus (GPa) = 48.60036 74.12219 61.36127
# Shear Modulus (GPa) = -457.29588 19.34587 -218.97500
#
# Velocity S-wave (km/s) = -13.14125 2.70291 -9.09359
# Velocity P-wave (km/s) = 14.55690 6.14267 9.33196
#
# Compressibility (1/GPa) = 0.02057598
#
# Stress axis : x y z
#
# Youngs Moduli (GPa) = 103.47985 186.79151 61.43411
#
# Poissons Ratio (x) = 0.42253 0.04441
# Poissons Ratio (y) = 0.23408 0.14587
# Poissons Ratio (z) = 0.07481 0.44353
#
# Static dielectric constant tensor:
#      x y z
#    x 2.108380 0.000000 -0.007270 
#    y 0.000000 2.087850 0.000000 
#    z -0.007270 0.000000 2.224220 
# 
# From -- ./inp_files/356526.got.cif
#   From: 2010.05.17/outbox.cif.g08.bks.cpg/sg12_179_cif.got.tgz:356526.got - 2010.06.03 13:09:07.
