data_PCOD9186279
_publ_section_title
;
Structure prediction by ZEFSAII (Michael W. Deem and Ramdas Pophale) SiO2 
 PCOD9186279
Probable space group: C 2/M
;
_chemical_formula_sum "Si O2"
_cell_formula_units_Z 56
_cell_length_a 28.723616
_cell_length_b 9.239952
_cell_length_c 18.717826
_cell_angle_alpha 90.000000
_cell_angle_beta 145.069152
_cell_angle_gamma 90.000000
_cell_volume 2844.500336
_symmetry_space_group_name_H-M "C 2/M"
_symmetry_group_IT_number 12
_symmetry_cell_setting 'monoclinic'
loop_
_space_group_symop_operation_xyz
x,y,z
-x,y,-z
-x,-y,-z
x,-y,z
1/2+x,1/2+y,z
1/2-x,1/2+y,-z
1/2-x,1/2-y,-z
1/2+x,1/2-y,z
loop_
_atom_site_type_symbol
_atom_site_label
_atom_site_fract_x
_atom_site_fract_y
_atom_site_fract_z
Si Si1 0.013193 0.828993 0.670439
Si Si2 0.712959 0.668380 0.234895
Si Si3 0.332454 0.167212 0.188129
Si Si4 0.683054 0.166706 0.051538
Si Si5 0.436827 0.328520 0.856329
Si Si6 0.991027 0.332327 0.782703
Si Si7 0.892601 0.337199 0.428548
O O1 0.958628 0.778048 0.534997
O O2 0.101690 0.757995 0.772172
O O3 0.971727 0.759702 0.688166
O O4 0.018843 0.000000 0.682843
O O5 0.699415 0.500000 0.195336
O O6 0.690188 0.770984 0.140618
O O7 0.653240 0.695556 0.225502
O O8 0.809145 0.682652 0.367931
O O9 0.243663 0.238204 0.079816
O O10 0.364615 0.170186 0.311029
O O11 0.329928 0.000000 0.161370
O O12 0.710022 0.000000 0.083074
O O13 0.588923 0.174090 0.913195
O O14 0.447126 0.500000 0.853864
O O15 0.454792 0.236668 0.808813
O O16 0.500000 0.293105 0.000000
O O17 0.967318 0.500000 0.744723
O O18 0.925396 0.500000 0.482545
#
# Coordination Sequence:
#
# PCOD9186279 Si02
#       7
#     8   8   8   8   8   8   8
#     4  12  25  39  57  81 112 150 192 237 283 331
#     4   9  18  34  58  87 116 149 183 227 283 333
#     4  10  21  38  62  86 112 148 187 229 282 338
#     4  10  20  34  55  85 116 146 186 234 278 328
#     4  10  19  34  60  89 117 147 186 231 277 334
#     4  11  24  39  56  81 117 155 190 230 282 338
#     4   9  19  37  60  84 113 148 188 228 275 335
#
# _framework density 19.687113
#
# number of rings (size 3 to 8) (size 9 to 14) (size 15 to 20)
#    0.000    1.857    1.429    3.857    0.000    7.714 
#    0.000    0.714    0.000    0.000    0.000    0.000 
#    0.000    0.000    0.000    0.000    0.000    0.000 
#
# Total GULP energy -156486.849295 kJ/mol
# GULP energy per Si atom -5588.816046 kJ/mol
# Density = 1.964230 g / cm^3
# Si number density = 19.687113 Si / 1000 Ang^3
#
#
#
# Elastic Constant Matrix: (Units=GPa)
#
#
# Indices 1 2 3 4 5 6 
#
# 1 114.8680 55.9643 13.0446 0.0000 5.2843 0.0000
# 2 55.9643 129.6864 25.1200 0.0000 0.5138 0.0000
# 3 13.0446 25.1200 26.2691 0.0000 1.7190 0.0000
# 4 0.0000 0.0000 0.0000 24.2782 0.0000 2.5335
# 5 5.2843 0.5138 1.7190 0.0000 22.1814 0.0000
# 6 0.0000 0.0000 0.0000 2.5335 0.0000 35.8076
#
#
#
# Elastic Compliance Matrix: (Units=1/GPa)
#
#
# Indices 1 2 3 4 5 6 
#
# 1 0.011185 -0.004630 -0.000964 0.000000 -0.002483 0.000000
# 2 -0.004630 0.011386 -0.008687 0.000000 0.001513 0.000000
# 3 -0.000964 -0.008687 0.047064 0.000000 -0.003216 0.000000
# 4 0.000000 0.000000 0.000000 0.041496 0.000000 -0.002936
# 5 -0.002483 0.001513 -0.003216 0.000000 0.045888 0.000000
# 6 0.000000 0.000000 0.000000 -0.002936 0.000000 0.028135
#
#
# Mechanical properties :
#
#
# Convention : Reuss Voigt Hill
#
# Bulk Modulus (GPa) = 24.34780 51.00903 37.67842
# Shear Modulus (GPa) = 21.98693 28.23310 25.11001
#
# Velocity S-wave (km/s) = 3.34551 3.79105 3.57522
# Velocity P-wave (km/s) = 5.22661 6.71780 6.01857
#
# Compressibility (1/GPa) = 0.04107147
#
# Stress axis : x y z
#
# Youngs Moduli (GPa) = 89.40370 87.82917 21.24762
#
# Poissons Ratio (x) = 0.40667 0.02049
# Poissons Ratio (y) = 0.41396 0.18459
# Poissons Ratio (z) = 0.08620 0.76301
#
# Static dielectric constant tensor:
#      x y z
#    x 1.701100 0.000000 -0.005570 
#    y 0.000000 1.667350 0.000000 
#    z -0.005570 0.000000 1.700170 
# 
# From -- ./inp_files/292451.got.cif
#   From: 2010.05.17/outbox.cif.g08.bks.cpg/sg12_147_cif.got.tgz:292451.got - 2010.06.03 13:09:07.
