data_PCOD9186409
_publ_section_title
;
Structure prediction by ZEFSAII (Michael W. Deem and Ramdas Pophale) SiO2 
 PCOD9186409
Probable space group: C 2/M
;
_chemical_formula_sum "Si O2"
_cell_formula_units_Z 52
_cell_length_a 19.828579
_cell_length_b 11.724018
_cell_length_c 12.799418
_cell_angle_alpha 90.000000
_cell_angle_beta 124.776920
_cell_angle_gamma 90.000000
_cell_volume 2444.003966
_symmetry_space_group_name_H-M "C 2/M"
_symmetry_group_IT_number 12
_symmetry_cell_setting 'monoclinic'
loop_
_space_group_symop_operation_xyz
x,y,z
-x,y,-z
-x,-y,-z
x,-y,z
1/2+x,1/2+y,z
1/2-x,1/2+y,-z
1/2-x,1/2-y,-z
1/2+x,1/2-y,z
loop_
_atom_site_type_symbol
_atom_site_label
_atom_site_fract_x
_atom_site_fract_y
_atom_site_fract_z
Si Si1 0.672063 0.000000 0.689389
Si Si2 0.012704 0.761351 0.628377
Si Si3 0.845731 0.131657 0.534797
Si Si4 0.466640 0.000000 0.606081
Si Si5 0.094771 0.500000 0.855590
Si Si6 0.848639 0.749453 0.084173
Si Si7 0.095749 0.866973 0.068999
Si Si8 0.232043 0.797354 0.317960
O O1 0.723123 0.885355 0.719160
O O2 0.615688 0.000000 0.534663
O O3 0.633911 0.000000 0.771265
O O4 0.934599 0.808711 0.623590
O O5 0.001101 0.625124 0.608527
O O6 0.000000 0.809079 0.500000
O O7 0.099066 0.777414 0.764017
O O8 0.792848 0.145342 0.593862
O O9 0.792960 0.195611 0.399522
O O10 0.857738 0.000000 0.522071
O O11 0.495235 0.000000 0.752812
O O12 0.123784 0.620973 0.925307
O O13 0.750000 0.750000 0.000000
O O14 0.878179 0.840861 0.025563
O O15 0.146190 0.778818 0.185085
O O16 0.113360 0.000000 0.113039
O O17 0.000000 0.850460 0.000000
#
# Coordination Sequence:
#
# PCOD9186409 Si02
#       8
#     4   8   8   4   4   8   8   8
#     4  12  17  36  71  94 118 171 220 272 330 390
#     4  11  23  40  65  92 132 176 219 277 335 400
#     4  11  24  42  62 100 136 168 219 276 341 403
#     4  10  19  34  62  92 117 159 215 269 316 383
#     4  10  23  40  61  94 131 169 224 276 332 405
#     4  11  25  41  66 100 139 176 230 287 343 396
#     4  11  24  45  72  98 131 184 237 279 335 412
#     4  11  23  39  69  95 128 170 221 279 327 399
#
# _framework density 21.276561999999998
#
# number of rings (size 3 to 8) (size 9 to 14) (size 15 to 20)
#    0.000    1.077    3.077    4.154    3.231    2.154 
#    1.385    0.385    0.000    0.000    0.000    0.000 
#    0.000    0.000    0.000    0.000    0.000    0.000 
#
# Total GULP energy -144928.818107 kJ/mol
# GULP energy per Si atom -5574.185312 kJ/mol
# Density = 2.122814 g / cm^3
# Si number density = 21.276562 Si / 1000 Ang^3
#
#
#
# Elastic Constant Matrix: (Units=GPa)
#
#
# Indices 1 2 3 4 5 6 
#
# 1 78.7935 17.1100 22.5486 0.0000 14.6804 0.0000
# 2 17.1100 68.6597 23.3001 0.0000 5.6231 0.0000
# 3 22.5486 23.3001 134.4871 0.0000 36.5367 0.0000
# 4 0.0000 0.0000 0.0000 16.8799 0.0000 -17.7476
# 5 14.6804 5.6231 36.5367 0.0000 34.4566 0.0000
# 6 0.0000 0.0000 0.0000 -17.7476 0.0000 -4.5054
#
#
#
# Elastic Compliance Matrix: (Units=1/GPa)
#
#
# Indices 1 2 3 4 5 6 
#
# 1 0.014445 -0.003007 -0.000509 0.000000 -0.005124 0.000000
# 2 -0.003007 0.016105 -0.002697 0.000000 0.001513 0.000000
# 3 -0.000509 -0.002697 0.010970 0.000000 -0.010975 0.000000
# 4 0.000000 0.000000 0.000000 0.011522 0.000000 -0.045387
# 5 -0.005124 0.001513 -0.010975 0.000000 0.042596 0.000000
# 6 0.000000 0.000000 0.000000 -0.045387 0.000000 -0.043168
#
#
# Mechanical properties :
#
#
# Convention : Reuss Voigt Hill
#
# Bulk Modulus (GPa) = 34.37178 45.31752 39.84465
# Shear Modulus (GPa) = 67.02954 23.96501 45.49728
#
# Velocity S-wave (km/s) = 5.61893 3.35977 4.62927
# Velocity P-wave (km/s) = 7.63454 6.03293 6.88050
#
# Compressibility (1/GPa) = 0.02909364
#
# Stress axis : x y z
#
# Youngs Moduli (GPa) = 69.22955 62.09112 91.15839
#
# Poissons Ratio (x) = 0.18673 0.04638
# Poissons Ratio (y) = 0.20819 0.24586
# Poissons Ratio (z) = 0.03522 0.16746
#
# Static dielectric constant tensor:
#      x y z
#    x 1.840890 0.000000 0.007550 
#    y 0.000000 1.727480 0.000000 
#    z 0.007550 0.000000 1.851900 
# 
# From -- ./inp_files/232646.got.cif
#   From: 2010.05.17/outbox.cif.g08.bks.cpg/sg12_117_cif.got.tgz:232646.got - 2010.06.03 13:09:07.
