data_PCOD9186100
_publ_section_title
;
Structure prediction by ZEFSAII (Michael W. Deem and Ramdas Pophale) SiO2 
 PCOD9186100
Probable space group: C 2/M
;
_chemical_formula_sum "Si O2"
_cell_formula_units_Z 56
_cell_length_a 21.125970
_cell_length_b 13.130465
_cell_length_c 8.195403
_cell_angle_alpha 90.000000
_cell_angle_beta 91.776643
_cell_angle_gamma 90.000000
_cell_volume 2272.261218
_symmetry_space_group_name_H-M "C 2/M"
_symmetry_group_IT_number 12
_symmetry_cell_setting 'monoclinic'
loop_
_space_group_symop_operation_xyz
x,y,z
-x,y,-z
-x,-y,-z
x,-y,z
1/2+x,1/2+y,z
1/2-x,1/2+y,-z
1/2-x,1/2-y,-z
1/2+x,1/2-y,z
loop_
_atom_site_type_symbol
_atom_site_label
_atom_site_fract_x
_atom_site_fract_y
_atom_site_fract_z
Si Si1 0.065929 0.157373 0.963555
Si Si2 0.199772 0.110116 0.480010
Si Si3 0.462697 0.189114 0.327586
Si Si4 0.804100 0.150115 0.145544
Si Si5 0.419420 0.858088 0.842488
Si Si6 0.156067 0.335017 0.475798
Si Si7 0.815486 0.610490 0.085235
O O1 0.054839 0.215662 0.789104
O O2 0.135387 0.112706 0.951161
O O3 0.073228 0.239760 0.109006
O O4 0.000000 0.104046 0.000000
O O5 0.190734 0.109420 0.673261
O O6 0.164646 0.214664 0.430052
O O7 0.275137 0.126641 0.467788
O O8 0.180052 0.000000 0.409320
O O9 0.500000 0.215264 0.500000
O O10 0.510341 0.119910 0.222286
O O11 0.396655 0.145498 0.389965
O O12 0.807085 0.274567 0.155425
O O13 0.739406 0.117181 0.056950
O O14 0.372183 0.881229 0.691312
O O15 0.383992 0.894419 0.001990
O O16 0.806177 0.500000 0.166982
#
# Coordination Sequence:
#
# PCOD9186100 Si02
#       7
#     8   8   8   8   8   8   8
#     4   9  17  32  56  85 110 153 192 234 297 348
#     4  11  22  37  61  85 117 159 199 243 297 353
#     4   9  17  32  56  86 112 154 193 233 292 348
#     4  10  19  34  59  86 113 160 193 240 292 347
#     4   9  18  32  58  84 115 154 193 235 295 348
#     4  10  20  36  58  86 118 153 198 243 287 350
#     4  10  20  35  58  89 121 156 197 240 296 357
#
# _framework density 24.645053999999998
#
# number of rings (size 3 to 8) (size 9 to 14) (size 15 to 20)
#    0.000    2.286    2.857    0.429    0.000    0.000 
#    0.000    3.571    0.000   35.571    0.000    0.000 
#    0.000    0.000    0.000    0.000    0.000    0.000 
#
# Total GULP energy -156156.855587 kJ/mol
# GULP energy per Si atom -5577.030557 kJ/mol
# Density = 2.458896 g / cm^3
# Si number density = 24.645054 Si / 1000 Ang^3
#
#
#
# Elastic Constant Matrix: (Units=GPa)
#
#
# Indices 1 2 3 4 5 6 
#
# 1 159.8009 14.1180 25.3409 0.0000 -35.6912 0.0000
# 2 14.1180 168.7692 14.6152 0.0000 -4.2648 0.0000
# 3 25.3409 14.6152 73.4616 0.0000 -16.2184 0.0000
# 4 0.0000 0.0000 0.0000 -17.8406 0.0000 -38.1011
# 5 -35.6912 -4.2648 -16.2184 0.0000 56.0187 0.0000
# 6 0.0000 0.0000 0.0000 -38.1011 0.0000 -99.3756
#
#
#
# Elastic Compliance Matrix: (Units=1/GPa)
#
#
# Indices 1 2 3 4 5 6 
#
# 1 0.007499 -0.000383 -0.001562 0.000000 0.004296 0.000000
# 2 -0.000383 0.006049 -0.001093 0.000000 -0.000100 0.000000
# 3 -0.001562 -0.001093 0.015096 0.000000 0.003292 0.000000
# 4 0.000000 0.000000 0.000000 -0.309368 0.000000 0.118613
# 5 0.004296 -0.000100 0.003292 0.000000 0.021534 0.000000
# 6 0.000000 0.000000 0.000000 0.118613 0.000000 -0.055540
#
#
# Mechanical properties :
#
#
# Convention : Reuss Voigt Hill
#
# Bulk Modulus (GPa) = 44.31365 56.68665 50.50015
# Shear Modulus (GPa) = -16.60414 10.95768 -2.82323
#
# Velocity S-wave (km/s) = -2.59845 2.11089 -1.07147
# Velocity P-wave (km/s) = 3.00287 5.38445 4.35944
#
# Compressibility (1/GPa) = 0.02256641
#
# Stress axis : x y z
#
# Youngs Moduli (GPa) = 133.35197 165.30333 66.24402
#
# Poissons Ratio (x) = 0.06339 0.10347
# Poissons Ratio (y) = 0.05114 0.07243
# Poissons Ratio (z) = 0.20829 0.18075
#
# Static dielectric constant tensor:
#      x y z
#    x 1.979940 0.000000 -0.015810 
#    y 0.000000 2.036080 0.000000 
#    z -0.015810 0.000000 1.982290 
# 
# From -- ./inp_files/86377.got.cif
#   From: 2010.05.17/outbox.cif.g08.bks.cpg/sg12_44_cif.got.tgz:86377.got - 2010.06.03 13:09:07.
