data_PCOD9186394
_publ_section_title
;
Structure prediction by ZEFSAII (Michael W. Deem and Ramdas Pophale) SiO2 
 PCOD9186394
Probable space group: C 2/M
;
_chemical_formula_sum "Si O2"
_cell_formula_units_Z 48
_cell_length_a 15.569175
_cell_length_b 22.428721
_cell_length_c 12.142197
_cell_angle_alpha 90.000000
_cell_angle_beta 149.297170
_cell_angle_gamma 90.000000
_cell_volume 2164.889656
_symmetry_space_group_name_H-M "C 2/M"
_symmetry_group_IT_number 12
_symmetry_cell_setting 'monoclinic'
loop_
_space_group_symop_operation_xyz
x,y,z
-x,y,-z
-x,-y,-z
x,-y,z
1/2+x,1/2+y,z
1/2-x,1/2+y,-z
1/2-x,1/2-y,-z
1/2+x,1/2-y,z
loop_
_atom_site_type_symbol
_atom_site_label
_atom_site_fract_x
_atom_site_fract_y
_atom_site_fract_z
Si Si1 0.680963 0.894451 0.000096
Si Si2 0.710212 0.694363 0.309823
Si Si3 0.011115 0.500000 0.327266
Si Si4 0.117951 0.323288 0.277230
Si Si5 0.796836 0.564347 0.752650
Si Si6 0.272090 0.500000 0.796313
Si Si7 0.864008 0.127792 0.976317
O O1 0.541381 0.941790 0.800256
O O2 0.577725 0.840778 0.942017
O O3 0.791214 0.874890 0.018618
O O4 0.777900 0.925410 0.207811
O O5 0.846873 0.685586 0.554781
O O6 0.663689 0.763815 0.262418
O O7 0.749182 0.666725 0.233720
O O8 0.545070 0.658479 0.168741
O O9 0.192895 0.500000 0.586013
O O10 0.881648 0.500000 0.286188
O O11 0.224830 0.378848 0.348391
O O12 0.746501 0.500000 0.651015
O O13 0.000000 0.561776 0.000000
O O14 0.365690 0.560707 0.930895
#
# Coordination Sequence:
#
# PCOD9186394 Si02
#       7
#     8   8   4   8   8   4   8
#     4  10  19  34  62  88 109 145 192 237 284 334
#     4  10  23  41  54  81 121 155 190 230 292 343
#     4   9  16  30  55  89 117 136 179 243 283 329
#     4  10  22  39  59  82 116 153 189 241 283 341
#     4   9  18  34  59  90 112 142 188 237 288 336
#     4   9  18  33  54  83 117 146 183 231 288 328
#     4  10  22  38  59  84 113 151 189 237 286 347
#
# _framework density 22.172032000000002
#
# number of rings (size 3 to 8) (size 9 to 14) (size 15 to 20)
#    0.000    2.333    0.833    1.000    8.167    4.000 
#    3.000    0.833    0.000    1.000    0.000    0.000 
#    0.000    0.000    0.000    0.000    0.000    0.000 
#
# Total GULP energy -133968.917976 kJ/mol
# GULP energy per Si atom -5582.038249 kJ/mol
# Density = 2.212157 g / cm^3
# Si number density = 22.172032 Si / 1000 Ang^3
#
#
#
# Elastic Constant Matrix: (Units=GPa)
#
#
# Indices 1 2 3 4 5 6 
#
# 1 114.9097 32.3488 -8.7206 0.0000 -18.5958 0.0000
# 2 32.3488 142.0159 2.0582 0.0000 7.9208 0.0000
# 3 -8.7206 2.0582 22.3503 0.0000 -4.4007 0.0000
# 4 0.0000 0.0000 0.0000 96.0799 0.0000 -30.6595
# 5 -18.5958 7.9208 -4.4007 0.0000 15.7701 0.0000
# 6 0.0000 0.0000 0.0000 -30.6595 0.0000 -32.3146
#
#
#
# Elastic Compliance Matrix: (Units=1/GPa)
#
#
# Indices 1 2 3 4 5 6 
#
# 1 0.014412 -0.004675 0.010436 0.000000 0.022255 0.000000
# 2 -0.004675 0.008807 -0.004859 0.000000 -0.011292 0.000000
# 3 0.010436 -0.004859 0.055198 0.000000 0.030149 0.000000
# 4 0.000000 0.000000 0.000000 0.007989 0.000000 -0.007580
# 5 0.022255 -0.011292 0.030149 0.000000 0.103739 0.000000
# 6 0.000000 0.000000 0.000000 -0.007580 0.000000 -0.023754
#
#
# Mechanical properties :
#
#
# Convention : Reuss Voigt Hill
#
# Bulk Modulus (GPa) = 12.46566 36.73874 24.60220
# Shear Modulus (GPa) = 26.13320 32.81304 29.47312
#
# Velocity S-wave (km/s) = 3.43688 3.85116 3.64990
# Velocity P-wave (km/s) = 4.62428 6.03167 5.37425
#
# Compressibility (1/GPa) = 0.08022040
#
# Stress axis : x y z
#
# Youngs Moduli (GPa) = 69.38567 113.55038 18.11666
#
# Poissons Ratio (x) = 0.53089 -0.18906
# Poissons Ratio (y) = 0.32440 0.08802
# Poissons Ratio (z) = -0.72410 0.55170
#
# Static dielectric constant tensor:
#      x y z
#    x 1.848390 0.000000 -0.030730 
#    y 0.000000 1.837060 0.000000 
#    z -0.030730 0.000000 1.840850 
# 
# From -- ./inp_files/148040.got.cif
#   From: 2010.05.17/outbox.cif.g08.bks.cpg/sg12_75_cif.got.tgz:148040.got - 2010.06.03 13:09:07.
