data_PCOD9186284
_publ_section_title
;
Structure prediction by ZEFSAII (Michael W. Deem and Ramdas Pophale) SiO2 
 PCOD9186284
Probable space group: C 2/M
;
_chemical_formula_sum "Si O2"
_cell_formula_units_Z 64
_cell_length_a 23.724965
_cell_length_b 11.645191
_cell_length_c 12.230296
_cell_angle_alpha 90.000000
_cell_angle_beta 93.428473
_cell_angle_gamma 90.000000
_cell_volume 3372.959930
_symmetry_space_group_name_H-M "C 2/M"
_symmetry_group_IT_number 12
_symmetry_cell_setting 'monoclinic'
loop_
_space_group_symop_operation_xyz
x,y,z
-x,y,-z
-x,-y,-z
x,-y,z
1/2+x,1/2+y,z
1/2-x,1/2+y,-z
1/2-x,1/2-y,-z
1/2+x,1/2-y,z
loop_
_atom_site_type_symbol
_atom_site_label
_atom_site_fract_x
_atom_site_fract_y
_atom_site_fract_z
Si Si1 0.608941 0.126430 0.207910
Si Si2 0.561093 0.868470 0.559052
Si Si3 0.660537 0.195990 0.440974
Si Si4 0.448663 0.624916 0.079599
Si Si5 0.972982 0.631048 0.195116
Si Si6 0.750953 0.629612 0.369890
Si Si7 0.781901 0.367467 0.136299
Si Si8 0.661794 0.293814 0.035714
O O1 0.636473 0.134401 0.330890
O O2 0.541278 0.139315 0.210065
O O3 0.636287 0.219342 0.131842
O O4 0.620234 0.000000 0.162792
O O5 0.500000 0.848318 0.500000
O O6 0.606866 0.784364 0.512687
O O7 0.554091 0.865268 0.687751
O O8 0.578237 0.000000 0.531420
O O9 0.695549 0.302990 0.399318
O O10 0.705392 0.133158 0.524651
O O11 0.452776 0.500000 0.140814
O O12 0.453305 0.751091 0.135828
O O13 0.500000 0.624710 0.000000
O O14 0.388505 0.627720 0.012832
O O15 0.961069 0.500000 0.148493
O O16 0.735545 0.500000 0.341240
O O17 0.779600 0.675999 0.261778
O O18 0.800977 0.500000 0.137121
O O19 0.717895 0.357341 0.083775
O O20 0.819210 0.289791 0.061039
#
# Coordination Sequence:
#
# PCOD9186284 Si02
#       8
#     8   8   8   8   8   8   8   8
#     4  11  20  35  59  91 124 157 199 253 305 357
#     4  10  19  34  60  89 119 153 194 248 306 363
#     4  11  21  37  60  87 119 154 196 248 301 365
#     4  11  24  42  63  89 124 166 207 249 309 375
#     4  10  22  38  60  92 126 162 204 254 309 364
#     4  10  22  39  60  85 116 159 202 246 299 365
#     4  10  22  40  61  86 118 156 205 255 304 359
#     4  11  22  39  61  88 119 161 203 251 303 364
#
# _framework density 18.974433000000001
#
# number of rings (size 3 to 8) (size 9 to 14) (size 15 to 20)
#    0.000    1.500    3.750    1.875    1.750    1.250 
#    0.000    1.250    0.000    0.750    0.000    0.000 
#    0.000    0.000    0.000    0.000    0.000    0.000 
#
# Total GULP energy -178435.841120 kJ/mol
# GULP energy per Si atom -5576.120035 kJ/mol
# Density = 1.893125 g / cm^3
# Si number density = 18.974433 Si / 1000 Ang^3
#
#
#
# Elastic Constant Matrix: (Units=GPa)
#
#
# Indices 1 2 3 4 5 6 
#
# 1 84.4028 28.2929 26.2916 0.0000 -6.3385 0.0000
# 2 28.2929 96.2122 45.1853 0.0000 0.3695 0.0000
# 3 26.2916 45.1853 81.4250 0.0000 -13.2719 0.0000
# 4 0.0000 0.0000 0.0000 -43.9146 0.0000 122.8424
# 5 -6.3385 0.3695 -13.2719 0.0000 35.5559 0.0000
# 6 0.0000 0.0000 0.0000 122.8424 0.0000 -222.1626
#
#
#
# Elastic Compliance Matrix: (Units=1/GPa)
#
#
# Indices 1 2 3 4 5 6 
#
# 1 0.013720 -0.002805 -0.002630 0.000000 0.001493 0.000000
# 2 -0.002805 0.014994 -0.008009 0.000000 -0.003645 0.000000
# 3 -0.002630 -0.008009 0.018647 0.000000 0.006575 0.000000
# 4 0.000000 0.000000 0.000000 0.041650 0.000000 0.023030
# 5 0.001493 -0.003645 0.006575 0.000000 0.030883 0.000000
# 6 0.000000 0.000000 0.000000 0.023030 0.000000 0.008233
#
#
# Mechanical properties :
#
#
# Convention : Reuss Voigt Hill
#
# Bulk Modulus (GPa) = 48.84737 51.28659 50.06698
# Shear Modulus (GPa) = 30.89516 -35.28624 -2.19554
#
# Velocity S-wave (km/s) = 4.03954 -4.31707 -1.07685
# Velocity P-wave (km/s) = 6.89615 1.49617 4.98976
#
# Compressibility (1/GPa) = 0.02047193
#
# Stress axis : x y z
#
# Youngs Moduli (GPa) = 72.88828 66.69349 53.62932
#
# Poissons Ratio (x) = 0.18708 0.14104
# Poissons Ratio (y) = 0.20446 0.42952
# Poissons Ratio (z) = 0.19169 0.53415
#
# Static dielectric constant tensor:
#      x y z
#    x 1.654120 0.000000 0.026490 
#    y 0.000000 1.677970 0.000000 
#    z 0.026490 0.000000 1.668180 
# 
# From -- ./inp_files/174680.got.cif
#   From: 2010.05.17/outbox.cif.g08.bks.cpg/sg12_88_cif.got.tgz:174680.got - 2010.06.03 13:09:07.
