data_PCOD9186968
_publ_section_title
;
Structure prediction by ZEFSAII (Michael W. Deem and Ramdas Pophale) SiO2 
 PCOD9186968
Probable space group: C 2/M
;
_chemical_formula_sum "Si O2"
_cell_formula_units_Z 56
_cell_length_a 12.664540
_cell_length_b 13.022319
_cell_length_c 15.698099
_cell_angle_alpha 90.000000
_cell_angle_beta 120.308741
_cell_angle_gamma 90.000000
_cell_volume 2235.094533
_symmetry_space_group_name_H-M "C 2/M"
_symmetry_group_IT_number 12
_symmetry_cell_setting 'monoclinic'
loop_
_space_group_symop_operation_xyz
x,y,z
-x,y,-z
-x,-y,-z
x,-y,z
1/2+x,1/2+y,z
1/2-x,1/2+y,-z
1/2-x,1/2-y,-z
1/2+x,1/2-y,z
loop_
_atom_site_type_symbol
_atom_site_label
_atom_site_fract_x
_atom_site_fract_y
_atom_site_fract_z
Si Si1 0.767415 0.613542 0.616579
Si Si2 0.059715 0.110882 0.395999
Si Si3 0.285521 0.606266 0.090767
Si Si4 0.368298 0.177960 0.125129
Si Si5 0.734598 0.661752 0.314099
Si Si6 0.980169 0.338400 0.346466
Si Si7 0.526686 0.340218 0.108654
O O1 0.779092 0.500000 0.659951
O O2 0.639613 0.618936 0.514179
O O3 0.774521 0.714691 0.676772
O O4 0.880145 0.625985 0.595162
O O5 0.158528 0.115233 0.360384
O O6 0.982960 0.213844 0.352602
O O7 0.995970 0.000000 0.368355
O O8 0.248798 0.500000 0.120646
O O9 0.282662 0.724495 0.120991
O O10 0.428948 0.601238 0.127499
O O11 0.213165 0.612960 0.971855
O O12 0.429632 0.131335 0.232778
O O13 0.478707 0.225301 0.112340
O O14 0.875256 0.628638 0.368420
O O15 0.660172 0.636258 0.198034
O O16 0.500000 0.362193 0.000000
#
# Coordination Sequence:
#
# PCOD9186968 Si02
#       7
#     8   8   8   8   8   8   8
#     4  10  22  41  61  87 121 155 191 245 301 352
#     4  10  22  41  63  87 119 153 195 246 298 351
#     4   9  18  33  53  76 105 146 193 234 279 334
#     4   9  19  35  54  80 114 154 190 238 290 331
#     4  11  22  37  63  88 118 156 201 237 295 352
#     4  11  21  38  61  88 118 159 192 243 293 352
#     4  10  19  35  57  80 118 152 189 239 285 335
#
# _framework density 25.054870000000001
#
# number of rings (size 3 to 8) (size 9 to 14) (size 15 to 20)
#    0.857    1.143    2.857    2.571    0.000    6.571 
#    0.000    4.286    0.000    0.857    0.000    0.000 
#    0.000    0.000    0.000    0.000    0.000    0.000 
#
# Total GULP energy -156260.213703 kJ/mol
# GULP energy per Si atom -5580.721918 kJ/mol
# Density = 2.499784 g / cm^3
# Si number density = 25.054870 Si / 1000 Ang^3
#
#
#
# Elastic Constant Matrix: (Units=GPa)
#
#
# Indices 1 2 3 4 5 6 
#
# 1 87.4553 -6.9409 -2.3932 0.0000 20.0883 0.0000
# 2 -6.9409 113.4445 9.0457 0.0000 5.3429 0.0000
# 3 -2.3932 9.0457 87.3027 0.0000 10.4242 0.0000
# 4 0.0000 0.0000 0.0000 213.8156 0.0000 -74.0715
# 5 20.0883 5.3429 10.4242 0.0000 32.4037 0.0000
# 6 0.0000 0.0000 0.0000 -74.0715 0.0000 37.2507
#
#
#
# Elastic Compliance Matrix: (Units=1/GPa)
#
#
# Indices 1 2 3 4 5 6 
#
# 1 0.013649 0.001156 0.001339 0.000000 -0.009083 0.000000
# 2 0.001156 0.009033 -0.000666 0.000000 -0.001992 0.000000
# 3 0.001339 -0.000666 0.012111 0.000000 -0.004616 0.000000
# 4 0.000000 0.000000 0.000000 0.015031 0.000000 0.029889
# 5 -0.009083 -0.001992 -0.004616 0.000000 0.038305 0.000000
# 6 0.000000 0.000000 0.000000 0.029889 0.000000 0.086279
#
#
# Mechanical properties :
#
#
# Convention : Reuss Voigt Hill
#
# Bulk Modulus (GPa) = 26.00757 31.95843 28.98300
# Shear Modulus (GPa) = 27.23782 75.92672 51.58227
#
# Velocity S-wave (km/s) = 3.30074 5.51089 4.54229
# Velocity P-wave (km/s) = 4.99292 7.29907 6.25322
#
# Compressibility (1/GPa) = 0.03845034
#
# Stress axis : x y z
#
# Youngs Moduli (GPa) = 73.26462 110.71060 82.56715
#
# Poissons Ratio (x) = -0.12799 -0.11055
# Poissons Ratio (y) = -0.08470 0.05502
# Poissons Ratio (z) = -0.09809 0.07378
#
# Static dielectric constant tensor:
#      x y z
#    x 2.005850 0.000000 -0.004710 
#    y 0.000000 2.142120 0.000000 
#    z -0.004710 0.000000 1.924580 
# 
# From -- ./inp_files/270413.got.cif
#   From: 2010.05.17/outbox.cif.g08.bks.cpg/sg12_136_cif.got.tgz:270413.got - 2010.06.03 13:09:07.
