data_PCOD9186273
_publ_section_title
;
Structure prediction by ZEFSAII (Michael W. Deem and Ramdas Pophale) SiO2 
 PCOD9186273
Probable space group: C 2/M
;
_chemical_formula_sum "Si O2"
_cell_formula_units_Z 50
_cell_length_a 15.005353
_cell_length_b 8.669797
_cell_length_c 17.874191
_cell_angle_alpha 90.000000
_cell_angle_beta 73.620124
_cell_angle_gamma 90.000000
_cell_volume 2230.936330
_symmetry_space_group_name_H-M "C 2/M"
_symmetry_group_IT_number 12
_symmetry_cell_setting 'monoclinic'
loop_
_space_group_symop_operation_xyz
x,y,z
-x,y,-z
-x,-y,-z
x,-y,z
1/2+x,1/2+y,z
1/2-x,1/2+y,-z
1/2-x,1/2-y,-z
1/2+x,1/2-y,z
loop_
_atom_site_type_symbol
_atom_site_label
_atom_site_fract_x
_atom_site_fract_y
_atom_site_fract_z
Si Si1 0.917375 0.182302 0.700619
Si Si2 0.807814 0.683767 0.868567
Si Si3 0.500000 0.000000 0.500000
Si Si4 0.895878 0.328625 0.399085
Si Si5 0.638093 0.686305 0.817739
Si Si6 0.739515 0.816414 0.357264
Si Si7 0.544860 0.314471 0.068398
O O1 0.870555 0.266430 0.782434
O O2 0.854558 0.231714 0.644263
O O3 0.021654 0.237633 0.661646
O O4 0.914280 0.000000 0.713622
O O5 0.805730 0.500000 0.873808
O O6 0.704959 0.738773 0.869642
O O7 0.856625 0.750005 0.930082
O O8 0.563551 0.131765 0.528791
O O9 0.883929 0.500000 0.367052
O O10 0.799457 0.239601 0.413086
O O11 0.634339 0.500000 0.822830
O O12 0.690297 0.720197 0.728583
O O13 0.533312 0.739121 0.853381
O O14 0.720985 0.000000 0.363930
O O15 0.552381 0.500000 0.067331
O O16 0.500000 0.270363 0.000000
#
# Coordination Sequence:
#
# PCOD9186273 Si02
#       7
#     8   8   2   8   8   8   8
#     4  11  21  35  60  90 115 145 188 241 295 345
#     4  10  20  35  54  79 109 143 186 241 292 337
#     4   8  24  40  62  80 124 154 192 224 268 332
#     4  10  20  39  60  81 119 152 186 228 277 331
#     4   8  17  33  51  76 109 140 178 229 284 334
#     4  10  19  34  60  89 114 147 192 243 291 337
#     4  10  20  34  52  75 109 152 193 231 285 354
#
# _framework density 22.412115
#
# number of rings (size 3 to 8) (size 9 to 14) (size 15 to 20)
#    0.480    1.760    0.000    4.800    0.000    2.240 
#    0.000    6.400    0.000    0.000    0.000    0.000 
#    0.000    0.000    0.000    0.000    0.000    0.000 
#
# Total GULP energy -139334.949138 kJ/mol
# GULP energy per Si atom -5573.397966 kJ/mol
# Density = 2.236110 g / cm^3
# Si number density = 22.412115 Si / 1000 Ang^3
#
#
#
# Elastic Constant Matrix: (Units=GPa)
#
#
# Indices 1 2 3 4 5 6 
#
# 1 115.7880 6.2382 14.9114 0.0000 25.2020 0.0000
# 2 6.2382 31.8500 -4.6142 0.0000 9.9109 0.0000
# 3 14.9114 -4.6142 46.2989 0.0000 13.2379 0.0000
# 4 0.0000 0.0000 0.0000 19.9096 0.0000 16.7125
# 5 25.2020 9.9109 13.2379 0.0000 37.0004 0.0000
# 6 0.0000 0.0000 0.0000 16.7125 0.0000 36.3930
#
#
#
# Elastic Compliance Matrix: (Units=1/GPa)
#
#
# Indices 1 2 3 4 5 6 
#
# 1 0.010228 -0.000239 -0.001498 0.000000 -0.006367 0.000000
# 2 -0.000239 0.036246 0.007150 0.000000 -0.012104 0.000000
# 3 -0.001498 0.007150 0.025676 0.000000 -0.010082 0.000000
# 4 0.000000 0.000000 0.000000 0.081734 0.000000 -0.037534
# 5 -0.006367 -0.012104 -0.010082 0.000000 0.038213 0.000000
# 6 0.000000 0.000000 0.000000 -0.037534 0.000000 0.044714
#
#
# Mechanical properties :
#
#
# Convention : Reuss Voigt Hill
#
# Bulk Modulus (GPa) = 12.05137 25.22305 18.63721
# Shear Modulus (GPa) = 19.71272 30.48736 25.10004
#
# Velocity S-wave (km/s) = 2.96895 3.69224 3.35017
# Velocity P-wave (km/s) = 4.14026 5.42729 4.82686
#
# Compressibility (1/GPa) = 0.08297814
#
# Stress axis : x y z
#
# Youngs Moduli (GPa) = 97.77107 27.58891 38.94642
#
# Poissons Ratio (x) = 0.00659 0.05832
# Poissons Ratio (y) = 0.02337 -0.27848
# Poissons Ratio (z) = 0.14641 -0.19727
#
# Static dielectric constant tensor:
#      x y z
#    x 1.830000 0.000000 0.016660 
#    y 0.000000 1.745380 0.000000 
#    z 0.016660 0.000000 1.938560 
# 
# From -- ./inp_files/308368.got.cif
#   From: 2010.05.17/outbox.cif.g08.bks.cpg/sg12_155_cif.got.tgz:308368.got - 2010.06.03 13:09:07.
