data_PCOD9186427
_publ_section_title
;
Structure prediction by ZEFSAII (Michael W. Deem and Ramdas Pophale) SiO2 
 PCOD9186427
Probable space group: C 2/M
;
_chemical_formula_sum "Si O2"
_cell_formula_units_Z 28
_cell_length_a 9.613471
_cell_length_b 10.256195
_cell_length_c 11.753775
_cell_angle_alpha 90.000000
_cell_angle_beta 102.181934
_cell_angle_gamma 90.000000
_cell_volume 1132.798967
_symmetry_space_group_name_H-M "C 2/M"
_symmetry_group_IT_number 12
_symmetry_cell_setting 'monoclinic'
loop_
_space_group_symop_operation_xyz
x,y,z
-x,y,-z
-x,-y,-z
x,-y,z
1/2+x,1/2+y,z
1/2-x,1/2+y,-z
1/2-x,1/2-y,-z
1/2+x,1/2-y,z
loop_
_atom_site_type_symbol
_atom_site_label
_atom_site_fract_x
_atom_site_fract_y
_atom_site_fract_z
Si Si1 0.381614 0.785191 0.387643
Si Si2 0.370697 0.500000 0.392261
Si Si3 0.945133 0.000000 0.133374
Si Si4 0.141959 0.500000 0.098146
Si Si5 0.105397 0.231434 0.227788
O O1 0.500000 0.831758 0.500000
O O2 0.312265 0.643405 0.410869
O O3 0.235944 0.843971 0.313570
O O4 0.483403 0.766577 0.297070
O O5 0.500000 0.500000 0.500000
O O6 0.413790 0.500000 0.266839
O O7 0.788752 0.000000 0.053794
O O8 0.034880 0.870805 0.130077
O O9 0.145225 0.366887 0.173034
O O10 0.000000 0.500000 0.000000
#
# Coordination Sequence:
#
# PCOD9186427 Si02
#       5
#     8   4   4   4   8
#     4  10  19  34  63 100 136 174 211 254 322 395
#     4   8  14  30  56  84 126 171 195 241 314 376
#     4  10  22  43  62  96 133 164 217 274 323 378
#     4  12  26  47  69  92 127 176 223 279 339 381
#     4  11  21  43  67  96 138 171 216 271 318 392
#
# _framework density 24.717535000000002
#
# number of rings (size 3 to 8) (size 9 to 14) (size 15 to 20)
#    0.000    1.714    5.714    0.857    0.000    2.286 
#    0.000    2.143    0.000    0.000    0.000    0.000 
#    0.000    0.000    0.000    0.000    0.000    0.000 
#
# Total GULP energy -77972.420800 kJ/mol
# GULP energy per Si atom -5569.458629 kJ/mol
# Density = 2.466128 g / cm^3
# Si number density = 24.717535 Si / 1000 Ang^3
#
#
#
# Elastic Constant Matrix: (Units=GPa)
#
#
# Indices 1 2 3 4 5 6 
#
# 1 116.2748 27.9309 42.9692 0.0000 36.1322 0.0000
# 2 27.9309 139.6700 16.5568 0.0000 13.4041 0.0000
# 3 42.9692 16.5568 143.0665 0.0000 41.0386 0.0000
# 4 0.0000 0.0000 0.0000 2.0045 0.0000 5.9056
# 5 36.1322 13.4041 41.0386 0.0000 54.0623 0.0000
# 6 0.0000 0.0000 0.0000 5.9056 0.0000 32.2147
#
#
#
# Elastic Compliance Matrix: (Units=1/GPa)
#
#
# Indices 1 2 3 4 5 6 
#
# 1 0.011420 -0.001519 -0.001499 0.000000 -0.006118 0.000000
# 2 -0.001519 0.007556 -0.000220 0.000000 -0.000691 0.000000
# 3 -0.001499 -0.000220 0.009156 0.000000 -0.005894 0.000000
# 4 0.000000 0.000000 0.000000 1.084752 0.000000 -0.198856
# 5 -0.006118 -0.000691 -0.005894 0.000000 0.027232 0.000000
# 6 0.000000 0.000000 0.000000 -0.198856 0.000000 0.067496
#
#
# Mechanical properties :
#
#
# Convention : Reuss Voigt Hill
#
# Bulk Modulus (GPa) = 46.17635 63.76945 54.97290
# Shear Modulus (GPa) = 4.09398 38.42657 21.26027
#
# Velocity S-wave (km/s) = 1.28837 3.94715 2.93598
# Velocity P-wave (km/s) = 4.57552 6.82852 5.81223
#
# Compressibility (1/GPa) = 0.02165611
#
# Stress axis : x y z
#
# Youngs Moduli (GPa) = 87.56233 132.34687 109.21588
#
# Poissons Ratio (x) = 0.20103 0.16375
# Poissons Ratio (y) = 0.13300 0.02402
# Poissons Ratio (z) = 0.13128 0.02911
#
# Static dielectric constant tensor:
#      x y z
#    x 1.942310 0.000000 -0.004630 
#    y 0.000000 2.208170 0.000000 
#    z -0.004630 0.000000 2.105810 
# 
# From -- ./inp_files/192914.got.cif
#   From: 2010.05.17/outbox.cif.g08.bks.cpg/sg12_97_cif.got.tgz:192914.got - 2010.06.03 13:09:07.
