data_PCOD9186816
_publ_section_title
;
Structure prediction by ZEFSAII (Michael W. Deem and Ramdas Pophale) SiO2 
 PCOD9186816
Probable space group: C 2/M
;
_chemical_formula_sum "Si O2"
_cell_formula_units_Z 48
_cell_length_a 9.471458
_cell_length_b 16.858607
_cell_length_c 12.839831
_cell_angle_alpha 90.000000
_cell_angle_beta 93.405129
_cell_angle_gamma 90.000000
_cell_volume 2046.587956
_symmetry_space_group_name_H-M "C 2/M"
_symmetry_group_IT_number 12
_symmetry_cell_setting 'monoclinic'
loop_
_space_group_symop_operation_xyz
x,y,z
-x,y,-z
-x,-y,-z
x,-y,z
1/2+x,1/2+y,z
1/2-x,1/2+y,-z
1/2-x,1/2-y,-z
1/2+x,1/2-y,z
loop_
_atom_site_type_symbol
_atom_site_label
_atom_site_fract_x
_atom_site_fract_y
_atom_site_fract_z
Si Si1 0.474891 0.227358 0.329365
Si Si2 0.942511 0.261443 0.882282
Si Si3 0.134555 0.414829 0.427261
Si Si4 0.202281 0.147287 0.385676
Si Si5 0.162636 0.585457 0.043461
Si Si6 0.165266 0.086487 0.164547
O O1 0.447923 0.218339 0.204656
O O2 0.590137 0.158313 0.354832
O O3 0.331138 0.210853 0.383899
O O4 0.553954 0.307287 0.368166
O O5 0.828019 0.333511 0.888682
O O6 0.903484 0.172735 0.848095
O O7 0.000000 0.254126 0.000000
O O8 0.147056 0.500000 0.374271
O O9 0.230911 0.102125 0.493966
O O10 0.000000 0.419250 0.500000
O O11 0.227475 0.092258 0.284702
O O12 0.196206 0.500000 0.096291
O O13 0.243204 0.587459 0.937123
O O14 0.000000 0.583363 0.000000
O O15 0.088992 0.000000 0.157253
#
# Coordination Sequence:
#
# PCOD9186816 Si02
#       6
#     8   8   8   8   8   8
#     4  10  21  34  55  80 108 140 178 223 270 324
#     4  10  20  34  51  73 105 143 180 225 275 326
#     4   9  18  33  55  82 109 138 176 223 271 323
#     4  10  19  35  56  81 108 140 178 223 273 326
#     4   9  17  29  46  70  98 128 166 215 267 315
#     4  10  20  33  52  76 103 140 185 227 269 324
#
# _framework density 23.453669999999999
#
# number of rings (size 3 to 8) (size 9 to 14) (size 15 to 20)
#    0.000    2.333    0.000    3.500    0.000    3.000 
#    0.000    0.000    0.000    6.000    0.000    0.000 
#    0.000    0.000    0.000    0.000    0.000    0.000 
#
# Total GULP energy -133665.400292 kJ/mol
# GULP energy per Si atom -5569.391679 kJ/mol
# Density = 2.340029 g / cm^3
# Si number density = 23.453670 Si / 1000 Ang^3
#
#
#
# Elastic Constant Matrix: (Units=GPa)
#
#
# Indices 1 2 3 4 5 6 
#
# 1 18.3942 15.9504 0.0383 0.0000 2.1335 0.0000
# 2 15.9504 157.3576 5.5183 0.0000 3.7910 0.0000
# 3 0.0383 5.5183 51.3335 0.0000 11.8539 0.0000
# 4 0.0000 0.0000 0.0000 -7.8732 0.0000 1.1014
# 5 2.1335 3.7910 11.8539 0.0000 21.6957 0.0000
# 6 0.0000 0.0000 0.0000 1.1014 0.0000 16.1907
#
#
#
# Elastic Compliance Matrix: (Units=1/GPa)
#
#
# Indices 1 2 3 4 5 6 
#
# 1 0.060286 -0.006037 0.001979 0.000000 -0.005955 0.000000
# 2 -0.006037 0.006997 -0.000689 0.000000 -0.000252 0.000000
# 3 0.001979 -0.000689 0.022396 0.000000 -0.012311 0.000000
# 4 0.000000 0.000000 0.000000 -0.125815 0.000000 0.008559
# 5 -0.005955 -0.000252 -0.012311 0.000000 0.053448 0.000000
# 6 0.000000 0.000000 0.000000 0.008559 0.000000 0.061181
#
#
# Mechanical properties :
#
#
# Convention : Reuss Voigt Hill
#
# Bulk Modulus (GPa) = 12.47116 30.01102 21.24109
# Shear Modulus (GPa) = 43.58580 19.70785 31.64683
#
# Velocity S-wave (km/s) = 4.31557 2.90192 3.67731
# Velocity P-wave (km/s) = 5.49191 4.90427 5.20639
#
# Compressibility (1/GPa) = 0.08018503
#
# Stress axis : x y z
#
# Youngs Moduli (GPa) = 16.58748 142.91579 44.65117
#
# Poissons Ratio (x) = 0.86276 -0.08837
# Poissons Ratio (y) = 0.10014 0.03078
# Poissons Ratio (z) = -0.03283 0.09853
#
# Static dielectric constant tensor:
#      x y z
#    x 1.907550 0.000000 -0.021960 
#    y 0.000000 2.009360 0.000000 
#    z -0.021960 0.000000 1.420380 
# 
# From -- ./inp_files/204370.got.cif
#   From: 2010.05.17/outbox.cif.g08.bks.cpg/sg12_103_cif.got.tgz:204370.got - 2010.06.03 13:09:07.
