data_PCOD9186187
_publ_section_title
;
Structure prediction by ZEFSAII (Michael W. Deem and Ramdas Pophale) SiO2 
 PCOD9186187
Probable space group: C 2/M
;
_chemical_formula_sum "Si O2"
_cell_formula_units_Z 48
_cell_length_a 27.006876
_cell_length_b 11.509450
_cell_length_c 15.291468
_cell_angle_alpha 90.000000
_cell_angle_beta 25.794697
_cell_angle_gamma 90.000000
_cell_volume 2068.306335
_symmetry_space_group_name_H-M "C 2/M"
_symmetry_group_IT_number 12
_symmetry_cell_setting 'monoclinic'
loop_
_space_group_symop_operation_xyz
x,y,z
-x,y,-z
-x,-y,-z
x,-y,z
1/2+x,1/2+y,z
1/2-x,1/2+y,-z
1/2-x,1/2-y,-z
1/2+x,1/2-y,z
loop_
_atom_site_type_symbol
_atom_site_label
_atom_site_fract_x
_atom_site_fract_y
_atom_site_fract_z
Si Si1 0.027060 0.722730 0.213743
Si Si2 0.666230 0.371278 0.566609
Si Si3 0.409696 0.781787 0.571614
Si Si4 0.279196 0.368141 0.009894
Si Si5 0.873537 0.134317 0.179240
Si Si6 0.787771 0.673451 0.203868
O O1 0.925084 0.777137 0.319746
O O2 0.973638 0.666835 0.385678
O O3 0.104405 0.828713 0.128100
O O4 0.109299 0.642635 0.023989
O O5 0.611361 0.500000 0.653918
O O6 0.697548 0.352273 0.618107
O O7 0.764688 0.377167 0.336707
O O8 0.500000 0.741383 0.500000
O O9 0.323576 0.867020 0.757237
O O10 0.329937 0.677679 0.661646
O O11 0.287261 0.500000 0.959231
O O12 0.250000 0.250000 0.000000
O O13 0.819370 0.196349 0.183445
O O14 0.884467 0.000000 0.142464
O O15 0.000000 0.181000 0.000000
#
# Coordination Sequence:
#
# PCOD9186187 Si02
#       6
#     8   8   8   8   8   8
#     4  10  20  39  61  89 120 163 207 254 309 376
#     4  10  20  36  60  89 121 157 200 250 305 369
#     4  10  21  40  62  89 124 160 210 257 313 375
#     4  11  23  41  65  91 123 165 215 265 318 378
#     4  10  19  34  59  90 117 152 204 253 304 367
#     4  10  21  34  61  91 121 156 202 253 308 363
#
# _framework density 23.207394000000001
#
# number of rings (size 3 to 8) (size 9 to 14) (size 15 to 20)
#    0.000    1.833    3.333    1.000    0.000    3.000 
#    0.000   10.000    0.000    1.500    0.000    0.000 
#    0.000    0.000    0.000    0.000    0.000    0.000 
#
# Total GULP energy -133788.335350 kJ/mol
# GULP energy per Si atom -5574.513973 kJ/mol
# Density = 2.315457 g / cm^3
# Si number density = 23.207394 Si / 1000 Ang^3
#
#
#
# Elastic Constant Matrix: (Units=GPa)
#
#
# Indices 1 2 3 4 5 6 
#
# 1 105.6691 24.3065 24.3220 0.0000 7.4355 0.0000
# 2 24.3065 80.2226 17.1388 0.0000 4.6727 0.0000
# 3 24.3220 17.1388 151.3915 0.0000 28.6596 0.0000
# 4 0.0000 0.0000 0.0000 4.7756 0.0000 -0.4573
# 5 7.4355 4.6727 28.6596 0.0000 44.7375 0.0000
# 6 0.0000 0.0000 0.0000 -0.4573 0.0000 6.7283
#
#
#
# Elastic Compliance Matrix: (Units=1/GPa)
#
#
# Indices 1 2 3 4 5 6 
#
# 1 0.010452 -0.002866 -0.001232 0.000000 -0.000649 0.000000
# 2 -0.002866 0.013569 -0.001021 0.000000 -0.000287 0.000000
# 3 -0.001232 -0.001021 0.007807 0.000000 -0.004690 0.000000
# 4 0.000000 0.000000 0.000000 0.210769 0.000000 0.014325
# 5 -0.000649 -0.000287 -0.004690 0.000000 0.025495 0.000000
# 6 0.000000 0.000000 0.000000 0.014325 0.000000 0.149599
#
#
# Mechanical properties :
#
#
# Convention : Reuss Voigt Hill
#
# Bulk Modulus (GPa) = 46.32031 52.09088 49.20559
# Shear Modulus (GPa) = 11.49098 29.34934 20.42016
#
# Velocity S-wave (km/s) = 2.22759 3.56006 2.96953
# Velocity P-wave (km/s) = 5.15935 6.27640 5.74509
#
# Compressibility (1/GPa) = 0.02158880
#
# Stress axis : x y z
#
# Youngs Moduli (GPa) = 95.67618 73.69994 128.09448
#
# Poissons Ratio (x) = 0.21121 0.15781
# Poissons Ratio (y) = 0.27419 0.13084
# Poissons Ratio (z) = 0.11787 0.07528
#
# Static dielectric constant tensor:
#      x y z
#    x 1.883870 0.000000 0.024100 
#    y 0.000000 1.916840 0.000000 
#    z 0.024100 0.000000 1.973960 
# 
# From -- ./inp_files/245830.got.cif
#   From: 2010.05.17/outbox.cif.g08.bks.cpg/sg12_123_cif.got.tgz:245830.got - 2010.06.03 13:09:07.
