data_PCOD9186257
_publ_section_title
;
Structure prediction by ZEFSAII (Michael W. Deem and Ramdas Pophale) SiO2 
 PCOD9186257
Probable space group: C 2/M
;
_chemical_formula_sum "Si O2"
_cell_formula_units_Z 44
_cell_length_a 15.840124
_cell_length_b 12.845257
_cell_length_c 10.146511
_cell_angle_alpha 90.000000
_cell_angle_beta 53.952742
_cell_angle_gamma 90.000000
_cell_volume 1669.226496
_symmetry_space_group_name_H-M "C 2/M"
_symmetry_group_IT_number 12
_symmetry_cell_setting 'monoclinic'
loop_
_space_group_symop_operation_xyz
x,y,z
-x,y,-z
-x,-y,-z
x,-y,z
1/2+x,1/2+y,z
1/2-x,1/2+y,-z
1/2-x,1/2-y,-z
1/2+x,1/2-y,z
loop_
_atom_site_type_symbol
_atom_site_label
_atom_site_fract_x
_atom_site_fract_y
_atom_site_fract_z
Si Si1 0.000000 0.766670 0.000000
Si Si2 0.031586 0.380217 0.750463
Si Si3 0.739722 0.343768 0.340219
Si Si4 0.025680 0.171565 0.624829
Si Si5 0.802358 0.859969 0.923639
Si Si6 0.790129 0.886342 0.233109
O O1 0.965025 0.683054 0.921432
O O2 0.091633 0.841005 0.866190
O O3 0.001806 0.500000 0.756572
O O4 0.149728 0.374986 0.699588
O O5 0.023083 0.297347 0.641330
O O6 0.643941 0.369444 0.526217
O O7 0.729684 0.385575 0.198739
O O8 0.730738 0.217579 0.334285
O O9 0.000000 0.142597 0.500000
O O10 0.928766 0.131895 0.799909
O O11 0.750000 0.750000 0.000000
O O12 0.771418 0.903236 0.094407
O O13 0.770964 0.000000 0.312120
#
# Coordination Sequence:
#
# PCOD9186257 Si02
#       6
#     4   8   8   8   8   8
#     4  10  20  38  56  86 122 148 200 250 302 342
#     4  11  22  37  60  89 120 160 202 244 303 367
#     4   9  21  37  59  85 127 157 194 253 305 353
#     4  10  20  39  63  84 121 163 197 248 306 353
#     4   9  18  37  59  84 118 159 196 242 299 351
#     4  10  19  34  60  87 116 156 202 245 296 356
#
# _framework density 26.359514999999998
#
# number of rings (size 3 to 8) (size 9 to 14) (size 15 to 20)
#    0.000    2.182    1.818    1.091    0.000    1.818 
#    0.000    8.182    0.000    3.273    0.000    0.000 
#    0.000    0.000    0.000    0.000    0.000    0.000 
#
# Total GULP energy -122644.687349 kJ/mol
# GULP energy per Si atom -5574.758516 kJ/mol
# Density = 2.629952 g / cm^3
# Si number density = 26.359515 Si / 1000 Ang^3
#
#
#
# Elastic Constant Matrix: (Units=GPa)
#
#
# Indices 1 2 3 4 5 6 
#
# 1 61.2418 -1.2212 9.4544 0.0000 -11.1878 0.0000
# 2 -1.2212 171.2520 -2.8939 0.0000 0.6775 0.0000
# 3 9.4544 -2.8939 98.8746 0.0000 -6.0103 0.0000
# 4 0.0000 0.0000 0.0000 3.0281 0.0000 139.5244
# 5 -11.1878 0.6775 -6.0103 0.0000 30.0214 0.0000
# 6 0.0000 0.0000 0.0000 139.5244 0.0000 2304.4957
#
#
#
# Elastic Compliance Matrix: (Units=1/GPa)
#
#
# Indices 1 2 3 4 5 6 
#
# 1 0.017688 0.000079 -0.001304 0.000000 0.006329 0.000000
# 2 0.000079 0.005843 0.000159 0.000000 -0.000071 0.000000
# 3 -0.001304 0.000159 0.010339 0.000000 0.001580 0.000000
# 4 0.000000 0.000000 0.000000 -0.184525 0.000000 0.011172
# 5 0.006329 -0.000071 0.001580 0.000000 0.035986 0.000000
# 6 0.000000 0.000000 0.000000 0.011172 0.000000 -0.000242
#
#
# Mechanical properties :
#
#
# Convention : Reuss Voigt Hill
#
# Bulk Modulus (GPa) = 31.50819 38.00520 34.75669
# Shear Modulus (GPa) = -48.92340 489.24431 220.16046
#
# Velocity S-wave (km/s) = -4.31281 13.63845 9.14896
# Velocity P-wave (km/s) = 3.58068 16.20059 11.17224
#
# Compressibility (1/GPa) = 0.03173778
#
# Stress axis : x y z
#
# Youngs Moduli (GPa) = 56.53623 171.14845 96.71876
#
# Poissons Ratio (x) = -0.01353 0.12615
# Poissons Ratio (y) = -0.00447 -0.01539
# Poissons Ratio (z) = 0.07374 -0.02724
#
# Static dielectric constant tensor:
#      x y z
#    x 2.143250 0.000000 0.010330 
#    y 0.000000 2.169310 0.000000 
#    z 0.010330 0.000000 2.098450 
# 
# From -- ./inp_files/175119.got.cif
#   From: 2010.05.17/outbox.cif.g08.bks.cpg/sg12_88_cif.got.tgz:175119.got - 2010.06.03 13:09:07.
