data_PCOD9186095
_publ_section_title
;
Structure prediction by ZEFSAII (Michael W. Deem and Ramdas Pophale) SiO2 
 PCOD9186095
Probable space group: C 2/M
;
_chemical_formula_sum "Si O2"
_cell_formula_units_Z 56
_cell_length_a 21.043256
_cell_length_b 8.008740
_cell_length_c 18.112955
_cell_angle_alpha 90.000000
_cell_angle_beta 63.275083
_cell_angle_gamma 90.000000
_cell_volume 2726.487048
_symmetry_space_group_name_H-M "C 2/M"
_symmetry_group_IT_number 12
_symmetry_cell_setting 'monoclinic'
loop_
_space_group_symop_operation_xyz
x,y,z
-x,y,-z
-x,-y,-z
x,-y,z
1/2+x,1/2+y,z
1/2-x,1/2+y,-z
1/2-x,1/2-y,-z
1/2+x,1/2-y,z
loop_
_atom_site_type_symbol
_atom_site_label
_atom_site_fract_x
_atom_site_fract_y
_atom_site_fract_z
Si Si1 0.810488 0.314562 0.914103
Si Si2 0.669009 0.300862 0.526829
Si Si3 0.907241 0.297083 0.740131
Si Si4 0.921579 0.700928 0.565255
Si Si5 0.088823 0.803365 0.020880
Si Si6 0.419470 0.305334 0.134540
Si Si7 0.064669 0.202736 0.711446
O O1 0.788458 0.500000 0.904645
O O2 0.841482 0.231081 0.823930
O O3 0.750000 0.250000 0.000000
O O4 0.877930 0.306601 0.932988
O O5 0.665730 0.500000 0.530350
O O6 0.750000 0.250000 0.500000
O O7 0.636820 0.244659 0.465427
O O8 0.616304 0.237686 0.619117
O O9 0.903877 0.500000 0.743054
O O10 0.904895 0.239373 0.656657
O O11 0.983517 0.249603 0.735056
O O12 0.925685 0.500000 0.566509
O O13 0.000000 0.763109 0.500000
O O14 0.110474 0.740300 0.927773
O O15 0.109721 0.000000 0.017822
O O16 0.004286 0.801548 0.076381
O O17 0.397351 0.500000 0.148447
O O18 0.409627 0.233820 0.221465
O O19 0.066742 0.000000 0.713559
#
# Coordination Sequence:
#
# PCOD9186095 Si02
#       7
#     8   8   8   8   8   8   8
#     4  11  23  38  55  78 112 150 191 237 290 344
#     4  11  24  40  60  87 122 160 197 241 297 357
#     4  10  21  37  59  87 113 147 193 242 293 350
#     4  10  20  38  65  91 119 154 196 246 301 358
#     4   9  16  31  55  78 105 140 178 221 273 331
#     4   8  15  29  53  82 106 134 175 221 270 326
#     4  10  19  34  59  86 111 146 191 237 284 345
#
# _framework density 20.539252000000001
#
# number of rings (size 3 to 8) (size 9 to 14) (size 15 to 20)
#    0.000    2.143    2.857    1.714    0.000    2.000 
#    2.571    2.143    0.000    0.000    0.000    0.000 
#    0.000    0.000    0.000    0.000    0.000    0.000 
#
# Total GULP energy -156056.465704 kJ/mol
# GULP energy per Si atom -5573.445204 kJ/mol
# Density = 2.049250 g / cm^3
# Si number density = 20.539252 Si / 1000 Ang^3
#
#
#
# Elastic Constant Matrix: (Units=GPa)
#
#
# Indices 1 2 3 4 5 6 
#
# 1 57.0988 -3.6100 49.9255 0.0000 3.5366 -0.0001
# 2 -3.6100 16.3007 13.6379 -0.0001 -4.3449 -0.0002
# 3 49.9255 13.6379 201.7798 0.0000 12.2463 0.0000
# 4 0.0000 -0.0001 0.0000 10.5608 0.0000 -1.9243
# 5 3.5366 -4.3449 12.2463 0.0000 41.9215 0.0000
# 6 -0.0001 -0.0002 0.0000 -1.9243 0.0000 26.0676
#
#
#
# Elastic Compliance Matrix: (Units=1/GPa)
#
#
# Indices 1 2 3 4 5 6 
#
# 1 0.024103 0.011325 -0.006798 0.000000 0.001126 0.000000
# 2 0.011325 0.073214 -0.008300 0.000001 0.009058 0.000001
# 3 -0.006798 -0.008300 0.007346 0.000000 -0.002433 0.000000
# 4 0.000000 0.000001 0.000000 0.095980 0.000000 0.007085
# 5 0.001126 0.009058 -0.002433 0.000000 0.025409 0.000000
# 6 0.000000 0.000001 0.000000 0.007085 0.000000 0.038885
#
#
# Mechanical properties :
#
#
# Convention : Reuss Voigt Hill
#
# Bulk Modulus (GPa) = 10.29666 43.89845 27.09756
# Shear Modulus (GPa) = 16.40119 30.05837 23.22978
#
# Velocity S-wave (km/s) = 2.82889 3.82967 3.36667
# Velocity P-wave (km/s) = 3.96159 6.40113 5.32300
#
# Compressibility (1/GPa) = 0.09711888
#
# Stress axis : x y z
#
# Youngs Moduli (GPa) = 41.48794 13.65857 136.12012
#
# Poissons Ratio (x) = -0.15469 0.92529
# Poissons Ratio (y) = -0.46987 1.12984
# Poissons Ratio (z) = 0.28202 0.11337
#
# Static dielectric constant tensor:
#      x y z
#    x 1.786190 0.000000 -0.032070 
#    y 0.000000 1.756770 0.000000 
#    z -0.032070 0.000000 1.819880 
# 
# From -- ./inp_files/280936.got.cif
#   From: 2010.05.17/outbox.cif.g08.bks.cpg/sg12_141_cif.got.tgz:280936.got - 2010.06.03 13:09:07.
