data_PCOD9186173
_publ_section_title
;
Structure prediction by ZEFSAII (Michael W. Deem and Ramdas Pophale) SiO2 
 PCOD9186173
Probable space group: C 2/M
;
_chemical_formula_sum "Si O2"
_cell_formula_units_Z 64
_cell_length_a 20.960422
_cell_length_b 8.784891
_cell_length_c 34.720610
_cell_angle_alpha 90.000000
_cell_angle_beta 146.918431
_cell_angle_gamma 90.000000
_cell_volume 3489.659879
_symmetry_space_group_name_H-M "C 2/M"
_symmetry_group_IT_number 12
_symmetry_cell_setting 'monoclinic'
loop_
_space_group_symop_operation_xyz
x,y,z
-x,y,-z
-x,-y,-z
x,-y,z
1/2+x,1/2+y,z
1/2-x,1/2+y,-z
1/2-x,1/2-y,-z
1/2+x,1/2-y,z
loop_
_atom_site_type_symbol
_atom_site_label
_atom_site_fract_x
_atom_site_fract_y
_atom_site_fract_z
Si Si1 0.415451 0.182772 0.716502
Si Si2 0.896287 0.182875 0.791253
Si Si3 0.655858 0.317651 0.805364
Si Si4 0.678354 0.318110 0.726551
Si Si5 0.880761 0.816382 0.961470
Si Si6 0.564348 0.181197 0.418304
Si Si7 0.870805 0.183209 0.045883
Si Si8 0.766429 0.682469 0.567845
O O1 0.388806 0.251180 0.744621
O O2 0.539985 0.243181 0.764459
O O3 0.318637 0.225371 0.635538
O O4 0.419458 0.000000 0.720650
O O5 0.789850 0.241629 0.763307
O O6 0.018866 0.231949 0.872651
O O7 0.894284 0.000000 0.788926
O O8 0.646172 0.500000 0.803299
O O9 0.668695 0.275977 0.766824
O O10 0.769286 0.260448 0.885508
O O11 0.688482 0.500000 0.729044
O O12 0.559712 0.262943 0.646186
O O13 0.867779 0.000000 0.952314
O O14 0.888755 0.774189 0.010387
O O15 0.000000 0.774267 0.000000
O O16 0.647935 0.236058 0.495016
O O17 0.636063 0.219368 0.415369
O O18 0.548334 0.000000 0.411426
O O19 0.864689 0.000000 0.044615
O O20 0.750000 0.250000 0.000000
O O21 0.748970 0.500000 0.557832
#
# Coordination Sequence:
#
# PCOD9186173 Si02
#       8
#     8   8   8   8   8   8   8   8
#     4  11  22  39  61  87 119 155 195 238 290 348
#     4  11  24  41  61  86 119 155 197 245 295 349
#     4  11  23  37  58  88 118 150 194 245 292 343
#     4  11  23  39  59  86 121 159 197 239 293 351
#     4  10  21  38  59  82 110 148 193 240 294 351
#     4  10  19  34  59  89 119 154 194 238 289 343
#     4  10  22  39  59  83 111 149 192 238 290 348
#     4   9  19  35  57  87 120 154 192 237 289 343
#
# _framework density 18.339896
#
# number of rings (size 3 to 8) (size 9 to 14) (size 15 to 20)
#    0.000    1.625    1.250    3.375    0.000    7.750 
#    0.000    0.625    0.000    3.750    0.000    0.000 
#    0.000    0.000    0.000    0.000    0.000    0.000 
#
# Total GULP energy -178860.968306 kJ/mol
# GULP energy per Si atom -5589.405260 kJ/mol
# Density = 1.829815 g / cm^3
# Si number density = 18.339896 Si / 1000 Ang^3
#
#
#
# Elastic Constant Matrix: (Units=GPa)
#
#
# Indices 1 2 3 4 5 6 
#
# 1 79.3962 23.4208 22.7220 -0.0001 -13.5805 0.0002
# 2 23.4208 33.5133 27.5640 -0.0002 -6.5266 0.0004
# 3 22.7220 27.5640 113.3983 0.0000 -13.3498 0.0001
# 4 -0.0001 -0.0002 0.0000 31.7635 0.0000 0.6507
# 5 -13.5805 -6.5266 -13.3498 0.0000 20.9406 0.0001
# 6 0.0002 0.0004 0.0001 0.6507 0.0001 31.5034
#
#
#
# Elastic Compliance Matrix: (Units=1/GPa)
#
#
# Indices 1 2 3 4 5 6 
#
# 1 0.016980 -0.010379 0.000039 0.000000 0.007802 0.000000
# 2 -0.010379 0.044429 -0.008522 0.000000 0.001684 -0.000001
# 3 0.000039 -0.008522 0.011430 0.000000 0.004656 0.000000
# 4 0.000000 0.000000 0.000000 0.031496 0.000000 -0.000651
# 5 0.007802 0.001684 0.004656 0.000000 0.056307 0.000000
# 6 0.000000 -0.000001 0.000000 -0.000651 0.000000 0.031756
#
#
# Mechanical properties :
#
#
# Convention : Reuss Voigt Hill
#
# Bulk Modulus (GPa) = 28.47720 41.52459 35.00090
# Shear Modulus (GPa) = 20.67592 27.01491 23.84542
#
# Velocity S-wave (km/s) = 3.36128 3.84215 3.60973
# Velocity P-wave (km/s) = 5.53403 6.50950 6.04149
#
# Compressibility (1/GPa) = 0.03511581
#
# Stress axis : x y z
#
# Youngs Moduli (GPa) = 58.89237 22.50779 87.48783
#
# Poissons Ratio (x) = 0.23361 -0.00342
# Poissons Ratio (y) = 0.61126 0.74553
# Poissons Ratio (z) = -0.00230 0.19180
#
# Static dielectric constant tensor:
#      x y z
#    x 1.441560 0.000000 -0.061980 
#    y 0.000000 1.616760 0.000000 
#    z -0.061980 0.000000 1.595300 
# 
# From -- ./inp_files/378329.got.cif
#   From: 2010.05.17/outbox.cif.g08.bks.cpg/sg12_190_cif.got.tgz:378329.got - 2010.06.03 13:09:07.
