data_PCOD9186453
_publ_section_title
;
Structure prediction by ZEFSAII (Michael W. Deem and Ramdas Pophale) SiO2 
 PCOD9186453
Probable space group: C 2/M
;
_chemical_formula_sum "Si O2"
_cell_formula_units_Z 46
_cell_length_a 13.745541
_cell_length_b 14.644397
_cell_length_c 10.535239
_cell_angle_alpha 90.000000
_cell_angle_beta 73.403425
_cell_angle_gamma 90.000000
_cell_volume 2032.343818
_symmetry_space_group_name_H-M "C 2/M"
_symmetry_group_IT_number 12
_symmetry_cell_setting 'monoclinic'
loop_
_space_group_symop_operation_xyz
x,y,z
-x,y,-z
-x,-y,-z
x,-y,z
1/2+x,1/2+y,z
1/2-x,1/2+y,-z
1/2-x,1/2-y,-z
1/2+x,1/2-y,z
loop_
_atom_site_type_symbol
_atom_site_label
_atom_site_fract_x
_atom_site_fract_y
_atom_site_fract_z
Si Si1 0.000000 0.500000 0.500000
Si Si2 0.125878 0.787875 0.739869
Si Si3 0.339110 0.148439 0.629941
Si Si4 0.000000 0.754854 0.000000
Si Si5 0.223364 0.399513 0.788826
Si Si6 0.118135 0.396742 0.095179
Si Si7 0.939454 0.839822 0.633491
O O1 0.089505 0.578714 0.468582
O O2 0.219644 0.844659 0.647759
O O3 0.168274 0.683689 0.736022
O O4 0.025626 0.809144 0.698953
O O5 0.090550 0.809039 0.898767
O O6 0.343300 0.121712 0.778245
O O7 0.388249 0.247925 0.596726
O O8 0.958795 0.683750 0.910596
O O9 0.188503 0.500000 0.758976
O O10 0.343859 0.390978 0.728041
O O11 0.196149 0.391741 0.948606
O O12 0.074027 0.500000 0.110302
O O13 0.000000 0.889871 0.500000
#
# Coordination Sequence:
#
# PCOD9186453 Si02
#       7
#     2   8   8   4   8   8   8
#     4  12  24  48  60  92 128 172 214 260 324 364
#     4  10  23  39  64  98 128 164 220 264 326 382
#     4  11  23  40  65  90 129 169 211 268 317 384
#     4  10  19  34  66  95 124 164 206 272 327 380
#     4   9  22  41  63  94 130 172 213 266 328 386
#     4  10  19  36  61  94 128 159 213 267 318 377
#     4  11  23  43  64  90 131 170 216 266 325 390
#
# _framework density 22.633966000000001
#
# number of rings (size 3 to 8) (size 9 to 14) (size 15 to 20)
#    0.000    1.739    3.478    0.261    2.435    5.913 
#    3.130    0.000    0.000    2.609    0.000    0.000 
#    0.000    0.000    0.000    0.000    0.000    0.000 
#
# Total GULP energy -128133.857830 kJ/mol
# GULP energy per Si atom -5571.037297 kJ/mol
# Density = 2.258245 g / cm^3
# Si number density = 22.633966 Si / 1000 Ang^3
#
#
#
# Elastic Constant Matrix: (Units=GPa)
#
#
# Indices 1 2 3 4 5 6 
#
# 1 97.2526 5.8785 30.5590 0.0000 -34.5440 0.0000
# 2 5.8785 60.1409 28.3177 0.0000 -17.7763 0.0000
# 3 30.5590 28.3177 66.0534 0.0000 -30.7554 0.0000
# 4 0.0000 0.0000 0.0000 21.4461 0.0000 -11.0524
# 5 -34.5440 -17.7763 -30.7554 0.0000 51.1786 0.0000
# 6 0.0000 0.0000 0.0000 -11.0524 0.0000 13.2447
#
#
#
# Elastic Compliance Matrix: (Units=1/GPa)
#
#
# Indices 1 2 3 4 5 6 
#
# 1 0.014304 0.002941 -0.004037 0.000000 0.008250 0.000000
# 2 0.002941 0.021689 -0.008646 0.000000 0.004323 0.000000
# 3 -0.004037 -0.008646 0.025058 0.000000 0.009330 0.000000
# 4 0.000000 0.000000 0.000000 0.081812 0.000000 0.068270
# 5 0.008250 0.004323 0.009330 0.000000 0.032216 0.000000
# 6 0.000000 0.000000 0.000000 0.068270 0.000000 0.132472
#
#
# Mechanical properties :
#
#
# Convention : Reuss Voigt Hill
#
# Bulk Modulus (GPa) = 24.05772 39.21748 31.63760
# Shear Modulus (GPa) = 14.66743 27.75331 21.21037
#
# Velocity S-wave (km/s) = 2.54840 3.50548 3.06454
# Velocity P-wave (km/s) = 4.39445 5.80939 5.15074
#
# Compressibility (1/GPa) = 0.04156669
#
# Stress axis : x y z
#
# Youngs Moduli (GPa) = 69.91204 46.10628 39.90731
#
# Poissons Ratio (x) = -0.13561 0.16111
# Poissons Ratio (y) = -0.20563 0.34505
# Poissons Ratio (z) = 0.28224 0.39865
#
# Static dielectric constant tensor:
#      x y z
#    x 1.862980 0.000000 0.058000 
#    y 0.000000 1.833550 0.000000 
#    z 0.058000 0.000000 2.034460 
# 
# From -- ./inp_files/143612.got.cif
#   From: 2010.05.17/outbox.cif.g08.bks.cpg/sg12_72_cif.got.tgz:143612.got - 2010.06.03 13:09:07.
