data_PCOD9186924
_publ_section_title
;
Structure prediction by ZEFSAII (Michael W. Deem and Ramdas Pophale) SiO2 
 PCOD9186924
Probable space group: C 2/M
;
_chemical_formula_sum "Si O2"
_cell_formula_units_Z 64
_cell_length_a 21.187234
_cell_length_b 8.653983
_cell_length_c 20.706653
_cell_angle_alpha 90.000000
_cell_angle_beta 67.039086
_cell_angle_gamma 90.000000
_cell_volume 3495.843063
_symmetry_space_group_name_H-M "C 2/M"
_symmetry_group_IT_number 12
_symmetry_cell_setting 'monoclinic'
loop_
_space_group_symop_operation_xyz
x,y,z
-x,y,-z
-x,-y,-z
x,-y,z
1/2+x,1/2+y,z
1/2-x,1/2+y,-z
1/2-x,1/2-y,-z
1/2+x,1/2-y,z
loop_
_atom_site_type_symbol
_atom_site_label
_atom_site_fract_x
_atom_site_fract_y
_atom_site_fract_z
Si Si1 0.203919 0.313278 0.286133
Si Si2 0.579926 0.686639 0.964934
Si Si3 0.649184 0.684775 0.582136
Si Si4 0.325926 0.185501 0.958538
Si Si5 0.138554 0.186508 0.801660
Si Si6 0.046690 0.314936 0.722357
Si Si7 0.110538 0.688380 0.203556
Si Si8 0.708127 0.684887 0.422511
O O1 0.202150 0.500000 0.290006
O O2 0.282499 0.267098 0.240146
O O3 0.155079 0.262270 0.247349
O O4 0.183658 0.246642 0.363606
O O5 0.583844 0.500000 0.968468
O O6 0.611599 0.731567 0.883131
O O7 0.500000 0.731077 0.000000
O O8 0.623539 0.758220 0.005360
O O9 0.583568 0.755440 0.643063
O O10 0.660355 0.726956 0.502625
O O11 0.717147 0.744331 0.591884
O O12 0.852953 0.000000 0.411589
O O13 0.355245 0.237587 0.877363
O O14 0.323139 0.000000 0.959637
O O15 0.250000 0.250000 0.000000
O O16 0.090978 0.255035 0.764974
O O17 0.135464 0.000000 0.798573
O O18 0.047584 0.500000 0.722184
O O19 0.968229 0.261374 0.759801
O O20 0.110800 0.500000 0.203332
O O21 0.714420 0.500000 0.418447
#
# Coordination Sequence:
#
# PCOD9186924 Si02
#       8
#     8   8   8   8   8   8   8   8
#     4  10  19  35  57  78 107 147 187 226 275 330
#     4  10  21  37  57  83 115 149 187 232 285 344
#     4  10  20  35  55  81 114 149 180 219 280 335
#     4  11  22  39  61  83 112 150 194 239 286 339
#     4  10  20  34  55  81 110 145 183 228 283 335
#     4  11  21  35  57  84 113 145 188 233 273 327
#     4   9  21  39  57  80 113 152 186 226 280 335
#     4  10  20  34  55  84 113 141 183 233 272 319
#
# _framework density 18.307458
#
# number of rings (size 3 to 8) (size 9 to 14) (size 15 to 20)
#    0.000    1.875    1.250    3.000    0.000    4.250 
#    0.000    6.250    0.000    3.750    0.000    0.000 
#    0.000    0.000    0.000    0.000    0.000    0.000 
#
# Total GULP energy -178754.417510 kJ/mol
# GULP energy per Si atom -5586.075547 kJ/mol
# Density = 1.826579 g / cm^3
# Si number density = 18.307458 Si / 1000 Ang^3
#
#
#
# Elastic Constant Matrix: (Units=GPa)
#
#
# Indices 1 2 3 4 5 6 
#
# 1 167.0709 35.9518 105.4960 -0.0001 1.6617 -0.0006
# 2 35.9518 23.5238 37.7428 -0.0002 2.1584 -0.0008
# 3 105.4960 37.7428 186.4450 0.0000 5.4147 0.0001
# 4 -0.0001 -0.0002 0.0000 26.8724 0.0000 5.5400
# 5 1.6617 2.1584 5.4147 0.0000 26.0276 -0.0003
# 6 -0.0006 -0.0008 0.0001 5.5400 -0.0003 28.1300
#
#
#
# Elastic Compliance Matrix: (Units=1/GPa)
#
#
# Indices 1 2 3 4 5 6 
#
# 1 0.010667 -0.009868 -0.004067 0.000000 0.000983 0.000000
# 2 -0.009868 0.072261 -0.008943 0.000000 -0.003502 0.000002
# 3 -0.004067 -0.008943 0.009503 0.000000 -0.000976 0.000000
# 4 0.000000 0.000000 0.000000 0.038788 0.000000 -0.007639
# 5 0.000983 -0.003502 -0.000976 0.000000 0.038851 0.000000
# 6 0.000000 0.000002 0.000000 -0.007639 0.000000 0.037054
#
#
# Mechanical properties :
#
#
# Convention : Reuss Voigt Hill
#
# Bulk Modulus (GPa) = 21.42408 81.71344 51.56876
# Shear Modulus (GPa) = 18.62626 29.39594 24.01110
#
# Velocity S-wave (km/s) = 3.19315 4.01144 3.62546
# Velocity P-wave (km/s) = 5.03217 8.13550 6.76421
#
# Compressibility (1/GPa) = 0.04667645
#
# Stress axis : x y z
#
# Youngs Moduli (GPa) = 93.74642 13.83867 105.22777
#
# Poissons Ratio (x) = 0.13656 0.42792
# Poissons Ratio (y) = 0.92510 0.94103
# Poissons Ratio (z) = 0.38123 0.12376
#
# Static dielectric constant tensor:
#      x y z
#    x 1.592780 0.000000 -0.004890 
#    y 0.000000 1.630830 0.000000 
#    z -0.004890 0.000000 1.628950 
# 
# From -- ./inp_files/319944.got.cif
#   From: 2010.05.17/outbox.cif.g08.bks.cpg/sg12_160_cif.got.tgz:319944.got - 2010.06.03 13:09:07.
