data_PCOD9186548
_publ_section_title
;
Structure prediction by ZEFSAII (Michael W. Deem and Ramdas Pophale) SiO2 
 PCOD9186548
Probable space group: C 2/M
;
_chemical_formula_sum "Si O2"
_cell_formula_units_Z 60
_cell_length_a 9.181421
_cell_length_b 23.917271
_cell_length_c 27.861238
_cell_angle_alpha 90.000000
_cell_angle_beta 146.442101
_cell_angle_gamma 90.000000
_cell_volume 3382.001234
_symmetry_space_group_name_H-M "C 2/M"
_symmetry_group_IT_number 12
_symmetry_cell_setting 'monoclinic'
loop_
_space_group_symop_operation_xyz
x,y,z
-x,y,-z
-x,-y,-z
x,-y,z
1/2+x,1/2+y,z
1/2-x,1/2+y,-z
1/2-x,1/2-y,-z
1/2+x,1/2-y,z
loop_
_atom_site_type_symbol
_atom_site_label
_atom_site_fract_x
_atom_site_fract_y
_atom_site_fract_z
Si Si1 0.561226 0.063153 0.696129
Si Si2 0.314898 0.566328 0.868129
Si Si3 0.337434 0.931893 0.803781
Si Si4 0.407530 0.931738 0.027545
Si Si5 0.500000 0.143253 0.500000
Si Si6 0.255895 0.824642 0.605240
Si Si7 0.934063 0.229752 0.594269
Si Si8 0.245780 0.564815 0.639185
O O1 0.744699 0.071402 0.792784
O O2 0.351603 0.112577 0.637788
O O3 0.714549 0.066299 0.687944
O O4 0.448858 0.000000 0.669107
O O5 0.326835 0.500000 0.882542
O O6 0.609826 0.587834 0.957282
O O7 0.072385 0.588172 0.833525
O O8 0.041931 0.915840 0.707852
O O9 0.335617 0.000000 0.802015
O O10 0.404937 0.915415 0.876915
O O11 0.403568 0.000000 0.025473
O O12 0.500000 0.913778 0.000000
O O13 0.754073 0.182904 0.569665
O O14 0.530286 0.103496 0.554401
O O15 0.464474 0.783310 0.636680
O O16 0.000000 0.824535 0.500000
O O17 0.180552 0.797613 0.635599
O O18 0.750000 0.250000 0.500000
O O19 0.212573 0.500000 0.615080
#
# Coordination Sequence:
#
# PCOD9186548 Si02
#       8
#     8   8   8   8   4   8   8   8
#     4  10  21  35  50  73 108 143 172 212 263 321
#     4   9  17  29  44  68 100 135 171 210 257 310
#     4   9  17  29  44  66  97 136 177 213 251 306
#     4   9  15  25  45  67  92 132 175 210 252 306
#     4  12  21  34  56  72  99 134 178 226 268 308
#     4  10  20  35  54  75  98 132 174 225 270 310
#     4  10  19  35  54  75  93 125 168 227 275 303
#     4  10  21  34  48  70 104 144 179 212 260 321
#
# _framework density 17.740976
#
# number of rings (size 3 to 8) (size 9 to 14) (size 15 to 20)
#    0.000    2.267    2.000    3.000    1.867    5.067 
#    0.000    0.667    0.000    0.000    0.000    0.000 
#    0.000    1.067    5.333    0.133    0.000    0.000 
#
# Total GULP energy -167143.338051 kJ/mol
# GULP energy per Si atom -5571.444602 kJ/mol
# Density = 1.770060 g / cm^3
# Si number density = 17.740976 Si / 1000 Ang^3
#
#
#
# Elastic Constant Matrix: (Units=GPa)
#
#
# Indices 1 2 3 4 5 6 
#
# 1 42.0934 16.1547 -5.6459 -0.0003 -1.4372 -0.0009
# 2 16.1547 67.9336 20.0571 -0.0047 0.9692 -0.0002
# 3 -5.6459 20.0571 28.7019 -0.0043 -1.6371 0.0002
# 4 -0.0003 -0.0047 -0.0043 0.0458 -0.0010 5.3075
# 5 -1.4372 0.9692 -1.6371 -0.0010 20.8170 -0.0004
# 6 -0.0009 -0.0002 0.0002 5.3075 -0.0004 15.8018
#
#
#
# Elastic Compliance Matrix: (Units=1/GPa)
#
#
# Indices 1 2 3 4 5 6 
#
# 1 0.030143 -0.011383 0.014096 -0.000008 0.003720 0.000004
# 2 -0.011383 0.022920 -0.018444 -0.000013 -0.003303 0.000004
# 3 0.014096 -0.018444 0.050835 -0.000083 0.005830 0.000028
# 4 -0.000008 -0.000013 -0.000083 -0.575750 -0.000032 0.193382
# 5 0.003720 -0.003303 0.005830 -0.000032 0.048907 0.000012
# 6 0.000004 0.000004 0.000028 0.193382 0.000012 -0.001669
#
#
# Mechanical properties :
#
#
# Convention : Reuss Voigt Hill
#
# Bulk Modulus (GPa) = 13.80536 22.20675 18.00605
# Shear Modulus (GPa) = -13.54989 14.54378 0.49695
#
# Velocity S-wave (km/s) = -2.76662 2.86629 0.52983
# Velocity P-wave (km/s) = 1.55148 4.84753 3.24742
#
# Compressibility (1/GPa) = 0.07243564
#
# Stress axis : x y z
#
# Youngs Moduli (GPa) = 33.17541 43.63051 19.67151
#
# Poissons Ratio (x) = 0.49664 -0.27729
# Poissons Ratio (y) = 0.37763 0.36282
# Poissons Ratio (z) = -0.46764 0.80472
#
# Static dielectric constant tensor:
#      x y z
#    x 1.652660 0.000000 -0.003900 
#    y 0.000000 1.610700 0.000000 
#    z -0.003900 0.000000 1.590700 
# 
# From -- ./inp_files/357026.got.cif
#   From: 2010.05.17/outbox.cif.g08.bks.cpg/sg12_179_cif.got.tgz:357026.got - 2010.06.03 13:09:07.
