data_PCOD9186545
_publ_section_title
;
Structure prediction by ZEFSAII (Michael W. Deem and Ramdas Pophale) SiO2 
 PCOD9186545
Probable space group: C 2/M
;
_chemical_formula_sum "Si O2"
_cell_formula_units_Z 56
_cell_length_a 21.210725
_cell_length_b 7.610572
_cell_length_c 23.286569
_cell_angle_alpha 90.000000
_cell_angle_beta 47.682026
_cell_angle_gamma 90.000000
_cell_volume 2779.517867
_symmetry_space_group_name_H-M "C 2/M"
_symmetry_group_IT_number 12
_symmetry_cell_setting 'monoclinic'
loop_
_space_group_symop_operation_xyz
x,y,z
-x,y,-z
-x,-y,-z
x,-y,z
1/2+x,1/2+y,z
1/2-x,1/2+y,-z
1/2-x,1/2-y,-z
1/2+x,1/2-y,z
loop_
_atom_site_type_symbol
_atom_site_label
_atom_site_fract_x
_atom_site_fract_y
_atom_site_fract_z
Si Si1 0.494976 0.285050 0.171134
Si Si2 0.929564 0.784308 0.754008
Si Si3 0.504685 0.286044 0.589015
Si Si4 0.306654 0.295684 0.253028
Si Si5 0.063076 0.795539 0.009469
Si Si6 0.862224 0.212333 0.583313
Si Si7 0.761248 0.702064 0.153116
O O1 0.496350 0.500000 0.173174
O O2 0.533541 0.225571 0.207794
O O3 0.397234 0.230188 0.220478
O O4 0.547553 0.225004 0.082851
O O5 0.986304 0.727899 0.664754
O O6 0.832208 0.725366 0.803630
O O7 0.928738 0.000000 0.753489
O O8 0.505630 0.500000 0.588344
O O9 0.590895 0.229683 0.503839
O O10 0.425592 0.234766 0.596456
O O11 0.318348 0.500000 0.231185
O O12 0.231711 0.277665 0.345271
O O13 0.277441 0.208843 0.211482
O O14 0.158926 0.786344 0.928019
O O15 0.961697 0.000000 0.970683
O O16 0.000000 0.715894 0.000000
O O17 0.859252 0.000000 0.585184
O O18 0.761432 0.500000 0.134547
#
# Coordination Sequence:
#
# PCOD9186545 Si02
#       7
#     8   8   8   8   8   8   8
#     4   9  19  34  52  72 101 140 174 203 247 311
#     4   9  17  32  53  77 101 133 174 211 249 298
#     4   8  14  27  50  76 103 131 167 210 251 298
#     4  11  20  33  52  77 105 137 172 207 252 306
#     4  10  19  35  54  75 104 137 171 205 250 307
#     4   9  16  29  51  79 102 129 171 214 251 291
#     4  11  21  33  55  81 102 128 171 221 256 293
#
# _framework density 20.147379999999998
#
# number of rings (size 3 to 8) (size 9 to 14) (size 15 to 20)
#    0.000    2.429    2.857    1.714    0.000    0.857 
#    0.000    2.143    0.000    4.286    0.000    0.000 
#    0.000    0.000    0.000    0.000    0.000    0.000 
#
# Total GULP energy -156248.740060 kJ/mol
# GULP energy per Si atom -5580.312145 kJ/mol
# Density = 2.010152 g / cm^3
# Si number density = 20.147380 Si / 1000 Ang^3
#
#
#
# Elastic Constant Matrix: (Units=GPa)
#
#
# Indices 1 2 3 4 5 6 
#
# 1 141.9771 -1.3061 98.0166 0.0004 11.0597 -0.0002
# 2 -1.3061 37.7655 -5.3819 0.0013 4.4517 -0.0019
# 3 98.0166 -5.3819 196.1922 0.0004 7.4050 -0.0002
# 4 0.0004 0.0013 0.0004 18.5629 -0.0004 -7.9669
# 5 11.0597 4.4517 7.4050 -0.0004 34.0938 0.0004
# 6 -0.0002 -0.0019 -0.0002 -7.9669 0.0004 7.0456
#
#
#
# Elastic Compliance Matrix: (Units=1/GPa)
#
#
# Indices 1 2 3 4 5 6 
#
# 1 0.010941 -0.000109 -0.005380 0.000000 -0.002366 0.000000
# 2 -0.000109 0.027045 0.000936 0.000002 -0.003699 0.000010
# 3 -0.005380 0.000936 0.007813 0.000000 -0.000074 0.000000
# 4 0.000000 0.000002 0.000000 0.104667 -0.000001 0.118353
# 5 -0.002366 -0.003699 -0.000074 -0.000001 0.030598 -0.000004
# 6 0.000000 0.000010 0.000000 0.118353 -0.000004 0.275762
#
#
# Mechanical properties :
#
#
# Convention : Reuss Voigt Hill
#
# Bulk Modulus (GPa) = 27.25311 62.06579 44.65945
# Shear Modulus (GPa) = 10.45673 30.91420 20.68546
#
# Velocity S-wave (km/s) = 2.28065 3.92140 3.20770
# Velocity P-wave (km/s) = 4.52675 7.16770 5.99447
#
# Compressibility (1/GPa) = 0.03669306
#
# Stress axis : x y z
#
# Youngs Moduli (GPa) = 91.40276 36.97562 127.98989
#
# Poissons Ratio (x) = 0.00404 0.68853
# Poissons Ratio (y) = 0.00999 -0.11982
# Poissons Ratio (z) = 0.49171 -0.03461
#
# Static dielectric constant tensor:
#      x y z
#    x 1.679310 0.000000 0.000100 
#    y 0.000000 1.760680 0.000000 
#    z 0.000100 0.000000 1.702840 
# 
# From -- ./inp_files/319727.got.cif
#   From: 2010.05.17/outbox.cif.g08.bks.cpg/sg12_160_cif.got.tgz:319727.got - 2010.06.03 13:09:07.
