data_PCOD9186068
_publ_section_title
;
Structure prediction by ZEFSAII (Michael W. Deem and Ramdas Pophale) SiO2 
 PCOD9186068
Probable space group: C 2/M
;
_chemical_formula_sum "Si O2"
_cell_formula_units_Z 40
_cell_length_a 9.987033
_cell_length_b 15.354233
_cell_length_c 15.268033
_cell_angle_alpha 90.000000
_cell_angle_beta 113.547876
_cell_angle_gamma 90.000000
_cell_volume 2146.285624
_symmetry_space_group_name_H-M "C 2/M"
_symmetry_group_IT_number 12
_symmetry_cell_setting 'monoclinic'
loop_
_space_group_symop_operation_xyz
x,y,z
-x,y,-z
-x,-y,-z
x,-y,z
1/2+x,1/2+y,z
1/2-x,1/2+y,-z
1/2-x,1/2-y,-z
1/2+x,1/2-y,z
loop_
_atom_site_type_symbol
_atom_site_label
_atom_site_fract_x
_atom_site_fract_y
_atom_site_fract_z
Si Si1 0.559884 0.604874 0.423346
Si Si2 0.159390 0.833908 0.783476
Si Si3 0.883876 0.604741 0.546240
Si Si4 0.441533 0.000000 0.125191
Si Si5 0.963615 0.671940 0.758210
Si Si6 0.760659 0.500000 0.910988
O O1 0.500000 0.637653 0.500000
O O2 0.555471 0.500000 0.422751
O O3 0.453797 0.634380 0.319777
O O4 0.728252 0.630909 0.464916
O O5 0.315272 0.815983 0.776590
O O6 0.181154 0.912188 0.858281
O O7 0.078735 0.749575 0.800098
O O8 0.878204 0.500000 0.565916
O O9 0.919563 0.655702 0.645030
O O10 0.000000 0.617773 0.500000
O O11 0.456236 0.915016 0.187948
O O12 0.587300 0.000000 0.103364
O O13 0.304650 0.000000 0.024023
#
# Coordination Sequence:
#
# PCOD9186068 Si02
#       6
#     8   8   8   4   8   4
#     4  10  19  34  59  84 117 164 201 239 284 343
#     4  11  23  38  61  93 121 155 200 245 292 356
#     4  10  21  36  57  87 122 163 201 239 289 349
#     4   9  20  42  69  85 116 157 195 251 302 355
#     4  11  23  39  61  91 122 156 200 243 296 352
#     4   9  20  42  67  90 112 154 205 243 300 358
#
# _framework density 18.636848000000001
#
# number of rings (size 3 to 8) (size 9 to 14) (size 15 to 20)
#    0.000    1.800    4.000    0.000    2.800    2.400 
#    0.000    1.000    0.000    1.200    0.000    0.000 
#    0.000    0.000    0.000    0.000    0.000    0.000 
#
# Total GULP energy -111637.324484 kJ/mol
# GULP energy per Si atom -5581.866224 kJ/mol
# Density = 1.859443 g / cm^3
# Si number density = 18.636848 Si / 1000 Ang^3
#
#
#
# Elastic Constant Matrix: (Units=GPa)
#
#
# Indices 1 2 3 4 5 6 
#
# 1 115.4700 61.7858 38.9272 0.0000 17.3711 0.0000
# 2 61.7858 120.1621 57.5347 0.0000 21.0171 0.0000
# 3 38.9272 57.5347 114.2371 0.0000 28.8259 0.0000
# 4 0.0000 0.0000 0.0000 -1.8981 0.0000 -8.4651
# 5 17.3711 21.0171 28.8259 0.0000 19.5280 0.0000
# 6 0.0000 0.0000 0.0000 -8.4651 0.0000 -70.6244
#
#
#
# Elastic Compliance Matrix: (Units=1/GPa)
#
#
# Indices 1 2 3 4 5 6 
#
# 1 0.012354 -0.005376 -0.000302 0.000000 -0.004759 0.000000
# 2 -0.005376 0.013737 -0.004084 0.000000 -0.003974 0.000000
# 3 -0.000302 -0.004084 0.015516 0.000000 -0.018240 0.000000
# 4 0.000000 0.000000 0.000000 -1.131869 0.000000 0.135666
# 5 -0.004759 -0.003974 -0.018240 0.000000 0.086644 0.000000
# 6 0.000000 0.000000 0.000000 0.135666 0.000000 -0.030420
#
#
# Mechanical properties :
#
#
# Convention : Reuss Voigt Hill
#
# Bulk Modulus (GPa) = 45.28014 74.04052 59.66033
# Shear Modulus (GPa) = -4.96448 2.17586 -1.39431
#
# Velocity S-wave (km/s) = -1.63388 1.08168 -0.86589
# Velocity P-wave (km/s) = 4.55953 6.43229 5.57511
#
# Compressibility (1/GPa) = 0.02208474
#
# Stress axis : x y z
#
# Youngs Moduli (GPa) = 80.94385 72.79826 64.45047
#
# Poissons Ratio (x) = 0.39134 0.01944
# Poissons Ratio (y) = 0.43512 0.26320
# Poissons Ratio (z) = 0.02441 0.29729
#
# Static dielectric constant tensor:
#      x y z
#    x 1.689080 0.000000 0.016080 
#    y 0.000000 1.689710 0.000000 
#    z 0.016080 0.000000 1.621700 
# 
# From -- ./inp_files/194587.got.cif
#   From: 2010.05.17/outbox.cif.g08.bks.cpg/sg12_98_cif.got.tgz:194587.got - 2010.06.03 13:09:07.
