data_PCOD9186078
_publ_section_title
;
Structure prediction by ZEFSAII (Michael W. Deem and Ramdas Pophale) SiO2 
 PCOD9186078
Probable space group: C 2/M
;
_chemical_formula_sum "Si O2"
_cell_formula_units_Z 64
_cell_length_a 21.022966
_cell_length_b 8.461831
_cell_length_c 22.319422
_cell_angle_alpha 90.000000
_cell_angle_beta 61.838878
_cell_angle_gamma 90.000000
_cell_volume 3500.456080
_symmetry_space_group_name_H-M "C 2/M"
_symmetry_group_IT_number 12
_symmetry_cell_setting 'monoclinic'
loop_
_space_group_symop_operation_xyz
x,y,z
-x,y,-z
-x,-y,-z
x,-y,z
1/2+x,1/2+y,z
1/2-x,1/2+y,-z
1/2-x,1/2-y,-z
1/2+x,1/2-y,z
loop_
_atom_site_type_symbol
_atom_site_label
_atom_site_fract_x
_atom_site_fract_y
_atom_site_fract_z
Si Si1 0.223843 0.689575 0.947530
Si Si2 0.699153 0.691921 0.206113
Si Si3 0.580721 0.689166 0.947696
Si Si4 0.342734 0.189420 0.575456
Si Si5 0.347776 0.188924 0.202326
Si Si6 0.408174 0.691614 0.422082
Si Si7 0.073611 0.190890 0.345825
Si Si8 0.323481 0.309269 0.340795
O O1 0.223853 0.500000 0.947883
O O2 0.278570 0.744311 0.870313
O O3 0.144149 0.744558 0.962299
O O4 0.250000 0.750000 0.000000
O O5 0.696853 0.500000 0.205852
O O6 0.766339 0.736629 0.218866
O O7 0.625065 0.747778 0.268812
O O8 0.582749 0.500000 0.951146
O O9 0.600728 0.739926 0.871287
O O10 0.500000 0.743551 0.000000
O O11 0.373361 0.243886 0.498144
O O12 0.390418 0.257315 0.608051
O O13 0.259877 0.243215 0.619746
O O14 0.344103 0.000000 0.577823
O O15 0.359710 0.246147 0.264251
O O16 0.352058 0.000000 0.197211
O O17 0.406884 0.500000 0.425522
O O18 0.491135 0.744101 0.379409
O O19 0.363742 0.741221 0.383252
O O20 0.073274 0.000000 0.344193
O O21 0.324582 0.500000 0.338245
#
# Coordination Sequence:
#
# PCOD9186078 Si02
#       8
#     8   8   8   8   8   8   8   8
#     4  10  20  36  58  86 119 152 190 234 280 334
#     4   8  16  32  55  80 104 138 183 223 263 318
#     4  10  21  38  60  86 116 151 190 234 281 332
#     4  11  22  35  55  79 107 141 178 228 276 326
#     4  10  19  34  59  85 110 144 184 229 275 329
#     4  10  22  37  54  77 107 143 181 226 273 326
#     4  10  19  36  58  78 103 139 184 227 268 324
#     4  10  21  37  54  79 110 142 184 226 272 327
#
# _framework density 18.283332999999999
#
# number of rings (size 3 to 8) (size 9 to 14) (size 15 to 20)
#    0.000    2.125    1.250    3.000    0.000    4.000 
#    2.250    0.625    0.000    0.000    0.000    0.000 
#    0.000    0.000    0.000    0.000    0.000    0.000 
#
# Total GULP energy -178613.911161 kJ/mol
# GULP energy per Si atom -5581.684724 kJ/mol
# Density = 1.824172 g / cm^3
# Si number density = 18.283333 Si / 1000 Ang^3
#
#
#
# Elastic Constant Matrix: (Units=GPa)
#
#
# Indices 1 2 3 4 5 6 
#
# 1 93.5183 15.2365 64.7731 0.0001 -1.7549 -0.0001
# 2 15.2365 20.3228 16.4062 0.0001 -3.2501 -0.0009
# 3 64.7731 16.4062 146.2555 0.0000 -1.1383 0.0001
# 4 0.0001 0.0001 0.0000 28.7502 0.0001 1.9519
# 5 -1.7549 -3.2501 -1.1383 0.0001 31.8230 0.0001
# 6 -0.0001 -0.0009 0.0001 1.9519 0.0001 21.7143
#
#
#
# Elastic Compliance Matrix: (Units=1/GPa)
#
#
# Indices 1 2 3 4 5 6 
#
# 1 0.016288 -0.007033 -0.006425 0.000000 -0.000050 0.000000
# 2 -0.007033 0.058054 -0.003355 0.000000 0.005421 0.000002
# 3 -0.006425 -0.003355 0.010057 0.000000 -0.000337 0.000000
# 4 0.000000 0.000000 0.000000 0.034996 0.000000 -0.003146
# 5 -0.000050 0.005421 -0.000337 0.000000 0.031963 0.000000
# 6 0.000000 0.000002 0.000000 -0.003146 0.000000 0.046335
#
#
# Mechanical properties :
#
#
# Convention : Reuss Voigt Hill
#
# Bulk Modulus (GPa) = 19.69569 50.32535 35.01052
# Shear Modulus (GPa) = 20.14148 27.36954 23.75551
#
# Velocity S-wave (km/s) = 3.32268 3.87326 3.60849
# Velocity P-wave (km/s) = 5.05135 6.89840 6.04583
#
# Compressibility (1/GPa) = 0.05077254
#
# Stress axis : x y z
#
# Youngs Moduli (GPa) = 61.39419 17.22526 99.43648
#
# Poissons Ratio (x) = 0.12114 0.63889
# Poissons Ratio (y) = 0.43177 0.33365
# Poissons Ratio (z) = 0.39447 0.05780
#
# Static dielectric constant tensor:
#      x y z
#    x 1.609980 0.000000 -0.015620 
#    y 0.000000 1.628420 0.000000 
#    z -0.015620 0.000000 1.619950 
# 
# From -- ./inp_files/319927.got.cif
#   From: 2010.05.17/outbox.cif.g08.bks.cpg/sg12_160_cif.got.tgz:319927.got - 2010.06.03 13:09:07.
