data_PCOD9186736
_publ_section_title
;
Structure prediction by ZEFSAII (Michael W. Deem and Ramdas Pophale) SiO2 
 PCOD9186736
Probable space group: C 2/M
;
_chemical_formula_sum "Si O2"
_cell_formula_units_Z 56
_cell_length_a 14.971785
_cell_length_b 8.821605
_cell_length_c 32.230311
_cell_angle_alpha 90.000000
_cell_angle_beta 44.346722
_cell_angle_gamma 90.000000
_cell_volume 2975.514241
_symmetry_space_group_name_H-M "C 2/M"
_symmetry_group_IT_number 12
_symmetry_cell_setting 'monoclinic'
loop_
_space_group_symop_operation_xyz
x,y,z
-x,y,-z
-x,-y,-z
x,-y,z
1/2+x,1/2+y,z
1/2-x,1/2+y,-z
1/2-x,1/2-y,-z
1/2+x,1/2-y,z
loop_
_atom_site_type_symbol
_atom_site_label
_atom_site_fract_x
_atom_site_fract_y
_atom_site_fract_z
Si Si1 0.757142 0.682890 0.151243
Si Si2 0.944699 0.179004 0.713368
Si Si3 0.265455 0.819217 0.928957
Si Si4 0.947605 0.682345 0.944948
Si Si5 0.095846 0.321551 0.594752
Si Si6 0.227256 0.176511 0.625171
Si Si7 0.518010 0.679787 0.446121
O O1 0.752558 0.500000 0.150887
O O2 0.669679 0.728112 0.219212
O O3 0.707185 0.749412 0.124760
O O4 0.905175 0.729095 0.106151
O O5 0.969778 0.276350 0.663748
O O6 0.082804 0.191531 0.690656
O O7 0.930836 0.000000 0.707049
O O8 0.372181 0.778344 0.927784
O O9 0.259128 0.000000 0.928315
O O10 0.131969 0.755826 0.991266
O O11 0.942750 0.500000 0.951618
O O12 0.118260 0.500000 0.587820
O O13 0.073090 0.260082 0.556569
O O14 0.204488 0.237307 0.585689
O O15 0.335368 0.273344 0.611322
O O16 0.262962 0.000000 0.613216
O O17 0.500000 0.726943 0.500000
O O18 0.499957 0.500000 0.449144
#
# Coordination Sequence:
#
# PCOD9186736 Si02
#       7
#     8   8   8   8   8   8   8
#     4  10  19  35  56  76 103 141 181 218 264 325
#     4   8  18  37  57  77 108 144 182 226 271 325
#     4  10  20  33  50  77 109 135 174 229 273 314
#     4   9  19  35  53  73 102 142 179 213 269 332
#     4  10  20  37  59  82 112 148 181 223 276 325
#     4   9  19  38  59  81 112 146 182 225 272 323
#     4  11  23  38  59  87 114 145 187 227 270 327
#
# _framework density 18.820276
#
# number of rings (size 3 to 8) (size 9 to 14) (size 15 to 20)
#    0.857    1.571    0.000    2.571    0.000    5.143 
#    2.571    0.000    0.000    0.000    0.000    0.000 
#    0.000    0.000    0.000    0.000    0.000    0.000 
#
# Total GULP energy -156077.112713 kJ/mol
# GULP energy per Si atom -5574.182597 kJ/mol
# Density = 1.877744 g / cm^3
# Si number density = 18.820276 Si / 1000 Ang^3
#
#
#
# Elastic Constant Matrix: (Units=GPa)
#
#
# Indices 1 2 3 4 5 6 
#
# 1 41.7110 -2.2758 1.7241 -0.0001 4.2125 0.0001
# 2 -2.2758 16.2835 10.5783 -0.0005 2.3225 0.0002
# 3 1.7241 10.5783 69.3671 0.0000 5.4093 -0.0001
# 4 -0.0001 -0.0005 0.0000 22.8966 -0.0001 7.6922
# 5 4.2125 2.3225 5.4093 -0.0001 17.6205 -0.0001
# 6 0.0001 0.0002 -0.0001 7.6922 -0.0001 25.6984
#
#
#
# Elastic Compliance Matrix: (Units=1/GPa)
#
#
# Indices 1 2 3 4 5 6 
#
# 1 0.024922 0.004960 -0.000881 0.000000 -0.006341 0.000000
# 2 0.004960 0.069763 -0.010197 0.000002 -0.007251 -0.000001
# 3 -0.000881 -0.010197 0.016261 0.000000 -0.003437 0.000000
# 4 0.000000 0.000002 0.000000 0.048558 0.000000 -0.014535
# 5 -0.006341 -0.007251 -0.003437 0.000000 0.060279 0.000000
# 6 0.000000 -0.000001 0.000000 -0.014535 0.000000 0.043264
#
#
# Mechanical properties :
#
#
# Convention : Reuss Voigt Hill
#
# Bulk Modulus (GPa) = 10.13061 16.37942 13.25502
# Shear Modulus (GPa) = 16.22398 21.06542 18.64470
#
# Velocity S-wave (km/s) = 2.93925 3.34921 3.15091
# Velocity P-wave (km/s) = 4.11259 4.86603 4.50509
#
# Compressibility (1/GPa) = 0.09871070
#
# Stress axis : x y z
#
# Youngs Moduli (GPa) = 40.12525 14.33415 61.49701
#
# Poissons Ratio (x) = -0.07110 0.05420
# Poissons Ratio (y) = -0.19902 0.62706
# Poissons Ratio (z) = 0.03536 0.14616
#
# Static dielectric constant tensor:
#      x y z
#    x 1.655820 0.000000 -0.024560 
#    y 0.000000 1.626470 0.000000 
#    z -0.024560 0.000000 1.675020 
# 
# From -- ./inp_files/374962.got.cif
#   From: 2010.05.17/outbox.cif.g08.bks.cpg/sg12_188_cif.got.tgz:374962.got - 2010.06.03 13:09:07.
