data_PCOD9186169
_publ_section_title
;
Structure prediction by ZEFSAII (Michael W. Deem and Ramdas Pophale) SiO2 
 PCOD9186169
Probable space group: C 2/M
;
_chemical_formula_sum "Si O2"
_cell_formula_units_Z 28
_cell_length_a 5.197183
_cell_length_b 31.499882
_cell_length_c 9.595596
_cell_angle_alpha 90.000000
_cell_angle_beta 122.912697
_cell_angle_gamma 90.000000
_cell_volume 1318.770790
_symmetry_space_group_name_H-M "C 2/M"
_symmetry_group_IT_number 12
_symmetry_cell_setting 'monoclinic'
loop_
_space_group_symop_operation_xyz
x,y,z
-x,y,-z
-x,-y,-z
x,-y,z
1/2+x,1/2+y,z
1/2-x,1/2+y,-z
1/2-x,1/2-y,-z
1/2+x,1/2-y,z
loop_
_atom_site_type_symbol
_atom_site_label
_atom_site_fract_x
_atom_site_fract_y
_atom_site_fract_z
Si Si1 0.559974 0.868079 0.678669
Si Si2 0.866615 0.000000 0.118006
Si Si3 0.455397 0.768500 0.689455
Si Si4 0.809325 0.907996 0.182956
O O1 0.500000 0.878327 0.500000
O O2 0.506778 0.818085 0.685445
O O3 0.318670 0.892358 0.706191
O O4 0.917632 0.879970 0.801755
O O5 0.940801 0.043971 0.216911
O O6 0.500000 0.000000 0.000000
O O7 0.000000 0.000000 0.000000
O O8 0.250000 0.750000 0.500000
O O9 0.767599 0.742760 0.770535
O O10 0.500000 0.906412 0.000000
#
# Coordination Sequence:
#
# PCOD9186169 Si02
#       4
#     8   4   8   8
#     4  12  23  38  65 100 126 160 217 270 313 366
#     4  10  20  42  69  88 119 178 223 236 295 412
#     4  10  19  34  59  89 116 161 219 250 286 376
#     4  11  24  42  65  93 128 167 212 260 319 377
#
# _framework density 21.231891999999998
#
# number of rings (size 3 to 8) (size 9 to 14) (size 15 to 20)
#    0.000    1.143    2.857    6.857    4.000    0.000 
#    0.000    4.286    0.000   17.143    0.000    0.000 
#    0.000    0.000    0.000    0.000    0.000    0.000 
#
# Total GULP energy -78151.975353 kJ/mol
# GULP energy per Si atom -5582.283954 kJ/mol
# Density = 2.118357 g / cm^3
# Si number density = 21.231892 Si / 1000 Ang^3
#
#
#
# Elastic Constant Matrix: (Units=GPa)
#
#
# Indices 1 2 3 4 5 6 
#
# 1 207.3459 88.0539 25.0348 0.0000 -21.6893 0.0000
# 2 88.0539 190.0988 42.0781 0.0000 -15.5447 0.0000
# 3 25.0348 42.0781 41.5457 0.0000 -9.7242 0.0000
# 4 0.0000 0.0000 0.0000 33.5415 0.0000 -9.9067
# 5 -21.6893 -15.5447 -9.7242 0.0000 33.2278 0.0000
# 6 0.0000 0.0000 0.0000 -9.9067 0.0000 59.2590
#
#
#
# Elastic Compliance Matrix: (Units=1/GPa)
#
#
# Indices 1 2 3 4 5 6 
#
# 1 0.006260 -0.002556 -0.000544 0.000000 0.002731 0.000000
# 2 -0.002556 0.007872 -0.006400 0.000000 0.000142 0.000000
# 3 -0.000544 -0.006400 0.032309 0.000000 0.006106 0.000000
# 4 0.000000 0.000000 0.000000 0.031362 0.000000 0.005243
# 5 0.002731 0.000142 0.006106 0.000000 0.033731 0.000000
# 6 0.000000 0.000000 0.000000 0.005243 0.000000 0.017752
#
#
# Mechanical properties :
#
#
# Convention : Reuss Voigt Hill
#
# Bulk Modulus (GPa) = 36.44183 83.25822 59.85003
# Shear Modulus (GPa) = 31.75943 44.12724 37.94333
#
# Velocity S-wave (km/s) = 3.87180 4.56383 4.23199
# Velocity P-wave (km/s) = 6.09826 8.18965 7.22008
#
# Compressibility (1/GPa) = 0.02744099
#
# Stress axis : x y z
#
# Youngs Moduli (GPa) = 159.75577 127.02530 30.95092
#
# Poissons Ratio (x) = 0.32463 0.01685
# Poissons Ratio (y) = 0.40828 0.19809
# Poissons Ratio (z) = 0.08696 0.81298
#
# Static dielectric constant tensor:
#      x y z
#    x 1.825770 0.000000 0.008250 
#    y 0.000000 1.774540 0.000000 
#    z 0.008250 0.000000 1.764280 
# 
# From -- ./inp_files/34690.got.cif
#   From: 2010.05.17/outbox.cif.g08.bks.cpg/sg12_18_cif.got.tgz:34690.got - 2010.06.03 13:09:07.
