data_PCOD9186768
_publ_section_title
;
Structure prediction by ZEFSAII (Michael W. Deem and Ramdas Pophale) SiO2 
 PCOD9186768
Probable space group: C 2/M
;
_chemical_formula_sum "Si O2"
_cell_formula_units_Z 48
_cell_length_a 9.736178
_cell_length_b 16.537667
_cell_length_c 21.442336
_cell_angle_alpha 90.000000
_cell_angle_beta 47.353392
_cell_angle_gamma 90.000000
_cell_volume 2539.480130
_symmetry_space_group_name_H-M "C 2/M"
_symmetry_group_IT_number 12
_symmetry_cell_setting 'monoclinic'
loop_
_space_group_symop_operation_xyz
x,y,z
-x,y,-z
-x,-y,-z
x,-y,z
1/2+x,1/2+y,z
1/2-x,1/2+y,-z
1/2-x,1/2-y,-z
1/2+x,1/2-y,z
loop_
_atom_site_type_symbol
_atom_site_label
_atom_site_fract_x
_atom_site_fract_y
_atom_site_fract_z
Si Si1 0.188341 0.754364 0.808067
Si Si2 0.221237 0.591575 0.437063
Si Si3 0.795168 0.176463 0.533522
Si Si4 0.613945 0.174065 0.029073
Si Si5 0.517983 0.408688 0.069034
Si Si6 0.105932 0.236403 0.694953
O O1 0.215773 0.758405 0.725696
O O2 0.387422 0.737162 0.777487
O O3 0.043223 0.683078 0.869724
O O4 0.099949 0.838420 0.860497
O O5 0.254253 0.500000 0.406032
O O6 0.274618 0.601555 0.493444
O O7 0.332637 0.655975 0.361017
O O8 0.000000 0.609243 0.500000
O O9 0.750000 0.250000 0.500000
O O10 0.655399 0.189035 0.634123
O O11 0.000000 0.182851 0.500000
O O12 0.500000 0.181313 0.000000
O O13 0.750000 0.250000 0.000000
O O14 0.761915 0.101859 0.983264
O O15 0.456664 0.500000 0.103232
O O16 0.500000 0.396725 0.000000
#
# Coordination Sequence:
#
# PCOD9186768 Si02
#       6
#     8   8   8   8   8   8
#     4  11  20  33  55  82 110 138 176 229 279 320
#     4  10  21  38  57  78 109 148 186 221 263 323
#     4  10  19  35  56  78 105 142 186 220 260 322
#     4  10  19  35  56  79 108 146 189 222 261 324
#     4  10  21  38  57  77 107 148 189 224 265 324
#     4  11  20  33  55  82 109 137 176 228 276 319
#
# _framework density 18.901506000000001
#
# number of rings (size 3 to 8) (size 9 to 14) (size 15 to 20)
#    0.000    1.667    0.000   10.000    0.000    1.333 
#    0.000    1.667    0.000    4.000    0.000    0.000 
#    0.000    0.000    0.000    0.000    0.000    0.000 
#
# Total GULP energy -133840.340340 kJ/mol
# GULP energy per Si atom -5576.680848 kJ/mol
# Density = 1.885849 g / cm^3
# Si number density = 18.901506 Si / 1000 Ang^3
#
#
#
# Elastic Constant Matrix: (Units=GPa)
#
#
# Indices 1 2 3 4 5 6 
#
# 1 121.5879 7.7682 6.1431 0.0004 -1.2679 0.0000
# 2 7.7682 65.9910 15.9363 0.0010 1.2729 -0.0002
# 3 6.1431 15.9363 59.7012 0.0030 0.2357 -0.0005
# 4 0.0004 0.0010 0.0030 24.2653 -0.0005 -0.5487
# 5 -1.2679 1.2729 0.2357 -0.0005 43.7869 0.0000
# 6 0.0000 -0.0002 -0.0005 -0.5487 0.0000 11.4226
#
#
#
# Elastic Compliance Matrix: (Units=1/GPa)
#
#
# Indices 1 2 3 4 5 6 
#
# 1 0.008312 -0.000830 -0.000635 0.000000 0.000268 0.000000
# 2 -0.000830 0.016289 -0.004261 0.000000 -0.000475 0.000000
# 3 -0.000635 -0.004261 0.017953 -0.000002 0.000009 0.000001
# 4 0.000000 0.000000 -0.000002 0.041256 0.000000 0.001982
# 5 0.000268 -0.000475 0.000009 0.000000 0.022859 0.000000
# 6 0.000000 0.000000 0.000001 0.001982 0.000000 0.087641
#
#
# Mechanical properties :
#
#
# Convention : Reuss Voigt Hill
#
# Bulk Modulus (GPa) = 32.15168 34.10837 33.13002
# Shear Modulus (GPa) = 23.13416 30.39047 26.76232
#
# Velocity S-wave (km/s) = 3.50227 4.01413 3.76690
# Velocity P-wave (km/s) = 5.77941 6.29037 6.04030
#
# Compressibility (1/GPa) = 0.03110258
#
# Stress axis : x y z
#
# Youngs Moduli (GPa) = 120.30188 61.38942 55.70182
#
# Poissons Ratio (x) = 0.05098 0.03536
# Poissons Ratio (y) = 0.09990 0.23734
# Poissons Ratio (z) = 0.07636 0.26157
#
# Static dielectric constant tensor:
#      x y z
#    x 1.660920 0.000000 0.001930 
#    y 0.000000 1.672120 0.000000 
#    z 0.001930 0.000000 1.671400 
# 
# From -- ./inp_files/300617.got.cif
#   From: 2010.05.17/outbox.cif.g08.bks.cpg/sg12_151_cif.got.tgz:300617.got - 2010.06.03 13:09:07.
