data_PCOD9186006
_publ_section_title
;
Structure prediction by ZEFSAII (Michael W. Deem and Ramdas Pophale) SiO2 
 PCOD9186006
Probable space group: C 2/M
;
_chemical_formula_sum "Si O2"
_cell_formula_units_Z 64
_cell_length_a 25.702878
_cell_length_b 14.230856
_cell_length_c 9.176173
_cell_angle_alpha 90.000000
_cell_angle_beta 59.881127
_cell_angle_gamma 90.000000
_cell_volume 2903.244015
_symmetry_space_group_name_H-M "C 2/M"
_symmetry_group_IT_number 12
_symmetry_cell_setting 'monoclinic'
loop_
_space_group_symop_operation_xyz
x,y,z
-x,y,-z
-x,-y,-z
x,-y,z
1/2+x,1/2+y,z
1/2-x,1/2+y,-z
1/2-x,1/2-y,-z
1/2+x,1/2-y,z
loop_
_atom_site_type_symbol
_atom_site_label
_atom_site_fract_x
_atom_site_fract_y
_atom_site_fract_z
Si Si1 0.274571 0.391798 0.783443
Si Si2 0.283859 0.112035 0.636678
Si Si3 0.850301 0.262251 0.768558
Si Si4 0.099221 0.389011 0.721117
Si Si5 0.465019 0.611942 0.197950
Si Si6 0.869760 0.390619 0.998384
Si Si7 0.825460 0.114075 0.394636
Si Si8 0.963048 0.260738 0.417290
O O1 0.291991 0.500000 0.781085
O O2 0.306969 0.325869 0.855535
O O3 0.202759 0.387048 0.883009
O O4 0.297995 0.360865 0.590539
O O5 0.308855 0.161281 0.744662
O O6 0.334343 0.128006 0.440572
O O7 0.219949 0.147598 0.666899
O O8 0.280480 0.000000 0.665647
O O9 0.901219 0.231313 0.583257
O O10 0.881799 0.314190 0.858142
O O11 0.088243 0.500000 0.724222
O O12 0.100224 0.365887 0.889978
O O13 0.052399 0.334269 0.687080
O O14 0.467031 0.500000 0.221142
O O15 0.394805 0.641748 0.281080
O O16 0.490306 0.670291 0.298619
O O17 0.500000 0.631763 0.000000
O O18 0.884934 0.500000 0.940168
O O19 0.823976 0.000000 0.391109
O O20 0.000000 0.301074 0.500000
#
# Coordination Sequence:
#
# PCOD9186006 Si02
#       8
#     8   8   8   8   8   8   8   8
#     4  10  19  34  58  89 127 166 203 243 295 366
#     4   9  17  32  56  90 126 159 196 241 300 367
#     4  11  22  35  58  90 125 164 202 250 309 364
#     4   9  19  38  64  90 121 163 201 245 310 372
#     4  10  22  42  67  92 121 162 210 258 302 351
#     4  10  20  37  60  91 129 163 197 245 304 368
#     4   9  16  32  60  89 121 160 203 246 294 360
#     4  11  25  42  63  90 121 159 208 263 310 360
#
# _framework density 22.044307
#
# number of rings (size 3 to 8) (size 9 to 14) (size 15 to 20)
#    0.000    2.125    2.500    0.750    0.000    3.500 
#    0.000    1.250    0.000    5.625    0.000    0.000 
#    0.000    0.000    0.000    0.000    0.000    0.000 
#
# Total GULP energy -178885.157310 kJ/mol
# GULP energy per Si atom -5590.161166 kJ/mol
# Density = 2.199413 g / cm^3
# Si number density = 22.044307 Si / 1000 Ang^3
#
#
#
# Elastic Constant Matrix: (Units=GPa)
#
#
# Indices 1 2 3 4 5 6 
#
# 1 64.7653 32.4656 23.6409 0.0000 30.7088 0.0000
# 2 32.4656 69.9855 50.7169 0.0000 25.0976 0.0000
# 3 23.6409 50.7169 99.2948 0.0000 16.4003 0.0000
# 4 0.0000 0.0000 0.0000 24.3451 0.0000 1.0274
# 5 30.7088 25.0976 16.4003 0.0000 38.1304 0.0000
# 6 0.0000 0.0000 0.0000 1.0274 0.0000 19.8757
#
#
#
# Elastic Compliance Matrix: (Units=1/GPa)
#
#
# Indices 1 2 3 4 5 6 
#
# 1 0.026882 -0.005748 -0.000553 0.000000 -0.017629 0.000000
# 2 -0.005748 0.028863 -0.011842 0.000000 -0.009275 0.000000
# 3 -0.000553 -0.011842 0.016029 0.000000 0.001345 0.000000
# 4 0.000000 0.000000 0.000000 0.041166 0.000000 -0.002128
# 5 -0.017629 -0.009275 0.001345 0.000000 0.045950 0.000000
# 6 0.000000 0.000000 0.000000 -0.002128 0.000000 0.050423
#
#
# Mechanical properties :
#
#
# Convention : Reuss Voigt Hill
#
# Bulk Modulus (GPa) = 28.17778 49.74360 38.96069
# Shear Modulus (GPa) = 19.42301 24.95172 22.18736
#
# Velocity S-wave (km/s) = 2.97154 3.36801 3.17596
# Velocity P-wave (km/s) = 4.95817 6.14320 5.58222
#
# Compressibility (1/GPa) = 0.03548895
#
# Stress axis : x y z
#
# Youngs Moduli (GPa) = 37.19924 34.64678 62.38753
#
# Poissons Ratio (x) = 0.19915 0.03448
# Poissons Ratio (y) = 0.21382 0.73878
# Poissons Ratio (z) = 0.02056 0.41028
#
# Static dielectric constant tensor:
#      x y z
#    x 1.819340 0.000000 -0.013040 
#    y 0.000000 1.813100 0.000000 
#    z -0.013040 0.000000 1.804150 
# 
# From -- ./inp_files/104540.got.cif
#   From: 2010.05.17/outbox.cif.g08.bks.cpg/sg12_53_cif.got.tgz:104540.got - 2010.06.03 13:09:07.
