data_PCOD9186971
_publ_section_title
;
Structure prediction by ZEFSAII (Michael W. Deem and Ramdas Pophale) SiO2 
 PCOD9186971
Probable space group: C 2/M
;
_chemical_formula_sum "Si O2"
_cell_formula_units_Z 64
_cell_length_a 29.115595
_cell_length_b 13.829131
_cell_length_c 8.398745
_cell_angle_alpha 90.000000
_cell_angle_beta 112.730652
_cell_angle_gamma 90.000000
_cell_volume 3119.047580
_symmetry_space_group_name_H-M "C 2/M"
_symmetry_group_IT_number 12
_symmetry_cell_setting 'monoclinic'
loop_
_space_group_symop_operation_xyz
x,y,z
-x,y,-z
-x,-y,-z
x,-y,z
1/2+x,1/2+y,z
1/2-x,1/2+y,-z
1/2-x,1/2-y,-z
1/2+x,1/2-y,z
loop_
_atom_site_type_symbol
_atom_site_label
_atom_site_fract_x
_atom_site_fract_y
_atom_site_fract_z
Si Si1 0.689961 0.206617 0.702241
Si Si2 0.173090 0.113340 0.477680
Si Si3 0.038975 0.884917 0.812691
Si Si4 0.056518 0.385258 0.029158
Si Si5 0.201141 0.791867 0.199952
Si Si6 0.435610 0.616311 0.782345
Si Si7 0.840378 0.387228 0.668012
Si Si8 0.885905 0.252430 0.138803
O O1 0.688839 0.317900 0.640988
O O2 0.747477 0.191026 0.822262
O O3 0.674634 0.142973 0.529487
O O4 0.649295 0.194827 0.783454
O O5 0.202951 0.139604 0.357312
O O6 0.117297 0.146112 0.354215
O O7 0.174868 0.000000 0.513671
O O8 0.075423 0.827337 0.746472
O O9 0.982025 0.850739 0.738925
O O10 0.041650 0.000000 0.791470
O O11 0.056004 0.863093 0.019305
O O12 0.054170 0.500000 0.992658
O O13 0.079920 0.327430 0.912623
O O14 0.100283 0.371264 0.219986
O O15 0.000000 0.354924 0.000000
O O16 0.190787 0.684307 0.258041
O O17 0.153377 0.805597 0.025144
O O18 0.436832 0.500000 0.777287
O O19 0.829980 0.500000 0.684996
#
# Coordination Sequence:
#
# PCOD9186971 Si02
#       8
#     8   8   8   8   8   8   8   8
#     4  11  24  36  50  81 114 144 176 225 277 322
#     4  10  19  35  57  81 108 142 181 220 261 315
#     4   9  17  30  51  80 108 136 171 210 253 310
#     4   9  20  39  62  84 103 134 185 233 269 318
#     4  10  21  37  56  77 105 141 192 228 259 312
#     4   8  15  29  52  78 102 131 173 215 247 295
#     4   9  19  38  61  80 104 139 182 227 272 323
#     4  11  22  35  56  79 111 145 177 221 278 323
#
# _framework density 20.519083999999999
#
# number of rings (size 3 to 8) (size 9 to 14) (size 15 to 20)
#    0.000    2.375    1.250    2.625    1.750    3.000 
#    0.000    2.500    0.000    9.000    0.000    0.000 
#    0.000    0.000    0.000    0.000    0.000    0.000 
#
# Total GULP energy -178513.549715 kJ/mol
# GULP energy per Si atom -5578.548429 kJ/mol
# Density = 2.047238 g / cm^3
# Si number density = 20.519084 Si / 1000 Ang^3
#
#
#
# Elastic Constant Matrix: (Units=GPa)
#
#
# Indices 1 2 3 4 5 6 
#
# 1 171.5755 15.4461 16.6301 0.0000 8.5105 0.0000
# 2 15.4461 59.8985 -4.4678 0.0000 7.5364 0.0000
# 3 16.6301 -4.4678 15.8896 0.0000 4.5674 0.0000
# 4 0.0000 0.0000 0.0000 10.7419 0.0000 11.9012
# 5 8.5105 7.5364 4.5674 0.0000 20.5608 0.0000
# 6 0.0000 0.0000 0.0000 11.9012 0.0000 13.7006
#
#
#
# Elastic Compliance Matrix: (Units=1/GPa)
#
#
# Indices 1 2 3 4 5 6 
#
# 1 0.006792 -0.002290 -0.007676 0.000000 -0.000267 0.000000
# 2 -0.002290 0.019087 0.010151 0.000000 -0.008303 0.000000
# 3 -0.007676 0.010151 0.079024 0.000000 -0.018098 0.000000
# 4 0.000000 0.000000 0.000000 2.476652 0.000000 -2.151378
# 5 -0.000267 -0.008303 -0.018098 0.000000 0.055811 0.000000
# 6 0.000000 0.000000 0.000000 -2.151378 0.000000 1.941814
#
#
# Mechanical properties :
#
#
# Convention : Reuss Voigt Hill
#
# Bulk Modulus (GPa) = 9.49918 33.62006 21.55962
# Shear Modulus (GPa) = 1.08368 23.65098 12.36733
#
# Velocity S-wave (km/s) = 0.72752 3.39873 2.45771
# Velocity P-wave (km/s) = 2.31197 5.64111 4.31088
#
# Compressibility (1/GPa) = 0.10527222
#
# Stress axis : x y z
#
# Youngs Moduli (GPa) = 147.23820 52.39070 12.65445
#
# Poissons Ratio (x) = 0.11999 0.09713
# Poissons Ratio (y) = 0.33723 -0.12845
# Poissons Ratio (z) = 1.13013 -0.53180
#
# Static dielectric constant tensor:
#      x y z
#    x 1.777850 0.000000 0.008950 
#    y 0.000000 1.737160 0.000000 
#    z 0.008950 0.000000 1.749470 
# 
# From -- ./inp_files/104674.got.cif
#   From: 2010.05.17/outbox.cif.g08.bks.cpg/sg12_53_cif.got.tgz:104674.got - 2010.06.03 13:09:07.
