data_PCOD9186927
_publ_section_title
;
Structure prediction by ZEFSAII (Michael W. Deem and Ramdas Pophale) SiO2 
 PCOD9186927
Probable space group: C 2/M
;
_chemical_formula_sum "Si O2"
_cell_formula_units_Z 56
_cell_length_a 11.649318
_cell_length_b 15.119493
_cell_length_c 14.426851
_cell_angle_alpha 90.000000
_cell_angle_beta 120.081272
_cell_angle_gamma 90.000000
_cell_volume 2198.789521
_symmetry_space_group_name_H-M "C 2/M"
_symmetry_group_IT_number 12
_symmetry_cell_setting 'monoclinic'
loop_
_space_group_symop_operation_xyz
x,y,z
-x,y,-z
-x,-y,-z
x,-y,z
1/2+x,1/2+y,z
1/2-x,1/2+y,-z
1/2-x,1/2-y,-z
1/2+x,1/2-y,z
loop_
_atom_site_type_symbol
_atom_site_label
_atom_site_fract_x
_atom_site_fract_y
_atom_site_fract_z
Si Si1 0.405114 0.782489 0.133363
Si Si2 0.208796 0.405951 0.065172
Si Si3 0.286133 0.901594 0.389769
Si Si4 0.511788 0.597360 0.161668
Si Si5 0.636117 0.261885 0.687386
Si Si6 0.429771 0.600352 0.571157
Si Si7 0.357601 0.100820 0.752158
O O1 0.487321 0.699940 0.121410
O O2 0.318174 0.760630 0.189574
O O3 0.507932 0.851962 0.220925
O O4 0.324330 0.831407 0.021340
O O5 0.173895 0.500000 0.005532
O O6 0.366148 0.410256 0.150361
O O7 0.134922 0.401091 0.132278
O O8 0.370415 0.822618 0.381478
O O9 0.226469 0.889963 0.469360
O O10 0.148725 0.899598 0.273675
O O11 0.343795 0.000000 0.404151
O O12 0.520339 0.500000 0.114608
O O13 0.498959 0.314268 0.643871
O O14 0.737345 0.332702 0.684579
O O15 0.500000 0.600122 0.500000
O O16 0.460878 0.500000 0.619580
O O17 0.336679 0.000000 0.712078
#
# Coordination Sequence:
#
# PCOD9186927 Si02
#       7
#     8   8   8   8   8   8   8
#     4  12  22  35  56  81 113 151 200 236 286 341
#     4  10  21  37  56  78 111 155 201 252 291 323
#     4  10  21  40  59  85 120 153 188 230 285 340
#     4  10  19  35  57  78 109 154 198 241 282 329
#     4  12  22  37  61  87 116 153 184 231 288 344
#     4  10  21  40  67  93 115 143 184 230 276 341
#     4  11  22  37  57  81 112 151 197 246 289 329
#
# _framework density 25.468558000000002
#
# number of rings (size 3 to 8) (size 9 to 14) (size 15 to 20)
#    0.000    1.286    4.286    1.714    0.000    2.857 
#    0.000    0.714    0.000    4.714    0.000    0.000 
#    0.000    0.000    0.000    0.000    0.000    0.000 
#
# Total GULP energy -156154.474535 kJ/mol
# GULP energy per Si atom -5576.945519 kJ/mol
# Density = 2.541059 g / cm^3
# Si number density = 25.468558 Si / 1000 Ang^3
#
#
#
# Elastic Constant Matrix: (Units=GPa)
#
#
# Indices 1 2 3 4 5 6 
#
# 1 56.9076 35.3136 10.7953 0.0000 4.1953 0.0000
# 2 35.3136 205.1209 27.0300 0.0000 -14.2127 0.0000
# 3 10.7953 27.0300 53.1914 0.0000 -13.1429 0.0000
# 4 0.0000 0.0000 0.0000 10.1074 0.0000 -12.7946
# 5 4.1953 -14.2127 -13.1429 0.0000 27.2121 0.0000
# 6 0.0000 0.0000 0.0000 -12.7946 0.0000 33.9180
#
#
#
# Elastic Compliance Matrix: (Units=1/GPa)
#
#
# Indices 1 2 3 4 5 6 
#
# 1 0.021124 -0.003575 -0.004243 0.000000 -0.007173 0.000000
# 2 -0.003575 0.005895 -0.001559 0.000000 0.002877 0.000000
# 3 -0.004243 -0.001559 0.023180 0.000000 0.011035 0.000000
# 4 0.000000 0.000000 0.000000 0.189360 0.000000 0.071431
# 5 -0.007173 0.002877 0.011035 0.000000 0.044687 0.000000
# 6 0.000000 0.000000 0.000000 0.071431 0.000000 0.056428
#
#
# Mechanical properties :
#
#
# Convention : Reuss Voigt Hill
#
# Bulk Modulus (GPa) = 31.80091 51.27749 41.53920
# Shear Modulus (GPa) = 13.51678 30.38624 21.95151
#
# Velocity S-wave (km/s) = 2.30624 3.45786 2.93901
# Velocity P-wave (km/s) = 4.42777 6.00997 5.27849
#
# Compressibility (1/GPa) = 0.03144564
#
# Stress axis : x y z
#
# Youngs Moduli (GPa) = 47.33891 169.62278 43.14006
#
# Poissons Ratio (x) = 0.60634 0.18305
# Poissons Ratio (y) = 0.16922 0.06728
# Poissons Ratio (z) = 0.20086 0.26453
#
# Static dielectric constant tensor:
#      x y z
#    x 1.974550 0.000000 0.008900 
#    y 0.000000 2.124130 0.000000 
#    z 0.008900 0.000000 2.109870 
# 
# From -- ./inp_files/262966.got.cif
#   From: 2010.05.17/outbox.cif.g08.bks.cpg/sg12_132_cif.got.tgz:262966.got - 2010.06.03 13:09:07.
