data_PCOD9186182
_publ_section_title
;
Structure prediction by ZEFSAII (Michael W. Deem and Ramdas Pophale) SiO2 
 PCOD9186182
Probable space group: C 2/M
;
_chemical_formula_sum "Si O2"
_cell_formula_units_Z 64
_cell_length_a 24.394733
_cell_length_b 12.823844
_cell_length_c 11.334478
_cell_angle_alpha 90.000000
_cell_angle_beta 63.748826
_cell_angle_gamma 90.000000
_cell_volume 3180.110828
_symmetry_space_group_name_H-M "C 2/M"
_symmetry_group_IT_number 12
_symmetry_cell_setting 'monoclinic'
loop_
_space_group_symop_operation_xyz
x,y,z
-x,y,-z
-x,-y,-z
x,-y,z
1/2+x,1/2+y,z
1/2-x,1/2+y,-z
1/2-x,1/2-y,-z
1/2+x,1/2-y,z
loop_
_atom_site_type_symbol
_atom_site_label
_atom_site_fract_x
_atom_site_fract_y
_atom_site_fract_z
Si Si1 0.647807 0.778179 0.558324
Si Si2 0.935879 0.118011 0.225732
Si Si3 0.751804 0.612426 0.399377
Si Si4 0.431031 0.183303 0.597665
Si Si5 0.681020 0.879597 0.149147
Si Si6 0.373310 0.380907 0.053108
Si Si7 0.722581 0.790758 0.860347
Si Si8 0.937708 0.881357 0.752271
O O1 0.604080 0.710185 0.682625
O O2 0.701522 0.699468 0.470671
O O3 0.685177 0.866571 0.591444
O O4 0.608943 0.815821 0.483389
O O5 0.930275 0.125319 0.088988
O O6 0.000803 0.125920 0.228239
O O7 0.913307 0.000000 0.274972
O O8 0.727466 0.500000 0.455679
O O9 0.764496 0.623958 0.249421
O O10 0.500000 0.146235 0.500000
O O11 0.388758 0.127245 0.736901
O O12 0.437571 0.299369 0.647217
O O13 0.718988 0.785034 0.174371
O O14 0.701488 0.000000 0.150843
O O15 0.695277 0.848740 0.000438
O O16 0.350395 0.500000 0.084068
O O17 0.326520 0.293567 0.137784
O O18 0.387037 0.362274 0.901895
O O19 0.931333 0.000000 0.714917
#
# Coordination Sequence:
#
# PCOD9186182 Si02
#       8
#     8   8   8   8   8   8   8   8
#     4  11  23  41  59  92 124 165 209 256 311 373
#     4  10  19  34  59  89 123 162 203 253 313 372
#     4  11  24  42  65  91 123 161 207 262 319 376
#     4  12  24  42  64  90 129 175 215 256 312 378
#     4  11  25  43  64  93 126 163 211 261 315 380
#     4  10  19  34  61  92 121 156 201 255 319 376
#     4  11  21  42  67  92 121 158 204 266 324 369
#     4  10  21  36  58  90 127 162 204 259 316 374
#
# _framework density 20.125084999999999
#
# number of rings (size 3 to 8) (size 9 to 14) (size 15 to 20)
#    0.000    1.250    5.000    1.500    0.000    3.500 
#    0.000    0.000    0.000    0.000    0.000    3.500 
#    0.000    0.000    0.000    0.000    0.000    0.000 
#
# Total GULP energy -178427.041441 kJ/mol
# GULP energy per Si atom -5575.845045 kJ/mol
# Density = 2.007928 g / cm^3
# Si number density = 20.125085 Si / 1000 Ang^3
#
#
#
# Elastic Constant Matrix: (Units=GPa)
#
#
# Indices 1 2 3 4 5 6 
#
# 1 58.5651 13.2094 5.9676 0.0000 3.2317 0.0000
# 2 13.2094 57.8206 20.5343 0.0000 -2.9587 0.0000
# 3 5.9676 20.5343 57.6375 0.0000 1.2511 0.0000
# 4 0.0000 0.0000 0.0000 94.3246 0.0000 -42.0404
# 5 3.2317 -2.9587 1.2511 0.0000 32.9871 0.0000
# 6 0.0000 0.0000 0.0000 -42.0404 0.0000 29.5263
#
#
#
# Elastic Compliance Matrix: (Units=1/GPa)
#
#
# Indices 1 2 3 4 5 6 
#
# 1 0.018161 -0.004129 -0.000363 0.000000 -0.002136 0.000000
# 2 -0.004129 0.020878 -0.007066 0.000000 0.002545 0.000000
# 3 -0.000363 -0.007066 0.019934 0.000000 -0.001354 0.000000
# 4 0.000000 0.000000 0.000000 0.029014 0.000000 0.041311
# 5 -0.002136 0.002545 -0.001354 0.000000 0.030804 0.000000
# 6 0.000000 0.000000 0.000000 0.041311 0.000000 0.092687
#
#
# Mechanical properties :
#
#
# Convention : Reuss Voigt Hill
#
# Bulk Modulus (GPa) = 27.88852 28.16066 28.02459
# Shear Modulus (GPa) = 20.28017 40.32174 30.30095
#
# Velocity S-wave (km/s) = 3.17788 4.48097 3.88446
# Velocity P-wave (km/s) = 5.23000 6.38712 5.83730
#
# Compressibility (1/GPa) = 0.03585705
#
# Stress axis : x y z
#
# Youngs Moduli (GPa) = 55.06227 47.89765 50.16538
#
# Poissons Ratio (x) = 0.19779 0.01820
# Poissons Ratio (y) = 0.22738 0.35446
# Poissons Ratio (z) = 0.01998 0.33843
#
# Static dielectric constant tensor:
#      x y z
#    x 1.740580 0.000000 -0.011920 
#    y 0.000000 1.687260 0.000000 
#    z -0.011920 0.000000 1.733760 
# 
# From -- ./inp_files/175248.got.cif
#   From: 2010.05.17/outbox.cif.g08.bks.cpg/sg12_88_cif.got.tgz:175248.got - 2010.06.03 13:09:07.
