data_PCOD9186987
_publ_section_title
;
Structure prediction by ZEFSAII (Michael W. Deem and Ramdas Pophale) SiO2 
 PCOD9186987
Probable space group: C 2/M
;
_chemical_formula_sum "Si O2"
_cell_formula_units_Z 36
_cell_length_a 18.320418
_cell_length_b 14.723360
_cell_length_c 8.667040
_cell_angle_alpha 90.000000
_cell_angle_beta 44.638931
_cell_angle_gamma 90.000000
_cell_volume 1642.645835
_symmetry_space_group_name_H-M "C 2/M"
_symmetry_group_IT_number 12
_symmetry_cell_setting 'monoclinic'
loop_
_space_group_symop_operation_xyz
x,y,z
-x,y,-z
-x,-y,-z
x,-y,z
1/2+x,1/2+y,z
1/2-x,1/2+y,-z
1/2-x,1/2-y,-z
1/2+x,1/2-y,z
loop_
_atom_site_type_symbol
_atom_site_label
_atom_site_fract_x
_atom_site_fract_y
_atom_site_fract_z
Si Si1 0.801630 0.097797 0.649378
Si Si2 0.834028 0.717287 0.746818
Si Si3 0.567911 0.894676 0.142474
Si Si4 0.500000 0.233345 0.000000
Si Si5 0.293992 0.665674 0.336561
O O1 0.861747 0.186804 0.622275
O O2 0.806749 0.095883 0.456046
O O3 0.837917 0.000000 0.656819
O O4 0.679901 0.107135 0.883227
O O5 0.912447 0.658138 0.728858
O O6 0.779973 0.653962 0.698619
O O7 0.750000 0.750000 0.000000
O O8 0.488512 0.835239 0.160954
O O9 0.538325 0.000000 0.203287
O O10 0.596114 0.298368 0.889295
O O11 0.250000 0.750000 0.500000
#
# Coordination Sequence:
#
# PCOD9186987 Si02
#       5
#     8   8   8   4   8
#     4   9  18  35  58  81 110 150 193 232 279 339
#     4   9  16  34  56  80 115 152 190 228 286 345
#     4  10  20  34  60  90 114 147 189 240 300 347
#     4  12  19  34  61  82 120 150 185 240 289 348
#     4  10  19  35  57  81 113 157 193 227 284 344
#
# _framework density 21.915861
#
# number of rings (size 3 to 8) (size 9 to 14) (size 15 to 20)
#    0.000    2.222    6.667    0.333    0.000    0.889 
#    0.000    5.000    0.000    8.000    0.000    0.000 
#    0.000    0.000    0.000    0.000    0.000    0.000 
#
# Total GULP energy -100334.408033 kJ/mol
# GULP energy per Si atom -5574.133780 kJ/mol
# Density = 2.186598 g / cm^3
# Si number density = 21.915861 Si / 1000 Ang^3
#
#
#
# Elastic Constant Matrix: (Units=GPa)
#
#
# Indices 1 2 3 4 5 6 
#
# 1 124.8060 37.4153 17.5237 0.0000 43.6087 0.0000
# 2 37.4153 129.2775 17.6213 0.0000 16.5093 0.0000
# 3 17.5237 17.6213 58.9689 0.0000 16.7344 0.0000
# 4 0.0000 0.0000 0.0000 11.7413 0.0000 6.9453
# 5 43.6087 16.5093 16.7344 0.0000 32.8724 0.0000
# 6 0.0000 0.0000 0.0000 6.9453 0.0000 24.7956
#
#
#
# Elastic Compliance Matrix: (Units=1/GPa)
#
#
# Indices 1 2 3 4 5 6 
#
# 1 0.015558 -0.002135 0.001832 0.000000 -0.020500 0.000000
# 2 -0.002135 0.008675 -0.001783 0.000000 -0.000617 0.000000
# 3 0.001832 -0.001783 0.020317 0.000000 -0.011878 0.000000
# 4 0.000000 0.000000 0.000000 0.102084 0.000000 -0.028594
# 5 -0.020500 -0.000617 -0.011878 0.000000 0.063973 0.000000
# 6 0.000000 0.000000 0.000000 -0.028594 0.000000 0.048339
#
#
# Mechanical properties :
#
#
# Convention : Reuss Voigt Hill
#
# Bulk Modulus (GPa) = 24.76486 50.90810 37.83648
# Shear Modulus (GPa) = 18.07820 29.91466 23.99643
#
# Velocity S-wave (km/s) = 2.87521 3.69857 3.31257
# Velocity P-wave (km/s) = 4.72725 6.44349 5.65091
#
# Compressibility (1/GPa) = 0.04037979
#
# Stress axis : x y z
#
# Youngs Moduli (GPa) = 64.27519 115.27459 49.21945
#
# Poissons Ratio (x) = 0.24606 -0.09017
# Poissons Ratio (y) = 0.13720 0.08774
# Poissons Ratio (z) = -0.11776 0.20550
#
# Static dielectric constant tensor:
#      x y z
#    x 1.821550 0.000000 -0.004370 
#    y 0.000000 1.876190 0.000000 
#    z -0.004370 0.000000 1.865920 
# 
# From -- ./inp_files/59231.got.cif
#   From: 2010.05.17/outbox.cif.g08.bks.cpg/sg12_30_cif.got.tgz:59231.got - 2010.06.03 13:09:07.
