data_PCOD9186906
_publ_section_title
;
Structure prediction by ZEFSAII (Michael W. Deem and Ramdas Pophale) SiO2 
 PCOD9186906
Probable space group: C 2/M
;
_chemical_formula_sum "Si O2"
_cell_formula_units_Z 56
_cell_length_a 25.083100
_cell_length_b 18.616056
_cell_length_c 5.360317
_cell_angle_alpha 90.000000
_cell_angle_beta 85.428771
_cell_angle_gamma 90.000000
_cell_volume 2495.029462
_symmetry_space_group_name_H-M "C 2/M"
_symmetry_group_IT_number 12
_symmetry_cell_setting 'monoclinic'
loop_
_space_group_symop_operation_xyz
x,y,z
-x,y,-z
-x,-y,-z
x,-y,z
1/2+x,1/2+y,z
1/2-x,1/2+y,-z
1/2-x,1/2-y,-z
1/2+x,1/2-y,z
loop_
_atom_site_type_symbol
_atom_site_label
_atom_site_fract_x
_atom_site_fract_y
_atom_site_fract_z
Si Si1 0.614124 0.920775 0.308774
Si Si2 0.656907 0.659148 0.064066
Si Si3 0.185152 0.577137 0.784084
Si Si4 0.208798 0.727530 0.726467
Si Si5 0.100822 0.734408 0.474984
Si Si6 0.144441 0.000000 0.071989
Si Si7 0.452231 0.651095 0.211944
Si Si8 0.423555 0.500000 0.407590
O O1 0.656368 0.923467 0.523210
O O2 0.586430 0.842535 0.357128
O O3 0.585907 0.000000 0.330146
O O4 0.643222 0.917937 0.029702
O O5 0.632295 0.708071 0.291545
O O6 0.672269 0.576765 0.108797
O O7 0.702101 0.708592 0.923578
O O8 0.605113 0.650698 0.904656
O O9 0.212525 0.500000 0.799942
O O10 0.221702 0.646329 0.792646
O O11 0.250000 0.750000 0.500000
O O12 0.147060 0.718268 0.659516
O O13 0.052824 0.779520 0.610404
O O14 0.097996 0.000000 0.301922
O O15 0.122515 0.000000 0.793470
O O16 0.454560 0.574092 0.345710
O O17 0.500000 0.657762 0.000000
#
# Coordination Sequence:
#
# PCOD9186906 Si02
#       8
#     8   8   8   8   8   4   8   4
#     4   9  17  31  55  80 103 137 177 225 275 324
#     4  10  20  37  55  79 111 152 188 231 284 336
#     4   9  17  32  53  77 106 134 179 230 271 317
#     4  10  21  36  55  79 110 147 188 230 280 340
#     4  10  19  35  57  77 112 144 185 231 285 333
#     4  10  20  36  59  78 118 156 190 232 287 340
#     4  10  21  35  55  84 114 149 192 237 280 335
#     4  10  19  36  56  84 114 154 194 238 276 332
#
# _framework density 22.444624000000001
#
# number of rings (size 3 to 8) (size 9 to 14) (size 15 to 20)
#    0.000    2.286    2.857    0.214    0.000    1.143 
#    1.286    1.429    0.000    0.429    0.000    1.000 
#    0.000    0.000    0.000    0.000    0.000    0.000 
#
# Total GULP energy -156072.688187 kJ/mol
# GULP energy per Si atom -5574.024578 kJ/mol
# Density = 2.239354 g / cm^3
# Si number density = 22.444624 Si / 1000 Ang^3
#
#
#
# Elastic Constant Matrix: (Units=GPa)
#
#
# Indices 1 2 3 4 5 6 
#
# 1 54.5857 20.4975 9.1883 0.0000 -0.2686 0.0000
# 2 20.4975 259.7855 22.5702 0.0000 -26.5271 0.0000
# 3 9.1883 22.5702 55.3173 0.0000 -5.6746 0.0000
# 4 0.0000 0.0000 0.0000 47.8961 0.0000 -2.5672
# 5 -0.2686 -26.5271 -5.6746 0.0000 34.1178 0.0000
# 6 0.0000 0.0000 0.0000 -2.5672 0.0000 -50.4767
#
#
#
# Elastic Compliance Matrix: (Units=1/GPa)
#
#
# Indices 1 2 3 4 5 6 
#
# 1 0.019316 -0.001428 -0.002771 0.000000 -0.001419 0.000000
# 2 -0.001428 0.004396 -0.001228 0.000000 0.003202 0.000000
# 3 -0.002771 -0.001228 0.019267 0.000000 0.002228 0.000000
# 4 0.000000 0.000000 0.000000 0.020822 0.000000 -0.001059
# 5 -0.001419 0.003202 0.002228 0.000000 0.032159 0.000000
# 6 0.000000 0.000000 0.000000 -0.001059 0.000000 -0.019757
#
#
# Mechanical properties :
#
#
# Convention : Reuss Voigt Hill
#
# Bulk Modulus (GPa) = 31.12913 52.68895 41.90904
# Shear Modulus (GPa) = 51.14306 27.46961 39.30633
#
# Velocity S-wave (km/s) = 4.77868 3.50220 4.18934
# Velocity P-wave (km/s) = 6.65936 6.31506 6.48949
#
# Compressibility (1/GPa) = 0.03212425
#
# Stress axis : x y z
#
# Youngs Moduli (GPa) = 51.77161 227.49653 51.90134
#
# Poissons Ratio (x) = 0.32491 0.14383
# Poissons Ratio (y) = 0.07394 0.06372
# Poissons Ratio (z) = 0.14347 0.27931
#
# Static dielectric constant tensor:
#      x y z
#    x 1.826020 0.000000 0.078150 
#    y 0.000000 1.916790 0.000000 
#    z 0.078150 0.000000 1.839940 
# 
# From -- ./inp_files/32004.got.cif
#   From: 2010.05.17/outbox.cif.g08.bks.cpg/sg12_17_cif.got.tgz:32004.got - 2010.06.03 13:09:07.
