data_PCOD9186461
_publ_section_title
;
Structure prediction by ZEFSAII (Michael W. Deem and Ramdas Pophale) SiO2 
 PCOD9186461
Probable space group: C 2/M
;
_chemical_formula_sum "Si O2"
_cell_formula_units_Z 64
_cell_length_a 14.783266
_cell_length_b 18.879996
_cell_length_c 17.040512
_cell_angle_alpha 90.000000
_cell_angle_beta 58.629701
_cell_angle_gamma 90.000000
_cell_volume 4060.893882
_symmetry_space_group_name_H-M "C 2/M"
_symmetry_group_IT_number 12
_symmetry_cell_setting 'monoclinic'
loop_
_space_group_symop_operation_xyz
x,y,z
-x,y,-z
-x,-y,-z
x,-y,z
1/2+x,1/2+y,z
1/2-x,1/2+y,-z
1/2-x,1/2-y,-z
1/2+x,1/2-y,z
loop_
_atom_site_type_symbol
_atom_site_label
_atom_site_fract_x
_atom_site_fract_y
_atom_site_fract_z
Si Si1 0.286458 0.264280 0.857801
Si Si2 0.326972 0.417887 0.609018
Si Si3 0.502792 0.920282 0.092868
Si Si4 0.455326 0.581804 0.392696
Si Si5 0.230675 0.366516 0.025749
Si Si6 0.472541 0.684634 0.240534
Si Si7 0.836369 0.688456 0.241211
Si Si8 0.965965 0.081432 0.926551
O O1 0.271486 0.185537 0.898381
O O2 0.410754 0.282555 0.798064
O O3 0.230361 0.279654 0.801144
O O4 0.236373 0.316259 0.946216
O O5 0.290843 0.500000 0.631230
O O6 0.427758 0.410593 0.621824
O O7 0.372990 0.406706 0.500899
O O8 0.239105 0.361785 0.673266
O O9 0.622947 0.910097 0.067759
O O10 0.428717 0.861172 0.164310
O O11 0.465486 0.000000 0.128111
O O12 0.500000 0.912237 0.000000
O O13 0.445560 0.500000 0.370961
O O14 0.443270 0.635315 0.326918
O O15 0.338870 0.410521 0.977774
O O16 0.390191 0.747422 0.263383
O O17 0.483624 0.635692 0.158030
O O18 0.995863 0.000000 0.896397
O O19 0.000000 0.098661 0.000000
#
# Coordination Sequence:
#
# PCOD9186461 Si02
#       8
#     8   8   8   8   8   8   8   8
#     4  10  20  32  49  72 103 135 177 215 250 304
#     4   9  19  35  57  80 107 136 165 218 271 317
#     4  11  22  33  48  74 104 137 178 218 258 309
#     4   9  18  36  58  81 105 132 171 215 269 319
#     4  10  19  35  50  68 100 143 176 217 259 294
#     4  11  21  33  54  79 103 140 173 216 262 314
#     4  12  21  34  52  78 109 137 175 212 265 318
#     4  10  21  35  51  75 103 138 185 224 255 299
#
# _framework density 15.760076
#
# number of rings (size 3 to 8) (size 9 to 14) (size 15 to 20)
#    0.000    1.750    3.750    2.625    0.000    1.000 
#    0.000    0.000    0.000    0.000    0.000    0.000 
#    0.000    2.000    0.000    0.000    0.000    0.000 
#
# Total GULP energy -178587.779229 kJ/mol
# GULP energy per Si atom -5580.868101 kJ/mol
# Density = 1.572421 g / cm^3
# Si number density = 15.760076 Si / 1000 Ang^3
#
#
#
# Elastic Constant Matrix: (Units=GPa)
#
#
# Indices 1 2 3 4 5 6 
#
# 1 74.2288 51.6461 45.0241 0.0000 1.0968 0.0000
# 2 51.6461 117.1457 73.4334 0.0000 5.7532 0.0000
# 3 45.0241 73.4334 85.9801 0.0000 1.4994 0.0000
# 4 0.0000 0.0000 0.0000 18.2058 0.0000 -7.5579
# 5 1.0968 5.7532 1.4994 0.0000 18.2390 0.0000
# 6 0.0000 0.0000 0.0000 -7.5579 0.0000 26.4869
#
#
#
# Elastic Compliance Matrix: (Units=1/GPa)
#
#
# Indices 1 2 3 4 5 6 
#
# 1 0.021088 -0.005186 -0.006629 0.000000 0.000913 0.000000
# 2 -0.005186 0.020027 -0.014304 0.000000 -0.004829 0.000000
# 3 -0.006629 -0.014304 0.027272 0.000000 0.002669 0.000000
# 4 0.000000 0.000000 0.000000 0.062308 0.000000 0.017779
# 5 0.000913 -0.004829 0.002669 0.000000 0.056077 0.000000
# 6 0.000000 0.000000 0.000000 0.017779 0.000000 0.042828
#
#
# Mechanical properties :
#
#
# Convention : Reuss Voigt Hill
#
# Bulk Modulus (GPa) = 61.92945 68.61798 65.27372
# Shear Modulus (GPa) = 17.40815 19.73642 18.57228
#
# Velocity S-wave (km/s) = 3.32712 3.54263 3.43656
# Velocity P-wave (km/s) = 7.35799 7.76964 7.56662
#
# Compressibility (1/GPa) = 0.01614741
#
# Stress axis : x y z
#
# Youngs Moduli (GPa) = 47.42069 49.93326 36.66703
#
# Poissons Ratio (x) = 0.25897 0.24308
# Poissons Ratio (y) = 0.24593 0.52450
# Poissons Ratio (z) = 0.31437 0.71426
#
# Static dielectric constant tensor:
#      x y z
#    x 1.509220 0.000000 -0.002290 
#    y 0.000000 1.516970 0.000000 
#    z -0.002290 0.000000 1.502190 
# 
# From -- ./inp_files/216369.got.cif
#   From: 2010.05.17/outbox.cif.g08.bks.cpg/sg12_109_cif.got.tgz:216369.got - 2010.06.03 13:09:07.
