data_PCOD9186164
_publ_section_title
;
Structure prediction by ZEFSAII (Michael W. Deem and Ramdas Pophale) SiO2 
 PCOD9186164
Probable space group: C 2/M
;
_chemical_formula_sum "Si O2"
_cell_formula_units_Z 48
_cell_length_a 15.568175
_cell_length_b 17.671300
_cell_length_c 17.776909
_cell_angle_alpha 90.000000
_cell_angle_beta 31.115875
_cell_angle_gamma 90.000000
_cell_volume 2527.319887
_symmetry_space_group_name_H-M "C 2/M"
_symmetry_group_IT_number 12
_symmetry_cell_setting 'monoclinic'
loop_
_space_group_symop_operation_xyz
x,y,z
-x,y,-z
-x,-y,-z
x,-y,z
1/2+x,1/2+y,z
1/2-x,1/2+y,-z
1/2-x,1/2-y,-z
1/2+x,1/2-y,z
loop_
_atom_site_type_symbol
_atom_site_label
_atom_site_fract_x
_atom_site_fract_y
_atom_site_fract_z
Si Si1 0.348350 0.913588 0.564107
Si Si2 0.191981 0.086583 0.377713
Si Si3 0.297270 0.204566 0.890394
Si Si4 0.833052 0.289528 0.157918
Si Si5 0.326070 0.168555 0.422257
Si Si6 0.471098 0.372015 0.105425
O O1 0.500000 0.879392 0.500000
O O2 0.332869 0.873555 0.496464
O O3 0.171966 0.911245 0.739569
O O4 0.395329 0.000000 0.514303
O O5 0.257381 0.149502 0.270078
O O6 0.223772 0.122032 0.436452
O O7 0.000000 0.080630 0.500000
O O8 0.261297 0.000000 0.321515
O O9 0.272100 0.256044 0.833658
O O10 0.486431 0.177943 0.749076
O O11 0.250000 0.250000 0.000000
O O12 0.158637 0.138241 0.993699
O O13 0.897551 0.213715 0.151874
O O14 0.000000 0.325754 0.000000
O O15 0.250000 0.250000 0.500000
O O16 0.500000 0.403356 0.000000
#
# Coordination Sequence:
#
# PCOD9186164 Si02
#       6
#     8   8   8   8   8   8
#     4  11  23  39  60  90 126 159 196 245 308 377
#     4  11  24  40  56  80 118 158 197 244 298 356
#     4  10  19  34  59  89 116 145 196 255 301 350
#     4   9  18  35  58  83 112 146 192 239 286 349
#     4  12  23  38  64  89 116 156 205 257 305 362
#     4   9  19  36  57  83 116 152 192 242 296 359
#
# _framework density 18.992450999999999
#
# number of rings (size 3 to 8) (size 9 to 14) (size 15 to 20)
#    0.000    2.000    0.000    7.500    0.000    2.000 
#    0.000    1.667    0.000    0.000    0.000    0.000 
#    0.000    0.000    0.000    0.000    0.000    0.000 
#
# Total GULP energy -133798.073515 kJ/mol
# GULP energy per Si atom -5574.919730 kJ/mol
# Density = 1.894922 g / cm^3
# Si number density = 18.992451 Si / 1000 Ang^3
#
#
#
# Elastic Constant Matrix: (Units=GPa)
#
#
# Indices 1 2 3 4 5 6 
#
# 1 125.6976 41.0420 38.8341 0.0183 -3.9799 0.0195
# 2 41.0420 87.2289 21.1093 0.0613 7.5330 0.0609
# 3 38.8341 21.1093 95.0348 0.0607 -2.6659 0.0679
# 4 0.0183 0.0613 0.0607 -105.8189 0.0128 -85.3018
# 5 -3.9799 7.5330 -2.6659 0.0128 32.6225 0.0076
# 6 0.0195 0.0609 0.0679 -85.3018 0.0076 -43.6269
#
#
#
# Elastic Compliance Matrix: (Units=1/GPa)
#
#
# Indices 1 2 3 4 5 6 
#
# 1 0.010424 -0.004290 -0.003251 -0.000004 0.001997 0.000003
# 2 -0.004290 0.014186 -0.001508 0.000010 -0.003923 -0.000005
# 3 -0.003251 -0.001508 0.012212 0.000012 0.000950 -0.000008
# 4 -0.000004 0.000010 0.000012 0.016402 -0.000001 -0.032070
# 5 0.001997 -0.003923 0.000950 -0.000001 0.031881 0.000004
# 6 0.000003 -0.000005 -0.000008 -0.032070 0.000004 0.039784
#
#
# Mechanical properties :
#
#
# Convention : Reuss Voigt Hill
#
# Bulk Modulus (GPa) = 53.40477 56.65910 55.03194
# Shear Modulus (GPa) = 33.50563 -9.56627 11.96968
#
# Velocity S-wave (km/s) = 4.20474 -2.24673 2.51317
# Velocity P-wave (km/s) = 7.19396 4.81319 6.12045
#
# Compressibility (1/GPa) = 0.01872492
#
# Stress axis : x y z
#
# Youngs Moduli (GPa) = 95.93301 70.48998 81.88453
#
# Poissons Ratio (x) = 0.30243 0.26617
# Poissons Ratio (y) = 0.41159 0.12348
# Poissons Ratio (z) = 0.31183 0.10630
#
# Static dielectric constant tensor:
#      x y z
#    x 1.699950 0.000000 -0.018540 
#    y 0.000000 1.663790 0.000000 
#    z -0.018540 0.000000 1.673870 
# 
# From -- ./inp_files/271579.got.cif
#   From: 2010.05.17/outbox.cif.g08.bks.cpg/sg12_136_cif.got.tgz:271579.got - 2010.06.03 13:09:07.
