data_PCOD9186792
_publ_section_title
;
Structure prediction by ZEFSAII (Michael W. Deem and Ramdas Pophale) SiO2 
 PCOD9186792
Probable space group: C 2/M
;
_chemical_formula_sum "Si O2"
_cell_formula_units_Z 64
_cell_length_a 18.137317
_cell_length_b 23.181193
_cell_length_c 15.692699
_cell_angle_alpha 90.000000
_cell_angle_beta 29.486854
_cell_angle_gamma 90.000000
_cell_volume 3247.649302
_symmetry_space_group_name_H-M "C 2/M"
_symmetry_group_IT_number 12
_symmetry_cell_setting 'monoclinic'
loop_
_space_group_symop_operation_xyz
x,y,z
-x,y,-z
-x,-y,-z
x,-y,z
1/2+x,1/2+y,z
1/2-x,1/2+y,-z
1/2-x,1/2-y,-z
1/2+x,1/2-y,z
loop_
_atom_site_type_symbol
_atom_site_label
_atom_site_fract_x
_atom_site_fract_y
_atom_site_fract_z
Si Si1 0.859148 0.252216 0.970005
Si Si2 0.643231 0.193561 0.602363
Si Si3 0.638494 0.352172 0.915673
Si Si4 0.079075 0.567236 0.683686
Si Si5 0.856149 0.726683 0.585529
Si Si6 0.628970 0.938189 0.941603
Si Si7 0.182242 0.320579 0.827416
Si Si8 0.592616 0.932863 0.323717
O O1 0.001162 0.289891 0.801865
O O2 0.750000 0.250000 0.000000
O O3 0.907575 0.190791 0.961133
O O4 0.778072 0.284133 0.128899
O O5 0.750000 0.250000 0.500000
O O6 0.680692 0.125935 0.584846
O O7 0.596797 0.197882 0.549867
O O8 0.732343 0.313782 0.754012
O O9 0.753168 0.398510 0.836321
O O10 0.500000 0.375393 0.000000
O O11 0.138056 0.500000 0.632645
O O12 0.999153 0.570581 0.671890
O O13 0.956728 0.573443 0.883022
O O14 0.773033 0.789019 0.661602
O O15 0.000000 0.732544 0.500000
O O16 0.723305 0.885372 0.810439
O O17 0.706796 0.000000 0.870256
O O18 0.500000 0.942821 0.000000
O O19 0.000000 0.316392 0.000000
O O20 0.500000 0.911722 0.500000
O O21 0.625128 0.000000 0.306750
#
# Coordination Sequence:
#
# PCOD9186792 Si02
#       8
#     8   8   8   8   8   8   8   8
#     4  11  21  34  53  79 110 148 189 236 292 359
#     4  12  22  34  56  87 117 149 190 245 302 358
#     4  11  22  37  56  80 115 153 191 243 301 362
#     4  10  20  36  58  88 120 155 199 249 296 357
#     4  11  22  36  54  79 115 154 191 237 299 359
#     4   9  18  32  57  85 112 147 192 247 300 348
#     4  10  19  35  56  79 114 144 190 245 295 360
#     4  10  21  38  62  88 118 157 200 246 299 363
#
# _framework density 19.706562000000002
#
# number of rings (size 3 to 8) (size 9 to 14) (size 15 to 20)
#    0.000    1.500    1.250    7.125    1.750    0.250 
#    0.000    0.000    0.000    2.625    0.000    1.750 
#    0.000    0.000    0.000    0.000    0.000    0.000 
#
# Total GULP energy -178316.836198 kJ/mol
# GULP energy per Si atom -5572.401131 kJ/mol
# Density = 1.966171 g / cm^3
# Si number density = 19.706562 Si / 1000 Ang^3
#
#
#
# Elastic Constant Matrix: (Units=GPa)
#
#
# Indices 1 2 3 4 5 6 
#
# 1 68.4129 7.6847 6.6105 0.0000 10.1333 -0.0028
# 2 7.6847 151.1595 21.4250 -0.0023 -1.4789 -0.0017
# 3 6.6105 21.4250 46.0632 -0.0035 13.8636 -0.0025
# 4 0.0000 -0.0023 -0.0035 33.6327 -0.0003 -2.0822
# 5 10.1333 -1.4789 13.8636 -0.0003 34.6054 0.0029
# 6 -0.0028 -0.0017 -0.0025 -2.0822 0.0029 28.2267
#
#
#
# Elastic Compliance Matrix: (Units=1/GPa)
#
#
# Indices 1 2 3 4 5 6 
#
# 1 0.015394 -0.000745 -0.000565 0.000000 -0.004313 0.000002
# 2 -0.000745 0.007224 -0.003879 0.000000 0.002081 0.000000
# 3 -0.000565 -0.003879 0.026830 0.000003 -0.010749 0.000003
# 4 0.000000 0.000000 0.000003 0.029869 -0.000001 0.002203
# 5 -0.004313 0.002081 -0.010749 -0.000001 0.034555 -0.000005
# 6 0.000002 0.000000 0.000003 0.002203 -0.000005 0.035590
#
#
# Mechanical properties :
#
#
# Convention : Reuss Voigt Hill
#
# Bulk Modulus (GPa) = 25.59485 37.45288 31.52386
# Shear Modulus (GPa) = 28.92462 34.62066 31.77264
#
# Velocity S-wave (km/s) = 3.83530 4.19598 4.01969
# Velocity P-wave (km/s) = 5.71217 6.52085 6.12986
#
# Compressibility (1/GPa) = 0.03907036
#
# Stress axis : x y z
#
# Youngs Moduli (GPa) = 64.95927 138.43537 37.27207
#
# Poissons Ratio (x) = 0.10311 0.02104
# Poissons Ratio (y) = 0.04838 0.14459
# Poissons Ratio (z) = 0.03667 0.53702
#
# Static dielectric constant tensor:
#      x y z
#    x 1.812020 0.000010 -0.024210 
#    y 0.000010 1.800260 0.000000 
#    z -0.024210 0.000000 1.730950 
# 
# From -- ./inp_files/228108.got.cif
#   From: 2010.05.17/outbox.cif.g08.bks.cpg/sg12_115_cif.got.tgz:228108.got - 2010.06.03 13:09:07.
