data_PCOD9186296
_publ_section_title
;
Structure prediction by ZEFSAII (Michael W. Deem and Ramdas Pophale) SiO2 
 PCOD9186296
Probable space group: C 2/M
;
_chemical_formula_sum "Si O2"
_cell_formula_units_Z 48
_cell_length_a 5.480775
_cell_length_b 23.736192
_cell_length_c 23.612518
_cell_angle_alpha 90.000000
_cell_angle_beta 136.868814
_cell_angle_gamma 90.000000
_cell_volume 2100.112417
_symmetry_space_group_name_H-M "C 2/M"
_symmetry_group_IT_number 12
_symmetry_cell_setting 'monoclinic'
loop_
_space_group_symop_operation_xyz
x,y,z
-x,y,-z
-x,-y,-z
x,-y,z
1/2+x,1/2+y,z
1/2-x,1/2+y,-z
1/2-x,1/2-y,-z
1/2+x,1/2-y,z
loop_
_atom_site_type_symbol
_atom_site_label
_atom_site_fract_x
_atom_site_fract_y
_atom_site_fract_z
Si Si1 0.675313 0.899045 0.324475
Si Si2 0.309291 0.370160 0.098916
Si Si3 0.684119 0.935264 0.898934
Si Si4 0.258979 0.851550 0.502854
Si Si5 0.244246 0.062355 0.345810
Si Si6 0.717533 0.216666 0.763442
O O1 0.367898 0.935069 0.301921
O O2 0.523661 0.836415 0.294680
O O3 0.012457 0.894355 0.424646
O O4 0.842493 0.922145 0.294908
O O5 0.618493 0.407873 0.121900
O O6 0.490254 0.310977 0.145258
O O7 0.126224 0.398459 0.123340
O O8 0.000000 0.363615 0.000000
O O9 0.571041 0.000000 0.869996
O O10 0.000000 0.937001 0.000000
O O11 0.500000 0.818248 0.500000
O O12 0.517873 0.889475 0.584733
O O13 0.000000 0.818329 0.500000
O O14 0.321172 0.000000 0.381238
O O15 0.446418 0.258076 0.750326
#
# Coordination Sequence:
#
# PCOD9186296 Si02
#       6
#     8   8   8   8   8   8
#     4  10  21  37  55  82 117 149 190 231 277 348
#     4  10  21  38  61  90 117 146 195 247 288 343
#     4   9  17  33  59  89 122 153 175 210 276 353
#     4   8  16  29  52  79 112 146 180 219 264 323
#     4  10  19  34  60  90 122 155 182 221 281 343
#     4  12  26  44  63  79 107 154 200 251 310 343
#
# _framework density 22.855920000000001
#
# number of rings (size 3 to 8) (size 9 to 14) (size 15 to 20)
#    0.000    2.167    0.000    3.000    0.000    8.667 
#    0.000    5.000    0.000   27.000    0.000    0.000 
#    0.000    0.000    0.000    0.000    0.000    0.000 
#
# Total GULP energy -133936.290798 kJ/mol
# GULP energy per Si atom -5580.678783 kJ/mol
# Density = 2.280390 g / cm^3
# Si number density = 22.855920 Si / 1000 Ang^3
#
#
#
# Elastic Constant Matrix: (Units=GPa)
#
#
# Indices 1 2 3 4 5 6 
#
# 1 232.1527 29.0413 8.9161 0.0000 33.0966 0.0000
# 2 29.0413 72.4714 -4.8775 0.0000 6.5310 0.0000
# 3 8.9161 -4.8775 59.2135 0.0000 11.2855 0.0000
# 4 0.0000 0.0000 0.0000 13.5911 0.0000 1.2427
# 5 33.0966 6.5310 11.2855 0.0000 19.8917 0.0000
# 6 0.0000 0.0000 0.0000 1.2427 0.0000 38.1770
#
#
#
# Elastic Compliance Matrix: (Units=1/GPa)
#
#
# Indices 1 2 3 4 5 6 
#
# 1 0.005839 -0.001404 0.000862 0.000000 -0.009744 0.000000
# 2 -0.001404 0.014845 0.002150 0.000000 -0.003758 0.000000
# 3 0.000862 0.002150 0.019446 0.000000 -0.013173 0.000000
# 4 0.000000 0.000000 0.000000 0.073797 0.000000 -0.002402
# 5 -0.009744 -0.003758 -0.013173 0.000000 0.075192 0.000000
# 6 0.000000 0.000000 0.000000 -0.002402 0.000000 0.026272
#
#
# Mechanical properties :
#
#
# Convention : Reuss Voigt Hill
#
# Bulk Modulus (GPa) = 23.06949 47.77749 35.42349
# Shear Modulus (GPa) = 22.06316 36.38247 29.22282
#
# Velocity S-wave (km/s) = 3.11032 3.99409 3.57958
# Velocity P-wave (km/s) = 4.79731 6.49765 5.71111
#
# Compressibility (1/GPa) = 0.04334729
#
# Stress axis : x y z
#
# Youngs Moduli (GPa) = 171.25972 67.36500 51.42430
#
# Poissons Ratio (x) = 0.09457 -0.04434
# Poissons Ratio (y) = 0.24041 -0.11058
# Poissons Ratio (z) = -0.14766 -0.14486
#
# Static dielectric constant tensor:
#      x y z
#    x 1.953720 0.000000 -0.015320 
#    y 0.000000 1.773230 0.000000 
#    z -0.015320 0.000000 1.906920 
# 
# From -- ./inp_files/371693.got.cif
#   From: 2010.05.17/outbox.cif.g08.bks.cpg/sg12_186_cif.got.tgz:371693.got - 2010.06.03 13:09:07.
