data_PCOD9186354
_publ_section_title
;
Structure prediction by ZEFSAII (Michael W. Deem and Ramdas Pophale) SiO2 
 PCOD9186354
Probable space group: C 2/M
;
_chemical_formula_sum "Si O2"
_cell_formula_units_Z 60
_cell_length_a 12.708792
_cell_length_b 13.339625
_cell_length_c 16.998766
_cell_angle_alpha 90.000000
_cell_angle_beta 78.703983
_cell_angle_gamma 90.000000
_cell_volume 2825.984015
_symmetry_space_group_name_H-M "C 2/M"
_symmetry_group_IT_number 12
_symmetry_cell_setting 'monoclinic'
loop_
_space_group_symop_operation_xyz
x,y,z
-x,y,-z
-x,-y,-z
x,-y,z
1/2+x,1/2+y,z
1/2-x,1/2+y,-z
1/2-x,1/2-y,-z
1/2+x,1/2-y,z
loop_
_atom_site_type_symbol
_atom_site_label
_atom_site_fract_x
_atom_site_fract_y
_atom_site_fract_z
Si Si1 0.088786 0.178975 0.546123
Si Si2 0.605211 0.000000 0.089946
Si Si3 0.681396 0.111242 0.533365
Si Si4 0.584804 0.168088 0.877198
Si Si5 0.742545 0.364482 0.018664
Si Si6 0.499444 0.612084 0.889953
Si Si7 0.280826 0.118223 0.285672
Si Si8 0.460656 0.617459 0.709874
O O1 0.200990 0.121828 0.521954
O O2 0.113624 0.293201 0.516976
O O3 0.041311 0.173435 0.640199
O O4 0.000000 0.135997 0.500000
O O5 0.513808 0.090274 0.105984
O O6 0.700835 0.083231 0.062439
O O7 0.696663 0.124594 0.625082
O O8 0.637807 0.000000 0.524433
O O9 0.676698 0.120362 0.919428
O O10 0.554444 0.282331 0.906784
O O11 0.633789 0.171529 0.782508
O O12 0.621372 0.390691 0.058220
O O13 0.750000 0.250000 0.000000
O O14 0.546727 0.500000 0.899807
O O15 0.489185 0.621600 0.797054
O O16 0.160585 0.155343 0.285692
O O17 0.284632 0.000000 0.264197
O O18 0.462161 0.500000 0.685853
#
# Coordination Sequence:
#
# PCOD9186354 Si02
#       8
#     8   4   8   8   8   8   8   8
#     4  11  21  36  60  86 119 154 196 238 292 342
#     4  12  25  38  66  91 116 148 198 248 299 342
#     4  10  22  37  56  88 119 153 193 241 286 347
#     4  12  23  41  63  90 119 154 199 245 296 354
#     4  12  24  41  60  91 119 152 195 246 295 355
#     4  11  24  41  62  85 121 161 194 240 301 356
#     4  10  19  34  61  89 114 145 197 247 290 339
#     4  10  20  36  61  89 115 154 195 243 290 343
#
# _framework density 21.231542999999999
#
# number of rings (size 3 to 8) (size 9 to 14) (size 15 to 20)
#    0.000    1.067    5.333    2.400    0.000    0.800 
#    1.200    0.667    0.000    0.800    0.000    0.000 
#    0.000    0.000    0.000    0.000    0.000    0.000 
#
# Total GULP energy -167079.718058 kJ/mol
# GULP energy per Si atom -5569.323935 kJ/mol
# Density = 2.118322 g / cm^3
# Si number density = 21.231543 Si / 1000 Ang^3
#
#
#
# Elastic Constant Matrix: (Units=GPa)
#
#
# Indices 1 2 3 4 5 6 
#
# 1 62.6824 21.3426 25.6094 0.0000 -22.1397 0.0000
# 2 21.3426 137.1942 5.3221 0.0000 -24.6818 0.0000
# 3 25.6094 5.3221 84.7379 0.0000 -24.9771 0.0000
# 4 0.0000 0.0000 0.0000 28.4510 0.0000 -15.6430
# 5 -22.1397 -24.6818 -24.9771 0.0000 30.5101 0.0000
# 6 0.0000 0.0000 0.0000 -15.6430 0.0000 -31.4441
#
#
#
# Elastic Compliance Matrix: (Units=1/GPa)
#
#
# Indices 1 2 3 4 5 6 
#
# 1 0.021973 -0.000997 -0.002789 0.000000 0.012854 0.000000
# 2 -0.000997 0.008834 0.002161 0.000000 0.008192 0.000000
# 3 -0.002789 0.002161 0.016379 0.000000 0.013134 0.000000
# 4 0.000000 0.000000 0.000000 0.027599 0.000000 -0.013730
# 5 0.012854 0.008192 0.013134 0.000000 0.059483 0.000000
# 6 0.000000 0.000000 0.000000 -0.013730 0.000000 -0.024972
#
#
# Mechanical properties :
#
#
# Convention : Reuss Voigt Hill
#
# Bulk Modulus (GPa) = 22.76043 43.24031 33.00037
# Shear Modulus (GPa) = 39.31068 20.99276 30.15172
#
# Velocity S-wave (km/s) = 4.30760 3.14786 3.77256
# Velocity P-wave (km/s) = 5.95684 5.79847 5.87819
#
# Compressibility (1/GPa) = 0.04393590
#
# Stress axis : x y z
#
# Youngs Moduli (GPa) = 45.51082 113.19857 61.05205
#
# Poissons Ratio (x) = 0.11291 0.17028
# Poissons Ratio (y) = 0.04539 -0.13195
# Poissons Ratio (z) = 0.12693 -0.24465
#
# Static dielectric constant tensor:
#      x y z
#    x 1.771550 0.000000 0.023980 
#    y 0.000000 1.762330 0.000000 
#    z 0.023980 0.000000 1.762710 
# 
# From -- ./inp_files/263313.got.cif
#   From: 2010.05.17/outbox.cif.g08.bks.cpg/sg12_132_cif.got.tgz:263313.got - 2010.06.03 13:09:07.
