data_PCOD9186884
_publ_section_title
;
Structure prediction by ZEFSAII (Michael W. Deem and Ramdas Pophale) SiO2 
 PCOD9186884
Probable space group: C 2/M
;
_chemical_formula_sum "Si O2"
_cell_formula_units_Z 60
_cell_length_a 23.336586
_cell_length_b 9.322507
_cell_length_c 22.432406
_cell_angle_alpha 90.000000
_cell_angle_beta 149.461919
_cell_angle_gamma 90.000000
_cell_volume 2479.730179
_symmetry_space_group_name_H-M "C 2/M"
_symmetry_group_IT_number 12
_symmetry_cell_setting 'monoclinic'
loop_
_space_group_symop_operation_xyz
x,y,z
-x,y,-z
-x,-y,-z
x,-y,z
1/2+x,1/2+y,z
1/2-x,1/2+y,-z
1/2-x,1/2-y,-z
1/2+x,1/2-y,z
loop_
_atom_site_type_symbol
_atom_site_label
_atom_site_fract_x
_atom_site_fract_y
_atom_site_fract_z
Si Si1 0.484867 0.163592 0.713530
Si Si2 0.410340 0.671069 0.301967
Si Si3 0.716721 0.500000 0.956003
Si Si4 0.390135 0.834795 0.468587
Si Si5 0.726453 0.332769 0.206662
Si Si6 0.281020 0.164843 0.612337
Si Si7 0.549251 0.834029 0.122129
Si Si8 0.856919 0.268741 0.033754
O O1 0.535270 0.272412 0.711114
O O2 0.362601 0.202256 0.630519
O O3 0.565711 0.162397 0.843891
O O4 0.483937 0.000000 0.689841
O O5 0.402874 0.500000 0.298514
O O6 0.503884 0.729542 0.433307
O O7 0.295894 0.753231 0.217314
O O8 0.683734 0.621890 0.975669
O O9 0.753882 0.376946 0.940665
O O10 0.311709 0.827728 0.340134
O O11 0.311868 0.781303 0.453372
O O12 0.427417 0.000000 0.507549
O O13 0.704420 0.500000 0.173445
O O14 0.615676 0.248877 0.129956
O O15 0.363116 0.162408 0.743641
O O16 0.237738 0.000000 0.566031
O O17 0.437365 0.761490 0.048835
O O18 0.524730 0.000000 0.086148
#
# Coordination Sequence:
#
# PCOD9186884 Si02
#       8
#     8   8   4   8   8   8   8   8
#     4  10  20  37  55  75 112 148 177 216 264 322
#     4  12  25  36  51  75 102 145 189 225 273 316
#     4  10  20  32  58  90 120 140 172 202 264 320
#     4  10  20  35  54  76 104 135 180 237 276 311
#     4  10  21  36  55  78 102 139 187 233 272 308
#     4   8  16  31  52  75 101 141 178 215 268 316
#     4   9  16  31  53  79 112 141 174 217 263 309
#     4  10  19  35  56  90 119 144 168 210 258 321
#
# _framework density 24.196182
#
# number of rings (size 3 to 8) (size 9 to 14) (size 15 to 20)
#    0.000    2.133    1.333    3.200    1.867    4.267 
#    2.400    0.000    0.000    0.000    0.000    5.600 
#    0.000    0.000    0.000    0.000    0.000    0.000 
#
# Total GULP energy -167403.823775 kJ/mol
# GULP energy per Si atom -5580.127459 kJ/mol
# Density = 2.414111 g / cm^3
# Si number density = 24.196182 Si / 1000 Ang^3
#
#
#
# Elastic Constant Matrix: (Units=GPa)
#
#
# Indices 1 2 3 4 5 6 
#
# 1 187.5392 87.1429 20.4168 0.0000 25.3618 0.0000
# 2 87.1429 191.6137 14.1104 0.0000 43.3916 0.0000
# 3 20.4168 14.1104 61.5774 0.0000 11.2703 0.0000
# 4 0.0000 0.0000 0.0000 29.4406 0.0000 12.6769
# 5 25.3618 43.3916 11.2703 0.0000 50.5504 0.0000
# 6 0.0000 0.0000 0.0000 12.6769 0.0000 27.1603
#
#
#
# Elastic Compliance Matrix: (Units=1/GPa)
#
#
# Indices 1 2 3 4 5 6 
#
# 1 0.006929 -0.002891 -0.001515 0.000000 -0.000657 0.000000
# 2 -0.002891 0.007698 0.000144 0.000000 -0.005190 0.000000
# 3 -0.001515 0.000144 0.017298 0.000000 -0.003221 0.000000
# 4 0.000000 0.000000 0.000000 0.042510 0.000000 -0.019841
# 5 -0.000657 -0.005190 -0.003221 0.000000 0.025285 0.000000
# 6 0.000000 0.000000 0.000000 -0.019841 0.000000 0.046079
#
#
# Mechanical properties :
#
#
# Convention : Reuss Voigt Hill
#
# Bulk Modulus (GPa) = 42.72929 76.00785 59.36857
# Shear Modulus (GPa) = 30.84055 42.70094 36.77075
#
# Velocity S-wave (km/s) = 3.57403 4.20549 3.90255
# Velocity P-wave (km/s) = 5.89317 7.42043 6.70046
#
# Compressibility (1/GPa) = 0.02340315
#
# Stress axis : x y z
#
# Youngs Moduli (GPa) = 144.31379 129.90034 57.80904
#
# Poissons Ratio (x) = 0.37554 0.08757
# Poissons Ratio (y) = 0.41721 -0.00835
# Poissons Ratio (z) = 0.21860 -0.01875
#
# Static dielectric constant tensor:
#      x y z
#    x 1.914010 0.000000 -0.059660 
#    y 0.000000 1.820300 0.000000 
#    z -0.059660 0.000000 2.087480 
# 
# From -- ./inp_files/281472.got.cif
#   From: 2010.05.17/outbox.cif.g08.bks.cpg/sg12_141_cif.got.tgz:281472.got - 2010.06.03 13:09:07.
