data_PCOD9186336
_publ_section_title
;
Structure prediction by ZEFSAII (Michael W. Deem and Ramdas Pophale) SiO2 
 PCOD9186336
Probable space group: C 2/M
;
_chemical_formula_sum "Si O2"
_cell_formula_units_Z 30
_cell_length_a 5.559433
_cell_length_b 20.244395
_cell_length_c 11.107396
_cell_angle_alpha 90.000000
_cell_angle_beta 114.720289
_cell_angle_gamma 90.000000
_cell_volume 1135.548354
_symmetry_space_group_name_H-M "C 2/M"
_symmetry_group_IT_number 12
_symmetry_cell_setting 'monoclinic'
loop_
_space_group_symop_operation_xyz
x,y,z
-x,y,-z
-x,-y,-z
x,-y,z
1/2+x,1/2+y,z
1/2-x,1/2+y,-z
1/2-x,1/2-y,-z
1/2+x,1/2-y,z
loop_
_atom_site_type_symbol
_atom_site_label
_atom_site_fract_x
_atom_site_fract_y
_atom_site_fract_z
Si Si1 0.117494 0.217865 0.223456
Si Si2 0.500000 0.500000 0.000000
Si Si3 0.500000 0.812900 0.500000
Si Si4 0.607655 0.575647 0.849019
Si Si5 0.708474 0.071445 0.380778
O O1 0.329997 0.247795 0.175279
O O2 0.256752 0.224084 0.384658
O O3 0.060637 0.141322 0.188335
O O4 0.280750 0.561083 0.996552
O O5 0.416769 0.864428 0.587464
O O6 0.462906 0.500000 0.828573
O O7 0.754692 0.576119 0.754247
O O8 0.000000 0.069787 0.500000
O O9 0.583355 0.000000 0.383575
#
# Coordination Sequence:
#
# PCOD9186336 Si02
#       5
#     8   2   4   8   8
#     4  12  26  43  67 105 149 189 231 283 353 428
#     4   8  20  44  82  94 132 180 248 298 356 390
#     4  12  23  36  62  98 149 194 220 270 350 440
#     4   9  20  43  72 100 136 181 242 288 346 414
#     4  10  19  34  61 102 137 177 223 288 344 413
#
# _framework density 26.418952999999998
#
# number of rings (size 3 to 8) (size 9 to 14) (size 15 to 20)
#    0.800    0.800    2.667    2.800    0.000    1.067 
#    0.000    2.667    0.000   11.200    0.000    0.000 
#    0.000    0.000    0.000    0.000    0.000    0.000 
#
# Total GULP energy -83524.805223 kJ/mol
# GULP energy per Si atom -5568.320348 kJ/mol
# Density = 2.635882 g / cm^3
# Si number density = 26.418953 Si / 1000 Ang^3
#
#
#
# Elastic Constant Matrix: (Units=GPa)
#
#
# Indices 1 2 3 4 5 6 
#
# 1 126.8430 70.4538 56.4012 0.0000 -17.9802 0.0000
# 2 70.4538 167.0340 24.6743 0.0000 -6.4041 0.0000
# 3 56.4012 24.6743 133.5595 0.0000 -38.5521 0.0000
# 4 0.0000 0.0000 0.0000 65.0690 0.0000 -50.9960
# 5 -17.9802 -6.4041 -38.5521 0.0000 50.8875 0.0000
# 6 0.0000 0.0000 0.0000 -50.9960 0.0000 21.6613
#
#
#
# Elastic Compliance Matrix: (Units=1/GPa)
#
#
# Indices 1 2 3 4 5 6 
#
# 1 0.012385 -0.004579 -0.004207 0.000000 0.000612 0.000000
# 2 -0.004579 0.007848 0.000386 0.000000 -0.000338 0.000000
# 3 -0.004207 0.000386 0.011234 0.000000 0.007073 0.000000
# 4 0.000000 0.000000 0.000000 -0.018186 0.000000 -0.042814
# 5 0.000612 -0.000338 0.007073 0.000000 0.025184 0.000000
# 6 0.000000 0.000000 0.000000 -0.042814 0.000000 -0.054629
#
#
# Mechanical properties :
#
#
# Convention : Reuss Voigt Hill
#
# Bulk Modulus (GPa) = 68.17849 81.16610 74.67230
# Shear Modulus (GPa) = 904.98728 45.91736 475.45232
#
# Velocity S-wave (km/s) = 18.52825 4.17351 13.42971
# Velocity P-wave (km/s) = 21.99069 7.34940 16.39519
#
# Compressibility (1/GPa) = 0.01466738
#
# Stress axis : x y z
#
# Youngs Moduli (GPa) = 80.74576 127.41952 89.01311
#
# Poissons Ratio (x) = 0.58342 0.37450
# Poissons Ratio (y) = 0.36971 -0.03438
# Poissons Ratio (z) = 0.33972 -0.04922
#
# Static dielectric constant tensor:
#      x y z
#    x 2.405870 0.000000 -0.063000 
#    y 0.000000 2.064570 0.000000 
#    z -0.063000 0.000000 2.016120 
# 
# From -- ./inp_files/114536.got.cif
#   From: 2010.05.17/outbox.cif.g08.bks.cpg/sg12_58_cif.got.tgz:114536.got - 2010.06.03 13:09:07.
