data_PCOD9186857
_publ_section_title
;
Structure prediction by ZEFSAII (Michael W. Deem and Ramdas Pophale) SiO2 
 PCOD9186857
Probable space group: C 2/M
;
_chemical_formula_sum "Si O2"
_cell_formula_units_Z 44
_cell_length_a 15.816921
_cell_length_b 19.405656
_cell_length_c 18.547784
_cell_angle_alpha 90.000000
_cell_angle_beta 23.518397
_cell_angle_gamma 90.000000
_cell_volume 2271.760535
_symmetry_space_group_name_H-M "C 2/M"
_symmetry_group_IT_number 12
_symmetry_cell_setting 'monoclinic'
loop_
_space_group_symop_operation_xyz
x,y,z
-x,y,-z
-x,-y,-z
x,-y,z
1/2+x,1/2+y,z
1/2-x,1/2+y,-z
1/2-x,1/2-y,-z
1/2+x,1/2-y,z
loop_
_atom_site_type_symbol
_atom_site_label
_atom_site_fract_x
_atom_site_fract_y
_atom_site_fract_z
Si Si1 0.500000 0.313477 0.500000
Si Si2 0.470867 0.371035 0.369874
Si Si3 0.899256 0.276921 0.783382
Si Si4 0.044178 0.718708 0.837664
Si Si5 0.620293 0.924906 0.029473
Si Si6 0.997966 0.576493 0.290387
O O1 0.510977 0.363398 0.422817
O O2 0.710861 0.266332 0.340703
O O3 0.479208 0.289819 0.341481
O O4 0.249745 0.409194 0.530860
O O5 0.651203 0.408507 0.182643
O O6 0.982399 0.280348 0.801266
O O7 0.934019 0.352755 0.723667
O O8 0.648124 0.260582 0.976742
O O9 0.020767 0.639807 0.882249
O O10 0.617548 0.924392 0.119099
O O11 0.544684 0.000000 0.065337
O O12 0.026786 0.500000 0.300043
#
# Coordination Sequence:
#
# PCOD9186857 Si02
#       6
#     4   8   8   8   8   8
#     4  12  22  34  51  86 113 142 186 228 262 322
#     4  11  21  34  56  80 113 144 185 224 265 316
#     4   9  18  36  58  76 106 145 182 227 271 310
#     4   9  19  35  54  79 106 140 186 228 265 319
#     4   9  18  34  50  71 109 149 179 213 255 311
#     4  10  19  35  56  84 110 138 185 225 265 326
#
# _framework density 19.368238999999999
#
# number of rings (size 3 to 8) (size 9 to 14) (size 15 to 20)
#    0.000    2.182    3.636    2.182    0.000    2.909 
#    0.000    5.000    0.000    0.000    0.000    3.818 
#    0.000    0.000    0.000    0.000    0.000    0.000 
#
# Total GULP energy -122517.877466 kJ/mol
# GULP energy per Si atom -5568.994430 kJ/mol
# Density = 1.932416 g / cm^3
# Si number density = 19.368239 Si / 1000 Ang^3
#
#
#
# Elastic Constant Matrix: (Units=GPa)
#
#
# Indices 1 2 3 4 5 6 
#
# 1 17.6352 22.9062 34.3359 0.0031 -8.1744 -0.0030
# 2 22.9062 141.1030 19.2724 -0.0479 -2.6063 -0.0030
# 3 34.3359 19.2724 104.3411 -0.0855 -5.8183 -0.0007
# 4 0.0031 -0.0479 -0.0855 17.1064 0.0147 2.0930
# 5 -8.1744 -2.6063 -5.8183 0.0147 33.4238 0.0066
# 6 -0.0030 -0.0030 -0.0007 2.0930 0.0066 5.0731
#
#
#
# Elastic Compliance Matrix: (Units=1/GPa)
#
#
# Indices 1 2 3 4 5 6 
#
# 1 0.310021 -0.036702 -0.092067 -0.000712 0.056933 0.000369
# 2 -0.036702 0.011619 0.009574 0.000098 -0.006403 -0.000046
# 3 -0.092067 0.009574 0.037260 0.000259 -0.015284 -0.000131
# 4 -0.000712 0.000098 0.000259 0.061568 -0.000144 -0.025401
# 5 0.056933 -0.006403 -0.015284 -0.000144 0.040683 0.000034
# 6 0.000369 -0.000046 -0.000131 -0.025401 0.000034 0.207598
#
#
# Mechanical properties :
#
#
# Convention : Reuss Voigt Hill
#
# Bulk Modulus (GPa) = 8.29789 46.23428 27.26608
# Shear Modulus (GPa) = 5.27812 23.55830 14.41821
#
# Velocity S-wave (km/s) = 1.65259 3.49139 2.73138
# Velocity P-wave (km/s) = 2.81691 6.33846 4.90464
#
# Compressibility (1/GPa) = 0.12051257
#
# Stress axis : x y z
#
# Youngs Moduli (GPa) = 3.22559 86.06542 26.83833
#
# Poissons Ratio (x) = 3.15873 2.47091
# Poissons Ratio (y) = 0.11838 -0.25696
# Poissons Ratio (z) = 0.29697 -0.82403
#
# Static dielectric constant tensor:
#      x y z
#    x 1.693470 0.000010 0.022310 
#    y 0.000010 1.725350 0.000030 
#    z 0.022310 0.000030 1.734150 
# 
# From -- ./inp_files/317302.got.cif
#   From: 2010.05.17/outbox.cif.g08.bks.cpg/sg12_159_cif.got.tgz:317302.got - 2010.06.03 13:09:07.
