data_PCOD9186166
_publ_section_title
;
Structure prediction by ZEFSAII (Michael W. Deem and Ramdas Pophale) SiO2 
 PCOD9186166
Probable space group: C 2/M
;
_chemical_formula_sum "Si O2"
_cell_formula_units_Z 56
_cell_length_a 19.750393
_cell_length_b 8.815783
_cell_length_c 24.737002
_cell_angle_alpha 90.000000
_cell_angle_beta 135.259299
_cell_angle_gamma 90.000000
_cell_volume 3031.756556
_symmetry_space_group_name_H-M "C 2/M"
_symmetry_group_IT_number 12
_symmetry_cell_setting 'monoclinic'
loop_
_space_group_symop_operation_xyz
x,y,z
-x,y,-z
-x,-y,-z
x,-y,z
1/2+x,1/2+y,z
1/2-x,1/2+y,-z
1/2-x,1/2-y,-z
1/2+x,1/2-y,z
loop_
_atom_site_type_symbol
_atom_site_label
_atom_site_fract_x
_atom_site_fract_y
_atom_site_fract_z
Si Si1 0.848144 0.680888 0.309586
Si Si2 0.464375 0.674490 0.541629
Si Si3 0.674301 0.318268 0.999267
Si Si4 0.803387 0.679784 0.694153
Si Si5 0.811090 0.817872 0.867744
Si Si6 0.263254 0.178823 0.448885
Si Si7 0.464522 0.179617 0.873800
O O1 0.862658 0.500000 0.320549
O O2 0.948674 0.766658 0.372003
O O3 0.780757 0.735023 0.320810
O O4 0.785471 0.717606 0.220795
O O5 0.500000 0.678626 0.500000
O O6 0.438896 0.500000 0.540166
O O7 0.372144 0.780130 0.494315
O O8 0.678196 0.500000 0.998278
O O9 0.566238 0.261591 0.927077
O O10 0.750000 0.250000 0.000000
O O11 0.696412 0.273446 0.074039
O O12 0.782235 0.500000 0.681584
O O13 0.804240 0.743407 0.634330
O O14 0.899850 0.704085 0.783518
O O15 0.900408 0.741407 0.887291
O O16 0.825221 0.000000 0.872945
O O17 0.250000 0.250000 0.500000
O O18 0.247594 0.000000 0.440646
O O19 0.479041 0.000000 0.888726
#
# Coordination Sequence:
#
# PCOD9186166 Si02
#       7
#     8   8   8   8   8   8   8
#     4  10  19  34  59  89 116 149 195 244 293 343
#     4  11  22  37  60  87 120 155 193 241 291 343
#     4  11  23  40  60  84 119 157 193 237 292 349
#     4  10  20  37  59  86 119 153 191 241 292 342
#     4   9  20  38  60  87 118 152 191 240 290 342
#     4  12  25  41  61  85 117 156 199 242 291 348
#     4  10  21  37  62  91 117 150 192 239 288 343
#
# _framework density 18.471139000000001
#
# number of rings (size 3 to 8) (size 9 to 14) (size 15 to 20)
#    0.000    1.571    1.429    3.857    0.000    5.714 
#    2.571    0.000    0.000    0.000    0.000    0.000 
#    0.000    0.000    0.000    0.000    0.000    0.000 
#
# Total GULP energy -156458.863673 kJ/mol
# GULP energy per Si atom -5587.816560 kJ/mol
# Density = 1.842910 g / cm^3
# Si number density = 18.471139 Si / 1000 Ang^3
#
#
#
# Elastic Constant Matrix: (Units=GPa)
#
#
# Indices 1 2 3 4 5 6 
#
# 1 87.4494 34.2962 63.2864 0.0000 -16.2335 0.0000
# 2 34.2962 63.7701 47.8411 0.0000 -7.5676 0.0000
# 3 63.2864 47.8411 115.0967 0.0000 -13.5144 0.0000
# 4 0.0000 0.0000 0.0000 31.8450 0.0000 2.3305
# 5 -16.2335 -7.5676 -13.5144 0.0000 29.8851 0.0000
# 6 0.0000 0.0000 0.0000 2.3305 0.0000 33.9582
#
#
#
# Elastic Compliance Matrix: (Units=1/GPa)
#
#
# Indices 1 2 3 4 5 6 
#
# 1 0.020548 -0.003468 -0.009134 0.000000 0.006153 0.000000
# 2 -0.003468 0.023442 -0.007774 0.000000 0.000537 0.000000
# 3 -0.009134 -0.007774 0.017033 0.000000 0.000772 0.000000
# 4 0.000000 0.000000 0.000000 0.031561 0.000000 -0.002166
# 5 0.006153 0.000537 0.000772 0.000000 0.037289 0.000000
# 6 0.000000 0.000000 0.000000 -0.002166 0.000000 0.029597
#
#
# Mechanical properties :
#
#
# Convention : Reuss Voigt Hill
#
# Bulk Modulus (GPa) = 49.33343 61.90706 55.62025
# Shear Modulus (GPa) = 24.15702 27.19716 25.67709
#
# Velocity S-wave (km/s) = 3.62031 3.84137 3.73248
# Velocity P-wave (km/s) = 6.65146 7.29816 6.98230
#
# Compressibility (1/GPa) = 0.02027023
#
# Stress axis : x y z
#
# Youngs Moduli (GPa) = 48.66665 42.65777 58.70949
#
# Poissons Ratio (x) = 0.14794 0.53628
# Poissons Ratio (y) = 0.16878 0.45642
# Poissons Ratio (z) = 0.44454 0.33163
#
# Static dielectric constant tensor:
#      x y z
#    x 1.624260 0.000000 -0.018660 
#    y 0.000000 1.617570 0.000000 
#    z -0.018660 0.000000 1.652820 
# 
# From -- ./inp_files/342615.got.cif
#   From: 2010.05.17/outbox.cif.g08.bks.cpg/sg12_172_cif.got.tgz:342615.got - 2010.06.03 13:09:07.
