data_PCOD9186177
_publ_section_title
;
Structure prediction by ZEFSAII (Michael W. Deem and Ramdas Pophale) SiO2 
 PCOD9186177
Probable space group: C 2/M
;
_chemical_formula_sum "Si O2"
_cell_formula_units_Z 48
_cell_length_a 14.777775
_cell_length_b 14.553379
_cell_length_c 11.764348
_cell_angle_alpha 90.000000
_cell_angle_beta 118.941954
_cell_angle_gamma 90.000000
_cell_volume 2214.132492
_symmetry_space_group_name_H-M "C 2/M"
_symmetry_group_IT_number 12
_symmetry_cell_setting 'monoclinic'
loop_
_space_group_symop_operation_xyz
x,y,z
-x,y,-z
-x,-y,-z
x,-y,z
1/2+x,1/2+y,z
1/2-x,1/2+y,-z
1/2-x,1/2-y,-z
1/2+x,1/2-y,z
loop_
_atom_site_type_symbol
_atom_site_label
_atom_site_fract_x
_atom_site_fract_y
_atom_site_fract_z
Si Si1 0.810682 0.720099 0.426358
Si Si2 0.102925 0.897437 0.636930
Si Si3 0.898181 0.611585 0.873197
Si Si4 0.530401 0.889867 0.334104
Si Si5 0.204409 0.890014 0.911821
Si Si6 0.215722 0.389929 0.801671
O O1 0.750000 0.750000 0.500000
O O2 0.837790 0.814408 0.382163
O O3 0.911069 0.664555 0.531595
O O4 0.754674 0.657405 0.298535
O O5 0.102169 0.876386 0.772115
O O6 0.000000 0.901599 0.500000
O O7 0.151325 0.000000 0.656015
O O8 0.899708 0.500000 0.876594
O O9 0.913456 0.635646 0.750550
O O10 0.798378 0.638971 0.885793
O O11 0.000000 0.644807 0.000000
O O12 0.407300 0.870961 0.253038
O O13 0.541429 0.000000 0.358264
O O14 0.214164 0.000000 0.932520
O O15 0.221799 0.854610 0.049718
O O16 0.226578 0.500000 0.797413
#
# Coordination Sequence:
#
# PCOD9186177 Si02
#       6
#     8   8   8   8   8   8
#     4  12  25  38  54  81 118 158 200 240 285 347
#     4  10  22  41  62  80 107 153 205 247 279 329
#     4   9  14  25  49  85 124 151 172 212 282 362
#     4  10  19  34  59  89 121 151 181 230 298 363
#     4   9  17  32  57  88 116 148 191 238 294 352
#     4  10  20  36  61  91 119 145 180 239 309 364
#
# _framework density 21.678920000000002
#
# number of rings (size 3 to 8) (size 9 to 14) (size 15 to 20)
#    0.000    2.000    1.667    3.000    0.000    4.667 
#    0.000    0.000    0.000    0.000    0.000    4.667 
#    0.000    0.000    0.000    0.000    0.000    0.000 
#
# Total GULP energy -133925.817300 kJ/mol
# GULP energy per Si atom -5580.242387 kJ/mol
# Density = 2.162958 g / cm^3
# Si number density = 21.678920 Si / 1000 Ang^3
#
#
#
# Elastic Constant Matrix: (Units=GPa)
#
#
# Indices 1 2 3 4 5 6 
#
# 1 34.3308 13.2337 41.2739 0.0000 -16.2000 0.0000
# 2 13.2337 81.8477 55.3916 0.0000 -14.2558 0.0000
# 3 41.2739 55.3916 221.1906 0.0000 -17.8981 0.0000
# 4 0.0000 0.0000 0.0000 13.1002 0.0000 -33.7407
# 5 -16.2000 -14.2558 -17.8981 0.0000 37.1774 0.0000
# 6 0.0000 0.0000 0.0000 -33.7407 0.0000 -2.9903
#
#
#
# Elastic Compliance Matrix: (Units=1/GPa)
#
#
# Indices 1 2 3 4 5 6 
#
# 1 0.045466 0.000432 -0.007258 0.000000 0.016483 0.000000
# 2 0.000432 0.015317 -0.003565 0.000000 0.004345 0.000000
# 3 -0.007258 -0.003565 0.006661 0.000000 -0.001323 0.000000
# 4 0.000000 0.000000 0.000000 0.002539 0.000000 -0.028652
# 5 0.016483 0.004345 -0.001323 0.000000 0.035110 0.000000
# 6 0.000000 0.000000 0.000000 -0.028652 0.000000 -0.011124
#
#
# Mechanical properties :
#
#
# Convention : Reuss Voigt Hill
#
# Bulk Modulus (GPa) = 21.43076 61.90751 41.66914
# Shear Modulus (GPa) = 38.37124 24.62212 31.49668
#
# Velocity S-wave (km/s) = 4.21168 3.37376 3.81579
# Velocity P-wave (km/s) = 5.79292 6.61777 6.21904
#
# Compressibility (1/GPa) = 0.04666189
#
# Stress axis : x y z
#
# Youngs Moduli (GPa) = 21.99441 65.28523 150.12662
#
# Poissons Ratio (x) = -0.02819 1.08966
# Poissons Ratio (y) = -0.00950 0.53517
# Poissons Ratio (z) = 0.15964 0.23273
#
# Static dielectric constant tensor:
#      x y z
#    x 1.831810 0.000000 0.023650 
#    y 0.000000 1.803380 0.000000 
#    z 0.023650 0.000000 1.876810 
# 
# From -- ./inp_files/143857.got.cif
#   From: 2010.05.17/outbox.cif.g08.bks.cpg/sg12_72_cif.got.tgz:143857.got - 2010.06.03 13:09:07.
