data_PCOD9186297
_publ_section_title
;
Structure prediction by ZEFSAII (Michael W. Deem and Ramdas Pophale) SiO2 
 PCOD9186297
Probable space group: C 2/M
;
_chemical_formula_sum "Si O2"
_cell_formula_units_Z 64
_cell_length_a 11.456362
_cell_length_b 14.333526
_cell_length_c 19.348281
_cell_angle_alpha 90.000000
_cell_angle_beta 92.237343
_cell_angle_gamma 90.000000
_cell_volume 3174.760419
_symmetry_space_group_name_H-M "C 2/M"
_symmetry_group_IT_number 12
_symmetry_cell_setting 'monoclinic'
loop_
_space_group_symop_operation_xyz
x,y,z
-x,y,-z
-x,-y,-z
x,-y,z
1/2+x,1/2+y,z
1/2-x,1/2+y,-z
1/2-x,1/2-y,-z
1/2+x,1/2-y,z
loop_
_atom_site_type_symbol
_atom_site_label
_atom_site_fract_x
_atom_site_fract_y
_atom_site_fract_z
Si Si1 0.878954 0.102986 0.888914
Si Si2 0.390163 0.774905 0.693720
Si Si3 0.216001 0.397102 0.679699
Si Si4 0.455137 0.299358 0.201930
Si Si5 0.507995 0.891751 0.421847
Si Si6 0.618644 0.101597 0.833225
Si Si7 0.794419 0.611495 0.824807
Si Si8 0.875658 0.717789 0.966043
O O1 0.739560 0.103458 0.877847
O O2 0.917165 0.181280 0.941555
O O3 0.935382 0.139001 0.819392
O O4 0.919030 0.000000 0.906828
O O5 0.300048 0.691271 0.681209
O O6 0.514054 0.729828 0.719636
O O7 0.406473 0.834893 0.625884
O O8 0.355722 0.839331 0.759440
O O9 0.273789 0.500000 0.673945
O O10 0.117598 0.389467 0.618774
O O11 0.153606 0.399399 0.753317
O O12 0.439892 0.202271 0.159001
O O13 0.339599 0.357451 0.187152
O O14 0.500000 0.856635 0.500000
O O15 0.545375 0.000000 0.425155
O O16 0.561663 0.000000 0.846864
O O17 0.804610 0.500000 0.822984
O O18 0.836927 0.654176 0.899345
O O19 0.750000 0.750000 0.000000
O O20 0.000000 0.676551 0.000000
#
# Coordination Sequence:
#
# PCOD9186297 Si02
#       8
#     8   8   8   8   8   8   8   8
#     4  11  23  41  66  93 125 171 216 263 327 397
#     4  12  21  38  66  93 126 163 210 270 324 381
#     4  10  19  35  57  88 123 161 207 255 311 381
#     4  12  19  38  61  95 128 162 212 271 320 385
#     4  10  22  39  60  89 126 170 213 255 314 388
#     4  10  19  34  60  90 122 159 208 260 320 382
#     4  12  26  42  63  97 130 166 214 275 336 387
#     4  12  27  47  71  94 136 175 222 278 336 407
#
# _framework density 20.159001
#
# number of rings (size 3 to 8) (size 9 to 14) (size 15 to 20)
#    0.000    0.875    6.250    1.500    0.000    2.500 
#    0.000    0.000    0.000    0.375    0.000    0.000 
#    0.000    0.000    0.000    0.000    0.000    0.000 
#
# Total GULP energy -178427.779698 kJ/mol
# GULP energy per Si atom -5575.868116 kJ/mol
# Density = 2.011312 g / cm^3
# Si number density = 20.159001 Si / 1000 Ang^3
#
#
#
# Elastic Constant Matrix: (Units=GPa)
#
#
# Indices 1 2 3 4 5 6 
#
# 1 70.5017 40.2921 14.1483 0.0000 -4.4231 0.0000
# 2 40.2921 170.9244 40.3658 0.0000 -8.2679 0.0000
# 3 14.1483 40.3658 98.0205 0.0000 -3.0380 0.0000
# 4 0.0000 0.0000 0.0000 33.9728 0.0000 -6.4677
# 5 -4.4231 -8.2679 -3.0380 0.0000 22.9921 0.0000
# 6 0.0000 0.0000 0.0000 -6.4677 0.0000 15.1393
#
#
#
# Elastic Compliance Matrix: (Units=1/GPa)
#
#
# Indices 1 2 3 4 5 6 
#
# 1 0.016528 -0.003611 -0.000844 0.000000 0.001770 0.000000
# 2 -0.003611 0.007361 -0.002460 0.000000 0.001627 0.000000
# 3 -0.000844 -0.002460 0.011351 0.000000 0.000453 0.000000
# 4 0.000000 0.000000 0.000000 0.032041 0.000000 0.013689
# 5 0.001770 0.001627 0.000453 0.000000 0.044479 0.000000
# 6 0.000000 0.000000 0.000000 0.013689 0.000000 0.071901
#
#
# Mechanical properties :
#
#
# Convention : Reuss Voigt Hill
#
# Bulk Modulus (GPa) = 46.70539 58.78433 52.74486
# Shear Modulus (GPa) = 24.43451 30.73020 27.58235
#
# Velocity S-wave (km/s) = 3.48528 3.90858 3.70299
# Velocity P-wave (km/s) = 6.27814 7.04223 6.67113
#
# Compressibility (1/GPa) = 0.02141080
#
# Stress axis : x y z
#
# Youngs Moduli (GPa) = 60.50231 135.84205 88.09997
#
# Poissons Ratio (x) = 0.49058 0.07432
# Poissons Ratio (y) = 0.21850 0.21671
# Poissons Ratio (z) = 0.05104 0.33415
#
# Static dielectric constant tensor:
#      x y z
#    x 1.777930 0.000000 -0.004720 
#    y 0.000000 1.746440 0.000000 
#    z -0.004720 0.000000 1.740730 
# 
# From -- ./inp_files/263342.got.cif
#   From: 2010.05.17/outbox.cif.g08.bks.cpg/sg12_132_cif.got.tgz:263342.got - 2010.06.03 13:09:07.
