data_PCOD9186547
_publ_section_title
;
Structure prediction by ZEFSAII (Michael W. Deem and Ramdas Pophale) SiO2 
 PCOD9186547
Probable space group: C 2/M
;
_chemical_formula_sum "Si O2"
_cell_formula_units_Z 40
_cell_length_a 9.411541
_cell_length_b 22.942088
_cell_length_c 20.909428
_cell_angle_alpha 90.000000
_cell_angle_beta 28.558197
_cell_angle_gamma 90.000000
_cell_volume 2158.292012
_symmetry_space_group_name_H-M "C 2/M"
_symmetry_group_IT_number 12
_symmetry_cell_setting 'monoclinic'
loop_
_space_group_symop_operation_xyz
x,y,z
-x,y,-z
-x,-y,-z
x,-y,z
1/2+x,1/2+y,z
1/2-x,1/2+y,-z
1/2-x,1/2-y,-z
1/2+x,1/2-y,z
loop_
_atom_site_type_symbol
_atom_site_label
_atom_site_fract_x
_atom_site_fract_y
_atom_site_fract_z
Si Si1 0.409424 0.000000 0.302313
Si Si2 0.929750 0.500000 0.898746
Si Si3 0.735859 0.595665 0.155378
Si Si4 0.500000 0.602579 0.500000
Si Si5 0.096865 0.000000 0.792100
Si Si6 0.398349 0.204033 0.391965
Si Si7 0.800759 0.804626 0.341295
O O1 0.208942 0.942000 0.378955
O O2 0.584177 0.000000 0.300587
O O3 0.614073 0.000000 0.159172
O O4 0.117950 0.555855 0.847895
O O5 0.635303 0.500000 0.057533
O O6 0.489755 0.555852 0.216311
O O7 0.569656 0.651904 0.247408
O O8 0.000000 0.608401 0.000000
O O9 0.706886 0.645850 0.459447
O O10 0.250000 0.250000 0.500000
O O11 0.711149 0.192193 0.302146
O O12 0.389582 0.239866 0.329388
O O13 0.500000 0.821186 0.500000
#
# Coordination Sequence:
#
# PCOD9186547 Si02
#       7
#     4   4   8   4   4   8   8
#     4  11  23  32  58  84 117 139 184 240 270 333
#     4   9  20  34  59  77 107 149 192 219 276 340
#     4   9  19  37  57  79 111 146 187 231 275 331
#     4  11  22  36  50  86 122 143 176 234 292 313
#     4   9  18  40  53  77 111 153 176 227 288 330
#     4  10  19  35  54  75 109 149 184 217 277 335
#     4  10  20  33  57  80 102 149 186 227 274 331
#
# _framework density 18.533173999999999
#
# number of rings (size 3 to 8) (size 9 to 14) (size 15 to 20)
#    0.000    2.200    3.000    2.700    5.600    0.000 
#    0.000    2.000    0.000    2.400    0.000    0.000 
#    0.000    0.000    0.000    0.000    0.000    0.000 
#
# Total GULP energy -111423.851332 kJ/mol
# GULP energy per Si atom -5571.192567 kJ/mol
# Density = 1.849099 g / cm^3
# Si number density = 18.533174 Si / 1000 Ang^3
#
#
#
# Elastic Constant Matrix: (Units=GPa)
#
#
# Indices 1 2 3 4 5 6 
#
# 1 79.4975 19.8188 0.1465 -0.0055 -11.7989 0.0349
# 2 19.8188 111.5964 24.5347 -0.0087 -12.8967 0.0104
# 3 0.1465 24.5347 29.1151 -0.0138 -5.1409 0.0525
# 4 -0.0055 -0.0087 -0.0138 8.4012 -0.0034 0.3977
# 5 -11.7989 -12.8967 -5.1409 -0.0034 22.3277 0.0057
# 6 0.0349 0.0104 0.0525 0.3977 0.0057 -4.2801
#
#
#
# Elastic Compliance Matrix: (Units=1/GPa)
#
#
# Indices 1 2 3 4 5 6 
#
# 1 0.014193 -0.002431 0.003183 0.000007 0.006829 0.000159
# 2 -0.002431 0.011845 -0.009369 0.000002 0.003400 -0.000101
# 3 0.003183 -0.009369 0.043327 0.000040 0.006246 0.000547
# 4 0.000007 0.000002 0.000040 0.118510 0.000029 0.011014
# 5 0.006829 0.003400 0.006246 0.000029 0.051798 0.000212
# 6 0.000159 -0.000101 0.000547 0.011014 0.000212 -0.232608
#
#
# Mechanical properties :
#
#
# Convention : Reuss Voigt Hill
#
# Bulk Modulus (GPa) = 19.18269 34.35656 26.76963
# Shear Modulus (GPa) = 119.96916 17.00367 68.48642
#
# Velocity S-wave (km/s) = 8.05436 3.03227 6.08553
# Velocity P-wave (km/s) = 9.84225 5.55316 7.99085
#
# Compressibility (1/GPa) = 0.05213033
#
# Stress axis : x y z
#
# Youngs Moduli (GPa) = 70.45911 84.42117 23.08009
#
# Poissons Ratio (x) = 0.20524 -0.07346
# Poissons Ratio (y) = 0.17129 0.21624
# Poissons Ratio (z) = -0.22425 0.79095
#
# Static dielectric constant tensor:
#      x y z
#    x 1.702470 0.000000 -0.013190 
#    y 0.000000 1.641730 0.000000 
#    z -0.013190 0.000000 1.629340 
# 
# From -- ./inp_files/120286.got.cif
#   From: 2010.05.17/outbox.cif.g08.bks.cpg/sg12_61_cif.got.tgz:120286.got - 2010.06.03 13:09:07.
