data_PCOD9186722
_publ_section_title
;
Structure prediction by ZEFSAII (Michael W. Deem and Ramdas Pophale) SiO2 
 PCOD9186722
Probable space group: C 2/M
;
_chemical_formula_sum "Si O2"
_cell_formula_units_Z 44
_cell_length_a 23.058423
_cell_length_b 7.576827
_cell_length_c 15.770609
_cell_angle_alpha 90.000000
_cell_angle_beta 130.140557
_cell_angle_gamma 90.000000
_cell_volume 2106.314388
_symmetry_space_group_name_H-M "C 2/M"
_symmetry_group_IT_number 12
_symmetry_cell_setting 'monoclinic'
loop_
_space_group_symop_operation_xyz
x,y,z
-x,y,-z
-x,-y,-z
x,-y,z
1/2+x,1/2+y,z
1/2-x,1/2+y,-z
1/2-x,1/2-y,-z
1/2+x,1/2-y,z
loop_
_atom_site_type_symbol
_atom_site_label
_atom_site_fract_x
_atom_site_fract_y
_atom_site_fract_z
Si Si1 0.850793 0.500000 0.034674
Si Si2 0.141562 0.286382 0.448441
Si Si3 0.513634 0.786023 0.610770
Si Si4 0.328066 0.703810 0.160404
Si Si5 0.823555 0.805361 0.888776
Si Si6 0.200449 0.292690 0.322828
O O1 0.833768 0.341373 0.089104
O O2 0.868022 0.653803 0.979036
O O3 0.142776 0.500000 0.448586
O O4 0.160655 0.224450 0.371294
O O5 0.209835 0.229482 0.574247
O O6 0.059831 0.230810 0.404930
O O7 0.500000 0.742901 0.500000
O O8 0.590659 0.705499 0.718273
O O9 0.520912 0.000000 0.624493
O O10 0.305911 0.500000 0.117319
O O11 0.263416 0.768573 0.163959
O O12 0.824442 0.792785 0.788171
O O13 0.846618 0.000000 0.938131
O O14 0.184325 0.500000 0.300317
#
# Coordination Sequence:
#
# PCOD9186722 Si02
#       6
#     4   8   8   8   8   8
#     4  12  24  42  59  89 121 157 197 258 295 358
#     4   9  19  34  59  84 125 164 197 238 298 358
#     4  10  20  37  59  88 125 164 196 239 296 360
#     4  12  24  38  61  90 122 158 199 244 303 360
#     4  12  23  37  62  87 121 155 199 252 299 352
#     4  10  19  35  55  90 121 158 200 248 295 351
#
# _framework density 20.889569000000002
#
# number of rings (size 3 to 8) (size 9 to 14) (size 15 to 20)
#    0.000    1.273    3.636    2.727    0.000    3.273 
#    0.000    0.000    0.000    2.182    0.000    2.545 
#    0.000    0.000    0.000    0.000    0.000    0.000 
#
# Total GULP energy -122492.254230 kJ/mol
# GULP energy per Si atom -5567.829738 kJ/mol
# Density = 2.084202 g / cm^3
# Si number density = 20.889569 Si / 1000 Ang^3
#
#
#
# Elastic Constant Matrix: (Units=GPa)
#
#
# Indices 1 2 3 4 5 6 
#
# 1 -7.4737 32.1432 55.7422 0.0000 12.6134 0.0000
# 2 32.1432 143.9975 11.1098 0.0000 -25.1793 0.0000
# 3 55.7422 11.1098 30.9427 0.0000 -32.0051 0.0000
# 4 0.0000 0.0000 0.0000 12.2857 0.0000 -8.6470
# 5 12.6134 -25.1793 -32.0051 0.0000 26.2809 0.0000
# 6 0.0000 0.0000 0.0000 -8.6470 0.0000 11.0165
#
#
#
# Elastic Compliance Matrix: (Units=1/GPa)
#
#
# Indices 1 2 3 4 5 6 
#
# 1 0.001935 0.001489 0.013506 0.000000 0.016946 0.000000
# 2 0.001489 0.007117 -0.004144 0.000000 0.001058 0.000000
# 3 0.013506 -0.004144 0.005147 0.000000 -0.004184 0.000000
# 4 0.000000 0.000000 0.000000 0.181866 0.000000 0.142750
# 5 0.016946 0.001058 -0.004184 0.000000 0.025836 0.000000
# 6 0.000000 0.000000 0.000000 0.142750 0.000000 0.202820
#
#
# Mechanical properties :
#
#
# Convention : Reuss Voigt Hill
#
# Bulk Modulus (GPa) = 27.85329 40.60633 34.22981
# Shear Modulus (GPa) = 12.04863 14.48137 13.26500
#
# Velocity S-wave (km/s) = 2.40422 2.63579 2.52267
# Velocity P-wave (km/s) = 4.59016 5.36134 4.99067
#
# Compressibility (1/GPa) = 0.03590240
#
# Stress axis : x y z
#
# Youngs Moduli (GPa) = 516.67999 140.51175 194.28897
#
# Poissons Ratio (x) = -0.20923 -2.62409
# Poissons Ratio (y) = -0.76935 0.80505
# Poissons Ratio (z) = -6.97834 0.58222
#
# Static dielectric constant tensor:
#      x y z
#    x 1.747320 0.000000 0.018510 
#    y 0.000000 1.768910 0.000000 
#    z 0.018510 0.000000 1.760200 
# 
# From -- ./inp_files/238054.got.cif
#   From: 2010.05.17/outbox.cif.g08.bks.cpg/sg12_120_cif.got.tgz:238054.got - 2010.06.03 13:09:07.
