data_PCOD9186793
_publ_section_title
;
Structure prediction by ZEFSAII (Michael W. Deem and Ramdas Pophale) SiO2 
 PCOD9186793
Probable space group: C 2/M
;
_chemical_formula_sum "Si O2"
_cell_formula_units_Z 48
_cell_length_a 26.139235
_cell_length_b 8.997363
_cell_length_c 15.191164
_cell_angle_alpha 90.000000
_cell_angle_beta 141.941738
_cell_angle_gamma 90.000000
_cell_volume 2202.448695
_symmetry_space_group_name_H-M "C 2/M"
_symmetry_group_IT_number 12
_symmetry_cell_setting 'monoclinic'
loop_
_space_group_symop_operation_xyz
x,y,z
-x,y,-z
-x,-y,-z
x,-y,z
1/2+x,1/2+y,z
1/2-x,1/2+y,-z
1/2-x,1/2-y,-z
1/2+x,1/2-y,z
loop_
_atom_site_type_symbol
_atom_site_label
_atom_site_fract_x
_atom_site_fract_y
_atom_site_fract_z
Si Si1 0.875558 0.500000 0.757862
Si Si2 0.894364 0.673472 0.529536
Si Si3 0.330403 0.729906 0.936570
Si Si4 0.944861 0.500000 0.049590
Si Si5 0.857620 0.821476 0.294385
Si Si6 0.551641 0.336329 0.755652
Si Si7 0.295611 0.673310 0.684807
O O1 0.830330 0.334543 0.693803
O O2 0.956294 0.500000 0.804970
O O3 0.917189 0.500000 0.910145
O O4 0.908223 0.500000 0.535172
O O5 0.889629 0.752185 0.428146
O O6 0.804160 0.690347 0.451795
O O7 0.972108 0.747849 0.681990
O O8 0.374707 0.644668 0.074970
O O9 0.395503 0.862488 0.019822
O O10 0.238762 0.776736 0.841270
O O11 0.321799 0.670782 0.824428
O O12 0.908911 0.767808 0.279288
O O13 0.862250 0.000000 0.304061
O O14 0.519822 0.500000 0.689072
O O15 0.314832 0.500000 0.677699
#
# Coordination Sequence:
#
# PCOD9186793 Si02
#       7
#     4   8   8   4   8   8   8
#     4   9  18  34  62  89 113 141 186 233 291 353
#     4  10  22  36  54  80 108 150 195 239 279 331
#     4  10  19  35  56  79 114 152 183 233 285 336
#     4   9  18  34  56  89 110 141 186 227 290 348
#     4  10  20  36  55  77 109 152 195 232 277 330
#     4  11  23  34  51  81 114 151 192 231 279 336
#     4   9  19  36  59  86 114 147 189 236 287 346
#
# _framework density 21.793924000000001
#
# number of rings (size 3 to 8) (size 9 to 14) (size 15 to 20)
#    0.000    2.167    0.833    2.000    5.833    3.333 
#    0.000    7.500    0.000    1.000    0.000    0.000 
#    0.000    0.000    0.000    0.000    0.000    0.000 
#
# Total GULP energy -133678.595750 kJ/mol
# GULP energy per Si atom -5569.941490 kJ/mol
# Density = 2.174432 g / cm^3
# Si number density = 21.793924 Si / 1000 Ang^3
#
#
#
# Elastic Constant Matrix: (Units=GPa)
#
#
# Indices 1 2 3 4 5 6 
#
# 1 49.5059 46.0528 32.8105 0.0000 18.1406 0.0000
# 2 46.0528 137.9958 42.1809 0.0000 24.2937 0.0000
# 3 32.8105 42.1809 125.3078 0.0000 13.7906 0.0000
# 4 0.0000 0.0000 0.0000 19.8795 0.0000 7.0384
# 5 18.1406 24.2937 13.7906 0.0000 34.5614 0.0000
# 6 0.0000 0.0000 0.0000 7.0384 0.0000 14.3884
#
#
#
# Elastic Compliance Matrix: (Units=1/GPa)
#
#
# Indices 1 2 3 4 5 6 
#
# 1 0.035305 -0.008303 -0.005284 0.000000 -0.010586 0.000000
# 2 -0.008303 0.010873 -0.001176 0.000000 -0.002815 0.000000
# 3 -0.005284 -0.001176 0.009794 0.000000 -0.000308 0.000000
# 4 0.000000 0.000000 0.000000 0.060840 0.000000 -0.029761
# 5 -0.010586 -0.002815 -0.000308 0.000000 0.036592 0.000000
# 6 0.000000 0.000000 0.000000 -0.029761 0.000000 0.084059
#
#
# Mechanical properties :
#
#
# Convention : Reuss Voigt Hill
#
# Bulk Modulus (GPa) = 37.81536 61.65530 49.73533
# Shear Modulus (GPa) = 18.12884 26.55022 22.33953
#
# Velocity S-wave (km/s) = 2.88728 3.49412 3.20509
# Velocity P-wave (km/s) = 5.33893 6.68057 6.04707
#
# Compressibility (1/GPa) = 0.02644428
#
# Stress axis : x y z
#
# Youngs Moduli (GPa) = 28.32465 91.97347 102.10680
#
# Poissons Ratio (x) = 0.76369 0.53955
# Poissons Ratio (y) = 0.23519 0.12008
# Poissons Ratio (z) = 0.14967 0.10816
#
# Static dielectric constant tensor:
#      x y z
#    x 1.830310 0.000000 -0.060730 
#    y 0.000000 1.854920 0.000000 
#    z -0.060730 0.000000 1.804990 
# 
# From -- ./inp_files/295396.got.cif
#   From: 2010.05.17/outbox.cif.g08.bks.cpg/sg12_148_cif.got.tgz:295396.got - 2010.06.03 13:09:07.
