data_PCOD9186425
_publ_section_title
;
Structure prediction by ZEFSAII (Michael W. Deem and Ramdas Pophale) SiO2 
 PCOD9186425
Probable space group: C 2/M
;
_chemical_formula_sum "Si O2"
_cell_formula_units_Z 56
_cell_length_a 20.190800
_cell_length_b 17.789619
_cell_length_c 22.683492
_cell_angle_alpha 90.000000
_cell_angle_beta 161.184076
_cell_angle_gamma 90.000000
_cell_volume 2627.837841
_symmetry_space_group_name_H-M "C 2/M"
_symmetry_group_IT_number 12
_symmetry_cell_setting 'monoclinic'
loop_
_space_group_symop_operation_xyz
x,y,z
-x,y,-z
-x,-y,-z
x,-y,z
1/2+x,1/2+y,z
1/2-x,1/2+y,-z
1/2-x,1/2-y,-z
1/2+x,1/2-y,z
loop_
_atom_site_type_symbol
_atom_site_label
_atom_site_fract_x
_atom_site_fract_y
_atom_site_fract_z
Si Si1 0.441938 0.329639 0.292977
Si Si2 0.267697 0.584766 0.781156
Si Si3 0.506808 0.848923 0.075188
Si Si4 0.830993 0.589091 0.669032
Si Si5 0.430303 0.315033 0.823686
Si Si6 0.981017 0.714396 0.554061
Si Si7 0.138510 0.303092 0.859263
O O1 0.622059 0.387100 0.458932
O O2 0.411785 0.286516 0.329162
O O3 0.477811 0.257335 0.280540
O O4 0.222974 0.364963 0.093277
O O5 0.194287 0.500000 0.720865
O O6 0.304157 0.617174 0.746641
O O7 0.109824 0.640740 0.679440
O O8 0.500000 0.588989 0.000000
O O9 0.656323 0.885753 0.250723
O O10 0.539826 0.758481 0.109826
O O11 0.500000 0.870946 0.000000
O O12 0.861543 0.500000 0.691944
O O13 0.000596 0.636441 0.775729
O O14 0.260862 0.287907 0.632947
O O15 0.659230 0.339070 0.000700
O O16 0.000000 0.722316 0.500000
O O17 0.250000 0.250000 0.000000
#
# Coordination Sequence:
#
# PCOD9186425 Si02
#       7
#     8   8   8   8   8   8   8
#     4  11  22  41  72  95 129 174 226 266 332 405
#     4  10  20  33  52  87 133 167 203 264 330 382
#     4  11  22  41  71  98 132 175 224 273 331 407
#     4  12  27  45  66 101 139 174 226 288 341 391
#     4  10  19  35  63  92 124 162 227 259 323 395
#     4  10  19  34  62  97 127 167 221 268 315 400
#     4  11  21  44  69  95 124 177 227 274 328 405
#
# _framework density 21.310295
#
# number of rings (size 3 to 8) (size 9 to 14) (size 15 to 20)
#    0.000    1.286    4.286    4.286    0.000    4.000 
#    0.000    1.429    0.000    1.714    0.000    0.000 
#    0.000    0.000    0.000    0.000    0.000    0.000 
#
# Total GULP energy -156018.897379 kJ/mol
# GULP energy per Si atom -5572.103478 kJ/mol
# Density = 2.126179 g / cm^3
# Si number density = 21.310295 Si / 1000 Ang^3
#
#
#
# Elastic Constant Matrix: (Units=GPa)
#
#
# Indices 1 2 3 4 5 6 
#
# 1 58.2084 17.5518 18.0855 -0.0024 -0.9002 0.0059
# 2 17.5518 99.3300 22.6914 -0.0275 5.5579 0.0077
# 3 18.0855 22.6914 110.0336 0.0133 -4.0372 0.0086
# 4 -0.0024 -0.0275 0.0133 23.7226 -0.0057 0.2109
# 5 -0.9002 5.5579 -4.0372 -0.0057 29.4075 -0.0046
# 6 0.0059 0.0077 0.0086 0.2109 -0.0046 18.2663
#
#
#
# Elastic Compliance Matrix: (Units=1/GPa)
#
#
# Indices 1 2 3 4 5 6 
#
# 1 0.018808 -0.002798 -0.002486 0.000000 0.000763 -0.000004
# 2 -0.002798 0.011140 -0.001927 0.000013 -0.002456 -0.000004
# 3 -0.002486 -0.001927 0.009955 -0.000008 0.001655 -0.000003
# 4 0.000000 0.000013 -0.000008 0.042158 0.000005 -0.000487
# 5 0.000763 -0.002456 0.001655 0.000005 0.034720 0.000009
# 6 -0.000004 -0.000004 -0.000003 -0.000487 0.000009 0.054751
#
#
# Mechanical properties :
#
#
# Convention : Reuss Voigt Hill
#
# Bulk Modulus (GPa) = 39.24849 42.69215 40.97032
# Shear Modulus (GPa) = 25.71385 28.22883 26.97134
#
# Velocity S-wave (km/s) = 3.47744 3.64353 3.56145
# Velocity P-wave (km/s) = 5.88057 6.14634 6.01492
#
# Compressibility (1/GPa) = 0.02547869
#
# Stress axis : x y z
#
# Youngs Moduli (GPa) = 53.16987 89.76986 100.45220
#
# Poissons Ratio (x) = 0.25118 0.24975
# Poissons Ratio (y) = 0.14877 0.19361
# Poissons Ratio (z) = 0.13219 0.17303
#
# Static dielectric constant tensor:
#      x y z
#    x 1.975720 -0.000030 -0.018580 
#    y -0.000030 1.736730 -0.000020 
#    z -0.018580 -0.000020 1.937950 
# 
# From -- ./inp_files/347824.got.cif
#   From: 2010.05.17/outbox.cif.g08.bks.cpg/sg12_174_cif.got.tgz:347824.got - 2010.06.03 13:09:07.
