data_PCOD9186747
_publ_section_title
;
Structure prediction by ZEFSAII (Michael W. Deem and Ramdas Pophale) SiO2 
 PCOD9186747
Probable space group: C 2/M
;
_chemical_formula_sum "Si O2"
_cell_formula_units_Z 50
_cell_length_a 8.099333
_cell_length_b 15.749151
_cell_length_c 26.656549
_cell_angle_alpha 90.000000
_cell_angle_beta 32.932717
_cell_angle_gamma 90.000000
_cell_volume 1848.556609
_symmetry_space_group_name_H-M "C 2/M"
_symmetry_group_IT_number 12
_symmetry_cell_setting 'monoclinic'
loop_
_space_group_symop_operation_xyz
x,y,z
-x,y,-z
-x,-y,-z
x,-y,z
1/2+x,1/2+y,z
1/2-x,1/2+y,-z
1/2-x,1/2-y,-z
1/2+x,1/2-y,z
loop_
_atom_site_type_symbol
_atom_site_label
_atom_site_fract_x
_atom_site_fract_y
_atom_site_fract_z
Si Si1 0.821370 0.405290 0.772036
Si Si2 0.169903 0.103139 0.559055
Si Si3 0.580018 0.896884 0.605791
Si Si4 0.206028 0.632160 0.879519
Si Si5 0.925014 0.101866 0.721798
Si Si6 0.943257 0.806405 0.067164
Si Si7 0.500000 0.000000 0.000000
O O1 0.931764 0.500000 0.756629
O O2 0.039209 0.365888 0.673445
O O3 0.504807 0.416809 0.822268
O O4 0.718320 0.358540 0.848256
O O5 0.500000 0.120012 0.500000
O O6 0.185062 0.132785 0.497344
O O7 0.933055 0.133084 0.662216
O O8 0.146461 0.000000 0.562553
O O9 0.256504 0.880796 0.661203
O O10 0.615578 0.000000 0.601113
O O11 0.197758 0.636114 0.821695
O O12 0.267469 0.723986 0.886224
O O13 0.946157 0.575707 0.971236
O O14 0.891038 0.000000 0.729988
O O15 0.250000 0.750000 0.000000
O O16 0.000000 0.851698 0.000000
#
# Coordination Sequence:
#
# PCOD9186747 Si02
#       7
#     8   8   8   8   8   8   2
#     4  10  19  35  56  77 103 137 181 217 256 316
#     4   7   9  15  31  60  97 127 155 203 256 294
#     4   7  11  20  39  66  94 128 166 205 249 303
#     4  11  19  31  52  75 102 133 178 215 262 305
#     4   8  12  20  37  66  99 127 166 212 253 298
#     4  12  24  39  54  78 107 139 174 224 270 311
#     4  12  16  28  48  72  90 132 176 218 242 310
#
# _framework density 27.048128999999999
#
# number of rings (size 3 to 8) (size 9 to 14) (size 15 to 20)
#    0.000    2.720    4.000    2.880    0.000    0.320 
#    0.000    0.000    0.000    0.960    0.000    0.000 
#    0.000    0.000    0.000    8.000    0.000    2.080 
#
# Total GULP energy -139327.442552 kJ/mol
# GULP energy per Si atom -5573.097702 kJ/mol
# Density = 2.698657 g / cm^3
# Si number density = 27.048129 Si / 1000 Ang^3
#
#
#
# Elastic Constant Matrix: (Units=GPa)
#
#
# Indices 1 2 3 4 5 6 
#
# 1 92.8762 14.3808 74.7720 -0.0292 29.4266 0.0254
# 2 14.3808 57.5657 54.7674 0.0149 21.5489 -0.0032
# 3 74.7720 54.7674 305.8223 -0.0067 77.4793 0.0151
# 4 -0.0292 0.0149 -0.0067 26.8399 0.0247 16.0131
# 5 29.4266 21.5489 77.4793 0.0247 76.2859 -0.0234
# 6 0.0254 -0.0032 0.0151 16.0131 -0.0234 9.4861
#
#
#
# Elastic Compliance Matrix: (Units=1/GPa)
#
#
# Indices 1 2 3 4 5 6 
#
# 1 0.013759 0.000128 -0.002740 -0.005560 -0.002556 0.009346
# 2 0.000128 0.021405 -0.003123 0.001775 -0.002925 -0.002992
# 3 -0.002740 -0.003123 0.005396 -0.001402 -0.003540 0.002355
# 4 -0.005560 0.001775 -0.001402 -5.222184 0.007469 8.815412
# 5 -0.002556 -0.002925 -0.003540 0.007469 0.018510 -0.012551
# 6 0.009346 -0.002992 0.002355 8.815412 -0.012551-14.775615
#
#
# Mechanical properties :
#
#
# Convention : Reuss Voigt Hill
#
# Bulk Modulus (GPa) = 34.37627 82.67828 58.52727
# Shear Modulus (GPa) = -0.25103 43.34530 21.54713
#
# Velocity S-wave (km/s) = -0.30498 4.00750 2.82551
# Velocity P-wave (km/s) = 3.55146 7.21435 5.68593
#
# Compressibility (1/GPa) = 0.02908983
#
# Stress axis : x y z
#
# Youngs Moduli (GPa) = 72.68228 46.71722 185.33024
#
# Poissons Ratio (x) = -0.00600 0.50779
# Poissons Ratio (y) = -0.00933 0.57887
# Poissons Ratio (z) = 0.19914 0.14592
#
# Static dielectric constant tensor:
#      x y z
#    x 2.289460 0.000970 -0.151350 
#    y 0.000970 0.496480 -0.001110 
#    z -0.151350 -0.001110 2.385720 
# 
# From -- ./inp_files/358053.got.cif
#   From: 2010.05.17/outbox.cif.g08.bks.cpg/sg12_180_cif.got.tgz:358053.got - 2010.06.03 13:09:07.
