data_PCOD9186141
_publ_section_title
;
Structure prediction by ZEFSAII (Michael W. Deem and Ramdas Pophale) SiO2 
 PCOD9186141
Probable space group: C 2/M
;
_chemical_formula_sum "Si O2"
_cell_formula_units_Z 48
_cell_length_a 11.728515
_cell_length_b 22.468115
_cell_length_c 9.845111
_cell_angle_alpha 90.000000
_cell_angle_beta 66.867858
_cell_angle_gamma 90.000000
_cell_volume 2385.776955
_symmetry_space_group_name_H-M "C 2/M"
_symmetry_group_IT_number 12
_symmetry_cell_setting 'monoclinic'
loop_
_space_group_symop_operation_xyz
x,y,z
-x,y,-z
-x,-y,-z
x,-y,z
1/2+x,1/2+y,z
1/2-x,1/2+y,-z
1/2-x,1/2-y,-z
1/2+x,1/2-y,z
loop_
_atom_site_type_symbol
_atom_site_label
_atom_site_fract_x
_atom_site_fract_y
_atom_site_fract_z
Si Si1 0.045794 0.432644 0.337330
Si Si2 0.679215 0.877999 0.631191
Si Si3 0.858362 0.930773 0.754397
Si Si4 0.895284 0.126587 0.317392
Si Si5 0.403056 0.244381 0.415680
Si Si6 0.803874 0.929018 0.096540
O O1 0.081151 0.500000 0.356390
O O2 0.163358 0.410228 0.200342
O O3 0.000000 0.403242 0.500000
O O4 0.921229 0.429830 0.309126
O O5 0.776302 0.885405 0.705931
O O6 0.764181 0.882767 0.455880
O O7 0.596366 0.818218 0.663295
O O8 0.002048 0.915710 0.664857
O O9 0.832975 0.000000 0.733700
O O10 0.831127 0.920561 0.926264
O O11 0.934793 0.194821 0.322477
O O12 0.883395 0.107816 0.166998
O O13 0.500000 0.242110 0.500000
O O14 0.250000 0.250000 0.500000
O O15 0.822912 0.000000 0.113841
#
# Coordination Sequence:
#
# PCOD9186141 Si02
#       6
#     8   8   8   8   8   8
#     4  10  19  34  59  88 113 149 205 257 304 370
#     4  11  22  37  62  91 121 161 208 260 310 370
#     4  11  24  40  60  92 132 168 206 260 323 378
#     4  11  21  38  63  90 119 164 214 259 307 376
#     4  10  22  39  64  94 126 164 213 266 320 372
#     4  10  22  39  61  89 125 166 204 254 321 380
#
# _framework density 20.119233000000001
#
# number of rings (size 3 to 8) (size 9 to 14) (size 15 to 20)
#    0.000    1.500    1.667    4.500    2.333    4.667 
#    0.000    3.333    3.667    0.000    0.000    0.000 
#    0.000    0.000    0.000    0.000    0.000    0.000 
#
# Total GULP energy -133653.078441 kJ/mol
# GULP energy per Si atom -5568.878268 kJ/mol
# Density = 2.007344 g / cm^3
# Si number density = 20.119233 Si / 1000 Ang^3
#
#
#
# Elastic Constant Matrix: (Units=GPa)
#
#
# Indices 1 2 3 4 5 6 
#
# 1 98.5038 15.7089 11.8623 0.0000 -0.1561 0.0000
# 2 15.7089 80.0672 31.3125 0.0000 13.1000 0.0000
# 3 11.8623 31.3125 53.3969 0.0000 -0.1536 0.0000
# 4 0.0000 0.0000 0.0000 20.5233 0.0000 10.6458
# 5 -0.1561 13.1000 -0.1536 0.0000 30.1290 0.0000
# 6 0.0000 0.0000 0.0000 10.6458 0.0000 32.0189
#
#
#
# Elastic Compliance Matrix: (Units=1/GPa)
#
#
# Indices 1 2 3 4 5 6 
#
# 1 0.010584 -0.001666 -0.001372 0.000000 0.000772 0.000000
# 2 -0.001666 0.018142 -0.010291 0.000000 -0.007949 0.000000
# 3 -0.001372 -0.010291 0.025080 0.000000 0.004595 0.000000
# 4 0.000000 0.000000 0.000000 0.058880 0.000000 -0.019577
# 5 0.000772 -0.007949 0.004595 0.000000 0.036674 0.000000
# 6 0.000000 0.000000 0.000000 -0.019577 0.000000 0.037740
#
#
# Mechanical properties :
#
#
# Convention : Reuss Voigt Hill
#
# Bulk Modulus (GPa) = 36.83593 38.85947 37.84770
# Shear Modulus (GPa) = 22.44079 28.07318 25.25699
#
# Velocity S-wave (km/s) = 3.34337 3.73948 3.54696
# Velocity P-wave (km/s) = 5.76652 6.16453 5.96884
#
# Compressibility (1/GPa) = 0.02714741
#
# Stress axis : x y z
#
# Youngs Moduli (GPa) = 94.48154 55.12177 39.87162
#
# Poissons Ratio (x) = 0.09186 0.05470
# Poissons Ratio (y) = 0.15745 0.41032
# Poissons Ratio (z) = 0.12961 0.56726
#
# Static dielectric constant tensor:
#      x y z
#    x 1.794470 0.000000 0.017520 
#    y 0.000000 1.777760 0.000000 
#    z 0.017520 0.000000 1.715880 
# 
# From -- ./inp_files/51304.got.cif
#   From: 2010.05.17/outbox.cif.g08.bks.cpg/sg12_26_cif.got.tgz:51304.got - 2010.06.03 13:09:07.
