data_PCOD9186705
_publ_section_title
;
Structure prediction by ZEFSAII (Michael W. Deem and Ramdas Pophale) SiO2 
 PCOD9186705
Probable space group: C 2/M
;
_chemical_formula_sum "Si O2"
_cell_formula_units_Z 64
_cell_length_a 29.003739
_cell_length_b 14.934961
_cell_length_c 19.551433
_cell_angle_alpha 90.000000
_cell_angle_beta 18.600756
_cell_angle_gamma 90.000000
_cell_volume 2701.400553
_symmetry_space_group_name_H-M "C 2/M"
_symmetry_group_IT_number 12
_symmetry_cell_setting 'monoclinic'
loop_
_space_group_symop_operation_xyz
x,y,z
-x,y,-z
-x,-y,-z
x,-y,z
1/2+x,1/2+y,z
1/2-x,1/2+y,-z
1/2-x,1/2-y,-z
1/2+x,1/2-y,z
loop_
_atom_site_type_symbol
_atom_site_label
_atom_site_fract_x
_atom_site_fract_y
_atom_site_fract_z
Si Si1 0.419190 0.133064 0.829973
Si Si2 0.346652 0.100079 0.394490
Si Si3 0.073229 0.603329 0.970831
Si Si4 0.969738 0.109700 0.121473
Si Si5 0.097901 0.864829 0.300514
Si Si6 0.576020 0.669047 0.110640
Si Si7 0.387765 0.148103 0.715284
Si Si8 0.629146 0.396961 0.496440
O O1 0.556597 0.092827 0.673739
O O2 0.418316 0.234252 0.861027
O O3 0.428244 0.124608 0.735837
O O4 0.260060 0.099189 0.074048
O O5 0.193339 0.139251 0.630282
O O6 0.315504 0.000000 0.410989
O O7 0.455663 0.145329 0.187136
O O8 0.093458 0.500000 0.967976
O O9 0.231519 0.646075 0.736865
O O10 0.000000 0.600579 0.000000
O O11 0.070434 0.155505 0.037087
O O12 0.981526 0.000000 0.110309
O O13 0.000000 0.133246 0.000000
O O14 0.108036 0.756976 0.291330
O O15 0.000000 0.897558 0.500000
O O16 0.010395 0.886433 0.355184
O O17 0.424930 0.632596 0.353508
O O18 0.723293 0.621443 0.929137
O O19 0.500000 0.116361 0.500000
O O20 0.669488 0.500000 0.446528
#
# Coordination Sequence:
#
# PCOD9186705 Si02
#       8
#     8   8   8   8   8   8   8   8
#     4  11  21  39  61  89 123 157 196 249 301 362
#     4  10  22  40  60  85 121 160 196 247 309 360
#     4   9  18  34  56  83 115 154 195 236 292 358
#     4  10  23  43  65  88 120 163 207 254 302 344
#     4  10  19  35  55  83 118 155 192 232 298 360
#     4  11  21  40  63  88 119 157 204 251 293 360
#     4  10  21  38  62  86 116 162 195 243 311 358
#     4  11  20  32  56  87 118 156 199 242 292 357
#
# _framework density 23.691413000000001
#
# number of rings (size 3 to 8) (size 9 to 14) (size 15 to 20)
#    0.000    1.750    2.500    2.625    1.750    3.250 
#    0.000    0.625    0.000    1.875    0.000    0.000 
#    0.000    0.000    0.000    0.000    0.000    0.000 
#
# Total GULP energy -178733.364078 kJ/mol
# GULP energy per Si atom -5585.417627 kJ/mol
# Density = 2.363749 g / cm^3
# Si number density = 23.691413 Si / 1000 Ang^3
#
#
#
# Elastic Constant Matrix: (Units=GPa)
#
#
# Indices 1 2 3 4 5 6 
#
# 1 169.7786 1.4431 60.8453 -0.0001 17.9330 0.0001
# 2 1.4431 38.4662 17.2306 -0.0001 8.0845 0.0001
# 3 60.8453 17.2306 158.2606 -0.0003 18.4111 0.0002
# 4 -0.0001 -0.0001 -0.0003 -4.2986 0.0001 -26.9328
# 5 17.9330 8.0845 18.4111 0.0001 47.3818 -0.0001
# 6 0.0001 0.0001 0.0002 -26.9328 -0.0001 7.5533
#
#
#
# Elastic Compliance Matrix: (Units=1/GPa)
#
#
# Indices 1 2 3 4 5 6 
#
# 1 0.007015 0.001302 -0.002623 0.000000 -0.001858 0.000000
# 2 0.001302 0.028196 -0.003093 0.000000 -0.004102 0.000000
# 3 -0.002623 -0.003093 0.007841 0.000000 -0.001527 0.000000
# 4 0.000000 0.000000 0.000000 -0.009967 0.000000 -0.035539
# 5 -0.001858 -0.004102 -0.001527 0.000000 0.023101 0.000000
# 6 0.000000 0.000000 0.000000 -0.035539 0.000000 0.005672
#
#
# Mechanical properties :
#
#
# Convention : Reuss Voigt Hill
#
# Bulk Modulus (GPa) = 29.21867 58.39370 43.80618
# Shear Modulus (GPa) = 60.90518 29.25971 45.08245
#
# Velocity S-wave (km/s) = 5.07578 3.51812 4.36696
# Velocity P-wave (km/s) = 6.83456 6.41903 6.63005
#
# Compressibility (1/GPa) = 0.03422470
#
# Stress axis : x y z
#
# Youngs Moduli (GPa) = 142.54889 35.46641 127.52871
#
# Poissons Ratio (x) = -0.04618 0.33446
# Poissons Ratio (y) = -0.18562 0.39448
# Poissons Ratio (z) = 0.37386 0.10971
#
# Static dielectric constant tensor:
#      x y z
#    x 1.899230 0.000000 0.021140 
#    y 0.000000 1.949070 0.000000 
#    z 0.021140 0.000000 1.930460 
# 
# From -- ./inp_files/294141.got.cif
#   From: 2010.05.17/outbox.cif.g08.bks.cpg/sg12_148_cif.got.tgz:294141.got - 2010.06.03 13:09:07.
