data_PCOD9186693
_publ_section_title
;
Structure prediction by ZEFSAII (Michael W. Deem and Ramdas Pophale) SiO2 
 PCOD9186693
Probable space group: C 2/M
;
_chemical_formula_sum "Si O2"
_cell_formula_units_Z 60
_cell_length_a 21.432199
_cell_length_b 9.485710
_cell_length_c 13.600546
_cell_angle_alpha 90.000000
_cell_angle_beta 86.476401
_cell_angle_gamma 90.000000
_cell_volume 2759.758878
_symmetry_space_group_name_H-M "C 2/M"
_symmetry_group_IT_number 12
_symmetry_cell_setting 'monoclinic'
loop_
_space_group_symop_operation_xyz
x,y,z
-x,y,-z
-x,-y,-z
x,-y,z
1/2+x,1/2+y,z
1/2-x,1/2+y,-z
1/2-x,1/2-y,-z
1/2+x,1/2-y,z
loop_
_atom_site_type_symbol
_atom_site_label
_atom_site_fract_x
_atom_site_fract_y
_atom_site_fract_z
Si Si1 0.937143 0.332318 0.195902
Si Si2 0.562520 0.665508 0.428784
Si Si3 0.805704 0.164527 0.773959
Si Si4 0.116038 0.840537 0.624047
Si Si5 0.741146 0.000000 0.033194
Si Si6 0.924425 0.330854 0.775732
Si Si7 0.316266 0.772166 0.084681
Si Si8 0.758170 0.337258 0.598682
O O1 0.928705 0.500000 0.201776
O O2 0.920670 0.264089 0.302824
O O3 0.884442 0.275680 0.126750
O O4 0.010870 0.306100 0.171555
O O5 0.500000 0.681260 0.500000
O O6 0.567605 0.500000 0.398700
O O7 0.613420 0.695890 0.508758
O O8 0.564020 0.767716 0.335611
O O9 0.864813 0.241512 0.817633
O O10 0.739496 0.173102 0.836600
O O11 0.797265 0.250760 0.673997
O O12 0.818834 0.000000 0.757385
O O13 0.187868 0.844158 0.648941
O O14 0.090205 0.000000 0.635536
O O15 0.690990 0.878693 0.004108
O O16 0.792562 0.879023 0.055947
O O17 0.912097 0.500000 0.773702
O O18 0.779127 0.500000 0.582014
O O19 0.750000 0.250000 0.500000
#
# Coordination Sequence:
#
# PCOD9186693 Si02
#       8
#     8   8   8   8   4   8   8   8
#     4  11  22  39  62  93 128 161 208 263 314 376
#     4  10  19  35  55  81 123 173 225 275 317 367
#     4  12  24  41  65  93 133 175 217 271 325 388
#     4  10  21  34  55  84 117 164 217 268 315 363
#     4  10  24  44  76 108 132 156 204 266 330 404
#     4  11  25  39  59  90 129 178 221 265 324 381
#     4  11  23  45  74 107 129 164 207 265 328 396
#     4  11  23  37  57  88 128 176 224 271 323 376
#
# _framework density 21.741028
#
# number of rings (size 3 to 8) (size 9 to 14) (size 15 to 20)
#    0.000    1.200    4.000    2.000    2.800    2.933 
#    0.000    0.000    0.000    4.800    0.000    0.000 
#    0.000    0.000    0.000    0.000    0.000    0.000 
#
# Total GULP energy -167040.211848 kJ/mol
# GULP energy per Si atom -5568.007062 kJ/mol
# Density = 2.169154 g / cm^3
# Si number density = 21.741028 Si / 1000 Ang^3
#
#
#
# Elastic Constant Matrix: (Units=GPa)
#
#
# Indices 1 2 3 4 5 6 
#
# 1 126.2120 39.4012 37.7279 0.0000 36.6714 0.0000
# 2 39.4012 160.6359 50.7691 0.0000 19.8946 0.0000
# 3 37.7279 50.7691 48.3029 0.0000 21.0272 0.0000
# 4 0.0000 0.0000 0.0000 -106.5314 0.0000 -20.2197
# 5 36.6714 19.8946 21.0272 0.0000 42.4546 0.0000
# 6 0.0000 0.0000 0.0000 -20.2197 0.0000 -6.3648
#
#
#
# Elastic Compliance Matrix: (Units=1/GPa)
#
#
# Indices 1 2 3 4 5 6 
#
# 1 0.011845 -0.000120 -0.005987 0.000000 -0.007210 0.000000
# 2 -0.000120 0.009336 -0.010020 0.000000 0.000692 0.000000
# 3 -0.005987 -0.010020 0.040305 0.000000 -0.010096 0.000000
# 4 0.000000 0.000000 0.000000 -0.023642 0.000000 0.075107
# 5 -0.007210 0.000692 -0.010096 0.000000 0.034459 0.000000
# 6 0.000000 0.000000 0.000000 0.075107 0.000000 -0.395714
#
#
# Mechanical properties :
#
#
# Convention : Reuss Voigt Hill
#
# Bulk Modulus (GPa) = 34.20838 65.66079 49.93459
# Shear Modulus (GPa) = -17.76743 -0.27149 -9.01946
#
# Velocity S-wave (km/s) = -2.86183 -0.35376 -2.03902
# Velocity P-wave (km/s) = 2.20195 5.48635 4.18023
#
# Compressibility (1/GPa) = 0.02923260
#
# Stress axis : x y z
#
# Youngs Moduli (GPa) = 84.42176 107.11434 24.81085
#
# Poissons Ratio (x) = 0.01289 0.14854
# Poissons Ratio (y) = 0.01016 0.24859
# Poissons Ratio (z) = 0.50542 1.07324
#
# Static dielectric constant tensor:
#      x y z
#    x 1.894350 0.000000 -0.005490 
#    y 0.000000 1.720820 0.000000 
#    z -0.005490 0.000000 1.855740 
# 
# From -- ./inp_files/281454.got.cif
#   From: 2010.05.17/outbox.cif.g08.bks.cpg/sg12_141_cif.got.tgz:281454.got - 2010.06.03 13:09:07.
