data_PCOD9186288
_publ_section_title
;
Structure prediction by ZEFSAII (Michael W. Deem and Ramdas Pophale) SiO2 
 PCOD9186288
Probable space group: C 2/M
;
_chemical_formula_sum "Si O2"
_cell_formula_units_Z 60
_cell_length_a 11.935083
_cell_length_b 19.256095
_cell_length_c 23.381468
_cell_angle_alpha 90.000000
_cell_angle_beta 31.404802
_cell_angle_gamma 90.000000
_cell_volume 2800.082421
_symmetry_space_group_name_H-M "C 2/M"
_symmetry_group_IT_number 12
_symmetry_cell_setting 'monoclinic'
loop_
_space_group_symop_operation_xyz
x,y,z
-x,y,-z
-x,-y,-z
x,-y,z
1/2+x,1/2+y,z
1/2-x,1/2+y,-z
1/2-x,1/2-y,-z
1/2+x,1/2-y,z
loop_
_atom_site_type_symbol
_atom_site_label
_atom_site_fract_x
_atom_site_fract_y
_atom_site_fract_z
Si Si1 0.874777 0.580014 0.420987
Si Si2 0.865638 0.083202 0.237617
Si Si3 0.000000 0.686983 0.000000
Si Si4 0.774470 0.175243 0.618921
Si Si5 0.999268 0.576236 0.902498
Si Si6 0.546726 0.295524 0.236311
Si Si7 0.438746 0.618597 0.664184
Si Si8 0.916501 0.082692 0.977026
O O1 0.876259 0.500000 0.400273
O O2 0.826466 0.630293 0.388534
O O3 0.677111 0.588849 0.551512
O O4 0.108396 0.593877 0.346200
O O5 0.972768 0.132619 0.238234
O O6 0.965428 0.105399 0.132596
O O7 0.904959 0.000000 0.229471
O O8 0.045907 0.635762 0.032689
O O9 0.782761 0.724966 0.111710
O O10 0.615851 0.235032 0.706973
O O11 0.843635 0.129245 0.642522
O O12 0.000000 0.207615 0.500000
O O13 0.939092 0.500000 0.951334
O O14 0.249753 0.577108 0.778182
O O15 0.839415 0.590400 0.919390
O O16 0.545623 0.311499 0.304669
O O17 0.961330 0.000000 0.959037
O O18 0.000000 0.113053 0.000000
#
# Coordination Sequence:
#
# PCOD9186288 Si02
#       8
#     8   8   4   8   8   8   8   8
#     4  10  23  43  67  97 132 167 215 274 327 380
#     4  10  22  39  64  97 134 173 211 267 326 374
#     4  10  21  40  58  92 125 168 206 260 318 378
#     4  10  25  44  67  92 124 175 217 266 326 385
#     4  10  19  34  60  89 125 162 204 259 317 383
#     4  11  24  42  67  92 135 169 220 264 320 399
#     4  10  24  40  61  96 124 168 218 259 329 382
#     4   9  18  33  55  87 125 166 211 252 307 378
#
# _framework density 21.427942000000002
#
# number of rings (size 3 to 8) (size 9 to 14) (size 15 to 20)
#    0.000    2.000    1.333    0.600    5.600    6.667 
#    0.000    5.333    0.000    0.000    0.000    0.000 
#    0.000    0.000    0.000    0.000    0.000    0.000 
#
# Total GULP energy -167484.112636 kJ/mol
# GULP energy per Si atom -5582.803755 kJ/mol
# Density = 2.137917 g / cm^3
# Si number density = 21.427942 Si / 1000 Ang^3
#
#
#
# Elastic Constant Matrix: (Units=GPa)
#
#
# Indices 1 2 3 4 5 6 
#
# 1 56.1789 0.5892 26.6696 0.0143 -8.6021 0.0026
# 2 0.5892 37.6853 25.4399 0.0150 -13.6151 0.0025
# 3 26.6696 25.4399 123.2384 0.0295 -26.5716 -0.0379
# 4 0.0143 0.0150 0.0295 20.0267 -0.0046 -10.3219
# 5 -8.6021 -13.6151 -26.5716 -0.0046 33.3182 -0.0049
# 6 0.0026 0.0025 -0.0379 -10.3219 -0.0049 5.2124
#
#
#
# Elastic Compliance Matrix: (Units=1/GPa)
#
#
# Indices 1 2 3 4 5 6 
#
# 1 0.020403 0.003909 -0.004518 0.001540 0.003262 0.003007
# 2 0.003909 0.034039 -0.005622 0.002087 0.010436 0.004084
# 3 -0.004518 -0.005622 0.011479 -0.001947 0.005690 -0.003763
# 4 0.001540 0.002087 -0.001947 -2.420789 -0.001340 -4.793748
# 5 0.003262 0.010436 0.005690 -0.001340 0.039658 -0.002582
# 6 0.003007 0.004084 -0.003763 -4.793748 -0.002582 -9.300933
#
#
# Mechanical properties :
#
#
# Convention : Reuss Voigt Hill
#
# Bulk Modulus (GPa) = 18.70598 35.83333 27.26966
# Shear Modulus (GPa) = -0.43156 22.67172 11.12008
#
# Velocity S-wave (km/s) = -0.44926 3.25629 2.28052
# Velocity P-wave (km/s) = 2.91197 5.55850 4.43714
#
# Compressibility (1/GPa) = 0.05345883
#
# Stress axis : x y z
#
# Youngs Moduli (GPa) = 49.01177 29.37829 87.11783
#
# Poissons Ratio (x) = -0.11484 0.39363
# Poissons Ratio (y) = -0.19158 0.48973
# Poissons Ratio (z) = 0.22145 0.16515
#
# Static dielectric constant tensor:
#      x y z
#    x 1.781810 0.000000 0.006420 
#    y 0.000000 1.771310 0.000010 
#    z 0.006420 0.000010 1.794710 
# 
# From -- ./inp_files/336847.got.cif
#   From: 2010.05.17/outbox.cif.g08.bks.cpg/sg12_169_cif.got.tgz:336847.got - 2010.06.03 13:09:07.
