data_PCOD9186025
_publ_section_title
;
Structure prediction by ZEFSAII (Michael W. Deem and Ramdas Pophale) SiO2 
 PCOD9186025
Probable space group: C 2/M
;
_chemical_formula_sum "Si O2"
_cell_formula_units_Z 44
_cell_length_a 25.481842
_cell_length_b 17.769226
_cell_length_c 15.751681
_cell_angle_alpha 90.000000
_cell_angle_beta 16.154269
_cell_angle_gamma 90.000000
_cell_volume 1984.365602
_symmetry_space_group_name_H-M "C 2/M"
_symmetry_group_IT_number 12
_symmetry_cell_setting 'monoclinic'
loop_
_space_group_symop_operation_xyz
x,y,z
-x,y,-z
-x,-y,-z
x,-y,z
1/2+x,1/2+y,z
1/2-x,1/2+y,-z
1/2-x,1/2-y,-z
1/2+x,1/2-y,z
loop_
_atom_site_type_symbol
_atom_site_label
_atom_site_fract_x
_atom_site_fract_y
_atom_site_fract_z
Si Si1 0.421163 0.190667 0.718326
Si Si2 0.240894 0.580448 0.428487
Si Si3 0.243089 0.794397 0.277599
Si Si4 0.500000 0.281999 0.000000
Si Si5 0.317874 0.085238 0.022337
Si Si6 0.271839 0.079953 0.355197
O O1 0.500000 0.180259 0.500000
O O2 0.600697 0.226619 0.486753
O O3 0.354439 0.115298 0.870445
O O4 0.250000 0.250000 0.000000
O O5 0.304472 0.500000 0.290012
O O6 0.329208 0.659214 0.266177
O O7 0.284155 0.577584 0.460733
O O8 0.019691 0.581269 0.755486
O O9 0.448160 0.766463 0.995853
O O10 0.182041 0.850317 0.447629
O O11 0.227337 0.846748 0.217936
O O12 0.237680 0.000000 0.148613
O O13 0.223392 0.000000 0.388370
O O14 0.500000 0.084899 0.000000
#
# Coordination Sequence:
#
# PCOD9186025 Si02
#       6
#     8   8   8   4   8   8
#     4  12  27  48  70  98 134 178 231 294 337 392
#     4  10  21  36  57  93 140 176 212 263 336 412
#     4  12  23  39  68 100 133 168 226 277 336 402
#     4  12  23  34  61 102 134 172 218 266 341 404
#     4  11  23  44  71  97 132 181 223 278 345 405
#     4  10  19  34  58  91 131 165 201 260 328 394
#
# _framework density 22.173333
#
# number of rings (size 3 to 8) (size 9 to 14) (size 15 to 20)
#    0.000    0.909    6.364    0.818    2.545    1.818 
#    0.000    2.727    0.000    0.000    0.000    0.000 
#    0.000    0.000    0.000    0.000    0.000    0.000 
#
# Total GULP energy -122564.594310 kJ/mol
# GULP energy per Si atom -5571.117923 kJ/mol
# Density = 2.212287 g / cm^3
# Si number density = 22.173333 Si / 1000 Ang^3
#
#
#
# Elastic Constant Matrix: (Units=GPa)
#
#
# Indices 1 2 3 4 5 6 
#
# 1 107.4335 38.7733 12.2605 0.0057 15.1093 -0.0027
# 2 38.7733 119.2423 3.2710 0.0136 11.4309 -0.0009
# 3 12.2605 3.2710 31.5294 0.0241 1.2982 -0.0095
# 4 0.0057 0.0136 0.0241 41.4630 -0.0056 -10.0185
# 5 15.1093 11.4309 1.2982 -0.0056 28.8968 0.0048
# 6 -0.0027 -0.0009 -0.0095 -10.0185 0.0048 54.7085
#
#
#
# Elastic Compliance Matrix: (Units=1/GPa)
#
#
# Indices 1 2 3 4 5 6 
#
# 1 0.011568 -0.003211 -0.003976 0.000001 -0.004599 0.000000
# 2 -0.003211 0.009627 0.000338 -0.000003 -0.002144 0.000000
# 3 -0.003976 0.000338 0.033209 -0.000018 0.000453 0.000002
# 4 0.000001 -0.000003 -0.000018 0.025234 0.000006 0.004621
# 5 -0.004599 -0.002144 0.000453 0.000006 0.037839 -0.000003
# 6 0.000000 0.000000 0.000002 0.004621 -0.000003 0.019125
#
#
# Mechanical properties :
#
#
# Convention : Reuss Voigt Hill
#
# Bulk Modulus (GPa) = 24.56661 40.75721 32.66191
# Shear Modulus (GPa) = 30.51250 38.60702 34.55976
#
# Velocity S-wave (km/s) = 3.71359 4.17723 3.95222
# Velocity P-wave (km/s) = 5.43057 6.45653 5.96565
#
# Compressibility (1/GPa) = 0.04070566
#
# Stress axis : x y z
#
# Youngs Moduli (GPa) = 86.44785 103.87681 30.11260
#
# Poissons Ratio (x) = 0.33359 0.11972
# Poissons Ratio (y) = 0.27762 -0.01019
# Poissons Ratio (z) = 0.34369 -0.03515
#
# Static dielectric constant tensor:
#      x y z
#    x 1.829270 0.000000 0.026180 
#    y 0.000000 1.932420 0.000000 
#    z 0.026180 0.000000 1.868740 
# 
# From -- ./inp_files/241392.got.cif
#   From: 2010.05.17/outbox.cif.g08.bks.cpg/sg12_121_cif.got.tgz:241392.got - 2010.06.03 13:09:07.
