data_PCOD9186841
_publ_section_title
;
Structure prediction by ZEFSAII (Michael W. Deem and Ramdas Pophale) SiO2 
 PCOD9186841
Probable space group: C 2/M
;
_chemical_formula_sum "Si O2"
_cell_formula_units_Z 64
_cell_length_a 14.686209
_cell_length_b 19.065042
_cell_length_c 25.812922
_cell_angle_alpha 90.000000
_cell_angle_beta 29.752957
_cell_angle_gamma 90.000000
_cell_volume 3586.700040
_symmetry_space_group_name_H-M "C 2/M"
_symmetry_group_IT_number 12
_symmetry_cell_setting 'monoclinic'
loop_
_space_group_symop_operation_xyz
x,y,z
-x,y,-z
-x,-y,-z
x,-y,z
1/2+x,1/2+y,z
1/2-x,1/2+y,-z
1/2-x,1/2-y,-z
1/2+x,1/2-y,z
loop_
_atom_site_type_symbol
_atom_site_label
_atom_site_fract_x
_atom_site_fract_y
_atom_site_fract_z
Si Si1 0.317575 0.745965 0.055752
Si Si2 0.222320 0.169651 0.529949
Si Si3 0.787092 0.642042 0.978852
Si Si4 0.595323 0.350962 0.233643
Si Si5 0.584304 0.169755 0.400781
Si Si6 0.452876 0.580975 0.205359
Si Si7 0.826322 0.419044 0.211653
Si Si8 0.931969 0.837469 0.591450
O O1 0.241940 0.678753 0.062383
O O2 0.172934 0.783113 0.165588
O O3 0.500000 0.734372 0.000000
O O4 0.344573 0.800753 0.994617
O O5 0.250000 0.250000 0.500000
O O6 0.423941 0.141856 0.442178
O O7 0.094756 0.165969 0.643657
O O8 0.098799 0.137785 0.545929
O O9 0.955287 0.588653 0.895591
O O10 0.595736 0.608932 0.092118
O O11 0.557219 0.408536 0.208580
O O12 0.737992 0.378854 0.205912
O O13 0.500000 0.160641 0.500000
O O14 0.772893 0.129536 0.298174
O O15 0.605966 0.253930 0.382034
O O16 0.405902 0.500000 0.220431
O O17 0.771420 0.500000 0.236821
O O18 0.742630 0.380582 0.303222
O O19 0.000000 0.847179 0.500000
#
# Coordination Sequence:
#
# PCOD9186841 Si02
#       8
#     8   8   8   8   8   8   8   8
#     4  10  20  36  60  89 116 149 194 248 289 343
#     4   9  18  33  54  82 113 148 189 241 290 341
#     4  10  23  36  58  88 121 155 194 237 298 351
#     4  10  20  36  56  87 119 151 195 241 300 344
#     4  10  19  35  56  82 114 150 196 244 291 345
#     4  11  23  37  56  83 122 160 192 241 295 354
#     4  11  22  38  60  87 121 157 197 241 295 357
#     4   9  21  36  58  84 116 152 195 243 291 337
#
# _framework density 17.843699999999998
#
# number of rings (size 3 to 8) (size 9 to 14) (size 15 to 20)
#    0.000    2.000    2.500    0.750    5.250    1.500 
#    0.000    2.500    0.000    3.000    0.000    0.000 
#    0.000    0.000    0.000    0.000    0.000    0.000 
#
# Total GULP energy -178404.859759 kJ/mol
# GULP energy per Si atom -5575.151867 kJ/mol
# Density = 1.780309 g / cm^3
# Si number density = 17.843700 Si / 1000 Ang^3
#
#
#
# Elastic Constant Matrix: (Units=GPa)
#
#
# Indices 1 2 3 4 5 6 
#
# 1 82.5805 29.8351 47.2989 0.0000 -4.1132 -0.0016
# 2 29.8351 72.5870 51.2043 -0.0080 4.0027 -0.0003
# 3 47.2989 51.2043 115.2627 -0.0185 -8.4475 -0.0033
# 4 0.0000 -0.0080 -0.0185 11.4301 -0.0015 -4.6293
# 5 -4.1132 4.0027 -8.4475 -0.0015 29.6649 0.0035
# 6 -0.0016 -0.0003 -0.0033 -4.6293 0.0035 14.6381
#
#
#
# Elastic Compliance Matrix: (Units=1/GPa)
#
#
# Indices 1 2 3 4 5 6 
#
# 1 0.016270 -0.003064 -0.005229 -0.000012 0.001180 -0.000004
# 2 -0.003064 0.021511 -0.008725 0.000000 -0.005812 0.000000
# 3 -0.005229 -0.008725 0.015045 0.000022 0.004736 0.000009
# 4 -0.000012 0.000000 0.000022 0.100341 0.000006 0.031733
# 5 0.001180 -0.005812 0.004736 0.000006 0.036006 -0.000006
# 6 -0.000004 0.000000 0.000009 0.031733 -0.000006 0.078350
#
#
# Mechanical properties :
#
#
# Convention : Reuss Voigt Hill
#
# Bulk Modulus (GPa) = 53.21826 58.56741 55.89283
# Shear Modulus (GPa) = 16.24317 20.61942 18.43130
#
# Velocity S-wave (km/s) = 3.02040 3.40304 3.21741
# Velocity P-wave (km/s) = 6.48484 6.95231 6.72264
#
# Compressibility (1/GPa) = 0.01879054
#
# Stress axis : x y z
#
# Youngs Moduli (GPa) = 61.46267 46.48800 66.46939
#
# Poissons Ratio (x) = 0.14243 0.34756
# Poissons Ratio (y) = 0.18832 0.57992
# Poissons Ratio (z) = 0.32138 0.40559
#
# Static dielectric constant tensor:
#      x y z
#    x 1.649150 0.000000 -0.006230 
#    y 0.000000 1.589420 0.000000 
#    z -0.006230 0.000000 1.609290 
# 
# From -- ./inp_files/340825.got.cif
#   From: 2010.05.17/outbox.cif.g08.bks.cpg/sg12_171_cif.got.tgz:340825.got - 2010.06.03 13:09:07.
