data_PCOD9186303
_publ_section_title
;
Structure prediction by ZEFSAII (Michael W. Deem and Ramdas Pophale) SiO2 
 PCOD9186303
Probable space group: C 2/M
;
_chemical_formula_sum "Si O2"
_cell_formula_units_Z 64
_cell_length_a 22.989171
_cell_length_b 7.763067
_cell_length_c 25.543819
_cell_angle_alpha 90.000000
_cell_angle_beta 143.646842
_cell_angle_gamma 90.000000
_cell_volume 2702.227060
_symmetry_space_group_name_H-M "C 2/M"
_symmetry_group_IT_number 12
_symmetry_cell_setting 'monoclinic'
loop_
_space_group_symop_operation_xyz
x,y,z
-x,y,-z
-x,-y,-z
x,-y,z
1/2+x,1/2+y,z
1/2-x,1/2+y,-z
1/2-x,1/2-y,-z
1/2+x,1/2-y,z
loop_
_atom_site_type_symbol
_atom_site_label
_atom_site_fract_x
_atom_site_fract_y
_atom_site_fract_z
Si Si1 0.087660 0.709565 0.602410
Si Si2 0.921079 0.797529 0.901856
Si Si3 0.439929 0.706239 0.797490
Si Si4 0.232609 0.710400 0.622096
Si Si5 0.851766 0.706764 0.546168
Si Si6 0.564373 0.791367 0.705937
Si Si7 0.652114 0.796211 0.959711
Si Si8 0.722797 0.797723 0.119753
O O1 0.084809 0.500000 0.602154
O O2 0.187077 0.761314 0.644721
O O3 0.076298 0.765440 0.653821
O O4 0.000000 0.762910 0.500000
O O5 0.928567 0.725443 0.848937
O O6 0.816697 0.782489 0.855128
O O7 0.942897 0.000000 0.912270
O O8 0.000000 0.721947 0.000000
O O9 0.430904 0.500000 0.792080
O O10 0.344736 0.769684 0.697169
O O11 0.549827 0.744631 0.859409
O O12 0.230836 0.500000 0.619492
O O13 0.163791 0.767844 0.524803
O O14 0.859237 0.500000 0.550451
O O15 0.750000 0.750000 0.500000
O O16 0.955785 0.768871 0.644394
O O17 0.661663 0.728897 0.805327
O O18 0.567215 0.000000 0.710174
O O19 0.649839 0.000000 0.963017
O O20 0.750000 0.750000 0.000000
O O21 0.663675 0.723400 0.027119
O O22 0.704058 0.000000 0.110427
#
# Coordination Sequence:
#
# PCOD9186303 Si02
#       8
#     8   8   8   8   8   8   8   8
#     4   9  14  27  55  87 114 140 179 231 279 325
#     4  10  19  34  60  91 119 149 186 229 278 337
#     4  10  20  36  60  89 119 149 186 231 281 338
#     4   9  17  31  54  84 113 143 179 224 277 330
#     4  10  21  37  56  80 110 147 188 230 277 330
#     4  10  20  35  59  87 113 145 189 236 281 334
#     4  11  25  43  61  81 109 149 195 241 289 339
#     4  11  24  39  58  85 118 154 189 232 290 346
#
# _framework density 23.684166999999999
#
# number of rings (size 3 to 8) (size 9 to 14) (size 15 to 20)
#    0.000    2.000    2.500    1.500    0.000    5.750 
#    0.000    4.375    0.000    1.125    0.000    0.000 
#    0.000    0.000    0.000    0.000    0.000    0.000 
#
# Total GULP energy -178777.193996 kJ/mol
# GULP energy per Si atom -5586.787312 kJ/mol
# Density = 2.363026 g / cm^3
# Si number density = 23.684167 Si / 1000 Ang^3
#
#
#
# Elastic Constant Matrix: (Units=GPa)
#
#
# Indices 1 2 3 4 5 6 
#
# 1 48.2490 -8.3715 -2.8072 0.0001 28.2638 0.0003
# 2 -8.3715 33.7757 0.5281 0.0007 -3.8831 0.0017
# 3 -2.8072 0.5281 115.9737 0.0000 37.4233 0.0001
# 4 0.0001 0.0007 0.0000 11.4098 0.0000 9.7340
# 5 28.2638 -3.8831 37.4233 0.0000 37.5996 0.0001
# 6 0.0003 0.0017 0.0001 9.7340 0.0001 11.5682
#
#
#
# Elastic Compliance Matrix: (Units=1/GPa)
#
#
# Indices 1 2 3 4 5 6 
#
# 1 0.069322 0.007797 0.026808 0.000003 -0.077986 -0.000004
# 2 0.007797 0.031061 0.001331 0.000007 -0.003978 -0.000011
# 3 0.026808 0.001331 0.023163 0.000001 -0.043069 -0.000001
# 4 0.000003 0.000007 0.000001 0.310646 -0.000001 -0.261393
# 5 -0.077986 -0.003978 -0.043069 -0.000001 0.127674 0.000002
# 6 -0.000004 -0.000011 -0.000001 -0.261393 0.000002 0.306393
#
#
# Mechanical properties :
#
#
# Convention : Reuss Voigt Hill
#
# Bulk Modulus (GPa) = 5.11726 19.63301 12.37514
# Shear Modulus (GPa) = 5.80364 26.02545 15.91455
#
# Velocity S-wave (km/s) = 1.56708 3.31849 2.59501
# Velocity P-wave (km/s) = 2.33231 4.79486 3.77030
#
# Compressibility (1/GPa) = 0.19541695
#
# Stress axis : x y z
#
# Youngs Moduli (GPa) = 14.42547 32.19423 43.17198
#
# Poissons Ratio (x) = -0.25101 -1.15734
# Poissons Ratio (y) = -0.11247 -0.05745
# Poissons Ratio (z) = -0.38671 -0.04284
#
# Static dielectric constant tensor:
#      x y z
#    x 1.921120 0.000000 0.007890 
#    y 0.000000 1.877630 0.000000 
#    z 0.007890 0.000000 1.921980 
# 
# From -- ./inp_files/382439.got.cif
#   From: 2010.05.17/outbox.cif.g08.bks.cpg/sg12_192_cif.got.tgz:382439.got - 2010.06.03 13:09:07.
