data_PCOD9186491
_publ_section_title
;
Structure prediction by ZEFSAII (Michael W. Deem and Ramdas Pophale) SiO2 
 PCOD9186491
Probable space group: C 2/M
;
_chemical_formula_sum "Si O2"
_cell_formula_units_Z 52
_cell_length_a 31.732089
_cell_length_b 18.790442
_cell_length_c 5.008805
_cell_angle_alpha 90.000000
_cell_angle_beta 107.123508
_cell_angle_gamma 90.000000
_cell_volume 2854.163044
_symmetry_space_group_name_H-M "C 2/M"
_symmetry_group_IT_number 12
_symmetry_cell_setting 'monoclinic'
loop_
_space_group_symop_operation_xyz
x,y,z
-x,y,-z
-x,-y,-z
x,-y,z
1/2+x,1/2+y,z
1/2-x,1/2+y,-z
1/2-x,1/2-y,-z
1/2+x,1/2-y,z
loop_
_atom_site_type_symbol
_atom_site_label
_atom_site_fract_x
_atom_site_fract_y
_atom_site_fract_z
Si Si1 0.693105 0.580906 0.785781
Si Si2 0.643758 0.281388 0.858427
Si Si3 0.548896 0.228309 0.632623
Si Si4 0.831915 0.691603 0.616097
Si Si5 0.253520 0.081732 0.398812
Si Si6 0.532352 0.000000 0.305989
Si Si7 0.926737 0.358477 0.829885
O O1 0.676505 0.500000 0.784504
O O2 0.658148 0.640713 0.795365
O O3 0.713057 0.589845 0.528878
O O4 0.734084 0.589082 0.066269
O O5 0.590919 0.274771 0.803187
O O6 0.658114 0.226623 0.651813
O O7 0.669200 0.254799 0.169566
O O8 0.500000 0.259126 0.500000
O O9 0.561549 0.201571 0.362781
O O10 0.548265 0.162901 0.848484
O O11 0.789932 0.640899 0.525484
O O12 0.874629 0.645542 0.783730
O O13 0.270200 0.000000 0.462112
O O14 0.500000 0.000000 0.500000
O O15 0.561109 0.069877 0.303637
O O16 0.500000 0.000000 0.000000
#
# Coordination Sequence:
#
# PCOD9186491 Si02
#       7
#     8   8   8   8   8   4   8
#     4  10  21  37  54  78 105 136 169 211 266 317
#     4  10  21  35  54  79 104 132 175 216 262 310
#     4  10  19  35  53  72  99 132 168 211 258 310
#     4  10  21  35  52  78 104 137 178 216 258 296
#     4  10  21  35  54  76 106 144 176 207 254 314
#     4  12  22  32  48  70  96 136 180 214 260 300
#     4  10  21  33  49  72 100 134 170 219 255 295
#
# _framework density 18.219003000000001
#
# number of rings (size 3 to 8) (size 9 to 14) (size 15 to 20)
#    0.000    1.846    0.000    4.615    1.077    3.692 
#    0.000    0.000    0.000    0.462    0.000    0.000 
#    0.000   11.077    0.000    0.000    0.000    2.462 
#
# Total GULP energy -144991.119243 kJ/mol
# GULP energy per Si atom -5576.581509 kJ/mol
# Density = 1.817754 g / cm^3
# Si number density = 18.219003 Si / 1000 Ang^3
#
#
#
# Elastic Constant Matrix: (Units=GPa)
#
#
# Indices 1 2 3 4 5 6 
#
# 1 61.6848 50.7140 -5.8984 0.0000 4.7491 0.0000
# 2 50.7140 82.3777 -7.2437 0.0000 8.2123 0.0000
# 3 -5.8984 -7.2437 68.1642 0.0000 -12.3163 0.0000
# 4 0.0000 0.0000 0.0000 20.3763 0.0000 -5.0019
# 5 4.7491 8.2123 -12.3163 0.0000 26.0691 0.0000
# 6 0.0000 0.0000 0.0000 -5.0019 0.0000 14.7929
#
#
#
# Elastic Compliance Matrix: (Units=1/GPa)
#
#
# Indices 1 2 3 4 5 6 
#
# 1 0.032873 -0.020242 0.000835 0.000000 0.000783 0.000000
# 2 -0.020242 0.025026 0.000164 0.000000 -0.004119 0.000000
# 3 0.000835 0.000164 0.016097 0.000000 0.007402 0.000000
# 4 0.000000 0.000000 0.000000 0.053519 0.000000 0.018096
# 5 0.000783 -0.004119 0.007402 0.000000 0.043011 0.000000
# 6 0.000000 0.000000 0.000000 0.018096 0.000000 0.073719
#
#
# Mechanical properties :
#
#
# Convention : Reuss Voigt Hill
#
# Bulk Modulus (GPa) = 28.16180 31.93003 30.04592
# Shear Modulus (GPa) = 16.97397 23.89133 20.43265
#
# Velocity S-wave (km/s) = 3.05563 3.62517 3.35252
# Velocity P-wave (km/s) = 5.28584 5.92336 5.61366
#
# Compressibility (1/GPa) = 0.03550909
#
# Stress axis : x y z
#
# Youngs Moduli (GPa) = 30.42000 39.95866 62.12170
#
# Poissons Ratio (x) = 0.80885 -0.05186
# Poissons Ratio (y) = 0.61577 -0.01017
# Poissons Ratio (z) = -0.02540 -0.00654
#
# Static dielectric constant tensor:
#      x y z
#    x 1.632830 0.000000 0.011580 
#    y 0.000000 1.592640 0.000000 
#    z 0.011580 0.000000 1.637400 
# 
# From -- ./inp_files/28572.got.cif
#   From: 2010.05.17/outbox.cif.g08.bks.cpg/sg12_15_cif.got.tgz:28572.got - 2010.06.03 13:09:07.
