data_PCOD9186346
_publ_section_title
;
Structure prediction by ZEFSAII (Michael W. Deem and Ramdas Pophale) SiO2 
 PCOD9186346
Probable space group: C 2/M
;
_chemical_formula_sum "Si O2"
_cell_formula_units_Z 48
_cell_length_a 14.776486
_cell_length_b 13.414106
_cell_length_c 15.876223
_cell_angle_alpha 90.000000
_cell_angle_beta 139.419695
_cell_angle_gamma 90.000000
_cell_volume 2047.086501
_symmetry_space_group_name_H-M "C 2/M"
_symmetry_group_IT_number 12
_symmetry_cell_setting 'monoclinic'
loop_
_space_group_symop_operation_xyz
x,y,z
-x,y,-z
-x,-y,-z
x,-y,z
1/2+x,1/2+y,z
1/2-x,1/2+y,-z
1/2-x,1/2-y,-z
1/2+x,1/2-y,z
loop_
_atom_site_type_symbol
_atom_site_label
_atom_site_fract_x
_atom_site_fract_y
_atom_site_fract_z
Si Si1 0.438794 0.889041 0.765818
Si Si2 0.983031 0.393536 0.595346
Si Si3 0.224860 0.187563 0.182877
Si Si4 0.166830 0.202357 0.519947
Si Si5 0.392311 0.614968 0.248858
Si Si6 0.046527 0.810995 0.896547
O O1 0.463196 0.888574 0.682598
O O2 0.278149 0.852849 0.656546
O O3 0.542090 0.808509 0.878123
O O4 0.456804 0.000000 0.811885
O O5 0.927968 0.500000 0.528762
O O6 0.146700 0.381317 0.703964
O O7 0.903896 0.302367 0.496900
O O8 0.288375 0.299340 0.210854
O O9 0.104669 0.174140 0.167484
O O10 0.157411 0.159743 0.045177
O O11 0.250000 0.250000 0.500000
O O12 0.040881 0.132795 0.400581
O O13 0.347376 0.500000 0.226997
O O14 0.424989 0.638902 0.173278
#
# Coordination Sequence:
#
# PCOD9186346 Si02
#       6
#     8   8   8   8   8   8
#     4  10  19  34  61  87 113 154 198 239 298 360
#     4   9  18  34  59  83 111 152 192 236 291 350
#     4  10  23  40  59  84 126 154 200 254 296 346
#     4   9  16  35  58  88 118 149 192 245 296 353
#     4  11  22  38  62  91 119 156 200 249 302 354
#     4  11  22  40  60  86 119 164 198 245 300 356
#
# _framework density 23.447959000000001
#
# number of rings (size 3 to 8) (size 9 to 14) (size 15 to 20)
#    0.000    2.000    5.000    1.000    0.000    3.333 
#    0.000    6.667    0.000    6.000    0.000    0.000 
#    0.000    0.000    0.000    0.000    0.000    0.000 
#
# Total GULP energy -134102.127236 kJ/mol
# GULP energy per Si atom -5587.588635 kJ/mol
# Density = 2.339459 g / cm^3
# Si number density = 23.447959 Si / 1000 Ang^3
#
#
#
# Elastic Constant Matrix: (Units=GPa)
#
#
# Indices 1 2 3 4 5 6 
#
# 1 117.9061 3.1084 18.9677 0.0000 1.0987 0.0000
# 2 3.1084 102.2496 -13.3771 0.0000 4.0416 0.0000
# 3 18.9677 -13.3771 47.7377 0.0000 1.2683 0.0000
# 4 0.0000 0.0000 0.0000 3.5724 0.0000 -1.1203
# 5 1.0987 4.0416 1.2683 0.0000 32.3092 0.0000
# 6 0.0000 0.0000 0.0000 -1.1203 0.0000 2.0469
#
#
#
# Elastic Compliance Matrix: (Units=1/GPa)
#
#
# Indices 1 2 3 4 5 6 
#
# 1 0.009120 -0.000777 -0.003840 0.000000 -0.000062 0.000000
# 2 -0.000777 0.010281 0.003226 0.000000 -0.001386 0.000000
# 3 -0.003840 0.003226 0.023409 0.000000 -0.001192 0.000000
# 4 0.000000 0.000000 0.000000 0.337930 0.000000 0.184963
# 5 -0.000062 -0.001386 -0.001192 0.000000 0.031173 0.000000
# 6 0.000000 0.000000 0.000000 0.184963 0.000000 0.589786
#
#
# Mechanical properties :
#
#
# Convention : Reuss Voigt Hill
#
# Bulk Modulus (GPa) = 24.98202 31.69904 28.34053
# Shear Modulus (GPa) = 4.91245 24.86532 14.88888
#
# Velocity S-wave (km/s) = 1.44900 3.25998 2.52261
# Velocity P-wave (km/s) = 3.67108 5.26481 4.53845
#
# Compressibility (1/GPa) = 0.04002879
#
# Stress axis : x y z
#
# Youngs Moduli (GPa) = 109.64783 97.27144 42.71811
#
# Poissons Ratio (x) = 0.07559 0.16403
# Poissons Ratio (y) = 0.08521 -0.13783
# Poissons Ratio (z) = 0.42103 -0.31384
#
# Static dielectric constant tensor:
#      x y z
#    x -21.044200 0.000000 0.626590 
#    y 0.000000 1.883720 0.000000 
#    z 0.626590 0.000000 1.827310 
# 
# From -- ./inp_files/142888.got.cif
#   From: 2010.05.17/outbox.cif.g08.bks.cpg/sg12_72_cif.got.tgz:142888.got - 2010.06.03 13:09:07.
