data_PCOD9186746
_publ_section_title
;
Structure prediction by ZEFSAII (Michael W. Deem and Ramdas Pophale) SiO2 
 PCOD9186746
Probable space group: C 2/M
;
_chemical_formula_sum "Si O2"
_cell_formula_units_Z 40
_cell_length_a 13.192661
_cell_length_b 23.677830
_cell_length_c 7.307317
_cell_angle_alpha 90.000000
_cell_angle_beta 51.002641
_cell_angle_gamma 90.000000
_cell_volume 1773.989534
_symmetry_space_group_name_H-M "C 2/M"
_symmetry_group_IT_number 12
_symmetry_cell_setting 'monoclinic'
loop_
_space_group_symop_operation_xyz
x,y,z
-x,y,-z
-x,-y,-z
x,-y,z
1/2+x,1/2+y,z
1/2-x,1/2+y,-z
1/2-x,1/2-y,-z
1/2+x,1/2-y,z
loop_
_atom_site_type_symbol
_atom_site_label
_atom_site_fract_x
_atom_site_fract_y
_atom_site_fract_z
Si Si1 0.639345 0.000000 0.577986
Si Si2 0.526389 0.188332 0.186485
Si Si3 0.780500 0.881767 0.980702
Si Si4 0.336371 0.000000 0.896969
Si Si5 0.775216 0.619605 0.533687
Si Si6 0.526993 0.315911 0.747958
O O1 0.704904 0.057620 0.571197
O O2 0.485578 0.000000 0.794552
O O3 0.651897 0.000000 0.340194
O O4 0.669345 0.164050 0.060266
O O5 0.416919 0.147409 0.393201
O O6 0.500377 0.251940 0.281216
O O7 0.500000 0.186918 0.000000
O O8 0.736931 0.943041 0.961218
O O9 0.779598 0.888269 0.201229
O O10 0.922002 0.857450 0.776652
O O11 0.673349 0.661302 0.551448
O O12 0.500000 0.314949 0.000000
#
# Coordination Sequence:
#
# PCOD9186746 Si02
#       6
#     4   8   8   4   8   8
#     4   9  16  29  53  81 100 124 171 216 251 303
#     4  11  21  34  51  77 107 137 176 209 244 304
#     4  10  19  35  56  77 103 135 170 212 259 301
#     4   9  16  29  53  81 100 124 171 216 251 303
#     4  10  19  35  56  77 103 135 170 212 259 301
#     4   9  20  34  52  79 106 133 170 213 256 304
#
# _framework density 22.548045999999999
#
# number of rings (size 3 to 8) (size 9 to 14) (size 15 to 20)
#    0.000    2.200    2.000    1.800    0.000    0.800 
#    0.000    9.000    0.000    0.000    0.000    2.800 
#    0.000    0.000    0.000    0.000    0.000    0.000 
#
# Total GULP energy -111801.174393 kJ/mol
# GULP energy per Si atom -5590.058720 kJ/mol
# Density = 2.249673 g / cm^3
# Si number density = 22.548046 Si / 1000 Ang^3
#
#
#
# Elastic Constant Matrix: (Units=GPa)
#
#
# Indices 1 2 3 4 5 6 
#
# 1 76.4585 37.3481 12.5920 0.0000 -15.7201 0.0000
# 2 37.3481 170.8611 10.8468 0.0000 -17.2351 0.0000
# 3 12.5920 10.8468 39.9944 0.0000 -2.0650 0.0000
# 4 0.0000 0.0000 0.0000 0.7329 0.0000 -19.9409
# 5 -15.7201 -17.2351 -2.0650 0.0000 40.9310 0.0000
# 6 0.0000 0.0000 0.0000 -19.9409 0.0000 35.1836
#
#
#
# Elastic Compliance Matrix: (Units=1/GPa)
#
#
# Indices 1 2 3 4 5 6 
#
# 1 0.016092 -0.002775 -0.004066 0.000000 0.004807 0.000000
# 2 -0.002775 0.006685 -0.000851 0.000000 0.001707 0.000000
# 3 -0.004066 -0.000851 0.026484 0.000000 -0.000584 0.000000
# 4 0.000000 0.000000 0.000000 -0.094617 0.000000 -0.053626
# 5 0.004807 0.001707 -0.000584 0.000000 0.026967 0.000000
# 6 0.000000 0.000000 0.000000 -0.053626 0.000000 -0.001971
#
#
# Mechanical properties :
#
#
# Convention : Reuss Voigt Hill
#
# Bulk Modulus (GPa) = 29.51752 45.43200 37.47476
# Shear Modulus (GPa) = 791.46428 30.47131 410.96779
#
# Velocity S-wave (km/s) = 18.75565 3.68012 13.51513
# Velocity P-wave (km/s) = 21.95796 6.18469 16.13075
#
# Compressibility (1/GPa) = 0.03387818
#
# Stress axis : x y z
#
# Youngs Moduli (GPa) = 62.14172 149.58009 37.75812
#
# Poissons Ratio (x) = 0.41502 0.15352
# Poissons Ratio (y) = 0.17242 0.03215
# Poissons Ratio (z) = 0.25266 0.12736
#
# Static dielectric constant tensor:
#      x y z
#    x 1.816960 0.000000 0.078920 
#    y 0.000000 1.819130 0.000000 
#    z 0.078920 0.000000 1.534170 
# 
# From -- ./inp_files/50990.got.cif
#   From: 2010.05.17/outbox.cif.g08.bks.cpg/sg12_26_cif.got.tgz:50990.got - 2010.06.03 13:09:07.
