data_PCOD9186212
_publ_section_title
;
Structure prediction by ZEFSAII (Michael W. Deem and Ramdas Pophale) SiO2 
 PCOD9186212
Probable space group: C 2/M
;
_chemical_formula_sum "Si O2"
_cell_formula_units_Z 64
_cell_length_a 15.456040
_cell_length_b 22.043892
_cell_length_c 30.534686
_cell_angle_alpha 90.000000
_cell_angle_beta 162.857828
_cell_angle_gamma 90.000000
_cell_volume 3066.370070
_symmetry_space_group_name_H-M "C 2/M"
_symmetry_group_IT_number 12
_symmetry_cell_setting 'monoclinic'
loop_
_space_group_symop_operation_xyz
x,y,z
-x,y,-z
-x,-y,-z
x,-y,z
1/2+x,1/2+y,z
1/2-x,1/2+y,-z
1/2-x,1/2-y,-z
1/2+x,1/2-y,z
loop_
_atom_site_type_symbol
_atom_site_label
_atom_site_fract_x
_atom_site_fract_y
_atom_site_fract_z
Si Si1 0.229915 0.239746 0.728513
Si Si2 0.162787 0.324473 0.347802
Si Si3 0.747618 0.701404 0.434925
Si Si4 0.743398 0.364081 0.214981
Si Si5 0.861109 0.071412 0.649910
Si Si6 0.449345 0.571896 0.796161
Si Si7 0.562655 0.929115 0.130454
Si Si8 0.882458 0.641767 0.122110
O O1 0.318534 0.295355 0.801216
O O2 0.513168 0.205182 0.848732
O O3 0.036726 0.267697 0.595556
O O4 0.999819 0.201014 0.646450
O O5 0.500000 0.337166 0.500000
O O6 0.141647 0.251818 0.348008
O O7 0.039878 0.359896 0.330675
O O8 0.968464 0.348522 0.213737
O O9 0.799389 0.632986 0.443818
O O10 0.763301 0.400969 0.269670
O O11 0.450980 0.380440 0.046267
O O12 0.901102 0.080053 0.721278
O O13 0.165981 0.076561 0.771036
O O14 0.757659 0.000000 0.592678
O O15 0.444408 0.500000 0.799903
O O16 0.770428 0.596926 0.965630
O O17 0.581402 0.902308 0.188176
O O18 0.513987 0.000000 0.112392
#
# Coordination Sequence:
#
# PCOD9186212 Si02
#       8
#     8   8   8   8   8   8   8   8
#     4  10  20  37  58  84 120 164 201 246 306 369
#     4  11  23  40  62  87 120 166 200 253 315 376
#     4  10  21  37  58  88 122 165 206 240 306 371
#     4  10  23  38  59  90 123 153 210 262 300 359
#     4  10  19  34  59  92 127 164 209 252 295 366
#     4   9  19  36  58  86 125 170 204 249 312 365
#     4   9  18  34  58  89 126 163 205 252 306 367
#     4  11  20  38  62  91 120 159 203 260 307 357
#
# _framework density 20.871583999999999
#
# number of rings (size 3 to 8) (size 9 to 14) (size 15 to 20)
#    0.000    2.000    2.500    1.125    1.750    1.500 
#    0.000    2.500    0.000    6.375    0.000    0.000 
#    0.000    0.000    0.000    0.000    0.000    0.000 
#
# Total GULP energy -178355.571218 kJ/mol
# GULP energy per Si atom -5573.611601 kJ/mol
# Density = 2.082408 g / cm^3
# Si number density = 20.871584 Si / 1000 Ang^3
#
#
#
# Elastic Constant Matrix: (Units=GPa)
#
#
# Indices 1 2 3 4 5 6 
#
# 1 134.8584 58.8908 38.2962 0.1068 6.0818 0.0066
# 2 58.8908 78.6629 30.0999 0.0421 -7.0752 0.0206
# 3 38.2962 30.0999 49.5574 -0.0246 0.5972 -0.0258
# 4 0.1068 0.0421 -0.0246 10.8302 -0.0631 -7.7348
# 5 6.0818 -7.0752 0.5972 -0.0631 34.5320 -0.0005
# 6 0.0066 0.0206 -0.0258 -7.7348 -0.0005 38.4235
#
#
#
# Elastic Compliance Matrix: (Units=1/GPa)
#
#
# Indices 1 2 3 4 5 6 
#
# 1 0.012307 -0.007714 -0.004781 -0.000145 -0.003665 -0.000031
# 2 -0.007714 0.021848 -0.007381 -0.000002 0.005963 -0.000016
# 3 -0.004781 -0.007381 0.028370 0.000176 -0.001161 0.000059
# 4 -0.000145 -0.000002 0.000176 0.107841 0.000220 0.021709
# 5 -0.003665 0.005963 -0.001161 0.000220 0.030846 0.000041
# 6 -0.000031 -0.000016 0.000059 0.021709 0.000041 0.030396
#
#
# Mechanical properties :
#
#
# Convention : Reuss Voigt Hill
#
# Bulk Modulus (GPa) = 43.91018 57.51694 50.71356
# Shear Modulus (GPa) = 17.92432 25.80992 21.86712
#
# Velocity S-wave (km/s) = 2.93369 3.52036 3.24033
# Velocity P-wave (km/s) = 5.70608 6.64389 6.19276
#
# Compressibility (1/GPa) = 0.02277376
#
# Stress axis : x y z
#
# Youngs Moduli (GPa) = 81.25655 45.77133 35.24809
#
# Poissons Ratio (x) = 0.35306 0.16852
# Poissons Ratio (y) = 0.62677 0.26016
# Poissons Ratio (z) = 0.38850 0.33783
#
# Static dielectric constant tensor:
#      x y z
#    x 1.755670 0.000010 -0.001520 
#    y 0.000010 1.757490 -0.000070 
#    z -0.001520 -0.000070 1.820960 
# 
# From -- ./inp_files/377102.got.cif
#   From: 2010.05.17/outbox.cif.g08.bks.cpg/sg12_189_cif.got.tgz:377102.got - 2010.06.03 13:09:07.
