data_PCOD9186089
_publ_section_title
;
Structure prediction by ZEFSAII (Michael W. Deem and Ramdas Pophale) SiO2 
 PCOD9186089
Probable space group: C 2/M
;
_chemical_formula_sum "Si O2"
_cell_formula_units_Z 56
_cell_length_a 22.410572
_cell_length_b 15.100318
_cell_length_c 8.223745
_cell_angle_alpha 90.000000
_cell_angle_beta 63.457976
_cell_angle_gamma 90.000000
_cell_volume 2489.664870
_symmetry_space_group_name_H-M "C 2/M"
_symmetry_group_IT_number 12
_symmetry_cell_setting 'monoclinic'
loop_
_space_group_symop_operation_xyz
x,y,z
-x,y,-z
-x,-y,-z
x,-y,z
1/2+x,1/2+y,z
1/2-x,1/2+y,-z
1/2-x,1/2-y,-z
1/2+x,1/2-y,z
loop_
_atom_site_type_symbol
_atom_site_label
_atom_site_fract_x
_atom_site_fract_y
_atom_site_fract_z
Si Si1 0.884994 0.795406 0.381385
Si Si2 0.577005 0.904982 0.101646
Si Si3 0.223919 0.097098 0.614830
Si Si4 0.637732 0.100741 0.669564
Si Si5 0.024492 0.780785 0.281692
Si Si6 0.210990 0.371487 0.122185
Si Si7 0.163846 0.168571 0.210551
O O1 0.831691 0.827163 0.314152
O O2 0.883028 0.688668 0.403629
O O3 0.857901 0.842693 0.576921
O O4 0.961751 0.819481 0.260676
O O5 0.537397 0.818993 0.205719
O O6 0.643817 0.908886 0.128187
O O7 0.541200 0.000000 0.159639
O O8 0.600774 0.893391 0.887043
O O9 0.281972 0.110493 0.410312
O O10 0.266363 0.098172 0.728415
O O11 0.193197 0.000000 0.630843
O O12 0.626557 0.000000 0.619717
O O13 0.094844 0.831953 0.192651
O O14 0.000000 0.778047 0.500000
O O15 0.192568 0.268020 0.162103
O O16 0.275283 0.388177 0.930476
#
# Coordination Sequence:
#
# PCOD9186089 Si02
#       7
#     8   8   8   8   8   8   8
#     4  11  21  38  60  83 122 162 197 239 295 353
#     4  10  21  37  57  86 121 155 194 240 297 359
#     4  11  23  37  59  91 122 154 197 248 304 349
#     4  10  22  37  57  90 124 155 194 244 300 355
#     4   9  21  38  56  84 113 158 204 239 284 355
#     4  10  19  34  59  85 115 148 195 249 296 344
#     4   9  19  35  59  85 109 151 201 240 292 354
#
# _framework density 22.492986999999999
#
# number of rings (size 3 to 8) (size 9 to 14) (size 15 to 20)
#    0.000    2.000    1.429    1.714    6.000    1.429 
#    0.000    2.143    0.000    6.429    0.000    0.000 
#    0.000    0.000    0.000    0.000    0.000    0.000 
#
# Total GULP energy -156289.037401 kJ/mol
# GULP energy per Si atom -5581.751336 kJ/mol
# Density = 2.244179 g / cm^3
# Si number density = 22.492987 Si / 1000 Ang^3
#
#
#
# Elastic Constant Matrix: (Units=GPa)
#
#
# Indices 1 2 3 4 5 6 
#
# 1 96.8533 13.2976 25.8312 0.0000 -31.3265 0.0000
# 2 13.2976 39.8704 -2.6185 0.0000 -8.8886 0.0000
# 3 25.8312 -2.6185 54.4825 0.0000 -14.6588 0.0000
# 4 0.0000 0.0000 0.0000 11.1113 0.0000 -5.7970
# 5 -31.3265 -8.8886 -14.6588 0.0000 28.7304 0.0000
# 6 0.0000 0.0000 0.0000 -5.7970 0.0000 -3.1785
#
#
#
# Elastic Compliance Matrix: (Units=1/GPa)
#
#
# Indices 1 2 3 4 5 6 
#
# 1 0.016692 -0.002365 -0.003857 0.000000 0.015501 0.000000
# 2 -0.002365 0.028088 0.004770 0.000000 0.008545 0.000000
# 3 -0.003857 0.004770 0.022809 0.000000 0.008908 0.000000
# 4 0.000000 0.000000 0.000000 0.046117 0.000000 -0.084109
# 5 0.015501 0.008545 0.008908 0.000000 0.058896 0.000000
# 6 0.000000 0.000000 0.000000 -0.084109 0.000000 -0.161214
#
#
# Mechanical properties :
#
#
# Convention : Reuss Voigt Hill
#
# Bulk Modulus (GPa) = 15.45923 29.35856 22.40889
# Shear Modulus (GPa) = 139.45812 17.64570 78.55191
#
# Velocity S-wave (km/s) = 7.88260 2.80393 5.91597
# Velocity P-wave (km/s) = 9.47285 4.85421 7.52656
#
# Compressibility (1/GPa) = 0.06468629
#
# Stress axis : x y z
#
# Youngs Moduli (GPa) = 59.90963 35.60199 43.84200
#
# Poissons Ratio (x) = 0.08419 0.16910
# Poissons Ratio (y) = 0.14167 -0.20914
# Poissons Ratio (z) = 0.23108 -0.16983
#
# Static dielectric constant tensor:
#      x y z
#    x 1.861960 0.000000 0.016440 
#    y 0.000000 1.827670 0.000000 
#    z 0.016440 0.000000 1.865990 
# 
# From -- ./inp_files/87844.got.cif
#   From: 2010.05.17/outbox.cif.g08.bks.cpg/sg12_44_cif.got.tgz:87844.got - 2010.06.03 13:09:07.
