data_PCOD9186110
_publ_section_title
;
Structure prediction by ZEFSAII (Michael W. Deem and Ramdas Pophale) SiO2 
 PCOD9186110
Probable space group: C 2/M
;
_chemical_formula_sum "Si O2"
_cell_formula_units_Z 64
_cell_length_a 16.098824
_cell_length_b 23.820973
_cell_length_c 14.482133
_cell_angle_alpha 90.000000
_cell_angle_beta 143.992498
_cell_angle_gamma 90.000000
_cell_volume 3264.999524
_symmetry_space_group_name_H-M "C 2/M"
_symmetry_group_IT_number 12
_symmetry_cell_setting 'monoclinic'
loop_
_space_group_symop_operation_xyz
x,y,z
-x,y,-z
-x,-y,-z
x,-y,z
1/2+x,1/2+y,z
1/2-x,1/2+y,-z
1/2-x,1/2-y,-z
1/2+x,1/2-y,z
loop_
_atom_site_type_symbol
_atom_site_label
_atom_site_fract_x
_atom_site_fract_y
_atom_site_fract_z
Si Si1 0.785630 0.781162 0.649549
Si Si2 0.701176 0.652040 0.588162
Si Si3 0.245296 0.290217 0.818187
Si Si4 0.718844 0.064840 0.499795
Si Si5 0.514691 0.141115 0.403479
Si Si6 0.420862 0.324798 0.130244
Si Si7 0.632804 0.329182 0.717067
Si Si8 0.484060 0.563943 0.874808
O O1 0.766185 0.713999 0.626752
O O2 0.816510 0.801145 0.783337
O O3 0.638371 0.812847 0.495556
O O4 0.918657 0.802614 0.710140
O O5 0.746717 0.605112 0.555986
O O6 0.530858 0.654316 0.432659
O O7 0.723990 0.641037 0.719156
O O8 0.148528 0.236668 0.709177
O O9 0.138322 0.336563 0.760602
O O10 0.355848 0.281513 0.998561
O O11 0.569201 0.085339 0.404365
O O12 0.830631 0.071220 0.686195
O O13 0.722113 0.000000 0.475565
O O14 0.500000 0.133988 0.500000
O O15 0.332639 0.332016 0.144047
O O16 0.428935 0.385370 0.090105
O O17 0.528356 0.500000 0.891370
O O18 0.500000 0.568774 0.000000
#
# Coordination Sequence:
#
# PCOD9186110 Si02
#       8
#     8   8   8   8   8   8   8   8
#     4  10  19  34  59  86 119 157 191 228 296 366
#     4  10  20  38  59  83 118 158 196 242 294 345
#     4  10  21  34  53  88 129 149 183 234 299 362
#     4  11  23  40  61  85 111 156 213 244 280 348
#     4  10  20  35  56  87 119 154 182 237 297 352
#     4  12  21  34  59  89 117 155 197 237 285 356
#     4  10  20  35  54  86 122 150 188 243 296 342
#     4  10  21  36  55  81 116 151 187 237 287 343
#
# _framework density 19.601839999999999
#
# number of rings (size 3 to 8) (size 9 to 14) (size 15 to 20)
#    0.000    1.625    3.750    1.500    3.500    1.250 
#    0.000    2.500    0.000    0.000    0.000    0.875 
#    0.000    0.000    0.000    0.000    0.000    0.000 
#
# Total GULP energy -178360.846938 kJ/mol
# GULP energy per Si atom -5573.776467 kJ/mol
# Density = 1.955723 g / cm^3
# Si number density = 19.601840 Si / 1000 Ang^3
#
#
#
# Elastic Constant Matrix: (Units=GPa)
#
#
# Indices 1 2 3 4 5 6 
#
# 1 127.7226 54.4855 30.8336 0.0000 -18.8395 0.0000
# 2 54.4855 111.9239 15.2977 0.0000 -3.8770 0.0000
# 3 30.8336 15.2977 48.6167 0.0000 -7.5821 0.0000
# 4 0.0000 0.0000 0.0000 20.8728 0.0000 -6.8409
# 5 -18.8395 -3.8770 -7.5821 0.0000 27.5913 0.0000
# 6 0.0000 0.0000 0.0000 -6.8409 0.0000 25.6062
#
#
#
# Elastic Compliance Matrix: (Units=1/GPa)
#
#
# Indices 1 2 3 4 5 6 
#
# 1 0.012102 -0.004974 -0.005151 0.000000 0.006149 0.000000
# 2 -0.004974 0.011388 -0.000740 0.000000 -0.002000 0.000000
# 3 -0.005151 -0.000740 0.024557 0.000000 0.003127 0.000000
# 4 0.000000 0.000000 0.000000 0.052507 0.000000 0.014028
# 5 0.006149 -0.002000 0.003127 0.000000 0.041020 0.000000
# 6 0.000000 0.000000 0.000000 0.014028 0.000000 0.042801
#
#
# Mechanical properties :
#
#
# Convention : Reuss Voigt Hill
#
# Bulk Modulus (GPa) = 38.00118 54.38855 46.19487
# Shear Modulus (GPa) = 23.26906 27.32382 25.29644
#
# Velocity S-wave (km/s) = 3.44915 3.73760 3.59627
# Velocity P-wave (km/s) = 5.94061 6.81419 6.39234
#
# Compressibility (1/GPa) = 0.02631497
#
# Stress axis : x y z
#
# Youngs Moduli (GPa) = 82.63111 87.81090 40.72210
#
# Poissons Ratio (x) = 0.43680 0.20977
# Poissons Ratio (y) = 0.41103 0.03015
# Poissons Ratio (z) = 0.42565 0.06502
#
# Static dielectric constant tensor:
#      x y z
#    x 1.754910 0.000000 -0.061840 
#    y 0.000000 1.683920 0.000000 
#    z -0.061840 0.000000 1.786040 
# 
# From -- ./inp_files/218538.got.cif
#   From: 2010.05.17/outbox.cif.g08.bks.cpg/sg12_110_cif.got.tgz:218538.got - 2010.06.03 13:09:07.
