data_PCOD9186443
_publ_section_title
;
Structure prediction by ZEFSAII (Michael W. Deem and Ramdas Pophale) SiO2 
 PCOD9186443
Probable space group: C 2/M
;
_chemical_formula_sum "Si O2"
_cell_formula_units_Z 50
_cell_length_a 17.908343
_cell_length_b 17.697555
_cell_length_c 8.959757
_cell_angle_alpha 90.000000
_cell_angle_beta 118.817347
_cell_angle_gamma 90.000000
_cell_volume 2487.990490
_symmetry_space_group_name_H-M "C 2/M"
_symmetry_group_IT_number 12
_symmetry_cell_setting 'monoclinic'
loop_
_space_group_symop_operation_xyz
x,y,z
-x,y,-z
-x,-y,-z
x,-y,z
1/2+x,1/2+y,z
1/2-x,1/2+y,-z
1/2-x,1/2-y,-z
1/2+x,1/2-y,z
loop_
_atom_site_type_symbol
_atom_site_label
_atom_site_fract_x
_atom_site_fract_y
_atom_site_fract_z
Si Si1 0.764183 0.083846 0.026040
Si Si2 0.087242 0.363147 0.401497
Si Si3 0.042974 0.916047 0.703663
Si Si4 0.500000 0.000000 0.500000
Si Si5 0.554330 0.745186 0.805276
Si Si6 0.850445 0.334757 0.858191
Si Si7 0.287547 0.209367 0.252010
O O1 0.853873 0.082894 0.199277
O O2 0.688084 0.104252 0.064715
O O3 0.750960 0.000000 0.947936
O O4 0.762540 0.149546 0.900765
O O5 0.043205 0.434007 0.435581
O O6 0.113812 0.372334 0.255255
O O7 0.168504 0.337068 0.574747
O O8 0.020710 0.294125 0.337315
O O9 0.025061 0.841690 0.783706
O O10 0.000000 0.905785 0.500000
O O11 0.016641 0.000000 0.733381
O O12 0.637228 0.755255 0.778133
O O13 0.581812 0.784316 0.985732
O O14 0.773782 0.275753 0.752188
#
# Coordination Sequence:
#
# PCOD9186443 Si02
#       7
#     8   8   8   2   8   8   8
#     4  10  21  36  62  96 129 167 209 266 333 381
#     4  12  26  41  67  89 132 173 224 269 334 400
#     4  10  19  34  63  96 128 168 220 262 313 401
#     4  12  28  48  62 100 130 180 224 268 350 402
#     4  11  20  42  63  92 127 175 216 261 330 395
#     4  11  23  40  62  97 125 168 220 278 313 398
#     4  11  20  41  63  92 126 172 217 266 326 407
#
# _framework density 20.096539
#
# number of rings (size 3 to 8) (size 9 to 14) (size 15 to 20)
#    0.000    1.120    4.800    2.880    2.240    0.000 
#    0.000    0.800    0.000    2.880    0.000    0.000 
#    0.000    0.000    0.000    0.000    0.000    0.000 
#
# Total GULP energy -139346.260664 kJ/mol
# GULP energy per Si atom -5573.850427 kJ/mol
# Density = 2.005080 g / cm^3
# Si number density = 20.096539 Si / 1000 Ang^3
#
#
#
# Elastic Constant Matrix: (Units=GPa)
#
#
# Indices 1 2 3 4 5 6 
#
# 1 52.4513 5.8537 7.7591 0.0000 -5.6753 0.0000
# 2 5.8537 86.3568 -2.3313 0.0000 7.3492 0.0000
# 3 7.7591 -2.3313 86.2691 0.0000 8.7914 0.0000
# 4 0.0000 0.0000 0.0000 -1.1272 0.0000 -22.6143
# 5 -5.6753 7.3492 8.7914 0.0000 31.5967 0.0000
# 6 0.0000 0.0000 0.0000 -22.6143 0.0000 -29.6766
#
#
#
# Elastic Compliance Matrix: (Units=1/GPa)
#
#
# Indices 1 2 3 4 5 6 
#
# 1 0.020122 -0.001826 -0.002337 0.000000 0.004689 0.000000
# 2 -0.001826 0.012011 0.000831 0.000000 -0.003353 0.000000
# 3 -0.002337 0.000831 0.012234 0.000000 -0.004017 0.000000
# 4 0.000000 0.000000 0.000000 0.062091 0.000000 -0.047315
# 5 0.004689 -0.003353 -0.004017 0.000000 0.034389 0.000000
# 6 0.000000 0.000000 0.000000 -0.047315 0.000000 0.002358
#
#
# Mechanical properties :
#
#
# Convention : Reuss Voigt Hill
#
# Bulk Modulus (GPa) = 26.52386 27.51558 27.01972
# Shear Modulus (GPa) = 30.78101 14.41163 22.59632
#
# Velocity S-wave (km/s) = 3.91788 2.68081 3.35683
# Velocity P-wave (km/s) = 5.80459 4.82740 5.33840
#
# Compressibility (1/GPa) = 0.03770191
#
# Stress axis : x y z
#
# Youngs Moduli (GPa) = 49.69634 83.25417 81.74207
#
# Poissons Ratio (x) = 0.15203 0.19103
# Poissons Ratio (y) = 0.09075 -0.06789
# Poissons Ratio (z) = 0.11614 -0.06914
#
# Static dielectric constant tensor:
#      x y z
#    x 1.713900 0.000000 0.017900 
#    y 0.000000 1.712960 0.000000 
#    z 0.017900 0.000000 1.739510 
# 
# From -- ./inp_files/76072.got.cif
#   From: 2010.05.17/outbox.cif.g08.bks.cpg/sg12_39_cif.got.tgz:76072.got - 2010.06.03 13:09:07.
