data_PCOD9186085
_publ_section_title
;
Structure prediction by ZEFSAII (Michael W. Deem and Ramdas Pophale) SiO2 
 PCOD9186085
Probable space group: C 2/M
;
_chemical_formula_sum "Si O2"
_cell_formula_units_Z 56
_cell_length_a 20.253547
_cell_length_b 7.608901
_cell_length_c 18.170945
_cell_angle_alpha 90.000000
_cell_angle_beta 116.544368
_cell_angle_gamma 90.000000
_cell_volume 2505.093185
_symmetry_space_group_name_H-M "C 2/M"
_symmetry_group_IT_number 12
_symmetry_cell_setting 'monoclinic'
loop_
_space_group_symop_operation_xyz
x,y,z
-x,y,-z
-x,-y,-z
x,-y,z
1/2+x,1/2+y,z
1/2-x,1/2+y,-z
1/2-x,1/2-y,-z
1/2+x,1/2-y,z
loop_
_atom_site_type_symbol
_atom_site_label
_atom_site_fract_x
_atom_site_fract_y
_atom_site_fract_z
Si Si1 0.669993 0.289495 0.428586
Si Si2 0.431834 0.211134 0.205862
Si Si3 0.416642 0.284418 0.474491
Si Si4 0.829240 0.794168 0.290312
Si Si5 0.334229 0.789440 0.021056
Si Si6 0.901502 0.207069 0.751155
Si Si7 0.677858 0.204709 0.147184
O O1 0.661989 0.500000 0.420252
O O2 0.750000 0.250000 0.500000
O O3 0.611314 0.226135 0.459746
O O4 0.653945 0.221048 0.338970
O O5 0.392215 0.279430 0.259509
O O6 0.386965 0.278008 0.111984
O O7 0.516570 0.262935 0.238188
O O8 0.427375 0.000000 0.206565
O O9 0.500000 0.229191 0.500000
O O10 0.416034 0.500000 0.473259
O O11 0.361284 0.222004 0.382699
O O12 0.753328 0.717274 0.219378
O O13 0.814772 0.000000 0.297297
O O14 0.345423 0.000000 0.026421
O O15 0.250000 0.750000 0.000000
O O16 0.345174 0.720750 0.943470
O O17 0.884592 0.286502 0.822064
O O18 0.889504 0.000000 0.754114
O O19 0.695009 0.000000 0.140985
#
# Coordination Sequence:
#
# PCOD9186085 Si02
#       7
#     8   8   8   8   8   8   8
#     4  10  21  38  60  84 113 152 194 237 286 343
#     4  11  23  38  59  86 119 155 191 240 297 347
#     4   9  17  31  53  80 109 143 186 232 276 331
#     4  10  19  34  59  85 111 150 194 236 288 348
#     4  10  21  38  61  88 116 151 193 240 291 348
#     4  11  24  40  59  86 119 156 198 241 289 346
#     4  10  21  38  60  85 115 152 195 241 292 349
#
# _framework density 22.354458000000001
#
# number of rings (size 3 to 8) (size 9 to 14) (size 15 to 20)
#    0.000    1.857    1.429    2.571    0.000    6.857 
#    0.000    3.571    0.000    1.714    0.000    0.000 
#    0.000    0.000    0.000    0.000    0.000    0.000 
#
# Total GULP energy -156502.930921 kJ/mol
# GULP energy per Si atom -5589.390390 kJ/mol
# Density = 2.230358 g / cm^3
# Si number density = 22.354458 Si / 1000 Ang^3
#
#
#
# Elastic Constant Matrix: (Units=GPa)
#
#
# Indices 1 2 3 4 5 6 
#
# 1 52.3730 -19.2598 -16.9304 0.0000 -10.2562 0.0000
# 2 -19.2598 47.5636 3.2382 0.0000 0.6816 0.0000
# 3 -16.9304 3.2382 98.7020 0.0000 -15.0120 0.0000
# 4 0.0000 0.0000 0.0000 6.4328 0.0000 -4.6490
# 5 -10.2562 0.6816 -15.0120 0.0000 39.6861 0.0000
# 6 0.0000 0.0000 0.0000 -4.6490 0.0000 18.2876
#
#
#
# Elastic Compliance Matrix: (Units=1/GPa)
#
#
# Indices 1 2 3 4 5 6 
#
# 1 0.026313 0.010155 0.005505 0.000000 0.008708 0.000000
# 2 0.010155 0.025007 0.001332 0.000000 0.002699 0.000000
# 3 0.005505 0.001332 0.011931 0.000000 0.005913 0.000000
# 4 0.000000 0.000000 0.000000 0.190443 0.000000 0.048414
# 5 0.008708 0.002699 0.005913 0.000000 0.029639 0.000000
# 6 0.000000 0.000000 0.000000 0.048414 0.000000 0.066990
#
#
# Mechanical properties :
#
#
# Convention : Reuss Voigt Hill
#
# Bulk Modulus (GPa) = 10.28426 14.74830 12.51628
# Shear Modulus (GPa) = 14.33687 28.32066 21.32876
#
# Velocity S-wave (km/s) = 2.53522 3.56320 3.09223
# Velocity P-wave (km/s) = 3.63047 4.85184 4.28490
#
# Compressibility (1/GPa) = 0.09723599
#
# Stress axis : x y z
#
# Youngs Moduli (GPa) = 38.00382 39.98835 83.81266
#
# Poissons Ratio (x) = -0.40609 -0.46137
# Poissons Ratio (y) = -0.38594 -0.11164
# Poissons Ratio (z) = -0.20920 -0.05326
#
# Static dielectric constant tensor:
#      x y z
#    x 1.775570 0.000000 -0.001880 
#    y 0.000000 1.830760 0.000000 
#    z -0.001880 0.000000 1.831160 
# 
# From -- ./inp_files/275607.got.cif
#   From: 2010.05.17/outbox.cif.g08.bks.cpg/sg12_138_cif.got.tgz:275607.got - 2010.06.03 13:09:07.
