data_PCOD9186077
_publ_section_title
;
Structure prediction by ZEFSAII (Michael W. Deem and Ramdas Pophale) SiO2 
 PCOD9186077
Probable space group: C 2/M
;
_chemical_formula_sum "Si O2"
_cell_formula_units_Z 64
_cell_length_a 24.009661
_cell_length_b 15.369989
_cell_length_c 16.214442
_cell_angle_alpha 90.000000
_cell_angle_beta 150.850170
_cell_angle_gamma 90.000000
_cell_volume 2914.575874
_symmetry_space_group_name_H-M "C 2/M"
_symmetry_group_IT_number 12
_symmetry_cell_setting 'monoclinic'
loop_
_space_group_symop_operation_xyz
x,y,z
-x,y,-z
-x,-y,-z
x,-y,z
1/2+x,1/2+y,z
1/2-x,1/2+y,-z
1/2-x,1/2-y,-z
1/2+x,1/2-y,z
loop_
_atom_site_type_symbol
_atom_site_label
_atom_site_fract_x
_atom_site_fract_y
_atom_site_fract_z
Si Si1 0.952507 0.357242 0.850294
Si Si2 0.622739 0.639064 0.680518
Si Si3 0.733518 0.602977 0.178207
Si Si4 0.297763 0.664959 0.517564
Si Si5 0.613349 0.193662 0.764962
Si Si6 0.635867 0.225388 0.550850
Si Si7 0.137644 0.592728 0.954614
Si Si8 0.017160 0.147013 0.117207
O O1 0.818751 0.380730 0.664697
O O2 0.966837 0.251855 0.867221
O O3 0.000000 0.387104 0.000000
O O4 0.034500 0.391616 0.884192
O O5 0.500000 0.597372 0.500000
O O6 0.610006 0.703372 0.742297
O O7 0.644591 0.706533 0.635682
O O8 0.740015 0.589205 0.842550
O O9 0.752073 0.500000 0.210189
O O10 0.810656 0.642998 0.204007
O O11 0.763567 0.656553 0.301391
O O12 0.600938 0.623070 0.990633
O O13 0.250000 0.750000 0.500000
O O14 0.363976 0.712712 0.528345
O O15 0.378782 0.617183 0.688549
O O16 0.479342 0.170339 0.586863
O O17 0.646694 0.168992 0.900024
O O18 0.119302 0.500000 0.887359
O O19 0.000000 0.115214 0.000000
#
# Coordination Sequence:
#
# PCOD9186077 Si02
#       8
#     8   8   8   8   8   8   8   8
#     4  10  20  38  61  82 113 156 207 258 301 355
#     4   9  20  38  61  83 109 152 202 247 290 347
#     4  11  22  36  56  85 125 163 192 240 314 380
#     4  10  19  34  59  85 109 145 200 257 301 348
#     4  10  21  38  58  85 118 155 202 247 296 360
#     4  10  20  37  61  86 109 147 204 253 293 350
#     4  12  24  36  56  89 124 155 191 243 309 373
#     4  10  21  38  60  87 117 155 207 255 298 357
#
# _framework density 21.958597999999999
#
# number of rings (size 3 to 8) (size 9 to 14) (size 15 to 20)
#    0.000    1.750    0.000    7.875    0.000    4.250 
#    0.000    0.625    0.000    2.250    0.000    0.000 
#    0.000    0.000    0.000    0.000    0.000    0.000 
#
# Total GULP energy -178405.640396 kJ/mol
# GULP energy per Si atom -5575.176262 kJ/mol
# Density = 2.190862 g / cm^3
# Si number density = 21.958598 Si / 1000 Ang^3
#
#
#
# Elastic Constant Matrix: (Units=GPa)
#
#
# Indices 1 2 3 4 5 6 
#
# 1 112.5325 16.1519 53.4995 0.0000 -2.7998 0.0000
# 2 16.1519 53.4987 40.2144 0.0000 8.1524 0.0000
# 3 53.4995 40.2144 166.7355 0.0000 1.1029 0.0000
# 4 0.0000 0.0000 0.0000 20.4796 0.0000 5.4830
# 5 -2.7998 8.1524 1.1029 0.0000 25.6771 0.0000
# 6 0.0000 0.0000 0.0000 5.4830 0.0000 -9.9677
#
#
#
# Elastic Compliance Matrix: (Units=1/GPa)
#
#
# Indices 1 2 3 4 5 6 
#
# 1 0.010577 -0.001078 -0.003144 0.000000 0.001631 0.000000
# 2 -0.001078 0.024278 -0.005459 0.000000 -0.007591 0.000000
# 3 -0.003144 -0.005459 0.008316 0.000000 0.001033 0.000000
# 4 0.000000 0.000000 0.000000 0.042561 0.000000 0.023412
# 5 0.001631 -0.007591 0.001033 0.000000 0.041489 0.000000
# 6 0.000000 0.000000 0.000000 0.023412 0.000000 -0.087445
#
#
# Mechanical properties :
#
#
# Convention : Reuss Voigt Hill
#
# Bulk Modulus (GPa) = 42.00407 61.38871 51.69639
# Shear Modulus (GPa) = 74.54321 22.09784 48.32052
#
# Velocity S-wave (km/s) = 5.83274 3.17573 4.69607
# Velocity P-wave (km/s) = 8.03315 6.43928 7.27996
#
# Compressibility (1/GPa) = 0.02380722
#
# Stress axis : x y z
#
# Youngs Moduli (GPa) = 94.54906 41.18935 120.24485
#
# Poissons Ratio (x) = 0.04440 0.37810
# Poissons Ratio (y) = 0.10193 0.65647
# Poissons Ratio (z) = 0.29730 0.22487
#
# Static dielectric constant tensor:
#      x y z
#    x 1.856830 0.000000 0.105190 
#    y 0.000000 1.719640 0.000000 
#    z 0.105190 0.000000 1.913680 
# 
# From -- ./inp_files/241532.got.cif
#   From: 2010.05.17/outbox.cif.g08.bks.cpg/sg12_121_cif.got.tgz:241532.got - 2010.06.03 13:09:07.
