data_PCOD9186040
_publ_section_title
;
Structure prediction by ZEFSAII (Michael W. Deem and Ramdas Pophale) SiO2 
 PCOD9186040
Probable space group: C 2/M
;
_chemical_formula_sum "Si O2"
_cell_formula_units_Z 48
_cell_length_a 15.395947
_cell_length_b 15.996380
_cell_length_c 10.378073
_cell_angle_alpha 90.000000
_cell_angle_beta 79.158800
_cell_angle_gamma 90.000000
_cell_volume 2510.288632
_symmetry_space_group_name_H-M "C 2/M"
_symmetry_group_IT_number 12
_symmetry_cell_setting 'monoclinic'
loop_
_space_group_symop_operation_xyz
x,y,z
-x,y,-z
-x,-y,-z
x,-y,z
1/2+x,1/2+y,z
1/2-x,1/2+y,-z
1/2-x,1/2-y,-z
1/2+x,1/2-y,z
loop_
_atom_site_type_symbol
_atom_site_label
_atom_site_fract_x
_atom_site_fract_y
_atom_site_fract_z
Si Si1 0.945812 0.402009 0.397009
Si Si2 0.568503 0.668350 0.088844
Si Si3 0.256592 0.902733 0.033263
Si Si4 0.571197 0.601015 0.376199
Si Si5 0.946015 0.367433 0.888984
Si Si6 0.230003 0.398301 0.675335
O O1 0.931081 0.500000 0.432536
O O2 0.849647 0.365494 0.389715
O O3 0.000000 0.363453 0.500000
O O4 0.004207 0.396873 0.252137
O O5 0.669595 0.648579 0.019943
O O6 0.554458 0.629148 0.234224
O O7 0.555104 0.767151 0.106822
O O8 0.500000 0.636980 0.000000
O O9 0.284111 0.875858 0.170605
O O10 0.229621 0.000000 0.047454
O O11 0.344047 0.894964 0.923859
O O12 0.500000 0.630805 0.500000
O O13 0.570210 0.500000 0.376875
O O14 0.670688 0.628092 0.385877
O O15 0.000000 0.397504 0.000000
O O16 0.227184 0.500000 0.671121
#
# Coordination Sequence:
#
# PCOD9186040 Si02
#       6
#     8   8   8   8   8   8
#     4  10  20  34  53  80 113 140 175 230 280 315
#     4  10  22  37  54  81 116 147 175 226 281 317
#     4  10  19  34  59  82 105 143 187 226 268 320
#     4   9  18  35  59  80 103 144 190 224 260 322
#     4  11  21  35  57  81 112 148 183 218 266 341
#     4   8  15  30  53  78 103 134 172 221 273 313
#
# _framework density 19.121307999999999
#
# number of rings (size 3 to 8) (size 9 to 14) (size 15 to 20)
#    0.000    2.333    1.667    2.500    0.000    2.667 
#    3.000    0.000    0.000    3.000    0.000    0.000 
#    0.000    0.000    0.000    0.000    0.000    0.000 
#
# Total GULP energy -133866.212321 kJ/mol
# GULP energy per Si atom -5577.758847 kJ/mol
# Density = 1.907779 g / cm^3
# Si number density = 19.121308 Si / 1000 Ang^3
#
#
#
# Elastic Constant Matrix: (Units=GPa)
#
#
# Indices 1 2 3 4 5 6 
#
# 1 159.1522 3.0575 75.8339 0.0000 19.7755 0.0000
# 2 3.0575 21.2262 -4.4611 0.0000 7.4665 0.0000
# 3 75.8339 -4.4611 91.5423 0.0000 12.9566 0.0000
# 4 0.0000 0.0000 0.0000 14.6262 0.0000 -11.5535
# 5 19.7755 7.4665 12.9566 0.0000 37.8581 0.0000
# 6 0.0000 0.0000 0.0000 -11.5535 0.0000 33.7273
#
#
#
# Elastic Compliance Matrix: (Units=1/GPa)
#
#
# Indices 1 2 3 4 5 6 
#
# 1 0.010764 -0.002648 -0.008748 0.000000 -0.002107 0.000000
# 2 -0.002648 0.052766 0.006350 0.000000 -0.011197 0.000000
# 3 -0.008748 0.006350 0.018928 0.000000 -0.003161 0.000000
# 4 0.000000 0.000000 0.000000 0.093734 0.000000 0.032109
# 5 -0.002107 -0.011197 -0.003161 0.000000 0.030805 0.000000
# 6 0.000000 0.000000 0.000000 0.032109 0.000000 0.040649
#
#
# Mechanical properties :
#
#
# Convention : Reuss Voigt Hill
#
# Bulk Modulus (GPa) = 13.81877 46.75348 30.28612
# Shear Modulus (GPa) = 17.73932 30.40833 24.07382
#
# Velocity S-wave (km/s) = 3.04916 3.99216 3.55210
# Velocity P-wave (km/s) = 4.43160 6.76416 5.71809
#
# Compressibility (1/GPa) = 0.07236533
#
# Stress axis : x y z
#
# Youngs Moduli (GPa) = 92.90018 18.95160 52.83293
#
# Poissons Ratio (x) = 0.05018 0.46218
# Poissons Ratio (y) = 0.24600 -0.33548
# Poissons Ratio (z) = 0.81269 -0.12034
#
# Static dielectric constant tensor:
#      x y z
#    x 1.687100 0.000000 0.010920 
#    y 0.000000 1.665800 0.000000 
#    z 0.010920 0.000000 1.648370 
# 
# From -- ./inp_files/61732.got.cif
#   From: 2010.05.17/outbox.cif.g08.bks.cpg/sg12_31_cif.got.tgz:61732.got - 2010.06.03 13:09:07.
