data_PCOD9186535
_publ_section_title
;
Structure prediction by ZEFSAII (Michael W. Deem and Ramdas Pophale) SiO2 
 PCOD9186535
Probable space group: C 2/M
;
_chemical_formula_sum "Si O2"
_cell_formula_units_Z 40
_cell_length_a 15.047491
_cell_length_b 7.579464
_cell_length_c 20.812932
_cell_angle_alpha 90.000000
_cell_angle_beta 123.937413
_cell_angle_gamma 90.000000
_cell_volume 1969.380695
_symmetry_space_group_name_H-M "C 2/M"
_symmetry_group_IT_number 12
_symmetry_cell_setting 'monoclinic'
loop_
_space_group_symop_operation_xyz
x,y,z
-x,y,-z
-x,-y,-z
x,-y,z
1/2+x,1/2+y,z
1/2-x,1/2+y,-z
1/2-x,1/2-y,-z
1/2+x,1/2-y,z
loop_
_atom_site_type_symbol
_atom_site_label
_atom_site_fract_x
_atom_site_fract_y
_atom_site_fract_z
Si Si1 0.582006 0.704156 0.084894
Si Si2 0.902252 0.790039 0.504173
Si Si3 0.659364 0.713424 0.379493
Si Si4 0.284221 0.289928 0.086912
Si Si5 0.028348 0.784028 0.202920
O O1 0.547203 0.500000 0.078164
O O2 0.697810 0.711147 0.100206
O O3 0.577616 0.776825 0.154915
O O4 0.500000 0.786076 0.000000
O O5 0.784671 0.761965 0.426458
O O6 0.889639 0.721494 0.572328
O O7 0.000000 0.719700 0.500000
O O8 0.919713 0.000000 0.516799
O O9 0.655096 0.500000 0.379154
O O10 0.592817 0.776729 0.291256
O O11 0.281283 0.500000 0.093397
O O12 0.404301 0.229915 0.150346
O O13 0.250000 0.250000 0.000000
O O14 0.031166 0.000000 0.206416
#
# Coordination Sequence:
#
# PCOD9186535 Si02
#       5
#     8   8   8   8   8
#     4  10  19  35  54  72  99 138 176 218 266 310
#     4   9  18  33  54  78 106 136 165 208 263 310
#     4   9  18  34  54  76 102 137 175 208 253 314
#     4  11  21  35  54  77 103 137 179 220 263 312
#     4   9  19  35  53  73 104 140 172 212 265 313
#
# _framework density 20.310952
#
# number of rings (size 3 to 8) (size 9 to 14) (size 15 to 20)
#    0.000    2.400    2.000    0.600    0.000    2.400 
#    0.000    5.000    0.000    0.000    0.000    0.000 
#    0.000    0.000    0.000    0.000    0.000    0.000 
#
# Total GULP energy -111604.884320 kJ/mol
# GULP energy per Si atom -5580.244216 kJ/mol
# Density = 2.026472 g / cm^3
# Si number density = 20.310952 Si / 1000 Ang^3
#
#
#
# Elastic Constant Matrix: (Units=GPa)
#
#
# Indices 1 2 3 4 5 6 
#
# 1 188.9244 -9.2113 114.8116 0.0000 -2.7695 0.0000
# 2 -9.2113 43.4343 -5.4455 0.0000 -4.9420 0.0000
# 3 114.8116 -5.4455 208.0072 0.0000 -8.8938 0.0000
# 4 0.0000 0.0000 0.0000 10.8871 0.0000 9.1960
# 5 -2.7695 -4.9420 -8.8938 0.0000 17.4571 0.0000
# 6 0.0000 0.0000 0.0000 9.1960 0.0000 15.4943
#
#
#
# Elastic Compliance Matrix: (Units=1/GPa)
#
#
# Indices 1 2 3 4 5 6 
#
# 1 0.008029 0.001069 -0.004433 0.000000 -0.000682 0.000000
# 2 0.001069 0.024110 0.000348 0.000000 0.007172 0.000000
# 3 -0.004433 0.000348 0.007399 0.000000 0.003165 0.000000
# 4 0.000000 0.000000 0.000000 0.184188 0.000000 -0.109317
# 5 -0.000682 0.007172 0.003165 0.000000 0.060818 0.000000
# 6 0.000000 0.000000 0.000000 -0.109317 0.000000 0.129421
#
#
# Mechanical properties :
#
#
# Convention : Reuss Voigt Hill
#
# Bulk Modulus (GPa) = 29.84570 71.18616 50.51593
# Shear Modulus (GPa) = 11.59650 31.44844 21.52247
#
# Velocity S-wave (km/s) = 2.39204 3.93918 3.25876
# Velocity P-wave (km/s) = 4.72816 7.47086 6.25177
#
# Compressibility (1/GPa) = 0.03350567
#
# Stress axis : x y z
#
# Youngs Moduli (GPa) = 124.54476 41.47715 135.15784
#
# Poissons Ratio (x) = -0.04436 0.59915
# Poissons Ratio (y) = -0.13319 -0.04697
# Poissons Ratio (z) = 0.55210 -0.01442
#
# Static dielectric constant tensor:
#      x y z
#    x 1.689580 0.000000 -0.022290 
#    y 0.000000 1.762930 0.000000 
#    z -0.022290 0.000000 1.701700 
# 
# From -- ./inp_files/202865.got.cif
#   From: 2010.05.17/outbox.cif.g08.bks.cpg/sg12_102_cif.got.tgz:202865.got - 2010.06.03 13:09:07.
