data_PCOD9186668
_publ_section_title
;
Structure prediction by ZEFSAII (Michael W. Deem and Ramdas Pophale) SiO2 
 PCOD9186668
Probable space group: C 2/M
;
_chemical_formula_sum "Si O2"
_cell_formula_units_Z 44
_cell_length_a 27.800595
_cell_length_b 11.256297
_cell_length_c 11.674361
_cell_angle_alpha 90.000000
_cell_angle_beta 41.291181
_cell_angle_gamma 90.000000
_cell_volume 2410.747273
_symmetry_space_group_name_H-M "C 2/M"
_symmetry_group_IT_number 12
_symmetry_cell_setting 'monoclinic'
loop_
_space_group_symop_operation_xyz
x,y,z
-x,y,-z
-x,-y,-z
x,-y,z
1/2+x,1/2+y,z
1/2-x,1/2+y,-z
1/2-x,1/2-y,-z
1/2+x,1/2-y,z
loop_
_atom_site_type_symbol
_atom_site_label
_atom_site_fract_x
_atom_site_fract_y
_atom_site_fract_z
Si Si1 0.933411 0.138625 0.186381
Si Si2 0.774709 0.134795 0.381405
Si Si3 0.600504 0.641300 0.499802
Si Si4 0.349482 0.868792 0.863008
Si Si5 0.740030 0.785970 0.190719
Si Si6 0.000000 0.273000 0.500000
O O1 0.861844 0.139074 0.237304
O O2 0.914688 0.188243 0.344715
O O3 0.952718 0.000000 0.173764
O O4 0.000000 0.196183 0.000000
O O5 0.750000 0.250000 0.500000
O O6 0.751616 0.150358 0.291003
O O7 0.752681 0.000000 0.461052
O O8 0.598010 0.500000 0.502499
O O9 0.680643 0.682676 0.318884
O O10 0.540366 0.694016 0.522802
O O11 0.298820 0.861702 0.839566
O O12 0.433033 0.844591 0.677258
O O13 0.343330 0.000000 0.924885
O O14 0.314666 0.769806 0.008339
#
# Coordination Sequence:
#
# PCOD9186668 Si02
#       6
#     8   8   8   8   8   4
#     4   9  19  34  55  80 112 151 187 231 285 338
#     4  11  22  38  62  90 119 154 194 240 291 347
#     4  10  19  35  55  80 113 148 192 241 285 338
#     4  10  21  38  57  80 114 151 191 242 296 350
#     4  10  21  36  58  85 110 149 196 239 288 343
#     4  10  22  34  54  84 110 150 190 234 296 352
#
# _framework density 18.251601999999998
#
# number of rings (size 3 to 8) (size 9 to 14) (size 15 to 20)
#    0.000    2.000    1.818    1.636    2.545    0.727 
#    0.000    1.818    0.000    0.545    0.000    0.000 
#    0.000    0.000    0.000    0.000    0.000    0.000 
#
# Total GULP energy -122563.205358 kJ/mol
# GULP energy per Si atom -5571.054789 kJ/mol
# Density = 1.821006 g / cm^3
# Si number density = 18.251602 Si / 1000 Ang^3
#
#
#
# Elastic Constant Matrix: (Units=GPa)
#
#
# Indices 1 2 3 4 5 6 
#
# 1 75.1372 10.5171 9.4983 0.0000 1.1252 0.0000
# 2 10.5171 82.1801 25.2468 0.0000 -5.5061 0.0000
# 3 9.4983 25.2468 92.5828 0.0000 -14.4434 0.0000
# 4 0.0000 0.0000 0.0000 12.7207 0.0000 9.2908
# 5 1.1252 -5.5061 -14.4434 0.0000 26.8373 0.0000
# 6 0.0000 0.0000 0.0000 9.2908 0.0000 14.3947
#
#
#
# Elastic Compliance Matrix: (Units=1/GPa)
#
#
# Indices 1 2 3 4 5 6 
#
# 1 0.013696 -0.001474 -0.001244 0.000000 -0.001546 0.000000
# 2 -0.001474 0.013457 -0.003360 0.000000 0.001014 0.000000
# 3 -0.001244 -0.003360 0.012822 0.000000 0.006263 0.000000
# 4 0.000000 0.000000 0.000000 0.148717 0.000000 -0.095986
# 5 -0.001546 0.001014 0.006263 0.000000 0.040905 0.000000
# 6 0.000000 0.000000 0.000000 -0.095986 0.000000 0.131422
#
#
# Mechanical properties :
#
#
# Convention : Reuss Voigt Hill
#
# Bulk Modulus (GPa) = 35.94794 37.82495 36.88644
# Shear Modulus (GPa) = 13.07359 24.43306 18.75333
#
# Velocity S-wave (km/s) = 2.67928 3.66277 3.20893
# Velocity P-wave (km/s) = 5.41386 6.21747 5.82953
#
# Compressibility (1/GPa) = 0.02781801
#
# Stress axis : x y z
#
# Youngs Moduli (GPa) = 73.01519 74.30900 77.98938
#
# Poissons Ratio (x) = 0.10954 0.09705
# Poissons Ratio (y) = 0.10763 0.26206
# Poissons Ratio (z) = 0.09086 0.24970
#
# Static dielectric constant tensor:
#      x y z
#    x 1.609630 0.000000 0.022690 
#    y 0.000000 1.641970 0.000000 
#    z 0.022690 0.000000 1.651410 
# 
# From -- ./inp_files/182390.got.cif
#   From: 2010.05.17/outbox.cif.g08.bks.cpg/sg12_92_cif.got.tgz:182390.got - 2010.06.03 13:09:07.
