data_PCOD9186970
_publ_section_title
;
Structure prediction by ZEFSAII (Michael W. Deem and Ramdas Pophale) SiO2 
 PCOD9186970
Probable space group: C 2/M
;
_chemical_formula_sum "Si O2"
_cell_formula_units_Z 40
_cell_length_a 19.983613
_cell_length_b 7.496902
_cell_length_c 11.983335
_cell_angle_alpha 90.000000
_cell_angle_beta 70.458631
_cell_angle_gamma 90.000000
_cell_volume 1691.877549
_symmetry_space_group_name_H-M "C 2/M"
_symmetry_group_IT_number 12
_symmetry_cell_setting 'monoclinic'
loop_
_space_group_symop_operation_xyz
x,y,z
-x,y,-z
-x,-y,-z
x,-y,z
1/2+x,1/2+y,z
1/2-x,1/2+y,-z
1/2-x,1/2-y,-z
1/2+x,1/2-y,z
loop_
_atom_site_type_symbol
_atom_site_label
_atom_site_fract_x
_atom_site_fract_y
_atom_site_fract_z
Si Si1 0.409223 0.216046 0.365324
Si Si2 0.382865 0.291186 0.624565
Si Si3 0.721568 0.782386 0.699894
Si Si4 0.451385 0.202990 0.816580
Si Si5 0.321251 0.214033 0.030636
O O1 0.422143 0.271310 0.485091
O O2 0.332122 0.277009 0.366254
O O3 0.470984 0.282672 0.248194
O O4 0.410871 0.000000 0.361950
O O5 0.379302 0.500000 0.655748
O O6 0.302804 0.222987 0.648298
O O7 0.417236 0.199264 0.711865
O O8 0.722606 0.000000 0.696710
O O9 0.690445 0.725243 0.836713
O O10 0.391816 0.284807 0.930221
O O11 0.463264 0.000000 0.849347
O O12 0.328111 0.000000 0.030143
O O13 0.250000 0.250000 0.000000
#
# Coordination Sequence:
#
# PCOD9186970 Si02
#       5
#     8   8   8   8   8
#     4  10  21  37  54  78 111 142 177 221 265 313
#     4  11  21  35  56  80 108 144 181 218 262 315
#     4   9  19  35  56  80 107 139 177 221 266 311
#     4  10  21  35  56  82 107 140 179 219 265 315
#     4  10  19  35  57  81 106 136 176 219 265 317
#
# _framework density 23.642374
#
# number of rings (size 3 to 8) (size 9 to 14) (size 15 to 20)
#    0.000    2.000    2.000    1.800    0.000    4.000 
#    0.000    6.000    0.000    0.000    0.000    4.200 
#    0.000    0.000    0.000    0.000    0.000    0.000 
#
# Total GULP energy -111812.633168 kJ/mol
# GULP energy per Si atom -5590.631658 kJ/mol
# Density = 2.358856 g / cm^3
# Si number density = 23.642374 Si / 1000 Ang^3
#
#
#
# Elastic Constant Matrix: (Units=GPa)
#
#
# Indices 1 2 3 4 5 6 
#
# 1 68.6955 -4.7589 -18.6718 0.0000 -12.5281 0.0000
# 2 -4.7589 74.0796 -9.3972 0.0000 -4.3879 0.0000
# 3 -18.6718 -9.3972 75.7252 0.0000 -14.7737 0.0000
# 4 0.0000 0.0000 0.0000 7.1179 0.0000 -0.8411
# 5 -12.5281 -4.3879 -14.7737 0.0000 47.4817 0.0000
# 6 0.0000 0.0000 0.0000 -0.8411 0.0000 12.9114
#
#
#
# Elastic Compliance Matrix: (Units=1/GPa)
#
#
# Indices 1 2 3 4 5 6 
#
# 1 0.017538 0.002272 0.005909 0.000000 0.006676 0.000000
# 2 0.002272 0.014174 0.002866 0.000000 0.002801 0.000000
# 3 0.005909 0.002866 0.016368 0.000000 0.006917 0.000000
# 4 0.000000 0.000000 0.000000 0.141580 0.000000 0.009223
# 5 0.006676 0.002801 0.006917 0.000000 0.025233 0.000000
# 6 0.000000 0.000000 0.000000 0.009223 0.000000 0.078052
#
#
# Mechanical properties :
#
#
# Convention : Reuss Voigt Hill
#
# Bulk Modulus (GPa) = 14.25084 16.98271 15.61677
# Shear Modulus (GPa) = 16.99272 30.25743 23.62507
#
# Velocity S-wave (km/s) = 2.68384 3.58131 3.16455
# Velocity P-wave (km/s) = 3.95535 4.92948 4.46903
#
# Compressibility (1/GPa) = 0.07017132
#
# Stress axis : x y z
#
# Youngs Moduli (GPa) = 57.01960 70.55006 61.09650
#
# Poissons Ratio (x) = -0.16026 -0.36100
# Poissons Ratio (y) = -0.12953 -0.17507
# Poissons Ratio (z) = -0.33691 -0.20216
#
# Static dielectric constant tensor:
#      x y z
#    x 1.885510 0.000000 -0.040510 
#    y 0.000000 1.883570 0.000000 
#    z -0.040510 0.000000 1.857620 
# 
# From -- ./inp_files/151694.got.cif
#   From: 2010.05.17/outbox.cif.g08.bks.cpg/sg12_76_cif.got.tgz:151694.got - 2010.06.03 13:09:07.
