data_PCOD9186718
_publ_section_title
;
Structure prediction by ZEFSAII (Michael W. Deem and Ramdas Pophale) SiO2 
 PCOD9186718
Probable space group: C 2/M
;
_chemical_formula_sum "Si O2"
_cell_formula_units_Z 56
_cell_length_a 21.257270
_cell_length_b 28.373408
_cell_length_c 8.889923
_cell_angle_alpha 90.000000
_cell_angle_beta 148.868348
_cell_angle_gamma 90.000000
_cell_volume 2772.124996
_symmetry_space_group_name_H-M "C 2/M"
_symmetry_group_IT_number 12
_symmetry_cell_setting 'monoclinic'
loop_
_space_group_symop_operation_xyz
x,y,z
-x,y,-z
-x,-y,-z
x,-y,z
1/2+x,1/2+y,z
1/2-x,1/2+y,-z
1/2-x,1/2-y,-z
1/2+x,1/2-y,z
loop_
_atom_site_type_symbol
_atom_site_label
_atom_site_fract_x
_atom_site_fract_y
_atom_site_fract_z
Si Si1 0.624007 0.553456 0.850924
Si Si2 0.524087 0.945868 0.228782
Si Si3 0.755415 0.767550 0.688195
Si Si4 0.600558 0.613013 0.309926
Si Si5 0.770289 0.445968 0.860361
Si Si6 0.749997 0.377693 0.323191
Si Si7 0.979414 0.782215 0.782258
O O1 0.500000 0.558680 0.500000
O O2 0.620129 0.500000 0.908595
O O3 0.738766 0.555429 0.971404
O O4 0.646599 0.595257 0.014495
O O5 0.631829 0.908868 0.465888
O O6 0.556189 0.000000 0.338442
O O7 0.500000 0.946877 0.000000
O O8 0.403898 0.931588 0.076967
O O9 0.750000 0.750000 0.500000
O O10 0.728900 0.822664 0.660515
O O11 0.645047 0.738884 0.534844
O O12 0.894612 0.764069 0.030227
O O13 0.663238 0.583375 0.565575
O O14 0.708422 0.622808 0.411821
O O15 0.541387 0.661518 0.249189
O O16 0.500000 0.588011 0.000000
O O17 0.758066 0.500000 0.784126
O O18 0.000000 0.768445 0.000000
#
# Coordination Sequence:
#
# PCOD9186718 Si02
#       7
#     8   8   8   8   8   8   8
#     4  10  23  41  60  87 124 168 212 252 300 367
#     4  10  21  36  55  88 127 158 201 258 310 366
#     4  10  19  35  55  87 121 151 196 254 318 371
#     4  11  19  33  56  86 115 152 203 257 307 354
#     4  10  22  39  57  83 125 168 202 251 311 364
#     4  12  21  34  62  90 116 159 206 253 305 369
#     4   9  18  32  52  82 119 150 188 250 313 372
#
# _framework density 20.201108999999999
#
# number of rings (size 3 to 8) (size 9 to 14) (size 15 to 20)
#    0.000    1.714    5.714    1.286    0.000    4.286 
#    0.000    2.143    0.000    0.857    0.000    0.000 
#    0.000    0.000    0.000    0.000    0.000    0.000 
#
# Total GULP energy -155979.797703 kJ/mol
# GULP energy per Si atom -5570.707061 kJ/mol
# Density = 2.015513 g / cm^3
# Si number density = 20.201109 Si / 1000 Ang^3
#
#
#
# Elastic Constant Matrix: (Units=GPa)
#
#
# Indices 1 2 3 4 5 6 
#
# 1 66.5705 27.7208 27.7997 0.0000 28.4090 0.0000
# 2 27.7208 100.1584 60.0395 0.0000 5.1541 0.0000
# 3 27.7997 60.0395 93.0458 0.0000 31.4704 0.0000
# 4 0.0000 0.0000 0.0000 44.2061 0.0000 11.9881
# 5 28.4090 5.1541 31.4704 0.0000 36.7912 0.0000
# 6 0.0000 0.0000 0.0000 11.9881 0.0000 20.1064
#
#
#
# Elastic Compliance Matrix: (Units=1/GPa)
#
#
# Indices 1 2 3 4 5 6 
#
# 1 0.027600 -0.010905 0.007714 0.000000 -0.026383 0.000000
# 2 -0.010905 0.023308 -0.019031 0.000000 0.021434 0.000000
# 3 0.007714 -0.019031 0.030725 0.000000 -0.029572 0.000000
# 4 0.000000 0.000000 0.000000 0.026984 0.000000 -0.016089
# 5 -0.026383 0.021434 -0.029572 0.000000 0.069844 0.000000
# 6 0.000000 0.000000 0.000000 -0.016089 0.000000 0.059328
#
#
# Mechanical properties :
#
#
# Convention : Reuss Voigt Hill
#
# Bulk Modulus (GPa) = 26.89066 54.54385 40.71725
# Shear Modulus (GPa) = 16.97041 29.83505 23.40273
#
# Velocity S-wave (km/s) = 2.90155 3.84722 3.40735
# Velocity P-wave (km/s) = 4.95638 6.84060 5.97325
#
# Compressibility (1/GPa) = 0.03718763
#
# Stress axis : x y z
#
# Youngs Moduli (GPa) = 36.23142 42.90463 32.54717
#
# Poissons Ratio (x) = 0.46789 -0.25107
# Poissons Ratio (y) = 0.39512 0.61940
# Poissons Ratio (z) = -0.27949 0.81652
#
# Static dielectric constant tensor:
#      x y z
#    x 1.773940 0.000000 0.044600 
#    y 0.000000 1.717030 0.000000 
#    z 0.044600 0.000000 1.751180 
# 
# From -- ./inp_files/91622.got.cif
#   From: 2010.05.17/outbox.cif.g08.bks.cpg/sg12_46_cif.got.tgz:91622.got - 2010.06.03 13:09:07.
