data_PCOD9186468
_publ_section_title
;
Structure prediction by ZEFSAII (Michael W. Deem and Ramdas Pophale) SiO2 
 PCOD9186468
Probable space group: C 2/M
;
_chemical_formula_sum "Si O2"
_cell_formula_units_Z 56
_cell_length_a 19.404360
_cell_length_b 26.991326
_cell_length_c 9.538309
_cell_angle_alpha 90.000000
_cell_angle_beta 136.050406
_cell_angle_gamma 90.000000
_cell_volume 3467.130674
_symmetry_space_group_name_H-M "C 2/M"
_symmetry_group_IT_number 12
_symmetry_cell_setting 'monoclinic'
loop_
_space_group_symop_operation_xyz
x,y,z
-x,y,-z
-x,-y,-z
x,-y,z
1/2+x,1/2+y,z
1/2-x,1/2+y,-z
1/2-x,1/2-y,-z
1/2+x,1/2-y,z
loop_
_atom_site_type_symbol
_atom_site_label
_atom_site_fract_x
_atom_site_fract_y
_atom_site_fract_z
Si Si1 0.683902 0.788261 0.683216
Si Si2 0.377411 0.850712 0.915814
Si Si3 0.767663 0.370012 0.027099
Si Si4 0.089795 0.766046 0.027487
Si Si5 0.095084 0.635392 0.349012
Si Si6 0.594488 0.302841 0.726629
Si Si7 0.885505 0.558163 0.381597
O O1 0.676940 0.826916 0.802235
O O2 0.616686 0.812794 0.462698
O O3 0.655439 0.735870 0.714718
O O4 0.797690 0.787755 0.793116
O O5 0.351666 0.867816 0.722404
O O6 0.296486 0.865887 0.908523
O O7 0.394466 0.792170 0.927694
O O8 0.480531 0.869496 0.134952
O O9 0.807464 0.420040 0.154638
O O10 0.655467 0.350866 0.865502
O O11 0.065107 0.775492 0.827976
O O12 0.000000 0.782347 0.000000
O O13 0.125971 0.591613 0.497390
O O14 0.500000 0.317304 0.500000
O O15 0.871405 0.500000 0.384104
O O16 0.000000 0.565964 0.500000
#
# Coordination Sequence:
#
# PCOD9186468 Si02
#       7
#     8   8   8   8   8   8   8
#     4  10  20  32  49  70 101 148 177 204 237 293
#     4  11  18  31  45  72 102 139 157 208 250 296
#     4  10  19  35  51  70 105 130 174 205 254 297
#     4  11  20  32  45  70 107 140 182 207 240 288
#     4  10  21  30  47  71 102 131 166 198 259 293
#     4  11  21  32  50  74 103 143 178 209 238 289
#     4  10  20  35  56  75  92 126 170 210 258 320
#
# _framework density 16.151683999999999
#
# number of rings (size 3 to 8) (size 9 to 14) (size 15 to 20)
#    0.000    1.571    5.714    1.714    0.000    1.714 
#    0.000    2.143    0.000    0.429    0.000    0.000 
#    0.000   47.429    0.000    0.000    0.000    0.000 
#
# Total GULP energy -155880.345184 kJ/mol
# GULP energy per Si atom -5567.155185 kJ/mol
# Density = 1.611492 g / cm^3
# Si number density = 16.151684 Si / 1000 Ang^3
#
#
#
# Elastic Constant Matrix: (Units=GPa)
#
#
# Indices 1 2 3 4 5 6 
#
# 1 94.7816 28.6909 31.7815 0.0000 -21.4737 0.0000
# 2 28.6909 72.2872 33.9762 0.0000 -4.3488 0.0000
# 3 31.7815 33.9762 88.1376 0.0000 -11.9829 0.0000
# 4 0.0000 0.0000 0.0000 25.6390 0.0000 -5.4693
# 5 -21.4737 -4.3488 -11.9829 0.0000 23.3112 0.0000
# 6 0.0000 0.0000 0.0000 -5.4693 0.0000 22.4605
#
#
#
# Elastic Compliance Matrix: (Units=1/GPa)
#
#
# Indices 1 2 3 4 5 6 
#
# 1 0.015369 -0.004324 -0.002215 0.000000 0.012212 0.000000
# 2 -0.004324 0.018113 -0.005919 0.000000 -0.003647 0.000000
# 3 -0.002215 -0.005919 0.015050 0.000000 0.004592 0.000000
# 4 0.000000 0.000000 0.000000 0.041140 0.000000 0.010018
# 5 0.012212 -0.003647 0.004592 0.000000 0.055828 0.000000
# 6 0.000000 0.000000 0.000000 0.010018 0.000000 0.046962
#
#
# Mechanical properties :
#
#
# Convention : Reuss Voigt Hill
#
# Bulk Modulus (GPa) = 42.34296 49.34484 45.84390
# Shear Modulus (GPa) = 22.19760 24.99934 23.59847
#
# Velocity S-wave (km/s) = 3.71121 3.93846 3.82652
# Velocity P-wave (km/s) = 6.68108 7.16234 6.92589
#
# Compressibility (1/GPa) = 0.02361668
#
# Stress axis : x y z
#
# Youngs Moduli (GPa) = 65.06604 55.21026 66.44338
#
# Poissons Ratio (x) = 0.23875 0.14714
# Poissons Ratio (y) = 0.28137 0.39326
# Poissons Ratio (z) = 0.14409 0.32677
#
# Static dielectric constant tensor:
#      x y z
#    x 1.606240 0.000000 0.017510 
#    y 0.000000 1.530240 0.000000 
#    z 0.017510 0.000000 1.580060 
# 
# From -- ./inp_files/79712.got.cif
#   From: 2010.05.17/outbox.cif.g08.bks.cpg/sg12_40_cif.got.tgz:79712.got - 2010.06.03 13:09:07.
