data_PCOD9186720
_publ_section_title
;
Structure prediction by ZEFSAII (Michael W. Deem and Ramdas Pophale) SiO2 
 PCOD9186720
Probable space group: C 2/M
;
_chemical_formula_sum "Si O2"
_cell_formula_units_Z 34
_cell_length_a 7.902084
_cell_length_b 12.704164
_cell_length_c 11.684383
_cell_angle_alpha 90.000000
_cell_angle_beta 96.231980
_cell_angle_gamma 90.000000
_cell_volume 1166.056123
_symmetry_space_group_name_H-M "C 2/M"
_symmetry_group_IT_number 12
_symmetry_cell_setting 'monoclinic'
loop_
_space_group_symop_operation_xyz
x,y,z
-x,y,-z
-x,-y,-z
x,-y,z
1/2+x,1/2+y,z
1/2-x,1/2+y,-z
1/2-x,1/2-y,-z
1/2+x,1/2-y,z
loop_
_atom_site_type_symbol
_atom_site_label
_atom_site_fract_x
_atom_site_fract_y
_atom_site_fract_z
Si Si1 0.616546 0.849912 0.906046
Si Si2 0.878557 0.881374 0.119115
Si Si3 0.741701 0.844557 0.353622
Si Si4 0.500000 0.500000 0.500000
Si Si5 0.858064 0.610991 0.352793
O O1 0.539892 0.734659 0.865507
O O2 0.647835 0.896167 0.785046
O O3 0.500000 0.891178 0.000000
O O4 0.792537 0.864064 0.988810
O O5 0.750624 0.873793 0.218944
O O6 0.950135 0.000000 0.130678
O O7 0.895889 0.907917 0.419371
O O8 0.559885 0.879053 0.390202
O O9 0.765202 0.719550 0.373568
O O10 0.780677 0.500000 0.392717
#
# Coordination Sequence:
#
# PCOD9186720 Si02
#       5
#     8   8   8   2   8
#     4  10  20  32  58  89 127 168 213 249 324 387
#     4  10  19  35  55  88 124 170 210 262 314 390
#     4  11  24  43  71  96 131 174 225 271 337 384
#     4  12  24  48  74  96 126 180 220 286 334 388
#     4  11  23  45  67 101 135 174 216 274 324 400
#
# _framework density 29.158114999999999
#
# number of rings (size 3 to 8) (size 9 to 14) (size 15 to 20)
#    0.000    1.412    4.706    0.706    0.000    2.353 
#    2.118    0.588    0.000    0.000    0.000    0.000 
#    0.000    0.000    0.000    0.000    0.000    0.000 
#
# Total GULP energy -94940.214684 kJ/mol
# GULP energy per Si atom -5584.718511 kJ/mol
# Density = 2.909175 g / cm^3
# Si number density = 29.158115 Si / 1000 Ang^3
#
#
#
# Elastic Constant Matrix: (Units=GPa)
#
#
# Indices 1 2 3 4 5 6 
#
# 1 35.3264 34.5577 38.1964 0.0000 -9.6621 0.0000
# 2 34.5577 340.1412 45.6245 0.0000 -3.7340 0.0000
# 3 38.1964 45.6245 153.6629 0.0000 -9.3142 0.0000
# 4 0.0000 0.0000 0.0000 28.7726 0.0000 1.9192
# 5 -9.6621 -3.7340 -9.3142 0.0000 66.0736 0.0000
# 6 0.0000 0.0000 0.0000 1.9192 0.0000 7.2371
#
#
#
# Elastic Compliance Matrix: (Units=1/GPa)
#
#
# Indices 1 2 3 4 5 6 
#
# 1 0.042785 -0.003027 -0.009448 0.000000 0.004754 0.000000
# 2 -0.003027 0.003276 -0.000238 0.000000 -0.000291 0.000000
# 3 -0.009448 -0.000238 0.008919 0.000000 -0.000138 0.000000
# 4 0.000000 0.000000 0.000000 0.035381 0.000000 -0.009383
# 5 0.004754 -0.000291 -0.000138 0.000000 0.015794 0.000000
# 6 0.000000 0.000000 0.000000 -0.009383 0.000000 0.140665
#
#
# Mechanical properties :
#
#
# Convention : Reuss Voigt Hill
#
# Bulk Modulus (GPa) = 33.83767 85.09863 59.46815
# Shear Modulus (GPa) = 17.72438 47.80011 32.76225
#
# Velocity S-wave (km/s) = 2.46818 4.05327 3.35566
# Velocity P-wave (km/s) = 4.44439 7.15220 5.95427
#
# Compressibility (1/GPa) = 0.02955286
#
# Stress axis : x y z
#
# Youngs Moduli (GPa) = 23.37278 305.22780 112.12545
#
# Poissons Ratio (x) = 0.92403 1.05938
# Poissons Ratio (y) = 0.07076 0.02667
# Poissons Ratio (z) = 0.22083 0.07261
#
# Static dielectric constant tensor:
#      x y z
#    x 2.687520 0.000000 0.167230 
#    y 0.000000 2.404160 0.000000 
#    z 0.167230 0.000000 2.278250 
# 
# From -- ./inp_files/202477.got.cif
#   From: 2010.05.17/outbox.cif.g08.bks.cpg/sg12_102_cif.got.tgz:202477.got - 2010.06.03 13:09:07.
