data_PCOD9186079
_publ_section_title
;
Structure prediction by ZEFSAII (Michael W. Deem and Ramdas Pophale) SiO2 
 PCOD9186079
Probable space group: C 2/M
;
_chemical_formula_sum "Si O2"
_cell_formula_units_Z 64
_cell_length_a 20.750897
_cell_length_b 8.961460
_cell_length_c 19.350799
_cell_angle_alpha 90.000000
_cell_angle_beta 89.726745
_cell_angle_gamma 90.000000
_cell_volume 3598.401409
_symmetry_space_group_name_H-M "C 2/M"
_symmetry_group_IT_number 12
_symmetry_cell_setting 'monoclinic'
loop_
_space_group_symop_operation_xyz
x,y,z
-x,y,-z
-x,-y,-z
x,-y,z
1/2+x,1/2+y,z
1/2-x,1/2+y,-z
1/2-x,1/2-y,-z
1/2+x,1/2-y,z
loop_
_atom_site_type_symbol
_atom_site_label
_atom_site_fract_x
_atom_site_fract_y
_atom_site_fract_z
Si Si1 0.756620 0.321470 0.348820
Si Si2 0.309383 0.677341 0.791575
Si Si3 0.947964 0.677264 0.788675
Si Si4 0.987255 0.822728 0.653736
Si Si5 0.556703 0.179478 0.052001
Si Si6 0.696731 0.677906 0.049341
Si Si7 0.865325 0.322454 0.578912
Si Si8 0.109444 0.678087 0.582790
O O1 0.749620 0.500000 0.359435
O O2 0.741333 0.290381 0.268560
O O3 0.702611 0.239480 0.394183
O O4 0.827883 0.280528 0.372805
O O5 0.325044 0.500000 0.787895
O O6 0.374401 0.769238 0.777918
O O7 0.287614 0.709098 0.869850
O O8 0.952883 0.500000 0.779057
O O9 0.990547 0.759855 0.731626
O O10 0.962583 0.713547 0.868568
O O11 0.922415 0.756571 0.620428
O O12 0.047321 0.765159 0.609167
O O13 0.983961 0.000000 0.654436
O O14 0.625245 0.256464 0.037075
O O15 0.565522 0.000000 0.047212
O O16 0.500000 0.223289 0.000000
O O17 0.695727 0.500000 0.040006
O O18 0.750000 0.750000 0.000000
O O19 0.868744 0.500000 0.590209
O O20 0.875328 0.293426 0.497581
O O21 0.097815 0.500000 0.590472
#
# Coordination Sequence:
#
# PCOD9186079 Si02
#       8
#     8   8   8   8   8   8   8   8
#     4  10  20  37  60  84 112 146 183 227 279 335
#     4   9  18  34  57  83 110 145 187 227 269 325
#     4  10  19  34  59  85 110 145 186 230 275 328
#     4  12  24  38  57  81 112 149 190 233 278 330
#     4   9  19  37  60  86 114 146 185 227 275 332
#     4  10  20  35  56  83 116 151 187 229 273 323
#     4  11  22  37  60  85 110 144 187 233 278 333
#     4  10  23  40  56  81 116 148 182 230 286 334
#
# _framework density 17.785675999999999
#
# number of rings (size 3 to 8) (size 9 to 14) (size 15 to 20)
#    0.000    1.875    1.250    3.000    0.000    4.250 
#    2.250    0.000    0.000    0.000    0.000    0.000 
#    0.000    0.000    0.000    0.000    0.000    0.000 
#
# Total GULP energy -178708.732834 kJ/mol
# GULP energy per Si atom -5584.647901 kJ/mol
# Density = 1.774520 g / cm^3
# Si number density = 17.785676 Si / 1000 Ang^3
#
#
#
# Elastic Constant Matrix: (Units=GPa)
#
#
# Indices 1 2 3 4 5 6 
#
# 1 29.6695 19.3945 16.4623 0.0000 3.8572 0.0000
# 2 19.3945 42.8852 35.1834 0.0000 -0.7285 0.0000
# 3 16.4623 35.1834 80.7667 0.0000 7.7667 0.0000
# 4 0.0000 0.0000 0.0000 24.3427 0.0000 -7.8239
# 5 3.8572 -0.7285 7.7667 0.0000 29.7082 0.0000
# 6 0.0000 0.0000 0.0000 -7.8239 0.0000 31.2842
#
#
#
# Elastic Compliance Matrix: (Units=1/GPa)
#
#
# Indices 1 2 3 4 5 6 
#
# 1 0.049260 -0.022911 0.000625 0.000000 -0.007121 0.000000
# 2 -0.022911 0.047727 -0.016946 0.000000 0.008575 0.000000
# 3 0.000625 -0.016946 0.020191 0.000000 -0.005775 0.000000
# 4 0.000000 0.000000 0.000000 0.044671 0.000000 0.011172
# 5 -0.007121 0.008575 -0.005775 0.000000 0.036305 0.000000
# 6 0.000000 0.000000 0.000000 0.011172 0.000000 0.034759
#
#
# Mechanical properties :
#
#
# Convention : Reuss Voigt Hill
#
# Bulk Modulus (GPa) = 25.82982 32.82244 29.32613
# Shear Modulus (GPa) = 15.41863 22.55242 18.98553
#
# Velocity S-wave (km/s) = 2.94753 3.56478 3.27075
# Velocity P-wave (km/s) = 5.11256 5.95298 5.54871
#
# Compressibility (1/GPa) = 0.03871494
#
# Stress axis : x y z
#
# Youngs Moduli (GPa) = 20.30033 20.95232 49.52651
#
# Poissons Ratio (x) = 0.48004 -0.03094
# Poissons Ratio (y) = 0.46510 0.83926
# Poissons Ratio (z) = -0.01268 0.35505
#
# Static dielectric constant tensor:
#      x y z
#    x 1.565450 0.000000 0.010050 
#    y 0.000000 1.594200 0.000000 
#    z 0.010050 0.000000 1.620960 
# 
# From -- ./inp_files/314011.got.cif
#   From: 2010.05.17/outbox.cif.g08.bks.cpg/sg12_158_cif.got.tgz:314011.got - 2010.06.03 13:09:07.
