data_PCOD9186671
_publ_section_title
;
Structure prediction by ZEFSAII (Michael W. Deem and Ramdas Pophale) SiO2 
 PCOD9186671
Probable space group: C 2/M
;
_chemical_formula_sum "Si O2"
_cell_formula_units_Z 42
_cell_length_a 18.213719
_cell_length_b 13.119932
_cell_length_c 12.584600
_cell_angle_alpha 90.000000
_cell_angle_beta 40.637513
_cell_angle_gamma 90.000000
_cell_volume 1958.535737
_symmetry_space_group_name_H-M "C 2/M"
_symmetry_group_IT_number 12
_symmetry_cell_setting 'monoclinic'
loop_
_space_group_symop_operation_xyz
x,y,z
-x,y,-z
-x,-y,-z
x,-y,z
1/2+x,1/2+y,z
1/2-x,1/2+y,-z
1/2-x,1/2-y,-z
1/2+x,1/2-y,z
loop_
_atom_site_type_symbol
_atom_site_label
_atom_site_fract_x
_atom_site_fract_y
_atom_site_fract_z
Si Si1 0.794958 0.615440 0.060259
Si Si2 0.667079 0.675427 0.396363
Si Si3 0.221912 0.615720 0.284887
Si Si4 0.000000 0.000000 0.500000
Si Si5 0.138433 0.118418 0.654566
Si Si6 0.378722 0.329082 0.915154
O O1 0.834800 0.500000 0.002099
O O2 0.773483 0.641259 0.207036
O O3 0.671888 0.626371 0.138670
O O4 0.866950 0.706189 0.929727
O O5 0.637698 0.789151 0.388042
O O6 0.574889 0.589719 0.476385
O O7 0.687707 0.676854 0.499115
O O8 0.177827 0.500000 0.338738
O O9 0.306838 0.634128 0.290467
O O10 0.293845 0.629292 0.098473
O O11 0.004901 0.139737 0.801813
O O12 0.157366 0.000000 0.610958
#
# Coordination Sequence:
#
# PCOD9186671 Si02
#       6
#     8   8   8   2   8   8
#     4  10  19  35  55  80 116 147 187 243 287 331
#     4  11  22  36  59  89 111 143 196 237 288 330
#     4  10  22  39  57  81 119 157 182 229 291 346
#     4  12  20  36  62  88 104 140 188 250 272 322
#     4  11  20  35  59  84 113 148 198 240 272 337
#     4  10  21  33  56  84 111 151 194 232 281 337
#
# _framework density 21.444593000000001
#
# number of rings (size 3 to 8) (size 9 to 14) (size 15 to 20)
#    0.000    1.524    1.905    4.000    0.000    1.524 
#    0.000    1.429    2.095    2.286    0.000    0.000 
#    0.000    0.000    0.000    0.000    0.000    0.000 
#
# Total GULP energy -116998.545754 kJ/mol
# GULP energy per Si atom -5571.359322 kJ/mol
# Density = 2.139578 g / cm^3
# Si number density = 21.444593 Si / 1000 Ang^3
#
#
#
# Elastic Constant Matrix: (Units=GPa)
#
#
# Indices 1 2 3 4 5 6 
#
# 1 48.4751 8.7728 18.9696 0.0000 16.5966 0.0000
# 2 8.7728 173.9983 17.3667 0.0000 3.4236 0.0000
# 3 18.9696 17.3667 62.6893 0.0000 27.2746 0.0000
# 4 0.0000 0.0000 0.0000 8.0777 0.0000 2.9921
# 5 16.5966 3.4236 27.2746 0.0000 23.2641 0.0000
# 6 0.0000 0.0000 0.0000 2.9921 0.0000 25.5380
#
#
#
# Elastic Compliance Matrix: (Units=1/GPa)
#
#
# Indices 1 2 3 4 5 6 
#
# 1 0.027494 -0.001073 0.000903 0.000000 -0.020515 0.000000
# 2 -0.001073 0.006005 -0.002628 0.000000 0.002962 0.000000
# 3 0.000903 -0.002628 0.033716 0.000000 -0.039786 0.000000
# 4 0.000000 0.000000 0.000000 0.129413 0.000000 -0.015162
# 5 -0.020515 0.002962 -0.039786 0.000000 0.103829 0.000000
# 6 0.000000 0.000000 0.000000 -0.015162 0.000000 0.040934
#
#
# Mechanical properties :
#
#
# Convention : Reuss Voigt Hill
#
# Bulk Modulus (GPa) = 16.22834 41.70897 28.96866
# Shear Modulus (GPa) = 13.60446 27.37955 20.49200
#
# Velocity S-wave (km/s) = 2.52146 3.57705 3.09460
# Velocity P-wave (km/s) = 4.00762 6.04585 5.12900
#
# Compressibility (1/GPa) = 0.06162058
#
# Stress axis : x y z
#
# Youngs Moduli (GPa) = 36.37208 166.52045 29.65910
#
# Poissons Ratio (x) = 0.17862 -0.02679
# Poissons Ratio (y) = 0.03902 0.07794
# Poissons Ratio (z) = -0.03285 0.43760
#
# Static dielectric constant tensor:
#      x y z
#    x 1.765730 0.000000 0.031700 
#    y 0.000000 1.813950 0.000000 
#    z 0.031700 0.000000 1.798330 
# 
# From -- ./inp_files/164600.got.cif
#   From: 2010.05.17/outbox.cif.g08.bks.cpg/sg12_83_cif.got.tgz:164600.got - 2010.06.03 13:09:07.
