data_PCOD9186186
_publ_section_title
;
Structure prediction by ZEFSAII (Michael W. Deem and Ramdas Pophale) SiO2 
 PCOD9186186
Probable space group: C 2/M
;
_chemical_formula_sum "Si O2"
_cell_formula_units_Z 48
_cell_length_a 11.515090
_cell_length_b 18.539694
_cell_length_c 12.510497
_cell_angle_alpha 90.000000
_cell_angle_beta 73.012588
_cell_angle_gamma 90.000000
_cell_volume 2554.288436
_symmetry_space_group_name_H-M "C 2/M"
_symmetry_group_IT_number 12
_symmetry_cell_setting 'monoclinic'
loop_
_space_group_symop_operation_xyz
x,y,z
-x,y,-z
-x,-y,-z
x,-y,z
1/2+x,1/2+y,z
1/2-x,1/2+y,-z
1/2-x,1/2-y,-z
1/2+x,1/2-y,z
loop_
_atom_site_type_symbol
_atom_site_label
_atom_site_fract_x
_atom_site_fract_y
_atom_site_fract_z
Si Si1 0.461128 0.851314 0.892706
Si Si2 0.360313 0.303773 0.510761
Si Si3 0.783328 0.079961 0.104963
Si Si4 0.124181 0.147934 0.723213
Si Si5 0.210378 0.309054 0.751849
Si Si6 0.378719 0.685646 0.903529
O O1 0.356851 0.901661 0.875930
O O2 0.579136 0.846051 0.785750
O O3 0.410008 0.769209 0.916019
O O4 0.500000 0.875203 0.000000
O O5 0.500000 0.276267 0.500000
O O6 0.250000 0.250000 0.500000
O O7 0.374588 0.356050 0.404886
O O8 0.303916 0.333982 0.635602
O O9 0.811795 0.088445 0.222156
O O10 0.814463 0.000000 0.058481
O O11 0.854942 0.140121 0.016504
O O12 0.188491 0.223848 0.738263
O O13 0.989080 0.153988 0.805458
O O14 0.264524 0.318526 0.855072
#
# Coordination Sequence:
#
# PCOD9186186 Si02
#       6
#     8   8   8   8   8   8
#     4  11  21  36  60  86 118 157 197 246 300 363
#     4  10  20  34  58  94 126 156 196 253 309 359
#     4  12  25  39  57  85 121 159 201 249 305 364
#     4  10  21  35  58  84 123 153 196 242 299 359
#     4  10  19  34  59  90 117 151 193 245 299 351
#     4  11  19  36  60  87 118 151 195 245 296 357
#
# _framework density 18.791927000000001
#
# number of rings (size 3 to 8) (size 9 to 14) (size 15 to 20)
#    0.000    1.333    5.000    3.000    0.000    1.667 
#    0.000    0.000    0.000    3.500    0.000    0.000 
#    0.000    0.000    0.000    0.000    0.000    0.000 
#
# Total GULP energy -133817.874189 kJ/mol
# GULP energy per Si atom -5575.744758 kJ/mol
# Density = 1.874916 g / cm^3
# Si number density = 18.791927 Si / 1000 Ang^3
#
#
#
# Elastic Constant Matrix: (Units=GPa)
#
#
# Indices 1 2 3 4 5 6 
#
# 1 102.5179 15.9087 42.0760 0.0000 -0.1582 0.0000
# 2 15.9087 21.8443 10.1655 0.0000 -4.4907 0.0000
# 3 42.0760 10.1655 119.3782 0.0000 -13.2807 0.0000
# 4 0.0000 0.0000 0.0000 6.0425 0.0000 2.6263
# 5 -0.1582 -4.4907 -13.2807 0.0000 32.1702 0.0000
# 6 0.0000 0.0000 0.0000 2.6263 0.0000 -0.5118
#
#
#
# Elastic Compliance Matrix: (Units=1/GPa)
#
#
# Indices 1 2 3 4 5 6 
#
# 1 0.012651 -0.007869 -0.004092 0.000000 -0.002726 0.000000
# 2 -0.007869 0.053413 -0.000995 0.000000 0.007006 0.000000
# 3 -0.004092 -0.000995 0.010362 0.000000 0.004119 0.000000
# 4 0.000000 0.000000 0.000000 0.051229 0.000000 0.262899
# 5 -0.002726 0.007006 0.004119 0.000000 0.033750 0.000000
# 6 0.000000 0.000000 0.000000 0.262899 0.000000 -0.604866
#
#
# Mechanical properties :
#
#
# Convention : Reuss Voigt Hill
#
# Bulk Modulus (GPa) = 19.79701 42.22678 31.01189
# Shear Modulus (GPa) = -12.47782 19.24618 3.38418
#
# Velocity S-wave (km/s) = -2.57961 3.20374 1.34342
# Velocity P-wave (km/s) = 1.29814 6.01704 4.35258
#
# Compressibility (1/GPa) = 0.05051268
#
# Stress axis : x y z
#
# Youngs Moduli (GPa) = 79.04619 18.72198 96.50692
#
# Poissons Ratio (x) = 0.14733 0.39491
# Poissons Ratio (y) = 0.62204 0.09605
# Poissons Ratio (z) = 0.32346 0.01863
#
# Static dielectric constant tensor:
#      x y z
#    x 1.726720 0.000000 0.002470 
#    y 0.000000 1.628870 0.000000 
#    z 0.002470 0.000000 1.672510 
# 
# From -- ./inp_files/131016.got.cif
#   From: 2010.05.17/outbox.cif.g08.bks.cpg/sg12_66_cif.got.tgz:131016.got - 2010.06.03 13:09:07.
