data_PCOD9186462
_publ_section_title
;
Structure prediction by ZEFSAII (Michael W. Deem and Ramdas Pophale) SiO2 
 PCOD9186462
Probable space group: C 2/M
;
_chemical_formula_sum "Si O2"
_cell_formula_units_Z 64
_cell_length_a 15.331565
_cell_length_b 25.262018
_cell_length_c 20.806151
_cell_angle_alpha 90.000000
_cell_angle_beta 152.990243
_cell_angle_gamma 90.000000
_cell_volume 3659.638245
_symmetry_space_group_name_H-M "C 2/M"
_symmetry_group_IT_number 12
_symmetry_cell_setting 'monoclinic'
loop_
_space_group_symop_operation_xyz
x,y,z
-x,y,-z
-x,-y,-z
x,-y,z
1/2+x,1/2+y,z
1/2-x,1/2+y,-z
1/2-x,1/2-y,-z
1/2+x,1/2-y,z
loop_
_atom_site_type_symbol
_atom_site_label
_atom_site_fract_x
_atom_site_fract_y
_atom_site_fract_z
Si Si1 0.193366 0.436618 0.284212
Si Si2 0.854485 0.825854 0.959170
Si Si3 0.976783 0.137010 0.712634
Si Si4 0.816578 0.630566 0.033615
Si Si5 0.667378 0.211841 0.557901
Si Si6 0.065883 0.733412 0.171286
Si Si7 0.450651 0.563727 0.573324
Si Si8 0.117865 0.238447 0.727613
O O1 0.177248 0.500000 0.273991
O O2 0.349749 0.422869 0.332185
O O3 0.285488 0.420717 0.413528
O O4 0.990894 0.409738 0.139115
O O5 0.751142 0.867654 0.936800
O O6 0.708751 0.786141 0.828056
O O7 0.000000 0.846348 0.000000
O O8 0.971131 0.787724 0.084485
O O9 0.061517 0.189224 0.733776
O O10 0.781808 0.158595 0.616661
O O11 0.939834 0.093851 0.633348
O O12 0.135655 0.119805 0.868931
O O13 0.909162 0.688155 0.078228
O O14 0.500000 0.202071 0.500000
O O15 0.817646 0.252975 0.688006
O O16 0.563513 0.238570 0.429543
O O17 0.221170 0.719745 0.218183
O O18 0.443823 0.500000 0.576623
#
# Coordination Sequence:
#
# PCOD9186462 Si02
#       8
#     8   8   8   8   8   8   8   8
#     4   9  21  41  60  81 108 137 173 217 268 322
#     4  10  20  35  51  74 112 151 180 210 262 316
#     4  12  22  34  54  83 109 139 184 222 266 317
#     4  12  22  33  56  82 108 142 180 223 267 316
#     4  10  22  36  50  75 113 149 182 221 260 308
#     4  10  19  35  50  75 115 147 174 215 267 314
#     4   9  21  41  60  80 109 139 170 217 270 320
#     4  10  21  32  51  78 110 147 182 218 256 314
#
# _framework density 17.488067000000001
#
# number of rings (size 3 to 8) (size 9 to 14) (size 15 to 20)
#    0.000    1.750    2.500    3.000    3.500    2.000 
#    0.000    1.250    0.000    0.750    0.000    0.000 
#    0.000    0.000    0.000    0.000    0.000    0.000 
#
# Total GULP energy -178688.528023 kJ/mol
# GULP energy per Si atom -5584.016501 kJ/mol
# Density = 1.744826 g / cm^3
# Si number density = 17.488067 Si / 1000 Ang^3
#
#
#
# Elastic Constant Matrix: (Units=GPa)
#
#
# Indices 1 2 3 4 5 6 
#
# 1 65.4895 18.0082 19.3036 0.0023 -1.0421 0.0010
# 2 18.0082 23.0008 8.1454 0.0013 -3.4073 0.0006
# 3 19.3036 8.1454 79.7811 0.0080 -7.6487 0.0029
# 4 0.0023 0.0013 0.0080 23.9813 0.0036 3.4954
# 5 -1.0421 -3.4073 -7.6487 0.0036 23.8641 0.0017
# 6 0.0010 0.0006 0.0029 3.4954 0.0017 29.5099
#
#
#
# Elastic Compliance Matrix: (Units=1/GPa)
#
#
# Indices 1 2 3 4 5 6 
#
# 1 0.020452 -0.015083 -0.003641 0.000000 -0.002427 0.000000
# 2 -0.015083 0.056846 -0.001485 -0.000002 0.006982 -0.000001
# 3 -0.003641 -0.001485 0.013960 -0.000005 0.004103 -0.000001
# 4 0.000000 -0.000002 -0.000005 0.042432 -0.000008 -0.005026
# 5 -0.002427 0.006982 0.004103 -0.000008 0.044110 -0.000002
# 6 0.000000 -0.000001 -0.000001 -0.005026 -0.000002 0.034482
#
#
# Mechanical properties :
#
#
# Convention : Reuss Voigt Hill
#
# Bulk Modulus (GPa) = 19.66959 28.79843 24.23401
# Shear Modulus (GPa) = 18.54284 23.65867 21.10076
#
# Velocity S-wave (km/s) = 3.25978 3.68210 3.47735
# Velocity P-wave (km/s) = 5.04381 5.88051 5.47816
#
# Compressibility (1/GPa) = 0.05083990
#
# Stress axis : x y z
#
# Youngs Moduli (GPa) = 48.89570 17.59151 71.63147
#
# Poissons Ratio (x) = 0.26532 0.26083
# Poissons Ratio (y) = 0.73747 0.10638
# Poissons Ratio (z) = 0.17804 0.02612
#
# Static dielectric constant tensor:
#      x y z
#    x 1.628720 0.000000 0.003150 
#    y 0.000000 1.562870 0.000000 
#    z 0.003150 0.000000 1.602890 
# 
# From -- ./inp_files/66905.got.cif
#   From: 2010.05.17/outbox.cif.g08.bks.cpg/sg12_34_cif.got.tgz:66905.got - 2010.06.03 13:09:07.
