data_PCOD9186869
_publ_section_title
;
Structure prediction by ZEFSAII (Michael W. Deem and Ramdas Pophale) SiO2 
 PCOD9186869
Probable space group: C 2/M
;
_chemical_formula_sum "Si O2"
_cell_formula_units_Z 64
_cell_length_a 32.076812
_cell_length_b 8.145753
_cell_length_c 24.915897
_cell_angle_alpha 90.000000
_cell_angle_beta 28.210226
_cell_angle_gamma 90.000000
_cell_volume 3077.456770
_symmetry_space_group_name_H-M "C 2/M"
_symmetry_group_IT_number 12
_symmetry_cell_setting 'monoclinic'
loop_
_space_group_symop_operation_xyz
x,y,z
-x,y,-z
-x,-y,-z
x,-y,z
1/2+x,1/2+y,z
1/2-x,1/2+y,-z
1/2-x,1/2-y,-z
1/2+x,1/2-y,z
loop_
_atom_site_type_symbol
_atom_site_label
_atom_site_fract_x
_atom_site_fract_y
_atom_site_fract_z
Si Si1 0.754703 0.799400 0.722130
Si Si2 0.437310 0.200546 0.022455
Si Si3 0.848962 0.195491 0.904012
Si Si4 0.593964 0.698228 0.368747
Si Si5 0.644704 0.310451 0.493130
Si Si6 0.849308 0.311570 0.396376
Si Si7 0.962851 0.310826 0.675540
Si Si8 0.029636 0.699693 0.137672
O O1 0.660494 0.747220 0.850094
O O2 0.829288 0.745724 0.678991
O O3 0.781452 0.748648 0.631776
O O4 0.756443 0.000000 0.718821
O O5 0.439495 0.000000 0.019283
O O6 0.500000 0.254179 0.000000
O O7 0.460872 0.251934 0.935169
O O8 0.914675 0.273496 0.785727
O O9 0.889240 0.244865 0.916281
O O10 0.852999 0.000000 0.894950
O O11 0.750000 0.250000 0.000000
O O12 0.500000 0.747801 0.500000
O O13 0.596322 0.500000 0.362951
O O14 0.600696 0.769048 0.301658
O O15 0.662737 0.500000 0.486939
O O16 0.635187 0.209356 0.557971
O O17 0.550439 0.298710 0.570721
O O18 0.848108 0.500000 0.381379
O O19 0.750000 0.250000 0.500000
O O20 0.935442 0.238960 0.268600
O O21 0.989372 0.500000 0.643150
O O22 0.029925 0.500000 0.139012
#
# Coordination Sequence:
#
# PCOD9186869 Si02
#       8
#     8   8   8   8   8   8   8   8
#     4   9  19  34  57  88 121 160 209 254 305 373
#     4   9  19  36  61  91 122 160 207 259 307 360
#     4  12  26  44  67  92 125 170 214 262 321 385
#     4  10  19  35  56  85 122 164 208 250 302 370
#     4  11  21  38  63  91 123 162 206 259 317 377
#     4  11  24  40  62  93 126 162 206 263 324 387
#     4  12  24  39  59  89 127 165 208 257 315 378
#     4  10  22  41  65  97 131 163 212 269 317 377
#
# _framework density 20.796392999999998
#
# number of rings (size 3 to 8) (size 9 to 14) (size 15 to 20)
#    0.000    1.500    2.500    3.000    3.500    0.750 
#    0.000    0.000    0.000    1.875    0.000    0.000 
#    0.000    0.000    0.000    0.000    0.000    0.000 
#
# Total GULP energy -178742.050842 kJ/mol
# GULP energy per Si atom -5585.689089 kJ/mol
# Density = 2.074906 g / cm^3
# Si number density = 20.796393 Si / 1000 Ang^3
#
#
#
# Elastic Constant Matrix: (Units=GPa)
#
#
# Indices 1 2 3 4 5 6 
#
# 1 130.1686 -1.4846 85.3440 0.0078 1.6685 -0.0071
# 2 -1.4846 31.3581 3.7483 -0.0075 -4.2663 -0.0011
# 3 85.3440 3.7483 146.7197 -0.0055 -0.1281 0.0022
# 4 0.0078 -0.0075 -0.0055 17.4804 0.0056 0.1162
# 5 1.6685 -4.2663 -0.1281 0.0056 41.2098 -0.0034
# 6 -0.0071 -0.0011 0.0022 0.1162 -0.0034 26.6087
#
#
#
# Elastic Compliance Matrix: (Units=1/GPa)
#
#
# Indices 1 2 3 4 5 6 
#
# 1 0.012491 0.001412 -0.007302 -0.000007 -0.000382 0.000004
# 2 0.001412 0.032605 -0.001652 0.000012 0.003313 0.000002
# 3 -0.007302 -0.001652 0.011106 0.000006 0.000159 -0.000003
# 4 -0.000007 0.000012 0.000006 0.057209 -0.000006 -0.000250
# 5 -0.000382 0.003313 0.000159 -0.000006 0.024625 0.000003
# 6 0.000004 0.000002 -0.000003 -0.000250 0.000003 0.037583
#
#
# Mechanical properties :
#
#
# Convention : Reuss Voigt Hill
#
# Bulk Modulus (GPa) = 24.32007 53.71798 39.01903
# Shear Modulus (GPa) = 24.46102 31.76901 28.11502
#
# Velocity S-wave (km/s) = 3.43332 3.91272 3.68083
# Velocity P-wave (km/s) = 5.23800 6.80434 6.07189
#
# Compressibility (1/GPa) = 0.04111829
#
# Stress axis : x y z
#
# Youngs Moduli (GPa) = 80.05796 30.67038 90.04489
#
# Poissons Ratio (x) = -0.04331 0.65752
# Poissons Ratio (y) = -0.11306 0.14871
# Poissons Ratio (z) = 0.58460 0.05065
#
# Static dielectric constant tensor:
#      x y z
#    x 1.780360 -0.000010 -0.017150 
#    y -0.000010 1.743590 0.000010 
#    z -0.017150 0.000010 1.741270 
# 
# From -- ./inp_files/353419.got.cif
#   From: 2010.05.17/outbox.cif.g08.bks.cpg/sg12_177_cif.got.tgz:353419.got - 2010.06.03 13:09:07.
