data_PCOD9186588
_publ_section_title
;
Structure prediction by ZEFSAII (Michael W. Deem and Ramdas Pophale) SiO2 
 PCOD9186588
Probable space group: C 2/M
;
_chemical_formula_sum "Si O2"
_cell_formula_units_Z 50
_cell_length_a 9.524477
_cell_length_b 16.641528
_cell_length_c 18.561881
_cell_angle_alpha 90.000000
_cell_angle_beta 51.795308
_cell_angle_gamma 90.000000
_cell_volume 2311.914663
_symmetry_space_group_name_H-M "C 2/M"
_symmetry_group_IT_number 12
_symmetry_cell_setting 'monoclinic'
loop_
_space_group_symop_operation_xyz
x,y,z
-x,y,-z
-x,-y,-z
x,-y,z
1/2+x,1/2+y,z
1/2-x,1/2+y,-z
1/2-x,1/2-y,-z
1/2+x,1/2-y,z
loop_
_atom_site_type_symbol
_atom_site_label
_atom_site_fract_x
_atom_site_fract_y
_atom_site_fract_z
Si Si1 0.384907 0.714878 0.828175
Si Si2 0.196019 0.689092 0.648632
Si Si3 0.665075 0.590050 0.786901
Si Si4 0.000000 0.000000 0.000000
Si Si5 0.683633 0.090514 0.790670
Si Si6 0.223759 0.623156 0.087868
Si Si7 0.461388 0.165020 0.591076
O O1 0.519336 0.766725 0.736026
O O2 0.516389 0.658785 0.831527
O O3 0.274728 0.657274 0.811295
O O4 0.270691 0.780273 0.908557
O O5 0.217838 0.614461 0.696151
O O6 0.362059 0.749336 0.607366
O O7 0.138287 0.671605 0.584876
O O8 0.598430 0.500000 0.794254
O O9 0.752989 0.590870 0.837613
O O10 0.816850 0.613479 0.681240
O O11 0.875398 0.071181 0.002306
O O12 0.473185 0.098597 0.873265
O O13 0.744053 0.000000 0.785430
O O14 0.500000 0.130588 0.500000
#
# Coordination Sequence:
#
# PCOD9186588 Si02
#       7
#     8   8   8   2   8   8   8
#     4  10  20  37  62  89 117 160 204 240 297 367
#     4  10  19  35  54  85 118 160 205 259 300 349
#     4  11  21  38  61  89 121 158 199 253 300 347
#     4  12  24  40  68 102 120 148 198 256 298 352
#     4  11  19  35  62  90 115 158 206 244 294 362
#     4  11  21  40  64  87 118 153 197 238 297 362
#     4  11  21  34  57  86 122 164 212 257 305 357
#
# _framework density 21.627095000000001
#
# number of rings (size 3 to 8) (size 9 to 14) (size 15 to 20)
#    0.000    1.280    6.400    2.880    0.000    0.320 
#    0.000    3.200    0.000    1.440    0.000    0.000 
#    0.000    0.000    0.000    0.000    0.000    0.000 
#
# Total GULP energy -139381.458549 kJ/mol
# GULP energy per Si atom -5575.258342 kJ/mol
# Density = 2.157787 g / cm^3
# Si number density = 21.627095 Si / 1000 Ang^3
#
#
#
# Elastic Constant Matrix: (Units=GPa)
#
#
# Indices 1 2 3 4 5 6 
#
# 1 66.0279 25.7626 0.0630 0.0000 4.2482 0.0005
# 2 25.7626 152.6679 19.1920 0.0000 3.3690 0.0003
# 3 0.0630 19.1920 64.4391 0.0000 10.0669 0.0003
# 4 0.0000 0.0000 0.0000 -46.8784 0.0000 11.0322
# 5 4.2482 3.3690 10.0669 0.0000 24.5228 -0.0005
# 6 0.0005 0.0003 0.0003 11.0322 -0.0005 -1.5247
#
#
#
# Elastic Compliance Matrix: (Units=1/GPa)
#
#
# Indices 1 2 3 4 5 6 
#
# 1 0.016458 -0.002876 0.001308 -0.000002 -0.002993 -0.000009
# 2 -0.002876 0.007308 -0.002238 0.000000 0.000413 0.000000
# 3 0.001308 -0.002238 0.017279 -0.000002 -0.007013 -0.000008
# 4 -0.000002 0.000000 -0.000002 0.030352 0.000005 0.219615
# 5 -0.002993 0.000413 -0.007013 0.000005 0.044119 0.000024
# 6 -0.000009 0.000000 -0.000008 0.219615 0.000024 0.933193
#
#
# Mechanical properties :
#
#
# Convention : Reuss Voigt Hill
#
# Bulk Modulus (GPa) = 29.90994 41.46335 35.68665
# Shear Modulus (GPa) = 4.68399 11.09842 7.89121
#
# Velocity S-wave (km/s) = 1.47326 2.26779 1.91224
# Velocity P-wave (km/s) = 4.09315 5.10595 4.62734
#
# Compressibility (1/GPa) = 0.03343370
#
# Stress axis : x y z
#
# Youngs Moduli (GPa) = 60.75892 136.84214 57.87246
#
# Poissons Ratio (x) = 0.39352 -0.07570
# Poissons Ratio (y) = 0.17473 0.12953
# Poissons Ratio (z) = -0.07947 0.30628
#
# Static dielectric constant tensor:
#      x y z
#    x 1.812570 0.000000 -0.024140 
#    y 0.000000 1.806070 0.000000 
#    z -0.024140 0.000000 1.897720 
# 
# From -- ./inp_files/256688.got.cif
#   From: 2010.05.17/outbox.cif.g08.bks.cpg/sg12_129_cif.got.tgz:256688.got - 2010.06.03 13:09:07.
