data_PCOD9186608
_publ_section_title
;
Structure prediction by ZEFSAII (Michael W. Deem and Ramdas Pophale) SiO2 
 PCOD9186608
Probable space group: C 2/M
;
_chemical_formula_sum "Si O2"
_cell_formula_units_Z 48
_cell_length_a 15.563031
_cell_length_b 7.579170
_cell_length_c 20.211727
_cell_angle_alpha 90.000000
_cell_angle_beta 101.475609
_cell_angle_gamma 90.000000
_cell_volume 2336.412572
_symmetry_space_group_name_H-M "C 2/M"
_symmetry_group_IT_number 12
_symmetry_cell_setting 'monoclinic'
loop_
_space_group_symop_operation_xyz
x,y,z
-x,y,-z
-x,-y,-z
x,-y,z
1/2+x,1/2+y,z
1/2-x,1/2+y,-z
1/2-x,1/2-y,-z
1/2+x,1/2-y,z
loop_
_atom_site_type_symbol
_atom_site_label
_atom_site_fract_x
_atom_site_fract_y
_atom_site_fract_z
Si Si1 0.829918 0.211177 0.424076
Si Si2 0.417359 0.283553 0.172031
Si Si3 0.132428 0.788297 0.423375
Si Si4 0.455662 0.283594 0.326816
Si Si5 0.738689 0.209599 0.075986
Si Si6 0.459252 0.292123 0.925926
O O1 0.865010 0.279208 0.500416
O O2 0.726609 0.248124 0.406314
O O3 0.883515 0.275525 0.369200
O O4 0.841061 0.000000 0.427211
O O5 0.416957 0.500000 0.173039
O O6 0.435479 0.225312 0.249431
O O7 0.323330 0.225019 0.129089
O O8 0.492102 0.223658 0.131837
O O9 0.050245 0.725280 0.368462
O O10 0.124614 0.000000 0.426170
O O11 0.455338 0.500000 0.325887
O O12 0.645110 0.274753 0.087537
O O13 0.737478 0.000000 0.082526
O O14 0.750000 0.250000 0.000000
O O15 0.480276 0.500000 0.929917
O O16 0.500000 0.215876 0.000000
#
# Coordination Sequence:
#
# PCOD9186608 Si02
#       6
#     8   8   8   8   8   8
#     4   9  17  30  50  75 101 130 166 206 246 289
#     4   9  19  34  51  73 102 134 166 203 254 302
#     4   9  17  30  50  75 100 129 168 207 243 290
#     4   9  17  31  51  72  98 135 172 202 240 297
#     4  11  21  35  55  78 101 129 167 210 254 302
#     4  10  19  35  55  75 100 131 165 207 254 302
#
# _framework density 20.544315999999998
#
# number of rings (size 3 to 8) (size 9 to 14) (size 15 to 20)
#    0.000    2.500    1.667    1.000    0.000    3.667 
#    0.000    0.833    0.000    8.000    0.000    0.000 
#    0.000    0.000    0.000    0.000    0.000    0.000 
#
# Total GULP energy -133985.940677 kJ/mol
# GULP energy per Si atom -5582.747528 kJ/mol
# Density = 2.049756 g / cm^3
# Si number density = 20.544316 Si / 1000 Ang^3
#
#
#
# Elastic Constant Matrix: (Units=GPa)
#
#
# Indices 1 2 3 4 5 6 
#
# 1 183.5951 -11.0435 157.5960 0.0000 -6.0894 0.0000
# 2 -11.0435 41.2919 7.0882 0.0000 -2.4887 0.0000
# 3 157.5960 7.0882 225.4470 0.0000 -8.1393 0.0000
# 4 0.0000 0.0000 0.0000 5.0259 0.0000 -0.0700
# 5 -6.0894 -2.4887 -8.1393 0.0000 39.9197 0.0000
# 6 0.0000 0.0000 0.0000 -0.0700 0.0000 25.8096
#
#
#
# Elastic Compliance Matrix: (Units=1/GPa)
#
#
# Indices 1 2 3 4 5 6 
#
# 1 0.014891 0.005827 -0.010575 0.000000 0.000479 0.000000
# 2 0.005827 0.026704 -0.004856 0.000000 0.001563 0.000000
# 3 -0.010575 -0.004856 0.012000 0.000000 0.000531 0.000000
# 4 0.000000 0.000000 0.000000 0.198978 0.000000 0.000539
# 5 0.000479 0.001563 0.000531 0.000000 0.025329 0.000000
# 6 0.000000 0.000000 0.000000 0.000539 0.000000 0.038747
#
#
# Mechanical properties :
#
#
# Convention : Reuss Voigt Hill
#
# Bulk Modulus (GPa) = 29.08217 84.17948 56.63083
# Shear Modulus (GPa) = 14.39597 33.93059 24.16328
#
# Velocity S-wave (km/s) = 2.65000 4.06837 3.43323
# Velocity P-wave (km/s) = 4.85282 7.94559 6.58340
#
# Compressibility (1/GPa) = 0.03438533
#
# Stress axis : x y z
#
# Youngs Moduli (GPa) = 67.15656 37.44752 83.33472
#
# Poissons Ratio (x) = -0.21819 0.88126
# Poissons Ratio (y) = -0.39130 0.40469
# Poissons Ratio (z) = 0.71018 0.18185
#
# Static dielectric constant tensor:
#      x y z
#    x 1.692300 0.000000 0.003950 
#    y 0.000000 1.779340 0.000000 
#    z 0.003950 0.000000 1.708370 
# 
# From -- ./inp_files/267613.got.cif
#   From: 2010.05.17/outbox.cif.g08.bks.cpg/sg12_134_cif.got.tgz:267613.got - 2010.06.03 13:09:07.
