data_PCOD9186245
_publ_section_title
;
Structure prediction by ZEFSAII (Michael W. Deem and Ramdas Pophale) SiO2 
 PCOD9186245
Probable space group: C 2/M
;
_chemical_formula_sum "Si O2"
_cell_formula_units_Z 48
_cell_length_a 17.581355
_cell_length_b 15.543345
_cell_length_c 17.792443
_cell_angle_alpha 90.000000
_cell_angle_beta 149.823662
_cell_angle_gamma 90.000000
_cell_volume 2444.045636
_symmetry_space_group_name_H-M "C 2/M"
_symmetry_group_IT_number 12
_symmetry_cell_setting 'monoclinic'
loop_
_space_group_symop_operation_xyz
x,y,z
-x,y,-z
-x,-y,-z
x,-y,z
1/2+x,1/2+y,z
1/2-x,1/2+y,-z
1/2-x,1/2-y,-z
1/2+x,1/2-y,z
loop_
_atom_site_type_symbol
_atom_site_label
_atom_site_fract_x
_atom_site_fract_y
_atom_site_fract_z
Si Si1 0.900619 0.404098 0.612189
Si Si2 0.934482 0.904112 0.738205
Si Si3 0.708762 0.686664 0.894376
Si Si4 0.012277 0.404648 0.098552
Si Si5 0.506351 0.225153 0.596508
Si Si6 0.170445 0.723242 0.319283
O O1 0.951228 0.500000 0.675755
O O2 0.721193 0.408120 0.442061
O O3 0.987345 0.371717 0.612020
O O4 0.913341 0.329218 0.685511
O O5 0.901800 0.816864 0.757842
O O6 0.079946 0.878981 0.813586
O O7 0.953257 0.000000 0.788459
O O8 0.640064 0.733053 0.760752
O O9 0.750000 0.750000 0.000000
O O10 0.859337 0.635846 0.000599
O O11 0.041004 0.500000 0.153403
O O12 0.148104 0.340112 0.231576
O O13 0.000000 0.410657 0.000000
O O14 0.500000 0.229508 0.500000
O O15 0.346775 0.266848 0.486585
#
# Coordination Sequence:
#
# PCOD9186245 Si02
#       6
#     8   8   8   8   8   8
#     4  10  19  35  62  87 114 155 201 249 291 346
#     4  10  19  34  60  86 112 148 198 250 292 340
#     4  12  21  39  62  88 121 161 202 249 301 355
#     4  11  24  39  57  86 124 162 196 243 309 366
#     4  11  22  37  60  91 124 158 198 248 307 359
#     4  11  19  40  61  86 118 156 205 248 293 357
#
# _framework density 19.639568000000001
#
# number of rings (size 3 to 8) (size 9 to 14) (size 15 to 20)
#    0.000    1.167    5.000    3.000    0.000    0.333 
#    0.000    0.833    0.000    4.500    0.000    0.000 
#    0.000    0.000    0.000    0.000    0.000    0.000 
#
# Total GULP energy -133650.981302 kJ/mol
# GULP energy per Si atom -5568.790888 kJ/mol
# Density = 1.959487 g / cm^3
# Si number density = 19.639568 Si / 1000 Ang^3
#
#
#
# Elastic Constant Matrix: (Units=GPa)
#
#
# Indices 1 2 3 4 5 6 
#
# 1 54.6464 34.8309 10.1864 -0.0002 -17.1184 0.0001
# 2 34.8309 166.5655 36.3309 -0.0007 -15.6437 0.0005
# 3 10.1864 36.3309 70.2792 -0.0009 -10.3552 0.0007
# 4 -0.0002 -0.0007 -0.0009 65.1565 -0.0004 -36.2494
# 5 -17.1184 -15.6437 -10.3552 -0.0004 37.2760 0.0002
# 6 0.0001 0.0005 0.0007 -36.2494 0.0002 46.7539
#
#
#
# Elastic Compliance Matrix: (Units=1/GPa)
#
#
# Indices 1 2 3 4 5 6 
#
# 1 0.023805 -0.004121 0.000037 0.000000 0.009213 0.000000
# 2 -0.004121 0.007618 -0.003283 0.000000 0.000393 0.000000
# 3 0.000037 -0.003283 0.016391 0.000000 0.003193 0.000000
# 4 0.000000 0.000000 0.000000 0.026989 0.000000 0.020926
# 5 0.009213 0.000393 0.003193 0.000000 0.032110 0.000000
# 6 0.000000 0.000000 0.000000 0.020926 0.000000 0.037613
#
#
# Mechanical properties :
#
#
# Convention : Reuss Voigt Hill
#
# Bulk Modulus (GPa) = 30.22838 50.46530 40.34684
# Shear Modulus (GPa) = 29.36223 43.84681 36.60452
#
# Velocity S-wave (km/s) = 3.87079 4.73014 4.32188
# Velocity P-wave (km/s) = 5.94998 7.45545 6.74485
#
# Compressibility (1/GPa) = 0.03308149
#
# Stress axis : x y z
#
# Youngs Moduli (GPa) = 42.00776 131.26182 61.00832
#
# Poissons Ratio (x) = 0.54091 -0.00228
# Poissons Ratio (y) = 0.17311 0.20030
# Poissons Ratio (z) = -0.00157 0.43095
#
# Static dielectric constant tensor:
#      x y z
#    x 1.723160 0.000000 -0.045320 
#    y 0.000000 1.756650 0.000000 
#    z -0.045320 0.000000 1.723590 
# 
# From -- ./inp_files/278029.got.cif
#   From: 2010.05.17/outbox.cif.g08.bks.cpg/sg12_140_cif.got.tgz:278029.got - 2010.06.03 13:09:07.
