data_PCOD9186293
_publ_section_title
;
Structure prediction by ZEFSAII (Michael W. Deem and Ramdas Pophale) SiO2 
 PCOD9186293
Probable space group: C 2/M
;
_chemical_formula_sum "Si O2"
_cell_formula_units_Z 60
_cell_length_a 27.552385
_cell_length_b 14.444685
_cell_length_c 13.221081
_cell_angle_alpha 90.000000
_cell_angle_beta 153.496133
_cell_angle_gamma 90.000000
_cell_volume 2348.120941
_symmetry_space_group_name_H-M "C 2/M"
_symmetry_group_IT_number 12
_symmetry_cell_setting 'monoclinic'
loop_
_space_group_symop_operation_xyz
x,y,z
-x,y,-z
-x,-y,-z
x,-y,z
1/2+x,1/2+y,z
1/2-x,1/2+y,-z
1/2-x,1/2-y,-z
1/2+x,1/2-y,z
loop_
_atom_site_type_symbol
_atom_site_label
_atom_site_fract_x
_atom_site_fract_y
_atom_site_fract_z
Si Si1 0.690869 0.000000 0.234958
Si Si2 0.793208 0.147004 0.097710
Si Si3 0.944982 0.603733 0.295010
Si Si4 0.192853 0.648319 0.403297
Si Si5 0.912799 0.103357 0.909212
Si Si6 0.709216 0.391431 0.128539
Si Si7 0.420844 0.201694 0.609165
Si Si8 0.624436 0.600374 0.537335
O O1 0.648656 0.085020 0.230480
O O2 0.756329 0.078134 0.285705
O O3 0.870804 0.130659 0.336968
O O4 0.750000 0.250000 0.000000
O O5 0.681438 0.096388 0.917793
O O6 0.835347 0.115982 0.067446
O O7 0.989844 0.500000 0.361563
O O8 0.000000 0.641965 0.500000
O O9 0.973765 0.663958 0.251596
O O10 0.250000 0.750000 0.500000
O O11 0.301515 0.593954 0.639931
O O12 0.106971 0.659177 0.334028
O O13 0.871875 0.145724 0.937201
O O14 0.957733 0.000000 0.014852
O O15 0.000000 0.152550 0.000000
O O16 0.730373 0.500000 0.189990
O O17 0.820840 0.335119 0.351421
O O18 0.416318 0.312214 0.601236
O O19 0.567096 0.500000 0.421311
#
# Coordination Sequence:
#
# PCOD9186293 Si02
#       8
#     4   8   8   8   8   8   8   8
#     4  10  22  38  63  87 121 172 213 260 311 393
#     4  12  22  39  63  90 127 169 211 251 317 385
#     4  11  22  37  61  94 128 159 205 271 322 365
#     4  11  20  38  63  89 117 167 215 253 314 380
#     4   9  19  35  59  92 121 144 193 264 318 352
#     4  10  19  34  60  90 120 157 201 254 310 368
#     4  11  21  37  62  95 123 155 216 264 311 379
#     4  10  21  39  62  87 124 174 210 252 322 385
#
# _framework density 25.552347000000001
#
# number of rings (size 3 to 8) (size 9 to 14) (size 15 to 20)
#    0.400    1.067    4.667    1.600    1.867    0.000 
#    2.400    0.000    0.000    5.200    0.000    0.000 
#    0.000    0.000    0.000    0.000    0.000    0.000 
#
# Total GULP energy -167217.563237 kJ/mol
# GULP energy per Si atom -5573.918775 kJ/mol
# Density = 2.549419 g / cm^3
# Si number density = 25.552347 Si / 1000 Ang^3
#
#
#
# Elastic Constant Matrix: (Units=GPa)
#
#
# Indices 1 2 3 4 5 6 
#
# 1 136.2450 26.7359 2.2841 0.0000 29.5678 0.0000
# 2 26.7359 155.2525 0.9739 0.0000 0.9726 0.0000
# 3 2.2841 0.9739 54.3331 0.0000 3.9095 0.0000
# 4 0.0000 0.0000 0.0000 28.8775 0.0000 -11.1171
# 5 29.5678 0.9726 3.9095 0.0000 22.5809 0.0000
# 6 0.0000 0.0000 0.0000 -11.1171 0.0000 31.0230
#
#
#
# Elastic Compliance Matrix: (Units=1/GPa)
#
#
# Indices 1 2 3 4 5 6 
#
# 1 0.010731 -0.001764 0.000593 0.000000 -0.014078 0.000000
# 2 -0.001764 0.006733 -0.000194 0.000000 0.002053 0.000000
# 3 0.000593 -0.000194 0.018671 0.000000 -0.004001 0.000000
# 4 0.000000 0.000000 0.000000 0.040171 0.000000 0.014395
# 5 -0.014078 0.002053 -0.004001 0.000000 0.063324 0.000000
# 6 0.000000 0.000000 0.000000 0.014395 0.000000 0.037393
#
#
# Mechanical properties :
#
#
# Convention : Reuss Voigt Hill
#
# Bulk Modulus (GPa) = 29.93376 45.09095 37.51235
# Shear Modulus (GPa) = 26.19348 37.55207 31.87277
#
# Velocity S-wave (km/s) = 3.20518 3.83771 3.53562
# Velocity P-wave (km/s) = 5.04358 6.10919 5.60178
#
# Compressibility (1/GPa) = 0.03340710
#
# Stress axis : x y z
#
# Youngs Moduli (GPa) = 93.18726 148.51844 53.55777
#
# Poissons Ratio (x) = 0.26191 -0.03179
# Poissons Ratio (y) = 0.16434 0.01040
# Poissons Ratio (z) = -0.05531 0.02885
#
# Static dielectric constant tensor:
#      x y z
#    x 2.005040 0.000000 -0.028560 
#    y 0.000000 2.117900 0.000000 
#    z -0.028560 0.000000 2.058560 
# 
# From -- ./inp_files/246737.got.cif
#   From: 2010.05.17/outbox.cif.g08.bks.cpg/sg12_124_cif.got.tgz:246737.got - 2010.06.03 13:09:07.
