data_PCOD9186364
_publ_section_title
;
Structure prediction by ZEFSAII (Michael W. Deem and Ramdas Pophale) SiO2 
 PCOD9186364
Probable space group: C 2/M
;
_chemical_formula_sum "Si O2"
_cell_formula_units_Z 48
_cell_length_a 20.230220
_cell_length_b 18.190243
_cell_length_c 18.616997
_cell_angle_alpha 90.000000
_cell_angle_beta 20.183496
_cell_angle_gamma 90.000000
_cell_volume 2363.757340
_symmetry_space_group_name_H-M "C 2/M"
_symmetry_group_IT_number 12
_symmetry_cell_setting 'monoclinic'
loop_
_space_group_symop_operation_xyz
x,y,z
-x,y,-z
-x,-y,-z
x,-y,z
1/2+x,1/2+y,z
1/2-x,1/2+y,-z
1/2-x,1/2-y,-z
1/2+x,1/2-y,z
loop_
_atom_site_type_symbol
_atom_site_label
_atom_site_fract_x
_atom_site_fract_y
_atom_site_fract_z
Si Si1 0.286832 0.581369 0.841256
Si Si2 0.567075 0.296831 0.503634
Si Si3 0.401580 0.201453 0.797461
Si Si4 0.631819 0.416240 0.070510
Si Si5 0.795321 0.583695 0.459376
Si Si6 0.344670 0.081979 0.246491
O O1 0.355098 0.500000 0.754540
O O2 0.412863 0.638815 0.671442
O O3 0.309532 0.589679 0.904387
O O4 0.068327 0.587391 0.038151
O O5 0.500000 0.255942 0.500000
O O6 0.531494 0.249042 0.611125
O O7 0.764333 0.342828 0.294977
O O8 0.553157 0.148373 0.683168
O O9 0.250000 0.250000 0.000000
O O10 0.260079 0.144569 0.901447
O O11 0.668861 0.500000 0.010752
O O12 0.405105 0.402357 0.296527
O O13 0.865886 0.500000 0.404985
O O14 0.745729 0.580954 0.425754
O O15 0.314526 0.000000 0.243769
#
# Coordination Sequence:
#
# PCOD9186364 Si02
#       6
#     8   8   8   8   8   8
#     4  10  19  36  58  82 113 150 190 231 282 337
#     4  12  26  39  52  80 122 162 194 228 279 344
#     4  12  22  37  59  85 116 155 189 236 290 340
#     4  10  19  35  60  88 113 140 185 243 292 336
#     4  10  19  34  61  91 113 140 188 247 295 333
#     4  10  19  35  59  83 113 152 192 237 281 336
#
# _framework density 20.306653000000001
#
# number of rings (size 3 to 8) (size 9 to 14) (size 15 to 20)
#    0.000    1.333    5.000    1.000    0.000    6.000 
#    0.000    1.667    0.000    2.000    0.000    2.333 
#    0.000    0.000    0.000    0.000    0.000    0.000 
#
# Total GULP energy -133810.821990 kJ/mol
# GULP energy per Si atom -5575.450916 kJ/mol
# Density = 2.026043 g / cm^3
# Si number density = 20.306653 Si / 1000 Ang^3
#
#
#
# Elastic Constant Matrix: (Units=GPa)
#
#
# Indices 1 2 3 4 5 6 
#
# 1 51.4811 27.1659 8.0978 -0.0122 -5.2808 -0.0016
# 2 27.1659 105.0092 36.9450 0.1301 -10.9424 0.0198
# 3 8.0978 36.9450 75.6076 0.1267 -20.3285 0.0181
# 4 -0.0122 0.1301 0.1267 28.1856 -0.0004 -16.1658
# 5 -5.2808 -10.9424 -20.3285 -0.0004 20.5585 -0.0020
# 6 -0.0016 0.0198 0.0181 -16.1658 -0.0020 6.7120
#
#
#
# Elastic Compliance Matrix: (Units=1/GPa)
#
#
# Indices 1 2 3 4 5 6 
#
# 1 0.022786 -0.006032 0.001659 -0.000110 0.004282 -0.000244
# 2 -0.006032 0.013106 -0.005856 0.000133 -0.000364 0.000296
# 3 0.001659 -0.005856 0.020686 0.000220 0.017763 0.000496
# 4 -0.000110 0.000133 0.000220 -0.093020 0.000236 -0.224040
# 5 0.004282 -0.000364 0.017763 0.000236 0.067112 0.000543
# 6 -0.000244 0.000296 0.000496 -0.224040 0.000543 -0.390615
#
#
# Mechanical properties :
#
#
# Convention : Reuss Voigt Hill
#
# Bulk Modulus (GPa) = 27.68681 41.83503 34.76092
# Shear Modulus (GPa) = -15.26959 21.75051 3.24046
#
# Velocity S-wave (km/s) = -2.74515 3.27632 1.26460
# Velocity P-wave (km/s) = 1.90163 5.91259 4.39175
#
# Compressibility (1/GPa) = 0.03611828
#
# Stress axis : x y z
#
# Youngs Moduli (GPa) = 43.88689 76.30338 48.34275
#
# Poissons Ratio (x) = 0.46025 -0.08018
# Poissons Ratio (y) = 0.26472 0.28311
# Poissons Ratio (z) = -0.07279 0.44685
#
# Static dielectric constant tensor:
#      x y z
#    x 1.764100 0.000000 -0.012900 
#    y 0.000000 1.796380 0.000010 
#    z -0.012900 0.000010 1.793560 
# 
# From -- ./inp_files/285369.got.cif
#   From: 2010.05.17/outbox.cif.g08.bks.cpg/sg12_143_cif.got.tgz:285369.got - 2010.06.03 13:09:07.
