data_PCOD9186636
_publ_section_title
;
Structure prediction by ZEFSAII (Michael W. Deem and Ramdas Pophale) SiO2 
 PCOD9186636
Probable space group: C 2/M
;
_chemical_formula_sum "Si O2"
_cell_formula_units_Z 64
_cell_length_a 16.976767
_cell_length_b 14.618818
_cell_length_c 14.422587
_cell_angle_alpha 90.000000
_cell_angle_beta 112.175751
_cell_angle_gamma 90.000000
_cell_volume 3314.634644
_symmetry_space_group_name_H-M "C 2/M"
_symmetry_group_IT_number 12
_symmetry_cell_setting 'monoclinic'
loop_
_space_group_symop_operation_xyz
x,y,z
-x,y,-z
-x,-y,-z
x,-y,z
1/2+x,1/2+y,z
1/2-x,1/2+y,-z
1/2-x,1/2-y,-z
1/2+x,1/2-y,z
loop_
_atom_site_type_symbol
_atom_site_label
_atom_site_fract_x
_atom_site_fract_y
_atom_site_fract_z
Si Si1 0.334678 0.803406 0.008931
Si Si2 0.263831 0.606245 0.565822
Si Si3 0.577878 0.896126 0.109369
Si Si4 0.499051 0.724054 0.847252
Si Si5 0.342205 0.604979 0.802285
Si Si6 0.458605 0.256105 0.335816
Si Si7 0.838027 0.393900 0.201414
Si Si8 0.132368 0.230888 0.523775
O O1 0.415207 0.735815 0.056153
O O2 0.348031 0.878337 0.096211
O O3 0.250000 0.750000 0.000000
O O4 0.343876 0.852767 0.914139
O O5 0.239943 0.500000 0.539977
O O6 0.322432 0.608773 0.683652
O O7 0.186816 0.675877 0.551906
O O8 0.314102 0.651937 0.502975
O O9 0.547182 0.824081 0.172916
O O10 0.592998 0.000000 0.147191
O O11 0.500000 0.898479 0.000000
O O12 0.428439 0.658391 0.857447
O O13 0.526005 0.695417 0.755758
O O14 0.351569 0.500000 0.835266
O O15 0.256168 0.641051 0.812337
O O16 0.410478 0.163114 0.285237
O O17 0.398144 0.298771 0.387666
O O18 0.549363 0.247100 0.425412
O O19 0.842465 0.500000 0.228471
#
# Coordination Sequence:
#
# PCOD9186636 Si02
#       8
#     8   8   8   8   8   8   8   8
#     4  10  20  35  56  82 109 144 180 226 281 332
#     4  10  20  36  57  78 107 150 190 226 273 326
#     4   9  18  34  56  80 106 137 177 220 269 331
#     4  10  20  35  56  78 109 145 182 222 279 330
#     4  10  19  35  55  78 105 146 192 226 266 328
#     4  10  20  33  53  82 110 144 178 232 284 320
#     4  10  20  34  55  81 110 143 184 228 279 332
#     4  10  20  36  56  81 114 143 187 235 272 324
#
# _framework density 19.308312999999998
#
# number of rings (size 3 to 8) (size 9 to 14) (size 15 to 20)
#    0.000    2.125    2.500    1.125    0.000    3.500 
#    0.000    4.375    0.000    4.875    0.000    0.000 
#    0.000    0.000    0.000    0.000    0.000    0.000 
#
# Total GULP energy -178421.809557 kJ/mol
# GULP energy per Si atom -5575.681549 kJ/mol
# Density = 1.926437 g / cm^3
# Si number density = 19.308313 Si / 1000 Ang^3
#
#
#
# Elastic Constant Matrix: (Units=GPa)
#
#
# Indices 1 2 3 4 5 6 
#
# 1 100.9861 27.6083 13.3657 0.0000 -12.1364 0.0000
# 2 27.6083 57.2085 0.6972 0.0000 3.5669 0.0000
# 3 13.3657 0.6972 33.0973 0.0000 -16.4072 0.0000
# 4 0.0000 0.0000 0.0000 17.7984 0.0000 1.1030
# 5 -12.1364 3.5669 -16.4072 0.0000 36.6316 0.0000
# 6 0.0000 0.0000 0.0000 1.1030 0.0000 21.6671
#
#
#
# Elastic Compliance Matrix: (Units=1/GPa)
#
#
# Indices 1 2 3 4 5 6 
#
# 1 0.012407 -0.006150 -0.003273 0.000000 0.003243 0.000000
# 2 -0.006150 0.020698 0.000049 0.000000 -0.004031 0.000000
# 3 -0.003273 0.000049 0.039841 0.000000 0.016755 0.000000
# 4 0.000000 0.000000 0.000000 0.056363 0.000000 -0.002869
# 5 0.003243 -0.004031 0.016755 0.000000 0.036271 0.000000
# 6 0.000000 0.000000 0.000000 -0.002869 0.000000 0.046299
#
#
# Mechanical properties :
#
#
# Convention : Reuss Voigt Hill
#
# Bulk Modulus (GPa) = 18.45045 30.51492 24.48269
# Shear Modulus (GPa) = 20.10530 25.19413 22.64971
#
# Velocity S-wave (km/s) = 3.23038 3.61617 3.42870
# Velocity P-wave (km/s) = 4.84668 5.76835 5.32748
#
# Compressibility (1/GPa) = 0.05419922
#
# Stress axis : x y z
#
# Youngs Moduli (GPa) = 80.60285 48.31301 25.09995
#
# Poissons Ratio (x) = 0.29711 0.08215
# Poissons Ratio (y) = 0.49567 -0.00123
# Poissons Ratio (z) = 0.26380 -0.00238
#
# Static dielectric constant tensor:
#      x y z
#    x 1.710440 0.000000 -0.023580 
#    y 0.000000 1.670770 0.000000 
#    z -0.023580 0.000000 1.686640 
# 
# From -- ./inp_files/225327.got.cif
#   From: 2010.05.17/outbox.cif.g08.bks.cpg/sg12_113_cif.got.tgz:225327.got - 2010.06.03 13:09:07.
