data_PCOD9186759
_publ_section_title
;
Structure prediction by ZEFSAII (Michael W. Deem and Ramdas Pophale) SiO2 
 PCOD9186759
Probable space group: C 2/M
;
_chemical_formula_sum "Si O2"
_cell_formula_units_Z 48
_cell_length_a 24.932570
_cell_length_b 7.426766
_cell_length_c 12.104225
_cell_angle_alpha 90.000000
_cell_angle_beta 113.017315
_cell_angle_gamma 90.000000
_cell_volume 2062.880756
_symmetry_space_group_name_H-M "C 2/M"
_symmetry_group_IT_number 12
_symmetry_cell_setting 'monoclinic'
loop_
_space_group_symop_operation_xyz
x,y,z
-x,y,-z
-x,-y,-z
x,-y,z
1/2+x,1/2+y,z
1/2-x,1/2+y,-z
1/2-x,1/2-y,-z
1/2+x,1/2-y,z
loop_
_atom_site_type_symbol
_atom_site_label
_atom_site_fract_x
_atom_site_fract_y
_atom_site_fract_z
Si Si1 0.313261 0.713867 0.998851
Si Si2 0.769950 0.213314 0.735273
Si Si3 0.632617 0.784559 0.349516
Si Si4 0.481464 0.220816 0.863137
Si Si5 0.423472 0.205040 0.232162
Si Si6 0.862300 0.721458 0.397269
O O1 0.324226 0.500000 0.008205
O O2 0.307894 0.782973 0.868900
O O3 0.250000 0.750000 0.000000
O O4 0.364351 0.797672 0.112230
O O5 0.804463 0.241874 0.650133
O O6 0.703927 0.281405 0.681522
O O7 0.765099 0.000000 0.749490
O O8 0.582540 0.720436 0.226131
O O9 0.623506 0.720782 0.467064
O O10 0.628403 0.000000 0.350283
O O11 0.526920 0.283552 0.806340
O O12 0.482855 0.000000 0.866113
O O13 0.500000 0.280101 0.000000
O O14 0.405567 0.284357 0.335920
O O15 0.442414 0.000000 0.270125
O O16 0.862483 0.500000 0.394783
#
# Coordination Sequence:
#
# PCOD9186759 Si02
#       6
#     8   8   8   8   8   8
#     4  11  21  34  54  80 109 138 174 217 263 318
#     4  10  20  35  52  75 109 141 172 219 272 315
#     4  10  20  34  54  79 104 140 187 221 258 319
#     4   9  18  32  52  79 107 136 178 226 265 308
#     4  10  19  35  56  77 110 145 172 220 273 309
#     4   9  18  33  52  77 108 139 178 223 266 314
#
# _framework density 23.268429999999999
#
# number of rings (size 3 to 8) (size 9 to 14) (size 15 to 20)
#    0.000    2.167    1.667    2.000    0.000    3.333 
#    0.000    5.000    0.000    3.000    0.000    2.333 
#    0.000    0.000    0.000    0.000    0.000    0.000 
#
# Total GULP energy -134148.219869 kJ/mol
# GULP energy per Si atom -5589.509161 kJ/mol
# Density = 2.321547 g / cm^3
# Si number density = 23.268430 Si / 1000 Ang^3
#
#
#
# Elastic Constant Matrix: (Units=GPa)
#
#
# Indices 1 2 3 4 5 6 
#
# 1 113.7781 -10.0668 18.9945 0.0000 -36.3285 0.0000
# 2 -10.0668 77.8990 -1.2284 0.0000 -3.1863 0.0000
# 3 18.9945 -1.2284 107.4854 0.0000 -37.8942 0.0000
# 4 0.0000 0.0000 0.0000 -2.0542 0.0000 -2.6781
# 5 -36.3285 -3.1863 -37.8942 0.0000 39.4585 0.0000
# 6 0.0000 0.0000 0.0000 -2.6781 0.0000 9.1066
#
#
#
# Elastic Compliance Matrix: (Units=1/GPa)
#
#
# Indices 1 2 3 4 5 6 
#
# 1 0.013466 0.002429 0.003157 0.000000 0.015626 0.000000
# 2 0.002429 0.013361 0.001349 0.000000 0.004611 0.000000
# 3 0.003157 0.001349 0.014853 0.000000 0.017280 0.000000
# 4 0.000000 0.000000 0.000000 -0.351884 0.000000 -0.103485
# 5 0.015626 0.004611 0.017280 0.000000 0.056697 0.000000
# 6 0.000000 0.000000 0.000000 -0.103485 0.000000 0.079377
#
#
# Mechanical properties :
#
#
# Convention : Reuss Voigt Hill
#
# Bulk Modulus (GPa) = 18.00158 34.95122 26.47640
# Shear Modulus (GPa) = -29.50134 28.73305 -0.38415
#
# Velocity S-wave (km/s) = -3.56458 3.51786 -0.40676
# Velocity P-wave (km/s) = 3.03123 5.61729 3.34407
#
# Compressibility (1/GPa) = 0.05555068
#
# Stress axis : x y z
#
# Youngs Moduli (GPa) = 74.26001 74.84511 67.32573
#
# Poissons Ratio (x) = -0.18181 -0.21255
# Poissons Ratio (y) = -0.18039 -0.09082
# Poissons Ratio (z) = -0.23444 -0.10097
#
# Static dielectric constant tensor:
#      x y z
#    x 1.837090 0.000000 -0.017820 
#    y 0.000000 1.964700 0.000000 
#    z -0.017820 0.000000 1.869240 
# 
# From -- ./inp_files/173050.got.cif
#   From: 2010.05.17/outbox.cif.g08.bks.cpg/sg12_87_cif.got.tgz:173050.got - 2010.06.03 13:09:07.
