data_PCOD9186104
_publ_section_title
;
Structure prediction by ZEFSAII (Michael W. Deem and Ramdas Pophale) SiO2 
 PCOD9186104
Probable space group: C 2/M
;
_chemical_formula_sum "Si O2"
_cell_formula_units_Z 48
_cell_length_a 18.009534
_cell_length_b 16.684255
_cell_length_c 8.941139
_cell_angle_alpha 90.000000
_cell_angle_beta 115.279154
_cell_angle_gamma 90.000000
_cell_volume 2429.320883
_symmetry_space_group_name_H-M "C 2/M"
_symmetry_group_IT_number 12
_symmetry_cell_setting 'monoclinic'
loop_
_space_group_symop_operation_xyz
x,y,z
-x,y,-z
-x,-y,-z
x,-y,z
1/2+x,1/2+y,z
1/2-x,1/2+y,-z
1/2-x,1/2-y,-z
1/2+x,1/2-y,z
loop_
_atom_site_type_symbol
_atom_site_label
_atom_site_fract_x
_atom_site_fract_y
_atom_site_fract_z
Si Si1 0.838253 0.655258 0.031892
Si Si2 0.410266 0.747596 0.851181
Si Si3 0.908497 0.912185 0.987265
Si Si4 0.657160 0.669006 0.810466
Si Si5 0.163795 0.257570 0.515160
Si Si6 0.595297 0.091133 0.620574
O O1 0.844455 0.742906 0.115365
O O2 0.888763 0.600110 0.187573
O O3 0.868647 0.675346 0.891361
O O4 0.743987 0.631045 0.933913
O O5 0.406310 0.751560 0.670987
O O6 0.500000 0.746553 0.000000
O O7 0.368493 0.663331 0.866078
O O8 0.909367 0.884872 0.161604
O O9 0.870064 0.000000 0.936944
O O10 0.000000 0.917426 0.000000
O O11 0.654475 0.688876 0.633160
O O12 0.250000 0.250000 0.500000
O O13 0.151384 0.342880 0.586234
O O14 0.500000 0.108229 0.500000
O O15 0.613281 0.000000 0.590122
#
# Coordination Sequence:
#
# PCOD9186104 Si02
#       6
#     8   8   8   8   8   8
#     4   9  17  33  55  80 109 148 195 240 289 355
#     4  10  19  34  59  86 115 155 199 244 299 364
#     4   9  19  36  56  82 115 152 197 246 298 352
#     4   9  18  33  56  82 112 149 195 245 294 354
#     4  11  21  38  62  90 122 157 201 256 303 369
#     4  10  22  39  59  86 121 161 205 254 308 362
#
# _framework density 19.758609
#
# number of rings (size 3 to 8) (size 9 to 14) (size 15 to 20)
#    0.000    2.333    1.667    1.000    2.333    2.000 
#    0.000    2.500    0.000    8.000    0.000    0.000 
#    0.000    0.000    0.000    0.000    0.000    0.000 
#
# Total GULP energy -133646.508068 kJ/mol
# GULP energy per Si atom -5568.604503 kJ/mol
# Density = 1.971364 g / cm^3
# Si number density = 19.758609 Si / 1000 Ang^3
#
#
#
# Elastic Constant Matrix: (Units=GPa)
#
#
# Indices 1 2 3 4 5 6 
#
# 1 84.7511 36.8637 32.5738 0.0000 -11.9175 0.0000
# 2 36.8637 83.2141 17.0714 0.0000 -9.4425 0.0000
# 3 32.5738 17.0714 123.9979 0.0000 -12.6378 0.0000
# 4 0.0000 0.0000 0.0000 9.8401 0.0000 -2.4482
# 5 -11.9175 -9.4425 -12.6378 0.0000 32.5291 0.0000
# 6 0.0000 0.0000 0.0000 -2.4482 0.0000 4.2410
#
#
#
# Elastic Compliance Matrix: (Units=1/GPa)
#
#
# Indices 1 2 3 4 5 6 
#
# 1 0.016069 -0.006158 -0.003077 0.000000 0.002904 0.000000
# 2 -0.006158 0.015023 -0.000246 0.000000 0.002010 0.000000
# 3 -0.003077 -0.000246 0.009147 0.000000 0.002355 0.000000
# 4 0.000000 0.000000 0.000000 0.118669 0.000000 0.068504
# 5 0.002904 0.002010 0.002355 0.000000 0.033304 0.000000
# 6 0.000000 0.000000 0.000000 0.068504 0.000000 0.275338
#
#
# Mechanical properties :
#
#
# Convention : Reuss Voigt Hill
#
# Bulk Modulus (GPa) = 46.99879 51.66454 49.33167
# Shear Modulus (GPa) = 10.12957 23.01898 16.57427
#
# Velocity S-wave (km/s) = 2.26667 3.41693 2.89941
# Velocity P-wave (km/s) = 5.53972 6.46311 6.01915
#
# Compressibility (1/GPa) = 0.02127714
#
# Stress axis : x y z
#
# Youngs Moduli (GPa) = 62.23260 66.56253 109.32593
#
# Poissons Ratio (x) = 0.40986 0.33645
# Poissons Ratio (y) = 0.38320 0.02689
# Poissons Ratio (z) = 0.19152 0.01637
#
# Static dielectric constant tensor:
#      x y z
#    x 1.820960 0.000000 0.022100 
#    y 0.000000 1.723180 0.000000 
#    z 0.022100 0.000000 1.748390 
# 
# From -- ./inp_files/75455.got.cif
#   From: 2010.05.17/outbox.cif.g08.bks.cpg/sg12_38_cif.got.tgz:75455.got - 2010.06.03 13:09:07.
