data_PCOD9186849
_publ_section_title
;
Structure prediction by ZEFSAII (Michael W. Deem and Ramdas Pophale) SiO2 
 PCOD9186849
Probable space group: C 2/M
;
_chemical_formula_sum "Si O2"
_cell_formula_units_Z 56
_cell_length_a 23.102403
_cell_length_b 14.734097
_cell_length_c 18.718818
_cell_angle_alpha 90.000000
_cell_angle_beta 29.969128
_cell_angle_gamma 90.000000
_cell_volume 3182.904030
_symmetry_space_group_name_H-M "C 2/M"
_symmetry_group_IT_number 12
_symmetry_cell_setting 'monoclinic'
loop_
_space_group_symop_operation_xyz
x,y,z
-x,y,-z
-x,-y,-z
x,-y,z
1/2+x,1/2+y,z
1/2-x,1/2+y,-z
1/2-x,1/2-y,-z
1/2+x,1/2-y,z
loop_
_atom_site_type_symbol
_atom_site_label
_atom_site_fract_x
_atom_site_fract_y
_atom_site_fract_z
Si Si1 0.439305 0.761245 0.133745
Si Si2 0.452048 0.337910 0.390133
Si Si3 0.890662 0.900415 0.295405
Si Si4 0.952709 0.392131 0.879632
Si Si5 0.302060 0.607022 0.826950
Si Si6 0.760773 0.103827 0.701738
Si Si7 0.659977 0.178919 0.558168
O O1 0.426926 0.682724 0.205792
O O2 0.523173 0.839997 0.072944
O O3 0.323371 0.817511 0.238584
O O4 0.500000 0.720038 0.000000
O O5 0.430572 0.381153 0.334413
O O6 0.586643 0.339868 0.264718
O O7 0.377461 0.389241 0.529808
O O8 0.400395 0.236547 0.439073
O O9 0.750464 0.898476 0.441965
O O10 0.933409 0.000000 0.228233
O O11 0.960697 0.500000 0.878815
O O12 0.055993 0.357199 0.718478
O O13 0.819224 0.370083 0.004241
O O14 0.324880 0.500000 0.814645
O O15 0.285685 0.618210 0.758998
O O16 0.714085 0.000000 0.743238
O O17 0.750000 0.250000 0.500000
#
# Coordination Sequence:
#
# PCOD9186849 Si02
#       7
#     8   8   8   8   8   8   8
#     4  12  22  37  57  84 114 142 193 235 285 338
#     4  11  20  37  58  82 116 151 187 231 274 336
#     4  11  22  39  60  81 110 147 191 244 283 322
#     4  11  21  36  55  83 119 150 182 227 282 341
#     4  10  22  35  53  86 120 153 184 217 280 349
#     4  11  21  34  57  86 118 151 180 228 284 340
#     4  10  19  35  56  83 108 142 192 233 278 326
#
# _framework density 17.593996000000001
#
# number of rings (size 3 to 8) (size 9 to 14) (size 15 to 20)
#    0.000    1.143    5.714    3.429    0.000    2.571 
#    0.000    0.000    0.000    0.000    0.000    3.000 
#    0.000    0.000    0.000    0.000    0.000    0.000 
#
# Total GULP energy -156036.566544 kJ/mol
# GULP energy per Si atom -5572.734519 kJ/mol
# Density = 1.755395 g / cm^3
# Si number density = 17.593996 Si / 1000 Ang^3
#
#
#
# Elastic Constant Matrix: (Units=GPa)
#
#
# Indices 1 2 3 4 5 6 
#
# 1 58.2547 30.9345 42.5559 0.0000 -11.9321 0.0000
# 2 30.9345 85.6624 31.7674 0.0000 -4.7980 0.0000
# 3 42.5559 31.7674 117.9946 0.0000 -4.7172 0.0000
# 4 0.0000 0.0000 0.0000 19.8065 0.0000 -2.2497
# 5 -11.9321 -4.7980 -4.7172 0.0000 34.3152 0.0000
# 6 0.0000 0.0000 0.0000 -2.2497 0.0000 19.6434
#
#
#
# Elastic Compliance Matrix: (Units=1/GPa)
#
#
# Indices 1 2 3 4 5 6 
#
# 1 0.028234 -0.006776 -0.008048 0.000000 0.007764 0.000000
# 2 -0.006776 0.014657 -0.001523 0.000000 -0.000516 0.000000
# 3 -0.008048 -0.001523 0.011732 0.000000 -0.001399 0.000000
# 4 0.000000 0.000000 0.000000 0.051154 0.000000 0.005859
# 5 0.007764 -0.000516 -0.001399 0.000000 0.031577 0.000000
# 6 0.000000 0.000000 0.000000 0.005859 0.000000 0.051579
#
#
# Mechanical properties :
#
#
# Convention : Reuss Voigt Hill
#
# Bulk Modulus (GPa) = 45.60410 52.49191 49.04800
# Shear Modulus (GPa) = 21.84028 25.19661 23.51845
#
# Velocity S-wave (km/s) = 3.52710 3.78843 3.66010
# Velocity P-wave (km/s) = 6.52409 7.00259 6.76757
#
# Compressibility (1/GPa) = 0.02192785
#
# Stress axis : x y z
#
# Youngs Moduli (GPa) = 35.41846 68.22875 85.23997
#
# Poissons Ratio (x) = 0.46235 0.68602
# Poissons Ratio (y) = 0.24001 0.12979
# Poissons Ratio (z) = 0.28505 0.10389
#
# Static dielectric constant tensor:
#      x y z
#    x 1.594560 0.000000 0.010610 
#    y 0.000000 1.610540 0.000000 
#    z 0.010610 0.000000 1.662010 
# 
# From -- ./inp_files/284493.got.cif
#   From: 2010.05.17/outbox.cif.g08.bks.cpg/sg12_143_cif.got.tgz:284493.got - 2010.06.03 13:09:07.
