data_PCOD9186391
_publ_section_title
;
Structure prediction by ZEFSAII (Michael W. Deem and Ramdas Pophale) SiO2 
 PCOD9186391
Probable space group: C 2/M
;
_chemical_formula_sum "Si O2"
_cell_formula_units_Z 36
_cell_length_a 18.462725
_cell_length_b 21.718858
_cell_length_c 9.551382
_cell_angle_alpha 90.000000
_cell_angle_beta 33.261117
_cell_angle_gamma 90.000000
_cell_volume 2100.585598
_symmetry_space_group_name_H-M "C 2/M"
_symmetry_group_IT_number 12
_symmetry_cell_setting 'monoclinic'
loop_
_space_group_symop_operation_xyz
x,y,z
-x,y,-z
-x,-y,-z
x,-y,z
1/2+x,1/2+y,z
1/2-x,1/2+y,-z
1/2-x,1/2-y,-z
1/2+x,1/2-y,z
loop_
_atom_site_type_symbol
_atom_site_label
_atom_site_fract_x
_atom_site_fract_y
_atom_site_fract_z
Si Si1 0.353859 0.234698 0.955597
Si Si2 0.747737 0.071159 0.081200
Si Si3 0.633218 0.643826 0.367456
Si Si4 0.500000 0.160377 0.500000
Si Si5 0.959009 0.863341 0.906354
O O1 0.258349 0.188271 0.193350
O O2 0.400460 0.295539 0.960211
O O3 0.250000 0.250000 0.000000
O O4 0.474681 0.201266 0.679986
O O5 0.625948 0.116457 0.304239
O O6 0.850528 0.086649 0.037640
O O7 0.711514 0.000000 0.135062
O O8 0.814579 0.092733 0.826322
O O9 0.500000 0.669067 0.500000
O O10 0.578498 0.624430 0.605573
O O11 0.000000 0.865078 0.000000
#
# Coordination Sequence:
#
# PCOD9186391 Si02
#       5
#     8   8   8   4   8
#     4  11  17  32  56  80 112 143 179 222 274 328
#     4  10  21  37  58  81 106 145 191 231 267 320
#     4   9  18  33  54  77 103 142 185 224 266 320
#     4  10  19  34  62  84 105 138 188 236 268 316
#     4  11  23  34  52  86 116 145 179 224 285 332
#
# _framework density 17.138078
#
# number of rings (size 3 to 8) (size 9 to 14) (size 15 to 20)
#    0.000    1.778    6.667    1.667    0.000    5.333 
#    0.000    0.000    0.000    0.000    0.000    4.667 
#    0.000    0.000    0.000    0.000    0.000    0.000 
#
# Total GULP energy -100237.715236 kJ/mol
# GULP energy per Si atom -5568.761958 kJ/mol
# Density = 1.709907 g / cm^3
# Si number density = 17.138078 Si / 1000 Ang^3
#
#
#
# Elastic Constant Matrix: (Units=GPa)
#
#
# Indices 1 2 3 4 5 6 
#
# 1 67.0348 5.1034 34.7433 0.0000 26.4550 0.0001
# 2 5.1034 63.7661 9.4274 0.0002 -0.5312 -0.0001
# 3 34.7433 9.4274 95.8850 -0.0001 3.2799 0.0000
# 4 0.0000 0.0002 -0.0001 13.5316 0.0001 -1.5036
# 5 26.4550 -0.5312 3.2799 0.0001 22.1823 0.0000
# 6 0.0001 -0.0001 0.0000 -1.5036 0.0000 13.4847
#
#
#
# Elastic Compliance Matrix: (Units=1/GPa)
#
#
# Indices 1 2 3 4 5 6 
#
# 1 0.039359 -0.001670 -0.012554 0.000000 -0.045124 0.000000
# 2 -0.001670 0.015993 -0.001054 0.000000 0.002530 0.000000
# 3 -0.012554 -0.001054 0.014644 0.000000 0.012781 0.000000
# 4 0.000000 0.000000 0.000000 0.074828 0.000000 0.008344
# 5 -0.045124 0.002530 0.012781 0.000000 0.097068 0.000000
# 6 0.000000 0.000000 0.000000 0.008344 0.000000 0.075088
#
#
# Mechanical properties :
#
#
# Convention : Reuss Voigt Hill
#
# Bulk Modulus (GPa) = 25.35419 36.13711 30.74565
# Shear Modulus (GPa) = 13.86256 21.66717 17.76487
#
# Velocity S-wave (km/s) = 2.84716 3.55952 3.22308
# Velocity P-wave (km/s) = 5.06306 6.16646 5.64180
#
# Compressibility (1/GPa) = 0.03944122
#
# Stress axis : x y z
#
# Youngs Moduli (GPa) = 25.40685 62.52790 68.28554
#
# Poissons Ratio (x) = 0.10442 0.85725
# Poissons Ratio (y) = 0.04243 0.07196
# Poissons Ratio (z) = 0.31895 0.06590
#
# Static dielectric constant tensor:
#      x y z
#    x 1.559560 0.000000 -0.020100 
#    y 0.000000 1.643530 0.000000 
#    z -0.020100 0.000000 1.648590 
# 
# From -- ./inp_files/89383.got.cif
#   From: 2010.05.17/outbox.cif.g08.bks.cpg/sg12_45_cif.got.tgz:89383.got - 2010.06.03 13:09:07.
