data_PCOD9186263
_publ_section_title
;
Structure prediction by ZEFSAII (Michael W. Deem and Ramdas Pophale) SiO2 
 PCOD9186263
Probable space group: C 2/M
;
_chemical_formula_sum "Si O2"
_cell_formula_units_Z 56
_cell_length_a 14.456092
_cell_length_b 17.741903
_cell_length_c 14.594436
_cell_angle_alpha 90.000000
_cell_angle_beta 46.672704
_cell_angle_gamma 90.000000
_cell_volume 2722.946756
_symmetry_space_group_name_H-M "C 2/M"
_symmetry_group_IT_number 12
_symmetry_cell_setting 'monoclinic'
loop_
_space_group_symop_operation_xyz
x,y,z
-x,y,-z
-x,-y,-z
x,-y,z
1/2+x,1/2+y,z
1/2-x,1/2+y,-z
1/2-x,1/2-y,-z
1/2+x,1/2-y,z
loop_
_atom_site_type_symbol
_atom_site_label
_atom_site_fract_x
_atom_site_fract_y
_atom_site_fract_z
Si Si1 0.009440 0.684023 0.729398
Si Si2 0.704943 0.364253 0.095536
Si Si3 0.063389 0.088203 0.647599
Si Si4 0.018991 0.583564 0.085757
Si Si5 0.277993 0.695988 0.108508
Si Si6 0.369168 0.306502 0.244858
Si Si7 0.117399 0.231429 0.489662
O O1 0.015397 0.757531 0.791313
O O2 0.097791 0.708305 0.585438
O O3 0.038305 0.620221 0.783903
O O4 0.869913 0.670571 0.782743
O O5 0.587689 0.396055 0.233401
O O6 0.758672 0.284496 0.097872
O O7 0.829031 0.416252 0.007855
O O8 0.669864 0.349799 0.013420
O O9 0.129442 0.117145 0.696923
O O10 0.111371 0.148100 0.538691
O O11 0.084836 0.000000 0.614326
O O12 0.965046 0.500000 0.114671
O O13 0.000000 0.623199 0.000000
O O14 0.359216 0.683850 0.143858
O O15 0.246569 0.254694 0.352606
O O16 0.000000 0.237432 0.500000
#
# Coordination Sequence:
#
# PCOD9186263 Si02
#       7
#     8   8   8   8   8   8   8
#     4  10  19  36  56  87 111 152 196 243 294 347
#     4  10  19  36  57  89 119 154 195 253 294 358
#     4  11  23  39  58  89 125 157 196 248 315 369
#     4  10  21  35  55  85 122 160 193 239 301 360
#     4  10  19  34  60  88 114 150 207 239 293 352
#     4  11  21  39  61  86 117 157 201 256 293 354
#     4  11  21  40  66  88 115 155 207 261 302 347
#
# _framework density 20.565956
#
# number of rings (size 3 to 8) (size 9 to 14) (size 15 to 20)
#    0.000    1.571    4.286    3.000    0.000    0.857 
#    0.000    7.143    0.000    0.857    0.000    0.000 
#    0.000    0.000    0.000    0.000    0.000    0.000 
#
# Total GULP energy -156152.761288 kJ/mol
# GULP energy per Si atom -5576.884332 kJ/mol
# Density = 2.051915 g / cm^3
# Si number density = 20.565956 Si / 1000 Ang^3
#
#
#
# Elastic Constant Matrix: (Units=GPa)
#
#
# Indices 1 2 3 4 5 6 
#
# 1 104.6145 6.7543 23.4295 0.0000 25.6949 0.0000
# 2 6.7543 84.1810 25.4388 0.0000 8.6995 0.0000
# 3 23.4295 25.4388 67.1385 0.0000 3.6985 0.0000
# 4 0.0000 0.0000 0.0000 13.6496 0.0000 0.1929
# 5 25.6949 8.6995 3.6985 0.0000 42.1461 0.0000
# 6 0.0000 0.0000 0.0000 0.1929 0.0000 6.3325
#
#
#
# Elastic Compliance Matrix: (Units=1/GPa)
#
#
# Indices 1 2 3 4 5 6 
#
# 1 0.012242 0.001064 -0.004273 0.000000 -0.007308 0.000000
# 2 0.001064 0.013740 -0.005412 0.000000 -0.003010 0.000000
# 3 -0.004273 -0.005412 0.018320 0.000000 0.002114 0.000000
# 4 0.000000 0.000000 0.000000 0.073294 0.000000 -0.002233
# 5 -0.007308 -0.003010 0.002114 0.000000 0.028618 0.000000
# 6 0.000000 0.000000 0.000000 -0.002233 0.000000 0.157984
#
#
# Mechanical properties :
#
#
# Convention : Reuss Voigt Hill
#
# Bulk Modulus (GPa) = 36.95298 40.79769 38.87534
# Shear Modulus (GPa) = 15.13043 25.77973 20.45508
#
# Velocity S-wave (km/s) = 2.71533 3.54434 3.15716
# Velocity P-wave (km/s) = 5.27615 6.05230 5.67750
#
# Compressibility (1/GPa) = 0.02706141
#
# Stress axis : x y z
#
# Youngs Moduli (GPa) = 81.68489 72.77906 54.58608
#
# Poissons Ratio (x) = -0.07745 0.23324
# Poissons Ratio (y) = -0.08693 0.29540
# Poissons Ratio (z) = 0.34902 0.39386
#
# Static dielectric constant tensor:
#      x y z
#    x 1.788760 0.000000 -0.027180 
#    y 0.000000 1.750490 0.000000 
#    z -0.027180 0.000000 1.786840 
# 
# From -- ./inp_files/216298.got.cif
#   From: 2010.05.17/outbox.cif.g08.bks.cpg/sg12_109_cif.got.tgz:216298.got - 2010.06.03 13:09:07.
