data_PCOD9186191
_publ_section_title
;
Structure prediction by ZEFSAII (Michael W. Deem and Ramdas Pophale) SiO2 
 PCOD9186191
Probable space group: C 2/M
;
_chemical_formula_sum "Si O2"
_cell_formula_units_Z 40
_cell_length_a 32.360635
_cell_length_b 7.394628
_cell_length_c 23.923996
_cell_angle_alpha 90.000000
_cell_angle_beta 162.970158
_cell_angle_gamma 90.000000
_cell_volume 1676.646862
_symmetry_space_group_name_H-M "C 2/M"
_symmetry_group_IT_number 12
_symmetry_cell_setting 'monoclinic'
loop_
_space_group_symop_operation_xyz
x,y,z
-x,y,-z
-x,-y,-z
x,-y,z
1/2+x,1/2+y,z
1/2-x,1/2+y,-z
1/2-x,1/2-y,-z
1/2+x,1/2-y,z
loop_
_atom_site_type_symbol
_atom_site_label
_atom_site_fract_x
_atom_site_fract_y
_atom_site_fract_z
Si Si1 0.158419 0.714619 0.935613
Si Si2 0.641236 0.000000 0.600661
Si Si3 0.682591 0.000000 0.788235
Si Si4 0.363911 0.207224 0.860273
Si Si5 0.932395 0.219230 0.783136
Si Si6 0.861619 0.706451 0.563784
O O1 0.151840 0.500000 0.938957
O O2 0.228499 0.827475 0.075988
O O3 0.250000 0.750000 0.000000
O O4 0.001224 0.784991 0.717823
O O5 0.667378 0.000000 0.701788
O O6 0.470651 0.000000 0.378527
O O7 0.724574 0.170084 0.681366
O O8 0.428826 0.215891 0.006764
O O9 0.335273 0.000000 0.808477
O O10 0.500000 0.275240 0.000000
O O11 0.905215 0.288247 0.685847
O O12 0.794872 0.283268 0.640442
O O13 0.932508 0.000000 0.781318
O O14 0.848966 0.500000 0.528833
#
# Coordination Sequence:
#
# PCOD9186191 Si02
#       6
#     8   4   4   8   8   8
#     4  11  23  42  64  92 131 170 215 274 329 387
#     4  11  25  46  68  94 133 181 228 274 323 390
#     4  11  26  44  68  98 128 179 235 272 326 388
#     4  11  24  42  65  95 130 168 217 268 331 393
#     4  10  19  34  59  90 123 159 199 251 312 386
#     4   9  20  35  56  89 124 159 199 249 317 378
#
# _framework density 23.857140999999999
#
# number of rings (size 3 to 8) (size 9 to 14) (size 15 to 20)
#    0.000    1.600    2.000    2.100    1.400    5.600 
#    0.000    4.000    0.000    0.000    0.000    0.000 
#    0.000    0.000    0.000    0.000    0.000    0.000 
#
# Total GULP energy -111869.573947 kJ/mol
# GULP energy per Si atom -5593.478697 kJ/mol
# Density = 2.380284 g / cm^3
# Si number density = 23.857141 Si / 1000 Ang^3
#
#
#
# Elastic Constant Matrix: (Units=GPa)
#
#
# Indices 1 2 3 4 5 6 
#
# 1 73.7280 16.8704 20.5728 0.0000 14.6194 0.0000
# 2 16.8704 151.2412 37.6807 0.0000 5.0893 0.0000
# 3 20.5728 37.6807 126.9017 -0.0001 21.3852 0.0000
# 4 0.0000 0.0000 -0.0001 17.6836 0.0000 -0.3670
# 5 14.6194 5.0893 21.3852 0.0000 60.2648 0.0000
# 6 0.0000 0.0000 0.0000 -0.3670 0.0000 26.6464
#
#
#
# Elastic Compliance Matrix: (Units=1/GPa)
#
#
# Indices 1 2 3 4 5 6 
#
# 1 0.014852 -0.001168 -0.001564 0.000000 -0.002949 0.000000
# 2 -0.001168 0.007233 -0.002024 0.000000 0.000391 0.000000
# 3 -0.001564 -0.002024 0.009192 0.000000 -0.002711 0.000000
# 4 0.000000 0.000000 0.000000 0.056566 0.000000 0.000779
# 5 -0.002949 0.000391 -0.002711 0.000000 0.018238 0.000000
# 6 0.000000 0.000000 0.000000 0.000779 0.000000 0.037539
#
#
# Mechanical properties :
#
#
# Convention : Reuss Voigt Hill
#
# Bulk Modulus (GPa) = 45.94598 55.79097 50.86848
# Shear Modulus (GPa) = 31.17465 39.36879 35.27172
#
# Velocity S-wave (km/s) = 3.61878 4.06666 3.84924
# Velocity P-wave (km/s) = 6.06312 6.74437 6.41280
#
# Compressibility (1/GPa) = 0.02176469
#
# Stress axis : x y z
#
# Youngs Moduli (GPa) = 67.33202 138.24726 108.79438
#
# Poissons Ratio (x) = 0.16144 0.17015
# Poissons Ratio (y) = 0.07863 0.22024
# Poissons Ratio (z) = 0.10530 0.27986
#
# Static dielectric constant tensor:
#      x y z
#    x 1.972750 0.000000 0.003140 
#    y 0.000000 1.843930 0.000000 
#    z 0.003140 0.000000 1.928890 
# 
# From -- ./inp_files/353141.got.cif
#   From: 2010.05.17/outbox.cif.g08.bks.cpg/sg12_177_cif.got.tgz:353141.got - 2010.06.03 13:09:07.
