data_PCOD9186197
_publ_section_title
;
Structure prediction by ZEFSAII (Michael W. Deem and Ramdas Pophale) SiO2 
 PCOD9186197
Probable space group: C 2/M
;
_chemical_formula_sum "Si O2"
_cell_formula_units_Z 48
_cell_length_a 13.064939
_cell_length_b 21.067865
_cell_length_c 8.611618
_cell_angle_alpha 90.000000
_cell_angle_beta 67.470073
_cell_angle_gamma 90.000000
_cell_volume 2189.444724
_symmetry_space_group_name_H-M "C 2/M"
_symmetry_group_IT_number 12
_symmetry_cell_setting 'monoclinic'
loop_
_space_group_symop_operation_xyz
x,y,z
-x,y,-z
-x,-y,-z
x,-y,z
1/2+x,1/2+y,z
1/2-x,1/2+y,-z
1/2-x,1/2-y,-z
1/2+x,1/2-y,z
loop_
_atom_site_type_symbol
_atom_site_label
_atom_site_fract_x
_atom_site_fract_y
_atom_site_fract_z
Si Si1 0.210628 0.070910 0.367317
Si Si2 0.352708 0.664056 0.851528
Si Si3 0.971460 0.732176 0.198057
Si Si4 0.404158 0.879740 0.453212
Si Si5 0.441653 0.573020 0.254345
Si Si6 0.278961 0.673332 0.227352
O O1 0.211951 0.131175 0.251746
O O2 0.318013 0.075519 0.414698
O O3 0.104756 0.077647 0.542372
O O4 0.205471 0.000000 0.298006
O O5 0.431954 0.724868 0.779618
O O6 0.444845 0.610240 0.834313
O O7 0.275879 0.680008 0.043497
O O8 0.956369 0.667259 0.296443
O O9 0.856976 0.772701 0.258036
O O10 0.000000 0.723955 0.000000
O O11 0.500000 0.911246 0.500000
O O12 0.332138 0.836246 0.612832
O O13 0.452447 0.500000 0.208638
O O14 0.348221 0.608606 0.211344
#
# Coordination Sequence:
#
# PCOD9186197 Si02
#       6
#     8   8   8   8   8   8
#     4  10  22  39  60  87 119 157 198 240 288 343
#     4  10  19  34  59  91 121 147 185 240 301 355
#     4   9  20  38  61  90 121 150 186 238 299 357
#     4  11  24  40  59  80 113 161 206 243 283 336
#     4   9  17  31  54  86 121 153 187 233 292 354
#     4   9  20  36  55  86 122 154 188 234 292 353
#
# _framework density 21.923366000000001
#
# number of rings (size 3 to 8) (size 9 to 14) (size 15 to 20)
#    0.000    2.333    0.000    3.000    0.000   10.333 
#    0.000    3.333    0.000    3.500    0.000    0.000 
#    0.000    0.000    0.000    0.000    0.000    0.000 
#
# Total GULP energy -134088.043103 kJ/mol
# GULP energy per Si atom -5587.001796 kJ/mol
# Density = 2.187347 g / cm^3
# Si number density = 21.923366 Si / 1000 Ang^3
#
#
#
# Elastic Constant Matrix: (Units=GPa)
#
#
# Indices 1 2 3 4 5 6 
#
# 1 78.0882 6.7782 32.0711 0.0000 11.7248 0.0000
# 2 6.7782 82.7985 12.0251 0.0000 11.3363 0.0000
# 3 32.0711 12.0251 30.2075 0.0000 16.7904 0.0000
# 4 0.0000 0.0000 0.0000 45.2204 0.0000 36.6796
# 5 11.7248 11.3363 16.7904 0.0000 17.9238 0.0000
# 6 0.0000 0.0000 0.0000 36.6796 0.0000 52.8844
#
#
#
# Elastic Compliance Matrix: (Units=1/GPa)
#
#
# Indices 1 2 3 4 5 6 
#
# 1 0.025246 0.000898 -0.036857 0.000000 0.017444 0.000000
# 2 0.000898 0.013278 -0.002597 0.000000 -0.006553 0.000000
# 3 -0.036857 -0.002597 0.122999 0.000000 -0.089469 0.000000
# 4 0.000000 0.000000 0.000000 0.050556 0.000000 -0.035064
# 5 0.017444 -0.006553 -0.089469 0.000000 0.132337 0.000000
# 6 0.000000 0.000000 0.000000 -0.035064 0.000000 0.043229
#
#
# Mechanical properties :
#
#
# Convention : Reuss Voigt Hill
#
# Bulk Modulus (GPa) = 11.84673 32.53811 22.19242
# Shear Modulus (GPa) = 10.14417 32.55371 21.34894
#
# Velocity S-wave (km/s) = 2.15340 3.85760 3.12396
# Velocity P-wave (km/s) = 3.40563 5.89198 4.81216
#
# Compressibility (1/GPa) = 0.08441150
#
# Stress axis : x y z
#
# Youngs Moduli (GPa) = 39.60980 75.31058 8.13017
#
# Poissons Ratio (x) = -0.06761 0.29965
# Poissons Ratio (y) = -0.03556 0.02111
# Poissons Ratio (z) = 1.45990 0.19555
#
# Static dielectric constant tensor:
#      x y z
#    x 1.849550 0.000000 0.044950 
#    y 0.000000 1.768560 0.000000 
#    z 0.044950 0.000000 1.818290 
# 
# From -- ./inp_files/63324.got.cif
#   From: 2010.05.17/outbox.cif.g08.bks.cpg/sg12_32_cif.got.tgz:63324.got - 2010.06.03 13:09:07.
