data_PCOD9186431
_publ_section_title
;
Structure prediction by ZEFSAII (Michael W. Deem and Ramdas Pophale) SiO2 
 PCOD9186431
Probable space group: C 2/M
;
_chemical_formula_sum "Si O2"
_cell_formula_units_Z 36
_cell_length_a 16.576347
_cell_length_b 17.025010
_cell_length_c 5.920473
_cell_angle_alpha 90.000000
_cell_angle_beta 74.269805
_cell_angle_gamma 90.000000
_cell_volume 1608.257035
_symmetry_space_group_name_H-M "C 2/M"
_symmetry_group_IT_number 12
_symmetry_cell_setting 'monoclinic'
loop_
_space_group_symop_operation_xyz
x,y,z
-x,y,-z
-x,-y,-z
x,-y,z
1/2+x,1/2+y,z
1/2-x,1/2+y,-z
1/2-x,1/2-y,-z
1/2+x,1/2-y,z
loop_
_atom_site_type_symbol
_atom_site_label
_atom_site_fract_x
_atom_site_fract_y
_atom_site_fract_z
Si Si1 0.056529 0.913256 0.762798
Si Si2 0.715124 0.583514 0.958536
Si Si3 0.167237 0.361539 0.484789
Si Si4 0.952112 0.500000 0.284401
Si Si5 0.661574 0.313934 0.380888
O O1 0.144652 0.923682 0.822729
O O2 0.084637 0.867038 0.522090
O O3 0.020200 0.000000 0.743878
O O4 0.000000 0.873863 0.000000
O O5 0.715373 0.500000 0.090176
O O6 0.802546 0.595993 0.767366
O O7 0.687350 0.660441 0.112626
O O8 0.106164 0.421255 0.659614
O O9 0.252538 0.338797 0.554655
O O10 0.135084 0.275274 0.442929
O O11 0.000000 0.500000 0.500000
O O12 0.000000 0.500000 0.000000
#
# Coordination Sequence:
#
# PCOD9186431 Si02
#       5
#     8   8   8   4   8
#     4   9  19  35  52  86 128 158 205 263 344 425
#     4  10  19  34  63  89 119 167 216 276 347 405
#     4  10  23  42  62  93 128 166 237 286 338 416
#     4  12  30  52  74 104 143 200 237 290 360 424
#     4  10  21  37  65  94 119 174 219 292 346 395
#
# _framework density 22.384484
#
# number of rings (size 3 to 8) (size 9 to 14) (size 15 to 20)
#    0.000    2.000    1.111    1.333    6.222    1.778 
#    4.000    3.333    0.000    0.000    0.000    0.000 
#    0.000    0.000    0.000    0.000    0.000    0.000 
#
# Total GULP energy -100242.674812 kJ/mol
# GULP energy per Si atom -5569.037490 kJ/mol
# Density = 2.233354 g / cm^3
# Si number density = 22.384484 Si / 1000 Ang^3
#
#
#
# Elastic Constant Matrix: (Units=GPa)
#
#
# Indices 1 2 3 4 5 6 
#
# 1 44.7527 37.3596 26.9643 0.0000 -13.5717 0.0000
# 2 37.3596 145.8277 47.7061 0.0000 -22.4953 0.0000
# 3 26.9643 47.7061 118.7281 0.0000 -41.1357 0.0000
# 4 0.0000 0.0000 0.0000 -6.2116 0.0000 6.6966
# 5 -13.5717 -22.4953 -41.1357 0.0000 42.1488 0.0000
# 6 0.0000 0.0000 0.0000 6.6966 0.0000 5.7441
#
#
#
# Elastic Compliance Matrix: (Units=1/GPa)
#
#
# Indices 1 2 3 4 5 6 
#
# 1 0.030532 -0.006239 -0.003286 0.000000 0.003295 0.000000
# 2 -0.006239 0.009250 -0.001942 0.000000 0.001033 0.000000
# 3 -0.003286 -0.001942 0.013936 0.000000 0.011506 0.000000
# 4 0.000000 0.000000 0.000000 -0.071333 0.000000 0.083162
# 5 0.003295 0.001033 0.011506 0.000000 0.036567 0.000000
# 6 0.000000 0.000000 0.000000 0.083162 0.000000 0.077139
#
#
# Mechanical properties :
#
#
# Convention : Reuss Voigt Hill
#
# Bulk Modulus (GPa) = 32.48385 59.26315 45.87350
# Shear Modulus (GPa) = 38.67375 21.48815 30.08095
#
# Velocity S-wave (km/s) = 4.16107 3.10168 3.66981
# Velocity P-wave (km/s) = 6.13427 6.27374 6.20440
#
# Compressibility (1/GPa) = 0.03078453
#
# Stress axis : x y z
#
# Youngs Moduli (GPa) = 32.75234 108.10317 71.75751
#
# Poissons Ratio (x) = 0.67444 0.23578
# Poissons Ratio (y) = 0.20434 0.13937
# Poissons Ratio (z) = 0.10762 0.20996
#
# Static dielectric constant tensor:
#      x y z
#    x 1.863950 0.000000 0.051410 
#    y 0.000000 1.867840 0.000000 
#    z 0.051410 0.000000 1.882110 
# 
# From -- ./inp_files/15061.got.cif
#   From: 2010.05.17/outbox.cif.g08.bks.cpg/sg12_8_cif.got.tgz:15061.got - 2010.06.03 13:09:07.
