data_PCOD9186238
_publ_section_title
;
Structure prediction by ZEFSAII (Michael W. Deem and Ramdas Pophale) SiO2 
 PCOD9186238
Probable space group: C 2/M
;
_chemical_formula_sum "Si O2"
_cell_formula_units_Z 44
_cell_length_a 21.681299
_cell_length_b 14.589810
_cell_length_c 16.621128
_cell_angle_alpha 90.000000
_cell_angle_beta 160.457689
_cell_angle_gamma 90.000000
_cell_volume 1758.714266
_symmetry_space_group_name_H-M "C 2/M"
_symmetry_group_IT_number 12
_symmetry_cell_setting 'monoclinic'
loop_
_space_group_symop_operation_xyz
x,y,z
-x,y,-z
-x,-y,-z
x,-y,z
1/2+x,1/2+y,z
1/2-x,1/2+y,-z
1/2-x,1/2-y,-z
1/2+x,1/2-y,z
loop_
_atom_site_type_symbol
_atom_site_label
_atom_site_fract_x
_atom_site_fract_y
_atom_site_fract_z
Si Si1 0.606659 0.899117 0.717100
Si Si2 0.731134 0.500000 0.654447
Si Si3 0.734769 0.798189 0.110785
Si Si4 0.743197 0.000000 0.477868
Si Si5 0.724245 0.000000 0.104086
Si Si6 0.877486 0.660266 0.584154
Si Si7 0.696835 0.797260 0.247989
O O1 0.500000 0.894269 0.500000
O O2 0.705458 0.800118 0.849406
O O3 0.474309 0.897782 0.632025
O O4 0.701263 0.000000 0.833087
O O5 0.627624 0.500000 0.441991
O O6 0.699028 0.500000 0.709986
O O7 0.828757 0.402823 0.761868
O O8 0.794898 0.901866 0.155883
O O9 0.780708 0.794176 0.261962
O O10 0.518358 0.807259 0.826006
O O11 0.772141 0.093149 0.561806
O O12 0.506328 0.000000 0.176836
O O13 0.811219 0.748803 0.456106
O O14 0.500000 0.749580 0.000000
#
# Coordination Sequence:
#
# PCOD9186238 Si02
#       7
#     8   4   8   4   4   8   8
#     4  11  22  41  66  85 122 170 208 248 304 366
#     4  10  19  36  59  85 118 159 197 245 306 363
#     4  10  21  39  64  92 120 162 205 254 307 360
#     4  10  19  34  60  85 117 163 202 237 302 366
#     4   8  17  34  60  89 120 152 198 250 308 360
#     4  11  22  39  62  90 122 159 208 253 298 365
#     4  11  22  39  62  90 125 160 202 251 306 364
#
# _framework density 25.018277000000001
#
# number of rings (size 3 to 8) (size 9 to 14) (size 15 to 20)
#    0.000    1.636    2.727    4.364    0.000    2.909 
#    1.636    1.818    0.000    0.000    0.000    0.000 
#    0.000    0.000    0.000    0.000    0.000    0.000 
#
# Total GULP energy -122549.797976 kJ/mol
# GULP energy per Si atom -5570.445363 kJ/mol
# Density = 2.496133 g / cm^3
# Si number density = 25.018277 Si / 1000 Ang^3
#
#
#
# Elastic Constant Matrix: (Units=GPa)
#
#
# Indices 1 2 3 4 5 6 
#
# 1 67.9922 23.1320 1.1617 -0.0156 -17.6219 -0.0021
# 2 23.1320 241.7815 40.4888 -0.0218 -2.8849 -0.0039
# 3 1.1617 40.4888 34.9189 -0.0174 -18.4107 0.0017
# 4 -0.0156 -0.0218 -0.0174 -28.2824 -0.0107 -11.6504
# 5 -17.6219 -2.8849 -18.4107 -0.0107 26.8283 0.0007
# 6 -0.0021 -0.0039 0.0017 -11.6504 0.0007 -2.2485
#
#
#
# Elastic Compliance Matrix: (Units=1/GPa)
#
#
# Indices 1 2 3 4 5 6 
#
# 1 0.023895 -0.005481 0.021193 0.000034 0.029649 -0.000163
# 2 -0.005481 0.006974 -0.014740 -0.000018 -0.012966 0.000073
# 3 0.021193 -0.014740 0.080741 0.000099 0.067743 -0.000423
# 4 0.000034 -0.000018 0.000099 0.031168 0.000105 -0.161496
# 5 0.029649 -0.012966 0.067743 0.000105 0.101843 -0.000465
# 6 -0.000163 0.000073 -0.000423 -0.161496 -0.000465 0.392047
#
#
# Mechanical properties :
#
#
# Convention : Reuss Voigt Hill
#
# Bulk Modulus (GPa) = 8.80650 52.69529 30.75089
# Shear Modulus (GPa) = 7.43411 17.92016 12.67713
#
# Velocity S-wave (km/s) = 1.72567 2.67925 2.25347
# Velocity P-wave (km/s) = 2.73829 5.53892 4.36909
#
# Compressibility (1/GPa) = 0.11355252
#
# Stress axis : x y z
#
# Youngs Moduli (GPa) = 41.85057 143.38821 12.38523
#
# Poissons Ratio (x) = 0.78595 -0.26248
# Poissons Ratio (y) = 0.22939 0.18256
# Poissons Ratio (z) = -0.88693 2.11358
#
# Static dielectric constant tensor:
#      x y z
#    x 2.056340 0.000000 0.041370 
#    y 0.000000 1.993890 0.000000 
#    z 0.041370 0.000000 2.048650 
# 
# From -- ./inp_files/290202.got.cif
#   From: 2010.05.17/outbox.cif.g08.bks.cpg/sg12_146_cif.got.tgz:290202.got - 2010.06.03 13:09:07.
