data_PCOD9186459
_publ_section_title
;
Structure prediction by ZEFSAII (Michael W. Deem and Ramdas Pophale) SiO2 
 PCOD9186459
Probable space group: C 2/M
;
_chemical_formula_sum "Si O2"
_cell_formula_units_Z 44
_cell_length_a 16.828301
_cell_length_b 21.393719
_cell_length_c 13.457540
_cell_angle_alpha 90.000000
_cell_angle_beta 150.545199
_cell_angle_gamma 90.000000
_cell_volume 2382.456369
_symmetry_space_group_name_H-M "C 2/M"
_symmetry_group_IT_number 12
_symmetry_cell_setting 'monoclinic'
loop_
_space_group_symop_operation_xyz
x,y,z
-x,y,-z
-x,-y,-z
x,-y,z
1/2+x,1/2+y,z
1/2-x,1/2+y,-z
1/2-x,1/2-y,-z
1/2+x,1/2-y,z
loop_
_atom_site_type_symbol
_atom_site_label
_atom_site_fract_x
_atom_site_fract_y
_atom_site_fract_z
Si Si1 0.000000 0.800413 0.000000
Si Si2 0.301733 0.804720 0.668736
Si Si3 0.119953 0.928924 0.784850
Si Si4 0.297756 0.327509 0.958775
Si Si5 0.506778 0.231164 0.304508
Si Si6 0.243212 0.070800 0.698804
O O1 0.885494 0.752988 0.815108
O O2 0.886650 0.839360 0.951304
O O3 0.365131 0.806018 0.624289
O O4 0.112588 0.786015 0.468825
O O5 0.337800 0.871099 0.756588
O O6 0.214384 0.917580 0.784326
O O7 0.931688 0.927270 0.546905
O O8 0.154612 0.000000 0.854695
O O9 0.167909 0.880722 0.922515
O O10 0.107959 0.309966 0.750618
O O11 0.387358 0.265220 0.097058
O O12 0.306431 0.000000 0.754453
#
# Coordination Sequence:
#
# PCOD9186459 Si02
#       6
#     4   8   8   8   8   8
#     4  10  24  32  54  78 108 130 188 216 262 302
#     4  10  19  35  49  80 108 141 171 219 249 325
#     4   9  18  32  53  78 106 137 176 213 254 316
#     4  10  19  36  50  80 101 139 174 220 257 313
#     4   9  20  32  54  73 109 140 172 209 274 298
#     4   9  18  31  52  79 106 142 173 205 257 318
#
# _framework density 18.468333999999999
#
# number of rings (size 3 to 8) (size 9 to 14) (size 15 to 20)
#    0.000    2.545    1.818    1.091    7.636    0.727 
#    0.000    1.818    0.000    0.000    0.000    1.273 
#    0.000    0.000    0.000    0.000    0.000    0.000 
#
# Total GULP energy -122536.189094 kJ/mol
# GULP energy per Si atom -5569.826777 kJ/mol
# Density = 1.842630 g / cm^3
# Si number density = 18.468334 Si / 1000 Ang^3
#
#
#
# Elastic Constant Matrix: (Units=GPa)
#
#
# Indices 1 2 3 4 5 6 
#
# 1 102.4238 66.8699 30.6994 0.0000 4.7236 0.0000
# 2 66.8699 101.7663 8.6881 0.0000 -1.3446 0.0000
# 3 30.6994 8.6881 52.1694 0.0000 11.8487 0.0000
# 4 0.0000 0.0000 0.0000 13.1631 0.0000 -7.1185
# 5 4.7236 -1.3446 11.8487 0.0000 16.8160 0.0000
# 6 0.0000 0.0000 0.0000 -7.1185 0.0000 17.5386
#
#
#
# Elastic Compliance Matrix: (Units=1/GPa)
#
#
# Indices 1 2 3 4 5 6 
#
# 1 0.021581 -0.013275 -0.010561 0.000000 0.000318 0.000000
# 2 -0.013275 0.018212 0.004287 0.000000 0.002164 0.000000
# 3 -0.010561 0.004287 0.028474 0.000000 -0.016754 0.000000
# 4 0.000000 0.000000 0.000000 0.097334 0.000000 0.039506
# 5 0.000318 0.002164 -0.016754 0.000000 0.071356 0.000000
# 6 0.000000 0.000000 0.000000 0.039506 0.000000 0.073052
#
#
# Mechanical properties :
#
#
# Convention : Reuss Voigt Hill
#
# Bulk Modulus (GPa) = 34.28203 52.09713 43.18958
# Shear Modulus (GPa) = 13.93422 19.51034 16.72228
#
# Velocity S-wave (km/s) = 2.74978 3.25379 3.01235
# Velocity P-wave (km/s) = 5.35580 6.51048 5.96116
#
# Compressibility (1/GPa) = 0.02916980
#
# Stress axis : x y z
#
# Youngs Moduli (GPa) = 46.33720 54.90929 35.11967
#
# Poissons Ratio (x) = 0.72891 0.37089
# Poissons Ratio (y) = 0.61512 -0.15056
# Poissons Ratio (z) = 0.48936 -0.23541
#
# Static dielectric constant tensor:
#      x y z
#    x 1.690660 0.000000 0.042910 
#    y 0.000000 1.629360 0.000000 
#    z 0.042910 0.000000 1.715030 
# 
# From -- ./inp_files/76675.got.cif
#   From: 2010.05.17/outbox.cif.g08.bks.cpg/sg12_39_cif.got.tgz:76675.got - 2010.06.03 13:09:07.
