data_PCOD9186030
_publ_section_title
;
Structure prediction by ZEFSAII (Michael W. Deem and Ramdas Pophale) SiO2 
 PCOD9186030
Probable space group: C 2/M
;
_chemical_formula_sum "Si O2"
_cell_formula_units_Z 58
_cell_length_a 17.661192
_cell_length_b 14.600083
_cell_length_c 11.992167
_cell_angle_alpha 90.000000
_cell_angle_beta 100.557193
_cell_angle_gamma 90.000000
_cell_volume 3039.894810
_symmetry_space_group_name_H-M "C 2/M"
_symmetry_group_IT_number 12
_symmetry_cell_setting 'monoclinic'
loop_
_space_group_symop_operation_xyz
x,y,z
-x,y,-z
-x,-y,-z
x,-y,z
1/2+x,1/2+y,z
1/2-x,1/2+y,-z
1/2-x,1/2-y,-z
1/2+x,1/2-y,z
loop_
_atom_site_type_symbol
_atom_site_label
_atom_site_fract_x
_atom_site_fract_y
_atom_site_fract_z
Si Si1 0.088980 0.146459 0.547458
Si Si2 0.580165 0.729596 0.960769
Si Si3 0.868039 0.604955 0.163229
Si Si4 0.216806 0.832221 0.414897
Si Si5 0.659478 0.395571 0.803501
Si Si6 0.500000 0.000000 0.500000
Si Si7 0.779005 0.768643 0.830112
Si Si8 0.116015 0.363843 0.579591
O O1 0.146377 0.122544 0.461135
O O2 0.120600 0.105952 0.671066
O O3 0.099188 0.256490 0.564841
O O4 0.000000 0.124639 0.500000
O O5 0.581725 0.828266 0.900007
O O6 0.601571 0.653004 0.874737
O O7 0.500000 0.712594 0.000000
O O8 0.650140 0.730597 0.067465
O O9 0.861988 0.500000 0.124225
O O10 0.785032 0.655848 0.150659
O O11 0.901541 0.606157 0.298156
O O12 0.250000 0.750000 0.500000
O O13 0.194904 0.792457 0.288225
O O14 0.294796 0.888211 0.415486
O O15 0.677805 0.500000 0.839693
O O16 0.733311 0.327875 0.819119
O O17 0.562389 0.920320 0.484903
#
# Coordination Sequence:
#
# PCOD9186030 Si02
#       8
#     8   8   8   8   8   2   8   8
#     4  11  21  38  66  88 125 174 205 257 316 370
#     4  11  25  41  64  91 124 161 209 261 317 372
#     4  10  19  38  63  87 123 159 202 251 310 375
#     4   9  18  38  61  89 124 165 209 244 309 378
#     4  11  23  43  65  89 123 164 216 262 309 369
#     4  12  20  32  60 104 126 164 206 248 322 374
#     4  10  21  40  66  92 118 168 208 252 314 373
#     4  10  19  34  58  92 128 164 202 251 306 380
#
# _framework density 19.079606999999999
#
# number of rings (size 3 to 8) (size 9 to 14) (size 15 to 20)
#    0.000    1.655    6.897    1.655    1.931    3.034 
#    1.241    0.000    0.000    0.000    0.000    0.000 
#    0.000    0.000    0.000    0.000    0.000    0.000 
#
# Total GULP energy -161517.171815 kJ/mol
# GULP energy per Si atom -5569.557649 kJ/mol
# Density = 1.903618 g / cm^3
# Si number density = 19.079607 Si / 1000 Ang^3
#
#
#
# Elastic Constant Matrix: (Units=GPa)
#
#
# Indices 1 2 3 4 5 6 
#
# 1 118.0392 21.4055 49.3748 0.0000 -14.7094 0.0000
# 2 21.4055 122.3379 22.9403 0.0000 -4.4352 0.0000
# 3 49.3748 22.9403 86.2618 0.0000 -25.7424 0.0000
# 4 0.0000 0.0000 0.0000 -7.1615 0.0000 0.9966
# 5 -14.7094 -4.4352 -25.7424 0.0000 28.1413 0.0000
# 6 0.0000 0.0000 0.0000 0.9966 0.0000 -3.1582
#
#
#
# Elastic Compliance Matrix: (Units=1/GPa)
#
#
# Indices 1 2 3 4 5 6 
#
# 1 0.011212 -0.000800 -0.006181 0.000000 0.000080 0.000000
# 2 -0.000800 0.008681 -0.002156 0.000000 -0.001022 0.000000
# 3 -0.006181 -0.002156 0.020135 0.000000 0.014848 0.000000
# 4 0.000000 0.000000 0.000000 -0.146050 0.000000 -0.046088
# 5 0.000080 -0.001022 0.014848 0.000000 0.048998 0.000000
# 6 0.000000 0.000000 0.000000 -0.046088 0.000000 -0.331180
#
#
# Mechanical properties :
#
#
# Convention : Reuss Voigt Hill
#
# Bulk Modulus (GPa) = 45.96660 57.12001 51.54331
# Shear Modulus (GPa) = -13.78632 19.09221 2.65294
#
# Velocity S-wave (km/s) = -2.69098 3.16675 1.18046
# Velocity P-wave (km/s) = 3.80646 6.58588 5.37880
#
# Compressibility (1/GPa) = 0.02175492
#
# Stress axis : x y z
#
# Youngs Moduli (GPa) = 89.18780 115.19101 49.66539
#
# Poissons Ratio (x) = 0.09214 0.30698
# Poissons Ratio (y) = 0.07134 0.10707
# Poissons Ratio (z) = 0.55127 0.24833
#
# Static dielectric constant tensor:
#      x y z
#    x 1.691670 0.000000 0.010200 
#    y 0.000000 1.684340 0.000000 
#    z 0.010200 0.000000 1.698820 
# 
# From -- ./inp_files/156126.got.cif
#   From: 2010.05.17/outbox.cif.g08.bks.cpg/sg12_79_cif.got.tgz:156126.got - 2010.06.03 13:09:07.
