data_PCOD9186157
_publ_section_title
;
Structure prediction by ZEFSAII (Michael W. Deem and Ramdas Pophale) SiO2 
 PCOD9186157
Probable space group: C 2/M
;
_chemical_formula_sum "Si O2"
_cell_formula_units_Z 56
_cell_length_a 8.984502
_cell_length_b 16.905922
_cell_length_c 25.486730
_cell_angle_alpha 90.000000
_cell_angle_beta 48.484887
_cell_angle_gamma 90.000000
_cell_volume 2898.689884
_symmetry_space_group_name_H-M "C 2/M"
_symmetry_group_IT_number 12
_symmetry_cell_setting 'monoclinic'
loop_
_space_group_symop_operation_xyz
x,y,z
-x,y,-z
-x,-y,-z
x,-y,z
1/2+x,1/2+y,z
1/2-x,1/2+y,-z
1/2-x,1/2-y,-z
1/2+x,1/2-y,z
loop_
_atom_site_type_symbol
_atom_site_label
_atom_site_fract_x
_atom_site_fract_y
_atom_site_fract_z
Si Si1 0.534054 0.589462 0.429761
Si Si2 0.637487 0.216847 0.675069
Si Si3 0.065615 0.711261 0.885103
Si Si4 0.511719 0.675540 0.796843
Si Si5 0.185774 0.144542 0.928441
Si Si6 0.231879 0.690864 0.455661
Si Si7 0.686050 0.912212 0.215815
O O1 0.500000 0.601162 0.500000
O O2 0.603227 0.500000 0.405382
O O3 0.681413 0.655616 0.373056
O O4 0.328902 0.608042 0.448675
O O5 0.630691 0.282433 0.722117
O O6 0.650055 0.267373 0.619140
O O7 0.454541 0.158397 0.730826
O O8 0.280152 0.668113 0.834818
O O9 0.035857 0.763327 0.839595
O O10 0.091357 0.773462 0.926675
O O11 0.866161 0.658926 0.927492
O O12 0.615497 0.597954 0.795535
O O13 0.267863 0.102918 0.856510
O O14 0.000000 0.103446 0.000000
O O15 0.250000 0.750000 0.500000
O O16 0.000000 0.682327 0.500000
O O17 0.602074 0.000000 0.242068
#
# Coordination Sequence:
#
# PCOD9186157 Si02
#       7
#     8   8   8   8   8   8   8
#     4  11  24  41  60  88 122 152 189 244 303 351
#     4  12  20  39  68  82 114 160 204 241 285 360
#     4   9  17  34  56  87 116 146 198 251 282 341
#     4  10  19  35  61  86 113 154 200 242 289 345
#     4  10  19  34  59  88 120 156 196 244 299 353
#     4  12  23  40  64  91 116 155 202 243 291 355
#     4  11  24  39  58  89 124 156 195 246 301 353
#
# _framework density 19.319072999999999
#
# number of rings (size 3 to 8) (size 9 to 14) (size 15 to 20)
#    0.000    1.286    7.143    1.714    0.000    0.571 
#    0.000    1.429    0.000    0.857    0.000    0.000 
#    0.000    0.000    0.000    0.000    0.000    0.000 
#
# Total GULP energy -156040.414419 kJ/mol
# GULP energy per Si atom -5572.871944 kJ/mol
# Density = 1.927510 g / cm^3
# Si number density = 19.319073 Si / 1000 Ang^3
#
#
#
# Elastic Constant Matrix: (Units=GPa)
#
#
# Indices 1 2 3 4 5 6 
#
# 1 122.4540 20.1021 30.7258 0.0000 -12.1330 0.0003
# 2 20.1021 57.6872 13.9192 0.0001 0.4242 0.0001
# 3 30.7258 13.9192 93.4074 0.0000 1.0672 0.0001
# 4 0.0000 0.0001 0.0000 4.6850 -0.0001 0.4262
# 5 -12.1330 0.4242 1.0672 -0.0001 26.6303 -0.0001
# 6 0.0003 0.0001 0.0001 0.4262 -0.0001 10.7622
#
#
#
# Elastic Compliance Matrix: (Units=1/GPa)
#
#
# Indices 1 2 3 4 5 6 
#
# 1 0.009795 -0.002756 -0.002864 0.000000 0.004622 0.000000
# 2 -0.002756 0.018758 -0.001872 0.000000 -0.001480 0.000000
# 3 -0.002864 -0.001872 0.011947 0.000000 -0.001754 0.000000
# 4 0.000000 0.000000 0.000000 0.214220 0.000001 -0.008484
# 5 0.004622 -0.001480 -0.001754 0.000001 0.039751 0.000000
# 6 0.000000 0.000000 0.000000 -0.008484 0.000000 0.093254
#
#
# Mechanical properties :
#
#
# Convention : Reuss Voigt Hill
#
# Bulk Modulus (GPa) = 39.19130 44.78252 41.98691
# Shear Modulus (GPa) = 12.15911 22.33559 17.24735
#
# Velocity S-wave (km/s) = 2.51147 3.40390 2.99116
# Velocity P-wave (km/s) = 5.36100 6.21928 5.80603
#
# Compressibility (1/GPa) = 0.02551586
#
# Stress axis : x y z
#
# Youngs Moduli (GPa) = 102.08890 53.31109 83.70370
#
# Poissons Ratio (x) = 0.14694 0.23974
# Poissons Ratio (y) = 0.28138 0.15667
# Poissons Ratio (z) = 0.29240 0.09978
#
# Static dielectric constant tensor:
#      x y z
#    x 1.726630 0.000000 -0.038900 
#    y 0.000000 1.669500 0.000000 
#    z -0.038900 0.000000 1.763250 
# 
# From -- ./inp_files/333316.got.cif
#   From: 2010.05.17/outbox.cif.g08.bks.cpg/sg12_167_cif.got.tgz:333316.got - 2010.06.03 13:09:07.
