data_PCOD9186034
_publ_section_title
;
Structure prediction by ZEFSAII (Michael W. Deem and Ramdas Pophale) SiO2 
 PCOD9186034
Probable space group: C 2/M
;
_chemical_formula_sum "Si O2"
_cell_formula_units_Z 58
_cell_length_a 23.893729
_cell_length_b 22.215549
_cell_length_c 9.042481
_cell_angle_alpha 90.000000
_cell_angle_beta 144.197909
_cell_angle_gamma 90.000000
_cell_volume 2807.857138
_symmetry_space_group_name_H-M "C 2/M"
_symmetry_group_IT_number 12
_symmetry_cell_setting 'monoclinic'
loop_
_space_group_symop_operation_xyz
x,y,z
-x,y,-z
-x,-y,-z
x,-y,z
1/2+x,1/2+y,z
1/2-x,1/2+y,-z
1/2-x,1/2-y,-z
1/2+x,1/2-y,z
loop_
_atom_site_type_symbol
_atom_site_label
_atom_site_fract_x
_atom_site_fract_y
_atom_site_fract_z
Si Si1 0.013704 0.118591 0.197763
Si Si2 0.655125 0.108443 0.280802
Si Si3 0.680276 0.433387 0.144447
Si Si4 0.952475 0.234685 0.241627
Si Si5 0.268733 0.676369 0.946798
Si Si6 0.208022 0.158876 0.656137
Si Si7 0.392070 0.215901 0.602583
Si Si8 0.500000 0.000000 0.000000
O O1 0.125517 0.107851 0.460873
O O2 0.989578 0.169617 0.266591
O O3 0.000000 0.140663 0.000000
O O4 0.930331 0.070477 0.043344
O O5 0.749683 0.085949 0.572770
O O6 0.696447 0.134384 0.215445
O O7 0.619824 0.166255 0.298456
O O8 0.578328 0.054242 0.118777
O O9 0.705556 0.500000 0.151219
O O10 0.699560 0.386675 0.055168
O O11 0.000000 0.249201 0.500000
O O12 0.998559 0.275420 0.213530
O O13 0.840727 0.225457 0.028155
O O14 0.164509 0.691075 0.662373
O O15 0.279760 0.673137 0.145000
O O16 0.160489 0.219453 0.479509
#
# Coordination Sequence:
#
# PCOD9186034 Si02
#       8
#     8   8   8   8   8   8   8   2
#     4  10  19  34  58  94 128 161 197 258 332 401
#     4  11  24  45  67  89 125 177 229 273 319 371
#     4  10  21  40  64  86 124 171 212 258 326 391
#     4  10  19  35  60  90 135 164 197 256 332 402
#     4  10  21  39  64  93 134 170 207 267 331 400
#     4  11  21  40  64 104 131 156 215 275 343 394
#     4  10  22  39  65  99 130 172 213 268 339 405
#     4  12  28  52  64  84 136 188 236 276 304 374
#
# _framework density 20.656320999999998
#
# number of rings (size 3 to 8) (size 9 to 14) (size 15 to 20)
#    0.000    1.655    4.828    0.828    0.000    1.379 
#    7.448    0.690    0.000    3.310    0.000    0.000 
#    0.000    0.000    0.000    0.000    0.000    0.000 
#
# Total GULP energy -161498.684655 kJ/mol
# GULP energy per Si atom -5568.920161 kJ/mol
# Density = 2.060931 g / cm^3
# Si number density = 20.656321 Si / 1000 Ang^3
#
#
#
# Elastic Constant Matrix: (Units=GPa)
#
#
# Indices 1 2 3 4 5 6 
#
# 1 129.3498 54.1230 40.7243 0.0000 24.3282 0.0000
# 2 54.1230 107.1052 27.0571 0.0000 15.2228 0.0000
# 3 40.7243 27.0571 63.7659 0.0000 18.3878 0.0000
# 4 0.0000 0.0000 0.0000 26.7037 0.0000 14.5443
# 5 24.3282 15.2228 18.3878 0.0000 19.8092 0.0000
# 6 0.0000 0.0000 0.0000 14.5443 0.0000 17.5075
#
#
#
# Elastic Compliance Matrix: (Units=1/GPa)
#
#
# Indices 1 2 3 4 5 6 
#
# 1 0.012142 -0.004020 -0.003604 0.000000 -0.008477 0.000000
# 2 -0.004020 0.012221 -0.001821 0.000000 -0.002763 0.000000
# 3 -0.003604 -0.001821 0.023319 0.000000 -0.015820 0.000000
# 4 0.000000 0.000000 0.000000 0.068395 0.000000 -0.056819
# 5 -0.008477 -0.002763 -0.015820 0.000000 0.077701 0.000000
# 6 0.000000 0.000000 0.000000 -0.056819 0.000000 0.104320
#
#
# Mechanical properties :
#
#
# Convention : Reuss Voigt Hill
#
# Bulk Modulus (GPa) = 34.73364 60.44774 47.59069
# Shear Modulus (GPa) = 15.30988 24.69184 20.00086
#
# Velocity S-wave (km/s) = 2.72540 3.46116 3.11508
# Velocity P-wave (km/s) = 5.17255 6.73052 6.00230
#
# Compressibility (1/GPa) = 0.02879054
#
# Stress axis : x y z
#
# Youngs Moduli (GPa) = 82.35609 81.82578 42.88389
#
# Poissons Ratio (x) = 0.32898 0.15457
# Poissons Ratio (y) = 0.33111 0.07809
# Poissons Ratio (z) = 0.29684 0.14901
#
# Static dielectric constant tensor:
#      x y z
#    x 1.760040 0.000000 0.040380 
#    y 0.000000 1.732530 0.000000 
#    z 0.040380 0.000000 1.761790 
# 
# From -- ./inp_files/90821.got.cif
#   From: 2010.05.17/outbox.cif.g08.bks.cpg/sg12_46_cif.got.tgz:90821.got - 2010.06.03 13:09:07.
