data_PCOD9186846
_publ_section_title
;
Structure prediction by ZEFSAII (Michael W. Deem and Ramdas Pophale) SiO2 
 PCOD9186846
Probable space group: C 2/M
;
_chemical_formula_sum "Si O2"
_cell_formula_units_Z 64
_cell_length_a 28.672967
_cell_length_b 14.475448
_cell_length_c 8.775334
_cell_angle_alpha 90.000000
_cell_angle_beta 128.955827
_cell_angle_gamma 90.000000
_cell_volume 2832.316751
_symmetry_space_group_name_H-M "C 2/M"
_symmetry_group_IT_number 12
_symmetry_cell_setting 'monoclinic'
loop_
_space_group_symop_operation_xyz
x,y,z
-x,y,-z
-x,-y,-z
x,-y,z
1/2+x,1/2+y,z
1/2-x,1/2+y,-z
1/2-x,1/2-y,-z
1/2+x,1/2-y,z
loop_
_atom_site_type_symbol
_atom_site_label
_atom_site_fract_x
_atom_site_fract_y
_atom_site_fract_z
Si Si1 0.562129 0.106857 0.955713
Si Si2 0.127041 0.898365 0.931418
Si Si3 0.966038 0.271884 0.593619
Si Si4 0.875702 0.398176 0.243496
Si Si5 0.393815 0.605037 0.461603
Si Si6 0.153697 0.736857 0.197841
Si Si7 0.715378 0.298297 0.614767
Si Si8 0.730315 0.100838 0.784460
O O1 0.503657 0.163422 0.784594
O O2 0.602547 0.109912 0.883765
O O3 0.551077 0.000000 0.971515
O O4 0.604995 0.163591 0.157210
O O5 0.099031 0.892112 0.706974
O O6 0.111483 0.000000 0.965509
O O7 0.118140 0.806584 0.012028
O O8 0.198755 0.897424 0.052645
O O9 0.906723 0.324781 0.415515
O O10 0.943906 0.176594 0.621847
O O11 0.000000 0.259932 0.500000
O O12 0.896644 0.500000 0.336622
O O13 0.805112 0.392419 0.129021
O O14 0.401107 0.500000 0.528477
O O15 0.326917 0.640674 0.365044
O O16 0.213116 0.686121 0.251392
O O17 0.183498 0.802770 0.385322
O O18 0.711979 0.190351 0.653344
O O19 0.714432 0.000000 0.684219
#
# Coordination Sequence:
#
# PCOD9186846 Si02
#       8
#     8   8   8   8   8   8   8   8
#     4  10  21  35  57  87 116 149 193 235 283 347
#     4   9  19  34  55  85 116 148 192 240 289 341
#     4  10  19  35  56  82 120 154 188 241 300 347
#     4   9  16  28  52  84 114 147 184 231 291 343
#     4  11  23  38  60  88 114 149 199 250 292 344
#     4  10  22  38  59  85 120 161 189 235 293 351
#     4  10  22  38  57  86 121 157 194 231 292 355
#     4   9  17  30  53  82 115 149 185 232 287 346
#
# _framework density 22.596343000000001
#
# number of rings (size 3 to 8) (size 9 to 14) (size 15 to 20)
#    0.000    2.250    1.250    1.875    1.750    4.250 
#    0.000    3.750    0.000    1.500    0.000    0.000 
#    0.000    0.000    0.000    0.000    0.000    0.000 
#
# Total GULP energy -178527.828725 kJ/mol
# GULP energy per Si atom -5578.994648 kJ/mol
# Density = 2.254491 g / cm^3
# Si number density = 22.596343 Si / 1000 Ang^3
#
#
#
# Elastic Constant Matrix: (Units=GPa)
#
#
# Indices 1 2 3 4 5 6 
#
# 1 39.3130 22.3426 -1.2668 0.0000 8.8396 0.0000
# 2 22.3426 146.2335 27.7522 0.0000 18.0897 0.0000
# 3 -1.2668 27.7522 38.4611 0.0000 9.0022 0.0000
# 4 0.0000 0.0000 0.0000 22.7339 0.0000 11.1325
# 5 8.8396 18.0897 9.0022 0.0000 20.5317 0.0000
# 6 0.0000 0.0000 0.0000 11.1325 0.0000 15.7476
#
#
#
# Elastic Compliance Matrix: (Units=1/GPa)
#
#
# Indices 1 2 3 4 5 6 
#
# 1 0.031091 -0.004578 0.007261 0.000000 -0.012537 0.000000
# 2 -0.004578 0.009083 -0.005899 0.000000 -0.003446 0.000000
# 3 0.007261 -0.005899 0.033443 0.000000 -0.012593 0.000000
# 4 0.000000 0.000000 0.000000 0.067277 0.000000 -0.047560
# 5 -0.012537 -0.003446 -0.012593 0.000000 0.062660 0.000000
# 6 0.000000 0.000000 0.000000 -0.047560 0.000000 0.097124
#
#
# Mechanical properties :
#
#
# Convention : Reuss Voigt Hill
#
# Bulk Modulus (GPa) = 14.88348 35.74039 25.31194
# Shear Modulus (GPa) = 15.17432 23.48130 19.32781
#
# Velocity S-wave (km/s) = 2.59422 3.22710 2.92781
# Velocity P-wave (km/s) = 3.94642 5.45315 4.75978
#
# Compressibility (1/GPa) = 0.06718857
#
# Stress axis : x y z
#
# Youngs Moduli (GPa) = 32.16330 110.08983 29.90153
#
# Poissons Ratio (x) = 0.50395 -0.21713
# Poissons Ratio (y) = 0.14723 0.17637
# Poissons Ratio (z) = -0.23355 0.64937
#
# Static dielectric constant tensor:
#      x y z
#    x 1.878610 0.000000 -0.022110 
#    y 0.000000 1.906170 0.000000 
#    z -0.022110 0.000000 1.867000 
# 
# From -- ./inp_files/112044.got.cif
#   From: 2010.05.17/outbox.cif.g08.bks.cpg/sg12_57_cif.got.tgz:112044.got - 2010.06.03 13:09:07.
