data_PCOD9186910
_publ_section_title
;
Structure prediction by ZEFSAII (Michael W. Deem and Ramdas Pophale) SiO2 
 PCOD9186910
Probable space group: C 2/M
;
_chemical_formula_sum "Si O2"
_cell_formula_units_Z 64
_cell_length_a 21.276961
_cell_length_b 7.704528
_cell_length_c 19.375416
_cell_angle_alpha 90.000000
_cell_angle_beta 97.461985
_cell_angle_gamma 90.000000
_cell_volume 3149.293056
_symmetry_space_group_name_H-M "C 2/M"
_symmetry_group_IT_number 12
_symmetry_cell_setting 'monoclinic'
loop_
_space_group_symop_operation_xyz
x,y,z
-x,y,-z
-x,-y,-z
x,-y,z
1/2+x,1/2+y,z
1/2-x,1/2+y,-z
1/2-x,1/2-y,-z
1/2+x,1/2-y,z
loop_
_atom_site_type_symbol
_atom_site_label
_atom_site_fract_x
_atom_site_fract_y
_atom_site_fract_z
Si Si1 0.809892 0.291806 0.419774
Si Si2 0.187325 0.208780 0.033723
Si Si3 0.554629 0.705299 0.958318
Si Si4 0.296847 0.712000 0.807136
Si Si5 0.906600 0.210144 0.716810
Si Si6 0.333661 0.291689 0.574071
Si Si7 0.958489 0.704283 0.201105
Si Si8 0.339446 0.212559 0.272683
O O1 0.805861 0.500000 0.414519
O O2 0.737291 0.226091 0.417381
O O3 0.845381 0.250230 0.495902
O O4 0.840036 0.230043 0.352598
O O5 0.191984 0.271658 0.113173
O O6 0.183737 0.000000 0.036733
O O7 0.250000 0.250000 0.000000
O O8 0.124014 0.276072 0.987281
O O9 0.557661 0.500000 0.973503
O O10 0.538811 0.723597 0.875804
O O11 0.500000 0.779372 0.000000
O O12 0.297130 0.500000 0.806788
O O13 0.353100 0.767057 0.764125
O O14 0.227877 0.764874 0.769618
O O15 0.883710 0.270194 0.637966
O O16 0.975838 0.267237 0.749851
O O17 0.906757 0.000000 0.717187
O O18 0.331396 0.500000 0.579488
O O19 0.948213 0.500000 0.191585
O O20 0.898871 0.774334 0.236248
O O21 0.340878 0.000000 0.272721
#
# Coordination Sequence:
#
# PCOD9186910 Si02
#       8
#     8   8   8   8   8   8   8   8
#     4   9  16  30  53  79 105 136 174 216 259 309
#     4  10  20  33  53  79 105 133 169 216 265 311
#     4  10  21  39  59  78 102 141 188 221 256 316
#     4   9  16  31  56  78  96 130 179 217 248 303
#     4  10  19  35  57  78 103 138 179 218 258 312
#     4   9  17  30  52  81 106 133 173 220 264 304
#     4  11  23  36  54  80 110 140 173 220 273 316
#     4   9  17  32  53  78 106 140 179 213 257 318
#
# _framework density 20.322020999999999
#
# number of rings (size 3 to 8) (size 9 to 14) (size 15 to 20)
#    0.000    2.375    1.250    1.875    0.000    4.250 
#    0.000    3.750    0.000    6.000    0.000    0.000 
#    0.000    0.000    0.000    0.000    0.000    0.000 
#
# Total GULP energy -178657.861667 kJ/mol
# GULP energy per Si atom -5583.058177 kJ/mol
# Density = 2.027577 g / cm^3
# Si number density = 20.322021 Si / 1000 Ang^3
#
#
#
# Elastic Constant Matrix: (Units=GPa)
#
#
# Indices 1 2 3 4 5 6 
#
# 1 132.7582 1.3511 59.5178 0.0000 7.6249 0.0000
# 2 1.3511 29.4787 -3.1123 0.0000 -4.9025 0.0000
# 3 59.5178 -3.1123 140.7790 0.0000 12.5009 0.0000
# 4 0.0000 0.0000 0.0000 16.0429 0.0000 -2.5812
# 5 7.6249 -4.9025 12.5009 0.0000 26.7762 0.0000
# 6 0.0000 0.0000 0.0000 -2.5812 0.0000 14.8400
#
#
#
# Elastic Compliance Matrix: (Units=1/GPa)
#
#
# Indices 1 2 3 4 5 6 
#
# 1 0.009342 -0.001010 -0.003880 0.000000 -0.001034 0.000000
# 2 -0.001010 0.035103 0.000633 0.000000 0.006419 0.000000
# 3 -0.003880 0.000633 0.009023 0.000000 -0.002992 0.000000
# 4 0.000000 0.000000 0.000000 0.064127 0.000000 0.011154
# 5 -0.001034 0.006419 -0.002992 0.000000 0.040213 0.000000
# 6 0.000000 0.000000 0.000000 0.011154 0.000000 0.069325
#
#
# Mechanical properties :
#
#
# Convention : Reuss Voigt Hill
#
# Bulk Modulus (GPa) = 22.24446 46.50323 34.37384
# Shear Modulus (GPa) = 19.94954 27.88246 23.91600
#
# Velocity S-wave (km/s) = 3.13656 3.70811 3.43425
# Velocity P-wave (km/s) = 4.90786 6.42389 5.71636
#
# Compressibility (1/GPa) = 0.04495502
#
# Stress axis : x y z
#
# Youngs Moduli (GPa) = 107.04850 28.48720 110.82376
#
# Poissons Ratio (x) = 0.02876 0.42999
# Poissons Ratio (y) = 0.10809 -0.07014
# Poissons Ratio (z) = 0.41534 -0.01803
#
# Static dielectric constant tensor:
#      x y z
#    x 1.792140 0.000000 -0.001400 
#    y 0.000000 1.779360 0.000000 
#    z -0.001400 0.000000 1.710190 
# 
# From -- ./inp_files/281391.got.cif
#   From: 2010.05.17/outbox.cif.g08.bks.cpg/sg12_141_cif.got.tgz:281391.got - 2010.06.03 13:09:07.
