data_PCOD9186222
_publ_section_title
;
Structure prediction by ZEFSAII (Michael W. Deem and Ramdas Pophale) SiO2 
 PCOD9186222
Probable space group: C 2/M
;
_chemical_formula_sum "Si O2"
_cell_formula_units_Z 56
_cell_length_a 14.032866
_cell_length_b 23.940620
_cell_length_c 14.475377
_cell_angle_alpha 90.000000
_cell_angle_beta 32.352845
_cell_angle_gamma 90.000000
_cell_volume 2602.389824
_symmetry_space_group_name_H-M "C 2/M"
_symmetry_group_IT_number 12
_symmetry_cell_setting 'monoclinic'
loop_
_space_group_symop_operation_xyz
x,y,z
-x,y,-z
-x,-y,-z
x,-y,z
1/2+x,1/2+y,z
1/2-x,1/2+y,-z
1/2-x,1/2-y,-z
1/2+x,1/2-y,z
loop_
_atom_site_type_symbol
_atom_site_label
_atom_site_fract_x
_atom_site_fract_y
_atom_site_fract_z
Si Si1 0.123579 0.715277 0.990153
Si Si2 0.604371 0.561480 0.145438
Si Si3 0.513067 0.333353 0.098648
Si Si4 0.016562 0.597063 0.097298
Si Si5 0.988304 0.212744 0.399034
Si Si6 0.270096 0.604140 0.527559
Si Si7 0.116377 0.665248 0.495645
O O1 0.319925 0.697756 0.798518
O O2 0.121548 0.777152 0.033667
O O3 0.040875 0.662132 0.108106
O O4 0.000000 0.722404 0.000000
O O5 0.581187 0.500000 0.123017
O O6 0.585469 0.611824 0.088578
O O7 0.444203 0.570981 0.350287
O O8 0.801488 0.566220 0.026170
O O9 0.314883 0.322679 0.297320
O O10 0.500000 0.342009 0.000000
O O11 0.840120 0.578916 0.296977
O O12 0.000000 0.595634 0.000000
O O13 0.847307 0.166011 0.486730
O O14 0.949175 0.276863 0.405583
O O15 0.000000 0.212583 0.500000
O O16 0.135095 0.614964 0.552662
O O17 0.000000 0.652763 0.500000
#
# Coordination Sequence:
#
# PCOD9186222 Si02
#       7
#     8   8   8   8   8   8   8
#     4  10  19  34  60 101 135 165 207 256 326 401
#     4  11  27  47  65  94 127 171 230 275 318 379
#     4  10  21  39  66  95 132 172 211 265 328 388
#     4  11  24  43  70 100 132 167 216 268 328 389
#     4  11  19  33  60  95 140 171 206 256 318 396
#     4  11  24  41  66  91 130 173 214 265 326 379
#     4  10  21  36  57  95 134 172 207 250 317 399
#
# _framework density 21.518682999999999
#
# number of rings (size 3 to 8) (size 9 to 14) (size 15 to 20)
#    0.000    1.429    1.429    6.429    4.000    2.857 
#    0.000    0.714    0.000    1.714    0.000    0.000 
#    0.000    0.000    0.000    0.000    0.000    0.000 
#
# Total GULP energy -156546.495483 kJ/mol
# GULP energy per Si atom -5590.946267 kJ/mol
# Density = 2.146971 g / cm^3
# Si number density = 21.518683 Si / 1000 Ang^3
#
#
#
# Elastic Constant Matrix: (Units=GPa)
#
#
# Indices 1 2 3 4 5 6 
#
# 1 76.3291 21.2567 32.7015 0.0273 -8.7889 0.0093
# 2 21.2567 87.6101 8.6134 0.0327 -5.5117 -0.0067
# 3 32.7015 8.6134 105.2376 0.0671 -0.1507 -0.0159
# 4 0.0273 0.0327 0.0671 1.2354 -0.0727 4.9660
# 5 -8.7889 -5.5117 -0.1507 -0.0727 31.9022 0.0172
# 6 0.0093 -0.0067 -0.0159 4.9660 0.0172 5.4794
#
#
#
# Elastic Compliance Matrix: (Units=1/GPa)
#
#
# Indices 1 2 3 4 5 6 
#
# 1 0.016561 -0.003289 -0.004871 -0.000172 0.003971 0.000097
# 2 -0.003289 0.012287 0.000018 0.000095 0.001217 -0.000069
# 3 -0.004871 0.000018 0.011012 0.000282 -0.001286 -0.000211
# 4 -0.000172 0.000095 0.000282 -0.306231 -0.000877 0.277539
# 5 0.003971 0.001217 -0.001286 -0.000877 0.032642 0.000683
# 6 0.000097 -0.000069 -0.000211 0.277539 0.000683 -0.069034
#
#
# Mechanical properties :
#
#
# Convention : Reuss Voigt Hill
#
# Bulk Modulus (GPa) = 42.41620 43.81332 43.11476
# Shear Modulus (GPa) = -17.94571 21.49710 1.77569
#
# Velocity S-wave (km/s) = -2.89097 3.16412 0.90938
# Velocity P-wave (km/s) = 2.93437 5.80979 4.60240
#
# Compressibility (1/GPa) = 0.02357590
#
# Stress axis : x y z
#
# Youngs Moduli (GPa) = 60.38103 81.38643 90.80626
#
# Poissons Ratio (x) = 0.26772 0.44234
# Poissons Ratio (y) = 0.19862 -0.00165
# Poissons Ratio (z) = 0.29413 -0.00148
#
# Static dielectric constant tensor:
#      x y z
#    x 1.819620 0.000000 -0.001960 
#    y 0.000000 1.778470 0.000010 
#    z -0.001960 0.000010 1.785160 
# 
# From -- ./inp_files/218638.got.cif
#   From: 2010.05.17/outbox.cif.g08.bks.cpg/sg12_110_cif.got.tgz:218638.got - 2010.06.03 13:09:07.
