data_PCOD9186607
_publ_section_title
;
Structure prediction by ZEFSAII (Michael W. Deem and Ramdas Pophale) SiO2 
 PCOD9186607
Probable space group: C 2/M
;
_chemical_formula_sum "Si O2"
_cell_formula_units_Z 64
_cell_length_a 14.397462
_cell_length_b 7.961679
_cell_length_c 31.451031
_cell_angle_alpha 90.000000
_cell_angle_beta 120.597919
_cell_angle_gamma 90.000000
_cell_volume 3103.186148
_symmetry_space_group_name_H-M "C 2/M"
_symmetry_group_IT_number 12
_symmetry_cell_setting 'monoclinic'
loop_
_space_group_symop_operation_xyz
x,y,z
-x,y,-z
-x,-y,-z
x,-y,z
1/2+x,1/2+y,z
1/2-x,1/2+y,-z
1/2-x,1/2-y,-z
1/2+x,1/2-y,z
loop_
_atom_site_type_symbol
_atom_site_label
_atom_site_fract_x
_atom_site_fract_y
_atom_site_fract_z
Si Si1 0.985449 0.196361 0.625561
Si Si2 0.767108 0.696507 0.817024
Si Si3 0.940453 0.696019 0.444349
Si Si4 0.706789 0.803576 0.360091
Si Si5 0.307561 0.705693 0.114030
Si Si6 0.003078 0.198864 0.098023
Si Si7 0.219277 0.794760 0.712597
Si Si8 0.150940 0.700676 0.008040
O O1 0.881860 0.220847 0.630650
O O2 0.984955 0.287011 0.580003
O O3 0.094499 0.251293 0.675314
O O4 0.998593 0.000000 0.618999
O O5 0.739089 0.500000 0.806603
O O6 0.692914 0.767025 0.837725
O O7 0.756933 0.768131 0.767353
O O8 0.887395 0.711888 0.863394
O O9 0.916296 0.500000 0.446044
O O10 0.826961 0.782385 0.406982
O O11 0.000000 0.763363 0.500000
O O12 0.714215 0.736600 0.313330
O O13 0.680349 0.000000 0.352181
O O14 0.306304 0.500000 0.113725
O O15 0.409597 0.755337 0.109384
O O16 0.197845 0.760264 0.064154
O O17 0.018530 0.000000 0.106490
O O18 0.955163 0.231794 0.039846
O O19 0.225827 0.000000 0.713595
O O20 0.140030 0.500000 0.007163
O O21 0.250000 0.750000 0.000000
#
# Coordination Sequence:
#
# PCOD9186607 Si02
#       8
#     8   8   8   8   8   8   8   8
#     4  10  20  36  58  83 110 146 189 228 270 321
#     4  10  19  35  55  74  98 133 172 212 260 313
#     4  10  21  37  57  84 117 150 185 227 273 320
#     4  10  20  36  57  82 112 147 186 226 269 323
#     4   8  17  32  51  71  96 129 165 203 251 312
#     4  10  20  34  49  73 103 131 166 210 259 314
#     4   8  18  35  54  76 103 134 174 222 268 315
#     4   9  16  30  50  72  97 130 167 205 252 310
#
# _framework density 20.623965999999999
#
# number of rings (size 3 to 8) (size 9 to 14) (size 15 to 20)
#    0.000    2.625    0.000    3.375    0.000    3.000 
#    0.000   11.250    0.000    0.000    0.000    0.000 
#    0.000    0.000    0.000    0.000    0.000    0.000 
#
# Total GULP energy -178507.742589 kJ/mol
# GULP energy per Si atom -5578.366956 kJ/mol
# Density = 2.057702 g / cm^3
# Si number density = 20.623966 Si / 1000 Ang^3
#
#
#
# Elastic Constant Matrix: (Units=GPa)
#
#
# Indices 1 2 3 4 5 6 
#
# 1 85.6703 -11.7826 27.4988 0.0000 -19.4165 0.0000
# 2 -11.7826 22.1355 -8.1671 0.0000 -1.3248 0.0000
# 3 27.4988 -8.1671 121.6181 0.0000 -29.7162 0.0000
# 4 0.0000 0.0000 0.0000 14.7220 0.0000 2.4416
# 5 -19.4165 -1.3248 -29.7162 0.0000 19.0222 0.0000
# 6 0.0000 0.0000 0.0000 2.4416 0.0000 13.0414
#
#
#
# Elastic Compliance Matrix: (Units=1/GPa)
#
#
# Indices 1 2 3 4 5 6 
#
# 1 0.017577 0.011509 0.002229 0.000000 0.022225 0.000000
# 2 0.011509 0.055962 0.008052 0.000000 0.028224 0.000000
# 3 0.002229 0.008052 0.014479 0.000000 0.025455 0.000000
# 4 0.000000 0.000000 0.000000 0.070102 0.000000 -0.013125
# 5 0.022225 0.028224 0.025455 0.000000 0.116987 0.000000
# 6 0.000000 0.000000 0.000000 -0.013125 0.000000 0.079136
#
#
# Mechanical properties :
#
#
# Convention : Reuss Voigt Hill
#
# Bulk Modulus (GPa) = 7.59888 27.16914 17.38401
# Shear Modulus (GPa) = 14.10318 24.14877 19.12598
#
# Velocity S-wave (km/s) = 2.61784 3.42557 3.04857
# Velocity P-wave (km/s) = 3.58189 5.37105 4.56498
#
# Compressibility (1/GPa) = 0.13159840
#
# Stress axis : x y z
#
# Youngs Moduli (GPa) = 56.89184 17.86911 69.06679
#
# Poissons Ratio (x) = -0.20565 -0.15395
# Poissons Ratio (y) = -0.65476 -0.55613
# Poissons Ratio (z) = -0.12682 -0.14388
#
# Static dielectric constant tensor:
#      x y z
#    x 1.735550 0.000000 -0.029520 
#    y 0.000000 1.727080 0.000000 
#    z -0.029520 0.000000 1.748370 
# 
# From -- ./inp_files/375107.got.cif
#   From: 2010.05.17/outbox.cif.g08.bks.cpg/sg12_188_cif.got.tgz:375107.got - 2010.06.03 13:09:07.
