data_PCOD9186973
_publ_section_title
;
Structure prediction by ZEFSAII (Michael W. Deem and Ramdas Pophale) SiO2 
 PCOD9186973
Probable space group: C 2/M
;
_chemical_formula_sum "Si O2"
_cell_formula_units_Z 48
_cell_length_a 21.000159
_cell_length_b 8.461761
_cell_length_c 28.002786
_cell_angle_alpha 90.000000
_cell_angle_beta 32.705356
_cell_angle_gamma 90.000000
_cell_volume 2688.653304
_symmetry_space_group_name_H-M "C 2/M"
_symmetry_group_IT_number 12
_symmetry_cell_setting 'monoclinic'
loop_
_space_group_symop_operation_xyz
x,y,z
-x,y,-z
-x,-y,-z
x,-y,z
1/2+x,1/2+y,z
1/2-x,1/2+y,-z
1/2-x,1/2-y,-z
1/2+x,1/2-y,z
loop_
_atom_site_type_symbol
_atom_site_label
_atom_site_fract_x
_atom_site_fract_y
_atom_site_fract_z
Si Si1 0.868803 0.691617 0.068688
Si Si2 0.990588 0.193350 0.451670
Si Si3 0.726175 0.812030 0.068132
Si Si4 0.854256 0.191699 0.731828
Si Si5 0.002886 0.810799 0.264073
Si Si6 0.247351 0.689227 0.555835
O O1 0.868137 0.500000 0.067996
O O2 0.819101 0.748003 0.048958
O O3 0.772982 0.744417 0.168864
O O4 0.000000 0.743750 0.000000
O O5 0.866260 0.241138 0.507278
O O6 0.000000 0.247360 0.500000
O O7 0.095721 0.246814 0.350311
O O8 0.993020 0.000000 0.450378
O O9 0.597262 0.756816 0.167375
O O10 0.731437 0.000000 0.065018
O O11 0.750000 0.750000 0.000000
O O12 0.947032 0.233603 0.714983
O O13 0.850465 0.000000 0.732569
O O14 0.870673 0.748980 0.344037
O O15 0.004204 0.000000 0.260113
O O16 0.246288 0.500000 0.555535
O O17 0.250000 0.750000 0.500000
#
# Coordination Sequence:
#
# PCOD9186973 Si02
#       6
#     8   8   8   8   8   8
#     4   9  18  34  56  82 111 147 189 229 276 335
#     4   9  17  30  48  74 107 141 179 222 267 317
#     4  11  22  38  59  84 114 147 184 232 285 338
#     4   8  14  28  50  73 101 140 179 218 265 318
#     4  10  19  35  57  81 109 142 182 230 280 333
#     4  11  20  32  53  82 108 141 186 230 272 326
#
# _framework density 17.852803999999999
#
# number of rings (size 3 to 8) (size 9 to 14) (size 15 to 20)
#    0.000    2.333    1.667    3.500    0.000    0.333 
#    3.000    0.000    0.000    2.000    0.000    0.000 
#    0.000    0.000    0.000    0.000    0.000    0.000 
#
# Total GULP energy -133865.123117 kJ/mol
# GULP energy per Si atom -5577.713463 kJ/mol
# Density = 1.781217 g / cm^3
# Si number density = 17.852804 Si / 1000 Ang^3
#
#
#
# Elastic Constant Matrix: (Units=GPa)
#
#
# Indices 1 2 3 4 5 6 
#
# 1 132.4373 24.6369 109.9321 0.0003 6.2394 -0.0004
# 2 24.6369 38.9091 29.6858 0.0032 -0.9826 0.0016
# 3 109.9321 29.6858 175.3692 0.0002 6.3761 0.0001
# 4 0.0003 0.0032 0.0002 24.2547 0.0000 -0.9238
# 5 6.2394 -0.9826 6.3761 0.0000 37.6606 0.0002
# 6 -0.0004 0.0016 0.0001 -0.9238 0.0002 21.0856
#
#
#
# Elastic Compliance Matrix: (Units=1/GPa)
#
#
# Indices 1 2 3 4 5 6 
#
# 1 0.016059 -0.002925 -0.009531 0.000000 -0.001123 0.000001
# 2 -0.002925 0.030145 -0.003336 -0.000004 0.001836 -0.000003
# 3 -0.009531 -0.003336 0.012263 0.000000 -0.000584 0.000000
# 4 0.000000 -0.000004 0.000000 0.041298 0.000000 0.001809
# 5 -0.001123 0.001836 -0.000584 0.000000 0.026886 0.000000
# 6 0.000001 -0.000003 0.000000 0.001809 0.000000 0.047505
#
#
# Mechanical properties :
#
#
# Convention : Reuss Voigt Hill
#
# Bulk Modulus (GPa) = 37.19874 75.02501 56.11187
# Shear Modulus (GPa) = 23.28837 28.76425 26.02631
#
# Velocity S-wave (km/s) = 3.61566 4.01832 3.82229
# Velocity P-wave (km/s) = 6.18969 7.97776 7.13992
#
# Compressibility (1/GPa) = 0.02688263
#
# Stress axis : x y z
#
# Youngs Moduli (GPa) = 62.27024 33.17347 81.54862
#
# Poissons Ratio (x) = 0.09704 0.77722
# Poissons Ratio (y) = 0.18216 0.27203
# Poissons Ratio (z) = 0.59348 0.11066
#
# Static dielectric constant tensor:
#      x y z
#    x 1.586810 0.000000 -0.003550 
#    y 0.000000 1.613070 0.000000 
#    z -0.003550 0.000000 1.616300 
# 
# From -- ./inp_files/345390.got.cif
#   From: 2010.05.17/outbox.cif.g08.bks.cpg/sg12_173_cif.got.tgz:345390.got - 2010.06.03 13:09:07.
