data_PCOD9186185
_publ_section_title
;
Structure prediction by ZEFSAII (Michael W. Deem and Ramdas Pophale) SiO2 
 PCOD9186185
Probable space group: C 2/M
;
_chemical_formula_sum "Si O2"
_cell_formula_units_Z 48
_cell_length_a 13.824353
_cell_length_b 12.729238
_cell_length_c 20.259238
_cell_angle_alpha 90.000000
_cell_angle_beta 45.860759
_cell_angle_gamma 90.000000
_cell_volume 2558.484087
_symmetry_space_group_name_H-M "C 2/M"
_symmetry_group_IT_number 12
_symmetry_cell_setting 'monoclinic'
loop_
_space_group_symop_operation_xyz
x,y,z
-x,y,-z
-x,-y,-z
x,-y,z
1/2+x,1/2+y,z
1/2-x,1/2+y,-z
1/2-x,1/2-y,-z
1/2+x,1/2-y,z
loop_
_atom_site_type_symbol
_atom_site_label
_atom_site_fract_x
_atom_site_fract_y
_atom_site_fract_z
Si Si1 0.595140 0.878239 0.163976
Si Si2 0.364548 0.877893 0.698454
Si Si3 0.926518 0.225633 0.471781
Si Si4 0.394514 0.377210 0.996298
Si Si5 0.180119 0.119281 0.604983
Si Si6 0.929812 0.815657 0.207451
O O1 0.599740 0.873933 0.241264
O O2 0.477795 0.803927 0.193247
O O3 0.578323 0.000000 0.152010
O O4 0.742137 0.836074 0.071418
O O5 0.473095 0.811242 0.607290
O O6 0.216328 0.832010 0.755650
O O7 0.363562 0.000000 0.678376
O O8 0.888243 0.144618 0.432626
O O9 0.795506 0.291997 0.556332
O O10 0.000000 0.177262 0.500000
O O11 0.378020 0.500000 0.022485
O O12 0.463050 0.367875 0.892694
O O13 0.500000 0.331407 0.000000
O O14 0.081687 0.134769 0.714123
O O15 0.232807 0.000000 0.580669
#
# Coordination Sequence:
#
# PCOD9186185 Si02
#       6
#     8   8   8   8   8   8
#     4  10  22  39  58  85 121 154 190 233 291 350
#     4  11  21  37  61  87 116 150 193 243 288 338
#     4  11  23  40  59  84 119 154 189 242 293 347
#     4  10  19  34  59  90 117 149 192 238 286 337
#     4  11  24  39  59  89 117 150 197 242 288 344
#     4  12  21  36  62  89 116 150 196 243 285 333
#
# _framework density 18.761109999999999
#
# number of rings (size 3 to 8) (size 9 to 14) (size 15 to 20)
#    0.000    1.167    5.000    2.500    0.000    1.000 
#    0.000    0.833    0.000    0.500    0.000    0.000 
#    0.000    0.000    0.000    0.000    0.000    0.000 
#
# Total GULP energy -133981.361745 kJ/mol
# GULP energy per Si atom -5582.556739 kJ/mol
# Density = 1.871841 g / cm^3
# Si number density = 18.761110 Si / 1000 Ang^3
#
#
#
# Elastic Constant Matrix: (Units=GPa)
#
#
# Indices 1 2 3 4 5 6 
#
# 1 33.7227 -5.3477 -19.9056 0.0000 9.1635 0.0000
# 2 -5.3477 38.5150 -21.3837 0.0000 -4.5817 0.0000
# 3 -19.9056 -21.3837 64.7412 0.0000 11.5261 0.0000
# 4 0.0000 0.0000 0.0000 17.4752 0.0000 -6.6623
# 5 9.1635 -4.5817 11.5261 0.0000 23.8972 0.0000
# 6 0.0000 0.0000 0.0000 -6.6623 0.0000 10.6505
#
#
#
# Elastic Compliance Matrix: (Units=1/GPa)
#
#
# Indices 1 2 3 4 5 6 
#
# 1 0.062411 0.022784 0.033034 0.000000 -0.035497 0.000000
# 2 0.022784 0.040140 0.022369 0.000000 -0.011830 0.000000
# 3 0.033034 0.022369 0.037722 0.000000 -0.026572 0.000000
# 4 0.000000 0.000000 0.000000 0.075144 0.000000 0.047006
# 5 -0.035497 -0.011830 -0.026572 0.000000 0.066006 0.000000
# 6 0.000000 0.000000 0.000000 0.047006 0.000000 0.123296
#
#
# Mechanical properties :
#
#
# Convention : Reuss Voigt Hill
#
# Bulk Modulus (GPa) = 3.37101 4.85610 4.11356
# Shear Modulus (GPa) = 14.39979 22.64564 18.52271
#
# Velocity S-wave (km/s) = 2.77345 3.47803 3.14553
# Velocity P-wave (km/s) = 3.47228 4.32701 3.92299
#
# Compressibility (1/GPa) = 0.29664690
#
# Stress axis : x y z
#
# Youngs Moduli (GPa) = 16.02275 24.91307 26.50964
#
# Poissons Ratio (x) = -0.56761 -0.87572
# Poissons Ratio (y) = -0.36506 -0.59300
# Poissons Ratio (z) = -0.52930 -0.55728
#
# Static dielectric constant tensor:
#      x y z
#    x 1.670330 0.000000 0.000870 
#    y 0.000000 1.625710 0.000000 
#    z 0.000870 0.000000 1.659780 
# 
# From -- ./inp_files/204356.got.cif
#   From: 2010.05.17/outbox.cif.g08.bks.cpg/sg12_103_cif.got.tgz:204356.got - 2010.06.03 13:09:07.
