data_PCOD9186114
_publ_section_title
;
Structure prediction by ZEFSAII (Michael W. Deem and Ramdas Pophale) SiO2 
 PCOD9186114
Probable space group: C 2/M
;
_chemical_formula_sum "Si O2"
_cell_formula_units_Z 48
_cell_length_a 10.513352
_cell_length_b 31.256447
_cell_length_c 16.106120
_cell_angle_alpha 90.000000
_cell_angle_beta 29.493873
_cell_angle_gamma 90.000000
_cell_volume 2605.724358
_symmetry_space_group_name_H-M "C 2/M"
_symmetry_group_IT_number 12
_symmetry_cell_setting 'monoclinic'
loop_
_space_group_symop_operation_xyz
x,y,z
-x,y,-z
-x,-y,-z
x,-y,z
1/2+x,1/2+y,z
1/2-x,1/2+y,-z
1/2-x,1/2-y,-z
1/2+x,1/2-y,z
loop_
_atom_site_type_symbol
_atom_site_label
_atom_site_fract_x
_atom_site_fract_y
_atom_site_fract_z
Si Si1 0.426074 0.369726 0.269432
Si Si2 0.021827 0.627735 0.348679
Si Si3 0.196571 0.548735 0.148922
Si Si4 0.967294 0.224004 0.824592
Si Si5 0.714220 0.782724 0.203740
Si Si6 0.263703 0.952732 0.070117
O O1 0.239658 0.376952 0.296340
O O2 0.584533 0.326332 0.160406
O O3 0.588957 0.412236 0.188729
O O4 0.244145 0.363832 0.452507
O O5 0.034083 0.585229 0.286909
O O6 0.099904 0.670298 0.254988
O O7 0.132597 0.500000 0.211228
O O8 0.500000 0.555647 0.000000
O O9 0.161867 0.551474 0.069359
O O10 0.963478 0.247697 0.738905
O O11 0.226814 0.225124 0.732543
O O12 0.750000 0.250000 0.000000
O O13 0.000000 0.781920 0.000000
O O14 0.136752 0.000000 0.149699
O O15 0.500000 0.952251 0.000000
#
# Coordination Sequence:
#
# PCOD9186114 Si02
#       6
#     8   8   8   8   8   8
#     4  10  21  36  55  84 116 147 185 229 286 335
#     4  10  20  34  57  84 115 146 181 239 284 320
#     4  10  19  34  59  87 109 142 194 230 267 335
#     4   9  19  33  53  78 103 142 185 227 268 323
#     4   9  18  33  54  77 107 144 184 223 273 326
#     4  10  22  39  59  82 113 148 182 229 281 337
#
# _framework density 18.420981000000001
#
# number of rings (size 3 to 8) (size 9 to 14) (size 15 to 20)
#    0.000    2.333    1.667    0.500    4.667    3.333 
#    0.000    2.500    0.000    3.000    0.000    0.000 
#    0.000    0.000    0.000    0.000    0.000    0.000 
#
# Total GULP energy -133738.428407 kJ/mol
# GULP energy per Si atom -5572.434517 kJ/mol
# Density = 1.837905 g / cm^3
# Si number density = 18.420981 Si / 1000 Ang^3
#
#
#
# Elastic Constant Matrix: (Units=GPa)
#
#
# Indices 1 2 3 4 5 6 
#
# 1 78.8867 50.3703 13.8455 0.0000 12.1996 0.0000
# 2 50.3703 150.6565 41.9669 0.0000 -3.9823 0.0000
# 3 13.8455 41.9669 34.7926 0.0000 1.1057 0.0000
# 4 0.0000 0.0000 0.0000 -3.4315 0.0000 11.0869
# 5 12.1996 -3.9823 1.1057 0.0000 9.1373 0.0000
# 6 0.0000 0.0000 0.0000 11.0869 0.0000 31.8984
#
#
#
# Elastic Compliance Matrix: (Units=1/GPa)
#
#
# Indices 1 2 3 4 5 6 
#
# 1 0.024254 -0.010143 0.003767 0.000000 -0.037259 0.000000
# 2 -0.010143 0.014559 -0.014211 0.000000 0.021607 0.000000
# 3 0.003767 -0.014211 0.044913 0.000000 -0.016658 0.000000
# 4 0.000000 0.000000 0.000000 -0.137270 0.000000 0.047711
# 5 -0.037259 0.021607 -0.016658 0.000000 0.170619 0.000000
# 6 0.000000 0.000000 0.000000 0.047711 0.000000 0.014767
#
#
# Mechanical properties :
#
#
# Convention : Reuss Voigt Hill
#
# Bulk Modulus (GPa) = 23.50081 52.96680 38.23381
# Shear Modulus (GPa) = 26.70952 18.06439 22.38696
#
# Velocity S-wave (km/s) = 3.81195 3.13492 3.48989
# Velocity P-wave (km/s) = 5.67098 6.47453 6.08603
#
# Compressibility (1/GPa) = 0.04255172
#
# Stress axis : x y z
#
# Youngs Moduli (GPa) = 41.23073 68.68785 22.26523
#
# Poissons Ratio (x) = 0.69672 -0.08388
# Poissons Ratio (y) = 0.41821 0.31641
# Poissons Ratio (z) = -0.15532 0.97611
#
# Static dielectric constant tensor:
#      x y z
#    x 1.667200 0.000000 0.028380 
#    y 0.000000 1.635730 0.000000 
#    z 0.028380 0.000000 1.636940 
# 
# From -- ./inp_files/52787.got.cif
#   From: 2010.05.17/outbox.cif.g08.bks.cpg/sg12_27_cif.got.tgz:52787.got - 2010.06.03 13:09:07.
