data_PCOD9186330
_publ_section_title
;
Structure prediction by ZEFSAII (Michael W. Deem and Ramdas Pophale) SiO2 
 PCOD9186330
Probable space group: C 2/M
;
_chemical_formula_sum "Si O2"
_cell_formula_units_Z 40
_cell_length_a 11.904900
_cell_length_b 13.861634
_cell_length_c 8.591458
_cell_angle_alpha 90.000000
_cell_angle_beta 82.713214
_cell_angle_gamma 90.000000
_cell_volume 1406.323801
_symmetry_space_group_name_H-M "C 2/M"
_symmetry_group_IT_number 12
_symmetry_cell_setting 'monoclinic'
loop_
_space_group_symop_operation_xyz
x,y,z
-x,y,-z
-x,-y,-z
x,-y,z
1/2+x,1/2+y,z
1/2-x,1/2+y,-z
1/2-x,1/2-y,-z
1/2+x,1/2-y,z
loop_
_atom_site_type_symbol
_atom_site_label
_atom_site_fract_x
_atom_site_fract_y
_atom_site_fract_z
Si Si1 0.223483 0.383400 0.888346
Si Si2 0.554129 0.617251 0.327495
Si Si3 0.519334 0.111158 0.734359
Si Si4 0.642243 0.391732 0.841653
Si Si5 0.817313 0.662285 0.568493
O O1 0.212239 0.500000 0.899827
O O2 0.316649 0.362901 0.739293
O O3 0.098095 0.351709 0.861450
O O4 0.280446 0.347951 0.037544
O O5 0.500000 0.652513 0.500000
O O6 0.545827 0.500000 0.334030
O O7 0.475308 0.649676 0.198116
O O8 0.414282 0.172175 0.686554
O O9 0.610908 0.109947 0.577693
O O10 0.480532 0.000000 0.770122
O O11 0.618132 0.500000 0.900711
O O12 0.718771 0.394559 0.673419
O O13 0.750000 0.750000 0.500000
#
# Coordination Sequence:
#
# PCOD9186330 Si02
#       5
#     8   8   8   8   8
#     4   9  18  33  59  97 131 163 217 278 328 385
#     4   9  16  28  51  89 133 169 206 259 320 383
#     4  10  21  43  71  94 125 174 227 275 327 400
#     4  10  19  34  60  94 131 171 218 276 334 392
#     4  11  23  40  60  92 128 169 218 273 333 394
#
# _framework density 28.442952999999999
#
# number of rings (size 3 to 8) (size 9 to 14) (size 15 to 20)
#    0.000    2.200    0.000    4.200    0.000    6.400 
#   10.800    4.000    0.000    0.000    0.000    0.000 
#    0.000    0.000    0.000    0.400    0.000    0.000 
#
# Total GULP energy -112025.156274 kJ/mol
# GULP energy per Si atom -5601.257814 kJ/mol
# Density = 2.837822 g / cm^3
# Si number density = 28.442953 Si / 1000 Ang^3
#
#
#
# Elastic Constant Matrix: (Units=GPa)
#
#
# Indices 1 2 3 4 5 6 
#
# 1 222.0898 57.6565 70.7997 0.0000 46.9126 0.0000
# 2 57.6565 130.7808 30.7846 0.0000 28.7525 0.0000
# 3 70.7997 30.7846 123.1040 0.0000 25.7242 0.0000
# 4 0.0000 0.0000 0.0000 16.1427 0.0000 21.0414
# 5 46.9126 28.7525 25.7242 0.0000 90.2097 0.0000
# 6 0.0000 0.0000 0.0000 21.0414 0.0000 19.3409
#
#
#
# Elastic Compliance Matrix: (Units=1/GPa)
#
#
# Indices 1 2 3 4 5 6 
#
# 1 0.006221 -0.001672 -0.002759 0.000000 -0.001915 0.000000
# 2 -0.001672 0.008981 -0.000923 0.000000 -0.001730 0.000000
# 3 -0.002759 -0.000923 0.010187 0.000000 -0.001176 0.000000
# 4 0.000000 0.000000 0.000000 -0.148176 0.000000 0.161205
# 5 -0.001915 -0.001730 -0.001176 0.000000 0.012968 0.000000
# 6 0.000000 0.000000 0.000000 0.161205 0.000000 -0.123674
#
#
# Mechanical properties :
#
#
# Convention : Reuss Voigt Hill
#
# Bulk Modulus (GPa) = 68.11901 88.27294 78.19597
# Shear Modulus (GPa) = -22.94716 46.25423 11.65354
#
# Velocity S-wave (km/s) = -2.84347 4.03701 2.02634
# Velocity P-wave (km/s) = 3.63606 7.26859 5.74688
#
# Compressibility (1/GPa) = 0.01468019
#
# Stress axis : x y z
#
# Youngs Moduli (GPa) = 160.74519 111.34576 98.16726
#
# Poissons Ratio (x) = 0.18617 0.27089
# Poissons Ratio (y) = 0.26876 0.09059
# Poissons Ratio (z) = 0.44358 0.10275
#
# Static dielectric constant tensor:
#      x y z
#    x 2.116000 0.000000 0.079000 
#    y 0.000000 2.206330 0.000000 
#    z 0.079000 0.000000 2.219750 
# 
# From -- ./inp_files/47066.got.cif
#   From: 2010.05.17/outbox.cif.g08.bks.cpg/sg12_24_cif.got.tgz:47066.got - 2010.06.03 13:09:07.
