data_PCOD9186897
_publ_section_title
;
Structure prediction by ZEFSAII (Michael W. Deem and Ramdas Pophale) SiO2 
 PCOD9186897
Probable space group: C 2/M
;
_chemical_formula_sum "Si O2"
_cell_formula_units_Z 48
_cell_length_a 19.959799
_cell_length_b 7.439572
_cell_length_c 15.203098
_cell_angle_alpha 90.000000
_cell_angle_beta 116.601790
_cell_angle_gamma 90.000000
_cell_volume 2018.560887
_symmetry_space_group_name_H-M "C 2/M"
_symmetry_group_IT_number 12
_symmetry_cell_setting 'monoclinic'
loop_
_space_group_symop_operation_xyz
x,y,z
-x,y,-z
-x,-y,-z
x,-y,z
1/2+x,1/2+y,z
1/2-x,1/2+y,-z
1/2-x,1/2-y,-z
1/2+x,1/2-y,z
loop_
_atom_site_type_symbol
_atom_site_label
_atom_site_fract_x
_atom_site_fract_y
_atom_site_fract_z
Si Si1 0.448126 0.710645 0.109990
Si Si2 0.654929 0.781722 0.103467
Si Si3 0.928653 0.719423 0.574517
Si Si4 0.887377 0.296051 0.737012
Si Si5 0.599677 0.217257 0.636784
Si Si6 0.811673 0.793679 0.143618
O O1 0.458158 0.500000 0.136564
O O2 0.525923 0.800704 0.180260
O O3 0.379351 0.787811 0.127494
O O4 0.418657 0.728780 0.993520
O O5 0.653996 0.714045 0.203161
O O6 0.728461 0.715935 0.094913
O O7 0.657063 0.000000 0.107494
O O8 0.928585 0.500000 0.577339
O O9 0.889919 0.785024 0.640973
O O10 0.892997 0.772921 0.460528
O O11 0.016416 0.771640 0.620881
O O12 0.859263 0.500000 0.710958
O O13 0.660612 0.289378 0.739418
O O14 0.602202 0.000000 0.640894
O O15 0.805551 0.000000 0.110999
#
# Coordination Sequence:
#
# PCOD9186897 Si02
#       6
#     8   8   8   8   8   8
#     4  11  22  35  53  76 103 134 170 215 257 296
#     4  10  22  37  53  73 102 139 174 207 248 304
#     4   8  15  29  52  80 102 125 167 213 248 291
#     4  10  19  35  57  77 100 134 173 210 249 299
#     4   9  16  30  54  79 101 129 169 212 248 292
#     4  10  21  36  51  75 107 136 168 207 255 303
#
# _framework density 23.779316999999999
#
# number of rings (size 3 to 8) (size 9 to 14) (size 15 to 20)
#    0.000    2.333    1.667    2.500    0.000    4.000 
#    0.000    3.333    0.000    0.000    0.000    0.000 
#    0.000    0.000    0.000    0.000    0.000    0.000 
#
# Total GULP energy -134111.191323 kJ/mol
# GULP energy per Si atom -5587.966305 kJ/mol
# Density = 2.372519 g / cm^3
# Si number density = 23.779317 Si / 1000 Ang^3
#
#
#
# Elastic Constant Matrix: (Units=GPa)
#
#
# Indices 1 2 3 4 5 6 
#
# 1 64.9737 3.2395 -5.1581 0.0000 -18.4259 0.0000
# 2 3.2395 88.3275 -1.9918 0.0000 -5.0522 0.0000
# 3 -5.1581 -1.9918 97.8008 0.0000 -19.1795 0.0000
# 4 0.0000 0.0000 0.0000 16.8217 0.0000 2.3114
# 5 -18.4259 -5.0522 -19.1795 0.0000 41.8602 0.0000
# 6 0.0000 0.0000 0.0000 2.3114 0.0000 1.2059
#
#
#
# Elastic Compliance Matrix: (Units=1/GPa)
#
#
# Indices 1 2 3 4 5 6 
#
# 1 0.018254 -0.000075 0.002785 0.000000 0.009302 0.000000
# 2 -0.000075 0.011428 0.000541 0.000000 0.001594 0.000000
# 3 0.002785 0.000541 0.011686 0.000000 0.006646 0.000000
# 4 0.000000 0.000000 0.000000 0.080702 0.000000 -0.154687
# 5 0.009302 0.001594 0.006646 0.000000 0.031221 0.000000
# 6 0.000000 0.000000 0.000000 -0.154687 0.000000 1.125746
#
#
# Mechanical properties :
#
#
# Convention : Reuss Voigt Hill
#
# Bulk Modulus (GPa) = 20.88905 27.03124 23.96015
# Shear Modulus (GPa) = 3.88051 28.97839 16.42945
#
# Velocity S-wave (km/s) = 1.27884 3.49469 2.63137
# Velocity P-wave (km/s) = 3.31424 5.26080 4.39660
#
# Compressibility (1/GPa) = 0.04787197
#
# Stress axis : x y z
#
# Youngs Moduli (GPa) = 54.78360 87.50706 85.57186
#
# Poissons Ratio (x) = 0.00653 -0.23835
# Poissons Ratio (y) = 0.00409 -0.04634
# Poissons Ratio (z) = -0.15259 -0.04738
#
# Static dielectric constant tensor:
#      x y z
#    x 1.905400 0.000000 -0.055390 
#    y 0.000000 1.885680 0.000000 
#    z -0.055390 0.000000 1.896940 
# 
# From -- ./inp_files/229807.got.cif
#   From: 2010.05.17/outbox.cif.g08.bks.cpg/sg12_115_cif.got.tgz:229807.got - 2010.06.03 13:09:07.
