data_PCOD9186979
_publ_section_title
;
Structure prediction by ZEFSAII (Michael W. Deem and Ramdas Pophale) SiO2 
 PCOD9186979
Probable space group: C 2/M
;
_chemical_formula_sum "Si O2"
_cell_formula_units_Z 64
_cell_length_a 17.361204
_cell_length_b 13.857330
_cell_length_c 26.000709
_cell_angle_alpha 90.000000
_cell_angle_beta 35.767337
_cell_angle_gamma 90.000000
_cell_volume 3656.162986
_symmetry_space_group_name_H-M "C 2/M"
_symmetry_group_IT_number 12
_symmetry_cell_setting 'monoclinic'
loop_
_space_group_symop_operation_xyz
x,y,z
-x,y,-z
-x,-y,-z
x,-y,z
1/2+x,1/2+y,z
1/2-x,1/2+y,-z
1/2-x,1/2-y,-z
1/2+x,1/2-y,z
loop_
_atom_site_type_symbol
_atom_site_label
_atom_site_fract_x
_atom_site_fract_y
_atom_site_fract_z
Si Si1 0.508917 0.258168 0.434352
Si Si2 0.662982 0.754427 0.996209
Si Si3 0.007015 0.112765 0.341577
Si Si4 0.915804 0.887995 0.125283
Si Si5 0.452525 0.894812 0.085180
Si Si6 0.241991 0.609494 0.314031
Si Si7 0.724095 0.109346 0.444533
Si Si8 0.727044 0.256603 0.176482
O O1 0.500000 0.278546 0.500000
O O2 0.517686 0.352396 0.394624
O O3 0.635758 0.189970 0.357037
O O4 0.383916 0.191282 0.487149
O O5 0.551408 0.671874 0.046060
O O6 0.573241 0.849521 0.049826
O O7 0.750000 0.750000 0.000000
O O8 0.748932 0.761120 0.897683
O O9 0.087787 0.195561 0.266543
O O10 0.854836 0.118148 0.407211
O O11 0.049387 0.000000 0.310448
O O12 0.870137 0.879487 0.209422
O O13 0.790473 0.844754 0.161410
O O14 0.935622 0.000000 0.101716
O O15 0.326735 0.827889 0.152425
O O16 0.418394 0.000000 0.121965
O O17 0.500000 0.897585 0.000000
O O18 0.191298 0.500000 0.332064
O O19 0.265334 0.617385 0.362174
O O20 0.669456 0.000000 0.480754
#
# Coordination Sequence:
#
# PCOD9186979 Si02
#       8
#     8   8   8   8   8   8   8   8
#     4  10  19  35  57  81 111 144 179 224 273 328
#     4  10  22  34  51  81 109 138 171 220 274 318
#     4  11  22  35  54  81 111 145 185 225 269 321
#     4  10  20  36  58  80 107 142 183 222 265 323
#     4   8  15  31  52  70  93 131 176 212 248 301
#     4   9  17  32  56  85 108 137 180 226 272 319
#     4   9  19  33  54  83 113 141 176 225 277 325
#     4  10  20  36  53  74 106 141 181 218 262 315
#
# _framework density 17.50469
#
# number of rings (size 3 to 8) (size 9 to 14) (size 15 to 20)
#    0.000    2.375    1.250    2.250    1.750    3.750 
#    0.000    0.000    0.000    0.000    0.000    0.000 
#    0.000    0.000    0.000    0.000    0.000    0.000 
#
# Total GULP energy -178147.556284 kJ/mol
# GULP energy per Si atom -5567.111134 kJ/mol
# Density = 1.746485 g / cm^3
# Si number density = 17.504690 Si / 1000 Ang^3
#
#
#
# Elastic Constant Matrix: (Units=GPa)
#
#
# Indices 1 2 3 4 5 6 
#
# 1 78.7776 24.9811 10.3997 0.0000 -2.5147 0.0000
# 2 24.9811 78.3508 15.7913 0.0000 -0.2645 0.0000
# 3 10.3997 15.7913 58.1364 -0.0001 3.6581 0.0000
# 4 0.0000 0.0000 -0.0001 17.6681 0.0000 0.5004
# 5 -2.5147 -0.2645 3.6581 0.0000 17.2531 0.0000
# 6 0.0000 0.0000 0.0000 0.5004 0.0000 21.1082
#
#
#
# Elastic Compliance Matrix: (Units=1/GPa)
#
#
# Indices 1 2 3 4 5 6 
#
# 1 0.014320 -0.004244 -0.001557 0.000000 0.002352 0.000000
# 2 -0.004244 0.014777 -0.003274 0.000000 0.000302 0.000000
# 3 -0.001557 -0.003274 0.018635 0.000000 -0.004228 0.000000
# 4 0.000000 0.000000 0.000000 0.056637 0.000000 -0.001343
# 5 0.002352 0.000302 -0.004228 0.000000 0.059204 0.000000
# 6 0.000000 0.000000 0.000000 -0.001343 0.000000 0.047407
#
#
# Mechanical properties :
#
#
# Convention : Reuss Voigt Hill
#
# Bulk Modulus (GPa) = 33.80334 35.28989 34.54661
# Shear Modulus (GPa) = 20.92130 22.14541 21.53336
#
# Velocity S-wave (km/s) = 3.46089 3.56070 3.51115
# Velocity P-wave (km/s) = 5.94334 6.09170 6.01798
#
# Compressibility (1/GPa) = 0.02958288
#
# Stress axis : x y z
#
# Youngs Moduli (GPa) = 69.83028 67.67229 53.66344
#
# Poissons Ratio (x) = 0.28721 0.08355
# Poissons Ratio (y) = 0.29637 0.17567
# Poissons Ratio (z) = 0.10872 0.22153
#
# Static dielectric constant tensor:
#      x y z
#    x 1.579280 0.000000 0.007980 
#    y 0.000000 1.633590 0.000000 
#    z 0.007980 0.000000 1.617380 
# 
# From -- ./inp_files/340144.got.cif
#   From: 2010.05.17/outbox.cif.g08.bks.cpg/sg12_171_cif.got.tgz:340144.got - 2010.06.03 13:09:07.
