data_PCOD9186988
_publ_section_title
;
Structure prediction by ZEFSAII (Michael W. Deem and Ramdas Pophale) SiO2 
 PCOD9186988
Probable space group: C 2/M
;
_chemical_formula_sum "Si O2"
_cell_formula_units_Z 64
_cell_length_a 23.849812
_cell_length_b 12.206806
_cell_length_c 12.661279
_cell_angle_alpha 90.000000
_cell_angle_beta 89.929247
_cell_angle_gamma 90.000000
_cell_volume 3686.075702
_symmetry_space_group_name_H-M "C 2/M"
_symmetry_group_IT_number 12
_symmetry_cell_setting 'monoclinic'
loop_
_space_group_symop_operation_xyz
x,y,z
-x,y,-z
-x,-y,-z
x,-y,z
1/2+x,1/2+y,z
1/2-x,1/2+y,-z
1/2-x,1/2-y,-z
1/2+x,1/2-y,z
loop_
_atom_site_type_symbol
_atom_site_label
_atom_site_fract_x
_atom_site_fract_y
_atom_site_fract_z
Si Si1 0.903906 0.371977 0.045003
Si Si2 0.269195 0.131615 0.053742
Si Si3 0.539841 0.805341 0.745578
Si Si4 0.750368 0.870882 0.697025
Si Si5 0.635518 0.129041 0.582486
Si Si6 0.865310 0.763418 0.633581
Si Si7 0.420878 0.123896 0.810498
Si Si8 0.481837 0.627235 0.615398
O O1 0.921103 0.500000 0.059685
O O2 0.836664 0.368027 0.046228
O O3 0.929322 0.306048 0.142324
O O4 0.924362 0.333114 0.930247
O O5 0.251918 0.142344 0.176495
O O6 0.253312 0.000000 0.022455
O O7 0.250000 0.250000 0.000000
O O8 0.582702 0.851900 0.659212
O O9 0.482458 0.873026 0.759378
O O10 0.517263 0.689961 0.703380
O O11 0.691613 0.834958 0.645025
O O12 0.803809 0.811822 0.647593
O O13 0.755664 0.000000 0.676045
O O14 0.630406 0.193580 0.473377
O O15 0.639791 0.000000 0.560378
O O16 0.879912 0.690706 0.735704
O O17 0.915815 0.851011 0.629512
O O18 0.400265 0.000000 0.819472
O O19 0.500000 0.670709 0.500000
O O20 0.494283 0.500000 0.619068
#
# Coordination Sequence:
#
# PCOD9186988 Si02
#       8
#     8   8   8   8   8   8   8   8
#     4  10  19  35  57  81 114 151 184 225 280 341
#     4  10  20  36  59  84 115 156 196 240 288 345
#     4  11  20  35  58  83 110 145 185 228 277 340
#     4  10  21  37  57  80 110 152 196 233 282 344
#     4  11  21  35  56  84 115 146 182 233 288 340
#     4  11  21  36  56  81 110 146 187 234 277 331
#     4  10  21  33  54  86 116 146 179 223 279 336
#     4  10  21  38  56  77 107 144 186 229 276 334
#
# _framework density 17.362639999999999
#
# number of rings (size 3 to 8) (size 9 to 14) (size 15 to 20)
#    0.000    1.625    2.500    3.375    0.000    1.000 
#    0.000    3.125    0.000    9.000    0.000    0.000 
#    0.000    0.000    0.000    0.000    0.000    0.000 
#
# Total GULP energy -178342.408683 kJ/mol
# GULP energy per Si atom -5573.200271 kJ/mol
# Density = 1.732312 g / cm^3
# Si number density = 17.362640 Si / 1000 Ang^3
#
#
#
# Elastic Constant Matrix: (Units=GPa)
#
#
# Indices 1 2 3 4 5 6 
#
# 1 87.6918 26.2575 34.0015 0.0000 -5.7968 0.0000
# 2 26.2575 68.5920 50.4474 0.0000 12.1031 0.0000
# 3 34.0015 50.4474 121.6339 0.0000 0.8310 0.0000
# 4 0.0000 0.0000 0.0000 18.9691 0.0000 3.5503
# 5 -5.7968 12.1031 0.8310 0.0000 31.1476 0.0000
# 6 0.0000 0.0000 0.0000 3.5503 0.0000 -1.3397
#
#
#
# Elastic Compliance Matrix: (Units=1/GPa)
#
#
# Indices 1 2 3 4 5 6 
#
# 1 0.013850 -0.004624 -0.001984 0.000000 0.004427 0.000000
# 2 -0.004624 0.024676 -0.008872 0.000000 -0.010212 0.000000
# 3 -0.001984 -0.008872 0.012437 0.000000 0.002746 0.000000
# 4 0.000000 0.000000 0.000000 0.035239 0.000000 0.093387
# 5 0.004427 -0.010212 0.002746 0.000000 0.036824 0.000000
# 6 0.000000 0.000000 0.000000 0.093387 0.000000 -0.498958
#
#
# Mechanical properties :
#
#
# Convention : Reuss Voigt Hill
#
# Bulk Modulus (GPa) = 49.99234 55.48116 52.73675
# Shear Modulus (GPa) = -14.77957 20.90284 3.06164
#
# Velocity S-wave (km/s) = -2.92075 3.47349 1.32935
# Velocity P-wave (km/s) = 4.18105 6.93617 5.72677
#
# Compressibility (1/GPa) = 0.02000307
#
# Stress axis : x y z
#
# Youngs Moduli (GPa) = 72.20181 40.52512 80.40556
#
# Poissons Ratio (x) = 0.18738 0.15954
# Poissons Ratio (y) = 0.33384 0.71336
# Poissons Ratio (z) = 0.14326 0.35954
#
# Static dielectric constant tensor:
#      x y z
#    x 1.581960 0.000000 -0.008890 
#    y 0.000000 1.596980 0.000000 
#    z -0.008890 0.000000 1.594720 
# 
# From -- ./inp_files/174641.got.cif
#   From: 2010.05.17/outbox.cif.g08.bks.cpg/sg12_88_cif.got.tgz:174641.got - 2010.06.03 13:09:07.
