data_PCOD9186396
_publ_section_title
;
Structure prediction by ZEFSAII (Michael W. Deem and Ramdas Pophale) SiO2 
 PCOD9186396
Probable space group: C 2/M
;
_chemical_formula_sum "Si O2"
_cell_formula_units_Z 48
_cell_length_a 17.523045
_cell_length_b 20.582860
_cell_length_c 20.710619
_cell_angle_alpha 90.000000
_cell_angle_beta 19.238587
_cell_angle_gamma 90.000000
_cell_volume 2461.314992
_symmetry_space_group_name_H-M "C 2/M"
_symmetry_group_IT_number 12
_symmetry_cell_setting 'monoclinic'
loop_
_space_group_symop_operation_xyz
x,y,z
-x,y,-z
-x,-y,-z
x,-y,z
1/2+x,1/2+y,z
1/2-x,1/2+y,-z
1/2-x,1/2-y,-z
1/2+x,1/2-y,z
loop_
_atom_site_type_symbol
_atom_site_label
_atom_site_fract_x
_atom_site_fract_y
_atom_site_fract_z
Si Si1 0.504022 0.751257 0.384157
Si Si2 0.852631 0.742880 0.217407
Si Si3 0.391221 0.570620 0.317679
Si Si4 0.320117 0.699346 0.885439
Si Si5 0.388443 0.902564 0.724810
Si Si6 0.096446 0.898183 0.834027
O O1 0.695474 0.724368 0.281762
O O2 0.276402 0.743307 0.610004
O O3 0.509097 0.723454 0.308125
O O4 0.562961 0.826462 0.326045
O O5 0.909207 0.819204 0.160522
O O6 0.074213 0.697624 0.045600
O O7 0.495600 0.500000 0.248062
O O8 0.566154 0.631025 0.185811
O O9 0.315559 0.576423 0.303635
O O10 0.135623 0.573971 0.553651
O O11 0.250000 0.750000 0.000000
O O12 0.266335 0.922306 0.754535
O O13 0.172749 0.916566 0.943806
#
# Coordination Sequence:
#
# PCOD9186396 Si02
#       6
#     8   8   8   8   8   8
#     4  10  19  34  62  88 118 144 189 254 301 347
#     4  10  19  35  59  93 114 144 193 251 305 343
#     4  12  26  39  52  80 123 163 196 234 288 356
#     4  12  22  37  60  88 118 157 198 246 302 348
#     4  10  19  35  59  82 113 151 194 239 287 345
#     4  10  19  36  58  83 113 151 194 241 286 344
#
# _framework density 19.50177
#
# number of rings (size 3 to 8) (size 9 to 14) (size 15 to 20)
#    0.000    1.333    5.000    1.000    0.000    6.000 
#    0.000    1.667    0.000    2.000    0.000    2.333 
#    0.000    0.000    0.000    0.000    0.000    0.000 
#
# Total GULP energy -133670.630475 kJ/mol
# GULP energy per Si atom -5569.609603 kJ/mol
# Density = 1.945738 g / cm^3
# Si number density = 19.501770 Si / 1000 Ang^3
#
#
#
# Elastic Constant Matrix: (Units=GPa)
#
#
# Indices 1 2 3 4 5 6 
#
# 1 47.6943 31.4821 16.3498 -0.1106 9.8841 -0.0074
# 2 31.4821 99.9372 31.7939 -0.2850 -13.4372 0.0271
# 3 16.3498 31.7939 101.5551 -0.1438 -7.0764 0.1121
# 4 -0.1106 -0.2850 -0.1438 -3.0403 0.1558 -8.6280
# 5 9.8841 -13.4372 -7.0764 0.1558 38.6295 0.0212
# 6 -0.0074 0.0271 0.1121 -8.6280 0.0212 -15.6033
#
#
#
# Elastic Compliance Matrix: (Units=1/GPa)
#
#
# Indices 1 2 3 4 5 6 
#
# 1 0.031484 -0.010752 -0.002556 0.000790 -0.012267 -0.000506
# 2 -0.010752 0.015211 -0.002501 0.001047 0.007580 -0.000555
# 3 -0.002556 -0.002501 0.011170 0.000585 0.001828 -0.000244
# 4 0.000790 0.001047 0.000585 0.578285 -0.001888 -0.319766
# 5 -0.012267 0.007580 0.001828 -0.001888 0.032004 0.001119
# 6 -0.000506 -0.000555 -0.000244 -0.319766 0.001119 0.112728
#
#
# Mechanical properties :
#
#
# Convention : Reuss Voigt Hill
#
# Bulk Modulus (GPa) = 38.09819 45.38201 41.74010
# Shear Modulus (GPa) = 6.08829 15.30122 10.69475
#
# Velocity S-wave (km/s) = 1.76881 2.80412 2.34433
# Velocity P-wave (km/s) = 4.87337 5.81424 5.36447
#
# Compressibility (1/GPa) = 0.02624796
#
# Stress axis : x y z
#
# Youngs Moduli (GPa) = 31.76205 65.74031 89.52743
#
# Poissons Ratio (x) = 0.70684 0.22881
# Poissons Ratio (y) = 0.34151 0.22390
# Poissons Ratio (z) = 0.08117 0.16441
#
# Static dielectric constant tensor:
#      x y z
#    x 1.717050 -0.000050 0.010300 
#    y -0.000050 1.707110 0.000190 
#    z 0.010300 0.000190 1.773430 
# 
# From -- ./inp_files/317459.got.cif
#   From: 2010.05.17/outbox.cif.g08.bks.cpg/sg12_159_cif.got.tgz:317459.got - 2010.06.03 13:09:07.
