data_PCOD9186001
_publ_section_title
;
Structure prediction by ZEFSAII (Michael W. Deem and Ramdas Pophale) SiO2 
 PCOD9186001
Probable space group: C 2/M
;
_chemical_formula_sum "Si O2"
_cell_formula_units_Z 64
_cell_length_a 22.001114
_cell_length_b 11.146549
_cell_length_c 12.825578
_cell_angle_alpha 90.000000
_cell_angle_beta 70.162386
_cell_angle_gamma 90.000000
_cell_volume 2958.652012
_symmetry_space_group_name_H-M "C 2/M"
_symmetry_group_IT_number 12
_symmetry_cell_setting 'monoclinic'
loop_
_space_group_symop_operation_xyz
x,y,z
-x,y,-z
-x,-y,-z
x,-y,z
1/2+x,1/2+y,z
1/2-x,1/2+y,-z
1/2-x,1/2-y,-z
1/2+x,1/2-y,z
loop_
_atom_site_type_symbol
_atom_site_label
_atom_site_fract_x
_atom_site_fract_y
_atom_site_fract_z
Si Si1 0.996621 0.864442 0.760782
Si Si2 0.784298 0.871667 0.854573
Si Si3 0.745725 0.793751 0.655675
Si Si4 0.836229 0.630574 0.489898
Si Si5 0.936138 0.728773 0.980659
Si Si6 0.012167 0.635727 0.616479
Si Si7 0.830752 0.372224 0.907868
Si Si8 0.368188 0.635786 0.204061
O O1 0.983850 0.751319 0.692517
O O2 0.072502 0.860965 0.748980
O O3 0.959932 0.835103 0.890303
O O4 0.982531 0.000000 0.731487
O O5 0.755149 0.865177 0.756162
O O6 0.824165 0.749726 0.846742
O O7 0.819075 0.000000 0.847767
O O8 0.727483 0.869381 0.973761
O O9 0.812689 0.738011 0.576643
O O10 0.710603 0.863353 0.582995
O O11 0.697138 0.684432 0.708647
O O12 0.829209 0.500000 0.545454
O O13 0.910412 0.641088 0.413232
O O14 0.896629 0.636905 0.934177
O O15 0.888935 0.781451 0.095624
O O16 0.000000 0.679900 0.000000
O O17 0.990755 0.500000 0.661749
O O18 0.000000 0.645123 0.500000
O O19 0.826344 0.500000 0.853428
O O20 0.360544 0.500000 0.171680
#
# Coordination Sequence:
#
# PCOD9186001 Si02
#       8
#     8   8   8   8   8   8   8   8
#     4  10  21  38  60  90 124 160 207 257 304 363
#     4  10  22  40  61  88 122 165 207 251 306 362
#     4  11  20  37  62  89 118 159 204 258 311 369
#     4  10  22  38  59  90 122 153 204 260 311 368
#     4  10  21  38  60  93 129 163 202 252 308 368
#     4  10  22  42  64  86 120 167 208 253 313 371
#     4  10  22  40  60  89 126 163 208 251 298 366
#     4  10  19  34  58  89 123 162 200 247 309 374
#
# _framework density 21.631473
#
# number of rings (size 3 to 8) (size 9 to 14) (size 15 to 20)
#    0.000    1.875    2.500    1.125    0.000    5.500 
#    0.000    3.750    0.000    0.000    0.000    0.000 
#    0.000    0.000    0.000    0.000    0.000    0.000 
#
# Total GULP energy -178659.559801 kJ/mol
# GULP energy per Si atom -5583.111244 kJ/mol
# Density = 2.158224 g / cm^3
# Si number density = 21.631473 Si / 1000 Ang^3
#
#
#
# Elastic Constant Matrix: (Units=GPa)
#
#
# Indices 1 2 3 4 5 6 
#
# 1 39.6755 32.5027 -2.0634 0.0000 -1.5981 0.0000
# 2 32.5027 152.5205 26.3792 0.0000 12.1666 0.0000
# 3 -2.0634 26.3792 48.9902 0.0000 5.4488 0.0000
# 4 0.0000 0.0000 0.0000 18.9133 0.0000 -9.9585
# 5 -1.5981 12.1666 5.4488 0.0000 23.0639 0.0000
# 6 0.0000 0.0000 0.0000 -9.9585 0.0000 31.4344
#
#
#
# Elastic Compliance Matrix: (Units=1/GPa)
#
#
# Indices 1 2 3 4 5 6 
#
# 1 0.032444 -0.008243 0.005208 0.000000 0.005366 0.000000
# 2 -0.008243 0.009528 -0.004986 0.000000 -0.004419 0.000000
# 3 0.005208 -0.004986 0.023604 0.000000 -0.002585 0.000000
# 4 0.000000 0.000000 0.000000 0.063458 0.000000 0.020104
# 5 0.005366 -0.004419 -0.002585 0.000000 0.046672 0.000000
# 6 0.000000 0.000000 0.000000 0.020104 0.000000 0.038181
#
#
# Mechanical properties :
#
#
# Convention : Reuss Voigt Hill
#
# Bulk Modulus (GPa) = 20.18796 39.42479 29.80638
# Shear Modulus (GPa) = 20.28894 26.97349 23.63121
#
# Velocity S-wave (km/s) = 3.06590 3.53506 3.30880
# Velocity P-wave (km/s) = 4.67824 5.90994 5.32979
#
# Compressibility (1/GPa) = 0.04953446
#
# Stress axis : x y z
#
# Youngs Moduli (GPa) = 30.82231 104.95441 42.36586
#
# Poissons Ratio (x) = 0.86511 -0.22064
# Poissons Ratio (y) = 0.25406 0.21124
# Poissons Ratio (z) = -0.16052 0.52331
#
# Static dielectric constant tensor:
#      x y z
#    x 1.788980 0.000000 0.004430 
#    y 0.000000 1.811720 0.000000 
#    z 0.004430 0.000000 1.760880 
# 
# From -- ./inp_files/175250.got.cif
#   From: 2010.05.17/outbox.cif.g08.bks.cpg/sg12_88_cif.got.tgz:175250.got - 2010.06.03 13:09:07.
