data_PCOD9186597
_publ_section_title
;
Structure prediction by ZEFSAII (Michael W. Deem and Ramdas Pophale) SiO2 
 PCOD9186597
Probable space group: C 2/M
;
_chemical_formula_sum "Si O2"
_cell_formula_units_Z 64
_cell_length_a 20.736812
_cell_length_b 9.228074
_cell_length_c 24.303673
_cell_angle_alpha 90.000000
_cell_angle_beta 121.907446
_cell_angle_gamma 90.000000
_cell_volume 3948.053631
_symmetry_space_group_name_H-M "C 2/M"
_symmetry_group_IT_number 12
_symmetry_cell_setting 'monoclinic'
loop_
_space_group_symop_operation_xyz
x,y,z
-x,y,-z
-x,-y,-z
x,-y,z
1/2+x,1/2+y,z
1/2-x,1/2+y,-z
1/2-x,1/2-y,-z
1/2+x,1/2-y,z
loop_
_atom_site_type_symbol
_atom_site_label
_atom_site_fract_x
_atom_site_fract_y
_atom_site_fract_z
Si Si1 0.713446 0.667042 0.566265
Si Si2 0.910276 0.828262 0.950844
Si Si3 0.027233 0.175011 0.833378
Si Si4 0.615608 0.826420 0.172635
Si Si5 0.796141 0.167532 0.695711
Si Si6 0.868730 0.333910 0.563021
Si Si7 0.550327 0.665679 0.309923
Si Si8 0.670206 0.327615 0.969433
O O1 0.696318 0.500000 0.570886
O O2 0.732393 0.758133 0.629277
O O3 0.791322 0.668527 0.564976
O O4 0.650337 0.739940 0.499194
O O5 0.879773 0.732451 0.887170
O O6 0.901695 0.000000 0.933929
O O7 0.868092 0.797126 0.988865
O O8 0.000000 0.801893 0.000000
O O9 0.108875 0.212245 0.894944
O O10 0.962638 0.259696 0.838020
O O11 0.014439 0.207145 0.763123
O O12 0.015009 0.000000 0.834970
O O13 0.681651 0.759536 0.240763
O O14 0.615008 0.000000 0.175249
O O15 0.872762 0.167692 0.692580
O O16 0.779321 0.000000 0.700962
O O17 0.884005 0.500000 0.555582
O O18 0.933436 0.266934 0.631067
O O19 0.538884 0.500000 0.322908
O O20 0.681347 0.500000 0.970907
O O21 0.750000 0.250000 0.000000
#
# Coordination Sequence:
#
# PCOD9186597 Si02
#       8
#     8   8   8   8   8   8   8   8
#     4   9  15  22  32  47  71 103 143 185 223 264
#     4  10  19  35  55  70  92 127 163 193 235 292
#     4   9  17  32  48  63  87 123 157 187 233 291
#     4  11  20  28  44  70  94 114 149 201 242 272
#     4   9  16  26  38  53  78 112 147 181 227 282
#     4   9  15  21  30  46  71 103 140 179 224 272
#     4   8  14  23  37  53  72 102 145 187 220 263
#     4  10  21  36  54  73  96 126 158 197 242 292
#
# _framework density 16.210519000000001
#
# number of rings (size 3 to 8) (size 9 to 14) (size 15 to 20)
#    0.000    2.625    1.250    3.000    0.000    7.250 
#    0.000    0.000    0.000    0.000    0.000    0.000 
#    0.000    0.000    0.000    1.125    0.000   22.250 
#
# Total GULP energy -178302.924772 kJ/mol
# GULP energy per Si atom -5571.966399 kJ/mol
# Density = 1.617362 g / cm^3
# Si number density = 16.210519 Si / 1000 Ang^3
#
#
#
# Elastic Constant Matrix: (Units=GPa)
#
#
# Indices 1 2 3 4 5 6 
#
# 1 38.4645 25.3770 33.6972 0.0000 6.2192 0.0000
# 2 25.3770 104.4449 89.0998 0.0000 4.2837 0.0000
# 3 33.6972 89.0998 170.4160 0.0000 12.1308 0.0000
# 4 0.0000 0.0000 0.0000 31.0417 0.0000 0.6440
# 5 6.2192 4.2837 12.1308 0.0000 7.0364 0.0000
# 6 0.0000 0.0000 0.0000 0.6440 0.0000 13.6891
#
#
#
# Elastic Compliance Matrix: (Units=1/GPa)
#
#
# Indices 1 2 3 4 5 6 
#
# 1 0.035702 -0.005641 -0.002404 0.000000 -0.023978 0.000000
# 2 -0.005641 0.018382 -0.009180 0.000000 0.009622 0.000000
# 3 -0.002404 -0.009180 0.012076 0.000000 -0.013106 0.000000
# 4 0.000000 0.000000 0.000000 0.032246 0.000000 -0.001517
# 5 -0.023978 0.009622 -0.013106 0.000000 0.180049 0.000000
# 6 0.000000 0.000000 0.000000 -0.001517 0.000000 0.073122
#
#
# Mechanical properties :
#
#
# Convention : Reuss Voigt Hill
#
# Bulk Modulus (GPa) = 31.53490 67.74148 49.63819
# Shear Modulus (GPa) = 12.60729 21.36353 16.98541
#
# Velocity S-wave (km/s) = 2.79179 3.63420 3.24049
# Velocity P-wave (km/s) = 5.46697 7.71292 6.68494
#
# Compressibility (1/GPa) = 0.03171089
#
# Stress axis : x y z
#
# Youngs Moduli (GPa) = 28.00955 54.40168 82.80927
#
# Poissons Ratio (x) = 0.30686 0.19903
# Poissons Ratio (y) = 0.15799 0.76021
# Poissons Ratio (z) = 0.06732 0.49942
#
# Static dielectric constant tensor:
#      x y z
#    x 1.504590 0.000000 0.003860 
#    y 0.000000 1.543580 0.000000 
#    z 0.003860 0.000000 1.562800 
# 
# From -- ./inp_files/345627.got.cif
#   From: 2010.05.17/outbox.cif.g08.bks.cpg/sg12_173_cif.got.tgz:345627.got - 2010.06.03 13:09:07.
