data_PCOD9186353
_publ_section_title
;
Structure prediction by ZEFSAII (Michael W. Deem and Ramdas Pophale) SiO2 
 PCOD9186353
Probable space group: C 2/M
;
_chemical_formula_sum "Si O2"
_cell_formula_units_Z 56
_cell_length_a 15.763501
_cell_length_b 16.772885
_cell_length_c 15.757547
_cell_angle_alpha 90.000000
_cell_angle_beta 38.361031
_cell_angle_gamma 90.000000
_cell_volume 2585.657872
_symmetry_space_group_name_H-M "C 2/M"
_symmetry_group_IT_number 12
_symmetry_cell_setting 'monoclinic'
loop_
_space_group_symop_operation_xyz
x,y,z
-x,y,-z
-x,-y,-z
x,-y,z
1/2+x,1/2+y,z
1/2-x,1/2+y,-z
1/2-x,1/2-y,-z
1/2+x,1/2-y,z
loop_
_atom_site_type_symbol
_atom_site_label
_atom_site_fract_x
_atom_site_fract_y
_atom_site_fract_z
Si Si1 0.583323 0.597010 0.513508
Si Si2 0.620911 0.095896 0.689519
Si Si3 0.099990 0.832631 0.998482
Si Si4 0.901554 0.904991 0.813800
Si Si5 0.682818 0.091938 0.277546
Si Si6 0.594049 0.142620 0.006443
Si Si7 0.356614 0.092466 0.512686
O O1 0.500000 0.629353 0.500000
O O2 0.574342 0.500000 0.521949
O O3 0.740254 0.615679 0.371054
O O4 0.514565 0.622195 0.656025
O O5 0.488794 0.122285 0.843159
O O6 0.654813 0.130306 0.570023
O O7 0.609239 0.000000 0.689050
O O8 0.248192 0.861623 0.851924
O O9 0.075924 0.864585 0.112187
O O10 0.098609 0.737734 0.998001
O O11 0.000000 0.861377 0.000000
O O12 0.914380 0.000000 0.815521
O O13 0.749282 0.888764 0.894764
O O14 0.519913 0.090161 0.396913
O O15 0.711087 0.126964 0.349458
O O16 0.729639 0.000000 0.237815
O O17 0.500000 0.113324 0.000000
O O18 0.307937 0.000000 0.546898
#
# Coordination Sequence:
#
# PCOD9186353 Si02
#       7
#     8   8   8   8   8   8   8
#     4   9  19  35  57  87 120 147 191 261 320 360
#     4  10  19  34  61  89 113 150 203 258 307 358
#     4  11  25  40  59  86 133 173 205 245 306 379
#     4  11  23  40  66  95 121 159 210 264 319 369
#     4   9  17  33  57  85 119 155 199 250 298 355
#     4  11  24  42  63  85 127 169 213 256 305 369
#     4   8  16  30  55  88 115 145 192 254 308 352
#
# _framework density 21.657931000000001
#
# number of rings (size 3 to 8) (size 9 to 14) (size 15 to 20)
#    0.000    2.143    0.000    3.857    2.000    4.571 
#    0.000    0.714   18.857    0.000    0.000    0.000 
#    0.000    0.000    0.000    0.000    0.000    0.000 
#
# Total GULP energy -156178.925972 kJ/mol
# GULP energy per Si atom -5577.818785 kJ/mol
# Density = 2.160864 g / cm^3
# Si number density = 21.657931 Si / 1000 Ang^3
#
#
#
# Elastic Constant Matrix: (Units=GPa)
#
#
# Indices 1 2 3 4 5 6 
#
# 1 52.0029 3.0475 -5.4418 0.0001 7.9054 0.0000
# 2 3.0475 27.1793 8.8558 0.0000 3.4665 0.0000
# 3 -5.4418 8.8558 95.3233 0.0001 5.6807 -0.0001
# 4 0.0001 0.0000 0.0001 52.4971 0.0000 -8.8600
# 5 7.9054 3.4665 5.6807 0.0000 34.0832 0.0000
# 6 0.0000 0.0000 -0.0001 -8.8600 0.0000 7.8459
#
#
#
# Elastic Compliance Matrix: (Units=1/GPa)
#
#
# Indices 1 2 3 4 5 6 
#
# 1 0.020252 -0.002201 0.001644 0.000000 -0.004747 0.000000
# 2 -0.002201 0.038552 -0.003539 0.000000 -0.002821 0.000000
# 3 0.001644 -0.003539 0.011024 0.000000 -0.001859 0.000000
# 4 0.000000 0.000000 0.000000 0.023534 0.000000 0.026576
# 5 -0.004747 -0.002821 -0.001859 0.000000 0.031038 0.000000
# 6 0.000000 0.000000 0.000000 0.026576 0.000000 0.157466
#
#
# Mechanical properties :
#
#
# Convention : Reuss Voigt Hill
#
# Bulk Modulus (GPa) = 16.22430 20.82538 18.52484
# Shear Modulus (GPa) = 16.09764 30.08818 23.09291
#
# Velocity S-wave (km/s) = 2.72925 3.73130 3.26890
# Velocity P-wave (km/s) = 4.17602 5.31036 4.77698
#
# Compressibility (1/GPa) = 0.06163594
#
# Stress axis : x y z
#
# Youngs Moduli (GPa) = 49.37697 25.93872 90.71109
#
# Poissons Ratio (x) = 0.05709 -0.14909
# Poissons Ratio (y) = 0.10867 0.32104
# Poissons Ratio (z) = -0.08115 0.09180
#
# Static dielectric constant tensor:
#      x y z
#    x 1.932070 0.000000 0.018020 
#    y 0.000000 1.733560 0.000000 
#    z 0.018020 0.000000 1.765290 
# 
# From -- ./inp_files/217685.got.cif
#   From: 2010.05.17/outbox.cif.g08.bks.cpg/sg12_109_cif.got.tgz:217685.got - 2010.06.03 13:09:07.
