data_PCOD9186967
_publ_section_title
;
Structure prediction by ZEFSAII (Michael W. Deem and Ramdas Pophale) SiO2 
 PCOD9186967
Probable space group: C 2/M
;
_chemical_formula_sum "Si O2"
_cell_formula_units_Z 52
_cell_length_a 26.135446
_cell_length_b 15.498962
_cell_length_c 20.103491
_cell_angle_alpha 90.000000
_cell_angle_beta 20.106635
_cell_angle_gamma 90.000000
_cell_volume 2799.432593
_symmetry_space_group_name_H-M "C 2/M"
_symmetry_group_IT_number 12
_symmetry_cell_setting 'monoclinic'
loop_
_space_group_symop_operation_xyz
x,y,z
-x,y,-z
-x,-y,-z
x,-y,z
1/2+x,1/2+y,z
1/2-x,1/2+y,-z
1/2-x,1/2-y,-z
1/2+x,1/2-y,z
loop_
_atom_site_type_symbol
_atom_site_label
_atom_site_fract_x
_atom_site_fract_y
_atom_site_fract_z
Si Si1 0.378076 0.324813 0.758490
Si Si2 0.337766 0.803503 0.447996
Si Si3 0.500000 0.715530 0.000000
Si Si4 0.210869 0.814638 0.363756
Si Si5 0.822364 0.500000 0.212646
Si Si6 0.336049 0.500000 0.733534
Si Si7 0.616249 0.291026 0.091614
Si Si8 0.565474 0.598694 0.792379
O O1 0.549868 0.313987 0.525668
O O2 0.322326 0.413388 0.793959
O O3 0.373797 0.327355 0.845102
O O4 0.273370 0.242406 0.871992
O O5 0.250000 0.750000 0.500000
O O6 0.314526 0.747377 0.542571
O O7 0.511937 0.795240 0.221316
O O8 0.244250 0.890911 0.564163
O O9 0.640071 0.775132 0.850034
O O10 0.533773 0.654994 0.896352
O O11 0.251289 0.913564 0.330585
O O12 0.776239 0.500000 0.191339
O O13 0.000000 0.500000 0.000000
O O14 0.500000 0.500000 0.500000
O O15 0.529115 0.358386 0.151748
O O16 0.524242 0.500000 0.851007
#
# Coordination Sequence:
#
# PCOD9186967 Si02
#       8
#     8   8   4   8   4   4   8   8
#     4  10  21  38  58  83 117 153 198 237 288 354
#     4   8  17  35  54  80 112 142 192 232 288 337
#     4  10  21  35  58  82 116 152 192 245 291 346
#     4  10  19  35  57  80 115 157 187 241 285 354
#     4  12  24  36  54  90 122 154 202 233 296 353
#     4  12  24  36  58  88 126 155 193 243 296 359
#     4   9  20  37  61  82 112 155 198 238 289 350
#     4  10  20  35  59  84 112 146 195 242 295 343
#
# _framework density 18.575192999999999
#
# number of rings (size 3 to 8) (size 9 to 14) (size 15 to 20)
#    0.000    2.154    2.308    0.231    3.231    1.231 
#    9.692    0.000    0.000    2.769    0.000    0.000 
#    0.000    0.000    0.000    0.000    0.000    0.000 
#
# Total GULP energy -144780.029656 kJ/mol
# GULP energy per Si atom -5568.462679 kJ/mol
# Density = 1.853292 g / cm^3
# Si number density = 18.575193 Si / 1000 Ang^3
#
#
#
# Elastic Constant Matrix: (Units=GPa)
#
#
# Indices 1 2 3 4 5 6 
#
# 1 65.8765 13.6410 -1.6240 -0.0002 -19.8638 0.0000
# 2 13.6410 100.5936 30.3864 -0.0005 -11.4174 0.0002
# 3 -1.6240 30.3864 97.4650 -0.0008 -26.2670 0.0001
# 4 -0.0002 -0.0005 -0.0008 21.4980 0.0003 -4.0539
# 5 -19.8638 -11.4174 -26.2670 0.0003 23.5777 0.0001
# 6 0.0000 0.0002 0.0001 -4.0539 0.0001 13.9810
#
#
#
# Elastic Compliance Matrix: (Units=1/GPa)
#
#
# Indices 1 2 3 4 5 6 
#
# 1 0.025173 -0.002831 0.009501 0.000000 0.030421 0.000000
# 2 -0.002831 0.011369 -0.003931 0.000000 -0.001258 0.000000
# 3 0.009501 -0.003931 0.018989 0.000000 0.027256 0.000000
# 4 0.000000 0.000000 0.000000 0.049206 0.000000 0.014268
# 5 0.030421 -0.001258 0.027256 0.000000 0.097798 -0.000001
# 6 0.000000 0.000000 0.000000 0.014268 -0.000001 0.075663
#
#
# Mechanical properties :
#
#
# Convention : Reuss Voigt Hill
#
# Bulk Modulus (GPa) = 16.39071 38.74909 27.56990
# Shear Modulus (GPa) = 17.06149 26.58012 21.82080
#
# Velocity S-wave (km/s) = 3.03398 3.78689 3.43115
# Velocity P-wave (km/s) = 4.59527 6.32666 5.52916
#
# Compressibility (1/GPa) = 0.06101018
#
# Stress axis : x y z
#
# Youngs Moduli (GPa) = 39.72467 87.95521 52.66081
#
# Poissons Ratio (x) = 0.24897 -0.50031
# Poissons Ratio (y) = 0.11245 0.20701
# Poissons Ratio (z) = -0.37741 0.34575
#
# Static dielectric constant tensor:
#      x y z
#    x 1.646130 0.000000 0.000750 
#    y 0.000000 1.611450 0.000000 
#    z 0.000750 0.000000 1.718630 
# 
# From -- ./inp_files/328317.got.cif
#   From: 2010.05.17/outbox.cif.g08.bks.cpg/sg12_165_cif.got.tgz:328317.got - 2010.06.03 13:09:07.
