data_PCOD9186707
_publ_section_title
;
Structure prediction by ZEFSAII (Michael W. Deem and Ramdas Pophale) SiO2 
 PCOD9186707
Probable space group: C 2/M
;
_chemical_formula_sum "Si O2"
_cell_formula_units_Z 48
_cell_length_a 13.959324
_cell_length_b 18.717495
_cell_length_c 14.915728
_cell_angle_alpha 90.000000
_cell_angle_beta 141.340454
_cell_angle_gamma 90.000000
_cell_volume 2434.569329
_symmetry_space_group_name_H-M "C 2/M"
_symmetry_group_IT_number 12
_symmetry_cell_setting 'monoclinic'
loop_
_space_group_symop_operation_xyz
x,y,z
-x,y,-z
-x,-y,-z
x,-y,z
1/2+x,1/2+y,z
1/2-x,1/2+y,-z
1/2-x,1/2-y,-z
1/2+x,1/2-y,z
loop_
_atom_site_type_symbol
_atom_site_label
_atom_site_fract_x
_atom_site_fract_y
_atom_site_fract_z
Si Si1 0.260817 0.582897 0.328782
Si Si2 0.974806 0.582094 0.232403
Si Si3 0.328590 0.362267 0.067170
Si Si4 0.005540 0.136199 0.642919
Si Si5 0.456670 0.203892 0.365106
Si Si6 0.646825 0.250681 0.058291
O O1 0.261707 0.500000 0.302775
O O2 0.091265 0.602559 0.237096
O O3 0.370224 0.594673 0.494760
O O4 0.344366 0.625671 0.310898
O O5 0.009476 0.500000 0.282518
O O6 0.996593 0.638364 0.328750
O O7 0.800305 0.587696 0.069789
O O8 0.451939 0.391191 0.227558
O O9 0.231595 0.306333 0.057334
O O10 0.403183 0.315621 0.043094
O O11 0.969509 0.220973 0.614599
O O12 0.500000 0.192637 0.500000
O O13 0.275095 0.217651 0.218530
O O14 0.500000 0.220396 0.000000
#
# Coordination Sequence:
#
# PCOD9186707 Si02
#       6
#     8   8   8   8   8   8
#     4  10  21  36  54  81 116 148 177 225 283 337
#     4  10  23  38  53  79 115 150 186 226 274 334
#     4   9  20  34  53  82 107 146 183 223 278 326
#     4  10  19  35  55  84 110 138 188 231 276 329
#     4  10  20  36  56  83 107 145 189 228 278 318
#     4   9  19  34  55  81 114 137 178 237 278 320
#
# _framework density 19.716011999999999
#
# number of rings (size 3 to 8) (size 9 to 14) (size 15 to 20)
#    0.000    2.333    1.667    2.000    4.667    3.667 
#    0.000    1.667    0.000    8.000    0.000    0.000 
#    0.000    0.000    0.000    0.000    0.000    0.000 
#
# Total GULP energy -133845.650142 kJ/mol
# GULP energy per Si atom -5576.902089 kJ/mol
# Density = 1.967114 g / cm^3
# Si number density = 19.716012 Si / 1000 Ang^3
#
#
#
# Elastic Constant Matrix: (Units=GPa)
#
#
# Indices 1 2 3 4 5 6 
#
# 1 26.0379 22.1213 6.8517 -0.0001 -5.0209 -0.0001
# 2 22.1213 74.6162 8.1124 -0.0001 -9.9379 0.0000
# 3 6.8517 8.1124 57.5175 -0.0001 -31.3671 -0.0001
# 4 -0.0001 -0.0001 -0.0001 18.9129 -0.0001 0.3210
# 5 -5.0209 -9.9379 -31.3671 -0.0001 22.5239 -0.0001
# 6 -0.0001 0.0000 -0.0001 0.3210 -0.0001 17.9421
#
#
#
# Elastic Compliance Matrix: (Units=1/GPa)
#
#
# Indices 1 2 3 4 5 6 
#
# 1 0.052323 -0.015303 -0.005804 0.000000 -0.003171 0.000000
# 2 -0.015303 0.019212 0.007798 0.000000 0.015924 0.000000
# 3 -0.005804 0.007798 0.075448 0.000001 0.107217 0.000001
# 4 0.000000 0.000000 0.000001 0.052890 0.000002 -0.000946
# 5 -0.003171 0.015924 0.107217 0.000002 0.200028 0.000002
# 6 0.000000 0.000000 0.000001 -0.000946 0.000002 0.055752
#
#
# Mechanical properties :
#
#
# Convention : Reuss Voigt Hill
#
# Bulk Modulus (GPa) = 8.30813 25.81583 17.06198
# Shear Modulus (GPa) = 9.57134 19.94818 14.75976
#
# Velocity S-wave (km/s) = 2.20571 3.18429 2.73906
# Velocity P-wave (km/s) = 3.27260 5.16158 4.32156
#
# Compressibility (1/GPa) = 0.12036405
#
# Stress axis : x y z
#
# Youngs Moduli (GPa) = 19.11214 52.05075 13.25415
#
# Poissons Ratio (x) = 0.79655 0.07692
# Poissons Ratio (y) = 0.29248 -0.10335
# Poissons Ratio (z) = 0.11092 -0.40587
#
# Static dielectric constant tensor:
#      x y z
#    x 1.674930 0.000000 0.003190 
#    y 0.000000 1.692950 0.000000 
#    z 0.003190 0.000000 1.737020 
# 
# From -- ./inp_files/216478.got.cif
#   From: 2010.05.17/outbox.cif.g08.bks.cpg/sg12_109_cif.got.tgz:216478.got - 2010.06.03 13:09:07.
