data_PCOD9186713
_publ_section_title
;
Structure prediction by ZEFSAII (Michael W. Deem and Ramdas Pophale) SiO2 
 PCOD9186713
Probable space group: C 2/M
;
_chemical_formula_sum "Si O2"
_cell_formula_units_Z 64
_cell_length_a 20.446075
_cell_length_b 22.761956
_cell_length_c 16.233287
_cell_angle_alpha 90.000000
_cell_angle_beta 153.980831
_cell_angle_gamma 90.000000
_cell_volume 3314.100980
_symmetry_space_group_name_H-M "C 2/M"
_symmetry_group_IT_number 12
_symmetry_cell_setting 'monoclinic'
loop_
_space_group_symop_operation_xyz
x,y,z
-x,y,-z
-x,-y,-z
x,-y,z
1/2+x,1/2+y,z
1/2-x,1/2+y,-z
1/2-x,1/2-y,-z
1/2+x,1/2-y,z
loop_
_atom_site_type_symbol
_atom_site_label
_atom_site_fract_x
_atom_site_fract_y
_atom_site_fract_z
Si Si1 0.171785 0.738585 0.721667
Si Si2 0.563017 0.567223 0.205614
Si Si3 0.097725 0.654336 0.780959
Si Si4 0.292712 0.932886 0.221571
Si Si5 0.563404 0.430241 0.401958
Si Si6 0.224165 0.864167 0.854625
Si Si7 0.780359 0.651810 0.354772
Si Si8 0.334313 0.070077 0.825929
O O1 0.182964 0.701480 0.819078
O O2 0.200259 0.805873 0.773480
O O3 0.262138 0.708446 0.748902
O O4 0.000000 0.731914 0.500000
O O5 0.609084 0.500000 0.234066
O O6 0.586366 0.574093 0.329922
O O7 0.652374 0.617013 0.257865
O O8 0.386929 0.571842 0.989018
O O9 0.137288 0.592642 0.782268
O O10 0.921100 0.665299 0.572660
O O11 0.160721 0.652288 0.943347
O O12 0.338138 0.893156 0.349891
O O13 0.331513 0.000000 0.278094
O O14 0.532722 0.500000 0.384672
O O15 0.426322 0.389650 0.274999
O O16 0.709644 0.411458 0.618500
O O17 0.282900 0.912937 0.858611
O O18 0.341689 0.000000 0.826403
O O19 0.500000 0.094653 0.000000
#
# Coordination Sequence:
#
# PCOD9186713 Si02
#       8
#     8   8   8   8   8   8   8   8
#     4   9  20  39  60  82 112 150 195 244 288 335
#     4  10  20  35  58  88 122 154 190 232 283 348
#     4  10  22  36  56  86 117 150 194 242 286 335
#     4  10  19  35  55  85 121 155 196 232 277 348
#     4  10  21  38  60  90 119 149 194 238 282 346
#     4  12  21  38  66  84 110 154 201 237 286 343
#     4  10  21  36  56  84 119 158 187 235 291 341
#     4  10  23  40  59  86 120 150 184 240 299 342
#
# _framework density 19.311420999999999
#
# number of rings (size 3 to 8) (size 9 to 14) (size 15 to 20)
#    0.000    1.875    1.250    3.750    1.750    4.000 
#    0.000    2.500    0.000    2.250    0.000    0.000 
#    0.000    0.000    0.000    0.000    0.000    0.000 
#
# Total GULP energy -178628.408907 kJ/mol
# GULP energy per Si atom -5582.137778 kJ/mol
# Density = 1.926747 g / cm^3
# Si number density = 19.311421 Si / 1000 Ang^3
#
#
#
# Elastic Constant Matrix: (Units=GPa)
#
#
# Indices 1 2 3 4 5 6 
#
# 1 62.6805 6.8253 26.5548 0.0000 -8.4145 0.0000
# 2 6.8253 40.7250 8.1726 0.0000 -0.9051 0.0000
# 3 26.5548 8.1726 88.1079 0.0000 -20.7917 0.0000
# 4 0.0000 0.0000 0.0000 11.6147 0.0000 -7.9528
# 5 -8.4145 -0.9051 -20.7917 0.0000 21.1967 0.0000
# 6 0.0000 0.0000 0.0000 -7.9528 0.0000 22.9652
#
#
#
# Elastic Compliance Matrix: (Units=1/GPa)
#
#
# Indices 1 2 3 4 5 6 
#
# 1 0.018557 -0.002091 -0.004791 0.000000 0.002578 0.000000
# 2 -0.002091 0.025297 -0.002156 0.000000 -0.001865 0.000000
# 3 -0.004791 -0.002156 0.016295 0.000000 0.013990 0.000000
# 4 0.000000 0.000000 0.000000 0.112858 0.000000 0.039083
# 5 0.002578 -0.001865 0.013990 0.000000 0.061844 0.000000
# 6 0.000000 0.000000 0.000000 0.039083 0.000000 0.057079
#
#
# Mechanical properties :
#
#
# Convention : Reuss Voigt Hill
#
# Bulk Modulus (GPa) = 23.76854 30.51322 27.14088
# Shear Modulus (GPa) = 15.43067 21.15270 18.29168
#
# Velocity S-wave (km/s) = 2.82980 3.31319 3.08099
# Velocity P-wave (km/s) = 4.79706 5.52008 5.17122
#
# Compressibility (1/GPa) = 0.04207242
#
# Stress axis : x y z
#
# Youngs Moduli (GPa) = 53.88711 39.53083 61.36913
#
# Poissons Ratio (x) = 0.08268 0.29399
# Poissons Ratio (y) = 0.11270 0.13233
# Poissons Ratio (z) = 0.25815 0.08524
#
# Static dielectric constant tensor:
#      x y z
#    x 1.649740 0.000000 0.000920 
#    y 0.000000 1.685200 0.000000 
#    z 0.000920 0.000000 1.690060 
# 
# From -- ./inp_files/228194.got.cif
#   From: 2010.05.17/outbox.cif.g08.bks.cpg/sg12_115_cif.got.tgz:228194.got - 2010.06.03 13:09:07.
