data_PCOD9186599
_publ_section_title
;
Structure prediction by ZEFSAII (Michael W. Deem and Ramdas Pophale) SiO2 
 PCOD9186599
Probable space group: C 2/M
;
_chemical_formula_sum "Si O2"
_cell_formula_units_Z 56
_cell_length_a 14.964894
_cell_length_b 7.542600
_cell_length_c 31.418160
_cell_angle_alpha 90.000000
_cell_angle_beta 128.482760
_cell_angle_gamma 90.000000
_cell_volume 2776.027423
_symmetry_space_group_name_H-M "C 2/M"
_symmetry_group_IT_number 12
_symmetry_cell_setting 'monoclinic'
loop_
_space_group_symop_operation_xyz
x,y,z
-x,y,-z
-x,-y,-z
x,-y,z
1/2+x,1/2+y,z
1/2-x,1/2+y,-z
1/2-x,1/2-y,-z
1/2+x,1/2-y,z
loop_
_atom_site_type_symbol
_atom_site_label
_atom_site_fract_x
_atom_site_fract_y
_atom_site_fract_z
Si Si1 0.309421 0.210852 0.562695
Si Si2 0.105652 0.782717 0.560909
Si Si3 0.922025 0.716908 0.937910
Si Si4 0.430835 0.703912 0.356005
Si Si5 0.197082 0.217196 0.764834
Si Si6 0.163412 0.212008 0.850141
Si Si7 0.543783 0.211846 0.147415
O O1 0.250000 0.250000 0.500000
O O2 0.221832 0.270084 0.572747
O O3 0.432645 0.294256 0.604599
O O4 0.324167 0.000000 0.570086
O O5 0.099249 0.716101 0.607092
O O6 0.000000 0.725609 0.500000
O O7 0.100377 0.000000 0.560045
O O8 0.922988 0.500000 0.938709
O O9 0.789407 0.773442 0.902383
O O10 0.968627 0.773712 0.905281
O O11 0.000000 0.777206 0.000000
O O12 0.390781 0.500000 0.345765
O O13 0.375336 0.780780 0.296985
O O14 0.150338 0.275119 0.797295
O O15 0.329973 0.271879 0.800461
O O16 0.193550 0.000000 0.764176
O O17 0.059711 0.249591 0.851333
O O18 0.170988 0.000000 0.850109
O O19 0.550847 0.000000 0.147252
#
# Coordination Sequence:
#
# PCOD9186599 Si02
#       7
#     8   8   8   8   8   8   8
#     4  11  21  34  52  75 100 126 158 195 240 291
#     4   9  17  31  50  70  92 121 153 184 229 286
#     4   8  15  29  48  70 100 137 171 201 241 298
#     4  10  19  35  55  71  93 127 163 199 241 291
#     4   8  17  33  51  69  93 129 165 195 239 302
#     4   9  17  31  50  72  98 129 165 205 248 290
#     4   9  17  31  51  73  96 128 171 207 240 290
#
# _framework density 20.172709999999999
#
# number of rings (size 3 to 8) (size 9 to 14) (size 15 to 20)
#    0.000    2.857    1.429    2.143    0.000    1.714 
#    0.000    7.857    0.000    0.857    0.000    0.000 
#    0.000    0.000    0.000    0.000    0.000    0.000 
#
# Total GULP energy -156149.694384 kJ/mol
# GULP energy per Si atom -5576.774799 kJ/mol
# Density = 2.012680 g / cm^3
# Si number density = 20.172710 Si / 1000 Ang^3
#
#
#
# Elastic Constant Matrix: (Units=GPa)
#
#
# Indices 1 2 3 4 5 6 
#
# 1 200.5745 -3.9104 110.8245 0.0000 -18.4081 0.0000
# 2 -3.9104 47.1042 2.1864 0.0000 -3.0592 0.0000
# 3 110.8245 2.1864 212.1735 0.0000 -19.9349 0.0000
# 4 0.0000 0.0000 0.0000 0.3509 0.0000 4.8253
# 5 -18.4081 -3.0592 -19.9349 0.0000 17.0960 0.0000
# 6 0.0000 0.0000 0.0000 4.8253 0.0000 23.5575
#
#
#
# Elastic Compliance Matrix: (Units=1/GPa)
#
#
# Indices 1 2 3 4 5 6 
#
# 1 0.007269 0.001023 -0.003431 0.000000 0.004010 0.000000
# 2 0.001023 0.021628 -0.000326 0.000000 0.004592 0.000000
# 3 -0.003431 -0.000326 0.006913 0.000000 0.004309 0.000000
# 4 0.000000 0.000000 0.000000 -1.568801 0.000000 0.321338
# 5 0.004010 0.004592 0.004309 0.000000 0.068657 0.000000
# 6 0.000000 0.000000 0.000000 0.321338 0.000000 -0.023370
#
#
# Mechanical properties :
#
#
# Convention : Reuss Voigt Hill
#
# Bulk Modulus (GPa) = 32.95609 75.33924 54.14766
# Shear Modulus (GPa) = -3.39646 31.58434 14.09394
#
# Velocity S-wave (km/s) = -1.29898 3.96118 2.64609
# Velocity P-wave (km/s) = 3.75801 7.63868 6.01964
#
# Compressibility (1/GPa) = 0.03034341
#
# Stress axis : x y z
#
# Youngs Moduli (GPa) = 137.56609 46.23680 144.64858
#
# Poissons Ratio (x) = -0.04731 0.49625
# Poissons Ratio (y) = -0.14075 0.04713
# Poissons Ratio (z) = 0.47195 0.01507
#
# Static dielectric constant tensor:
#      x y z
#    x 1.696930 0.000000 -0.011880 
#    y 0.000000 1.766700 0.000000 
#    z -0.011880 0.000000 1.709240 
# 
# From -- ./inp_files/338186.got.cif
#   From: 2010.05.17/outbox.cif.g08.bks.cpg/sg12_170_cif.got.tgz:338186.got - 2010.06.03 13:09:07.
