data_PCOD9186565
_publ_section_title
;
Structure prediction by ZEFSAII (Michael W. Deem and Ramdas Pophale) SiO2 
 PCOD9186565
Probable space group: C 2/M
;
_chemical_formula_sum "Si O2"
_cell_formula_units_Z 40
_cell_length_a 5.441700
_cell_length_b 24.889324
_cell_length_c 19.207319
_cell_angle_alpha 90.000000
_cell_angle_beta 126.016084
_cell_angle_gamma 90.000000
_cell_volume 2104.182907
_symmetry_space_group_name_H-M "C 2/M"
_symmetry_group_IT_number 12
_symmetry_cell_setting 'monoclinic'
loop_
_space_group_symop_operation_xyz
x,y,z
-x,y,-z
-x,-y,-z
x,-y,z
1/2+x,1/2+y,z
1/2-x,1/2+y,-z
1/2-x,1/2-y,-z
1/2+x,1/2-y,z
loop_
_atom_site_type_symbol
_atom_site_label
_atom_site_fract_x
_atom_site_fract_y
_atom_site_fract_z
Si Si1 0.169035 0.564177 0.101437
Si Si2 0.169290 0.232009 0.096154
Si Si3 0.784698 0.318859 0.662973
Si Si4 0.650331 0.199295 0.597900
Si Si5 0.274557 0.120379 0.156778
O O1 0.166791 0.500000 0.109837
O O2 0.514802 0.584940 0.150034
O O3 0.983094 0.590392 0.134572
O O4 0.000000 0.576573 0.000000
O O5 0.523321 0.240717 0.139203
O O6 0.102832 0.169507 0.090656
O O7 0.000000 0.255921 0.000000
O O8 0.754782 0.253432 0.655950
O O9 0.445699 0.335131 0.628268
O O10 0.907492 0.330173 0.605965
O O11 0.017856 0.347521 0.753334
O O12 0.500000 0.216431 0.500000
#
# Coordination Sequence:
#
# PCOD9186565 Si02
#       5
#     8   8   8   8   8
#     4  11  24  43  63  80 104 147 200 257 309 340
#     4  10  21  33  48  71 107 151 185 212 258 328
#     4  10  20  30  52  82 112 149 183 224 281 313
#     4  10  19  35  54  79 120 160 192 217 253 329
#     4  12  23  36  59  84 115 141 193 245 290 343
#
# _framework density 19.009753
#
# number of rings (size 3 to 8) (size 9 to 14) (size 15 to 20)
#    0.000    1.400    0.000    7.800    5.600    3.200 
#    0.000    0.000    0.000    0.000    0.000    0.000 
#    0.000   92.800    0.000    0.000    0.000    0.000 
#
# Total GULP energy -111489.129414 kJ/mol
# GULP energy per Si atom -5574.456471 kJ/mol
# Density = 1.896649 g / cm^3
# Si number density = 19.009753 Si / 1000 Ang^3
#
#
#
# Elastic Constant Matrix: (Units=GPa)
#
#
# Indices 1 2 3 4 5 6 
#
# 1 149.2255 27.0591 -5.4624 0.0000 -9.3791 0.0000
# 2 27.0591 67.7456 19.7657 0.0000 -7.5677 0.0000
# 3 -5.4624 19.7657 71.6465 0.0000 -4.8109 0.0000
# 4 0.0000 0.0000 0.0000 13.2683 0.0000 -1.0447
# 5 -9.3791 -7.5677 -4.8109 0.0000 28.1351 0.0000
# 6 0.0000 0.0000 0.0000 -1.0447 0.0000 31.9329
#
#
#
# Elastic Compliance Matrix: (Units=1/GPa)
#
#
# Indices 1 2 3 4 5 6 
#
# 1 0.007465 -0.003234 0.001588 0.000000 0.001890 0.000000
# 2 -0.003234 0.017823 -0.004971 0.000000 0.002866 0.000000
# 3 0.001588 -0.004971 0.015575 0.000000 0.001855 0.000000
# 4 0.000000 0.000000 0.000000 0.075563 0.000000 0.002472
# 5 0.001890 0.002866 0.001855 0.000000 0.037261 0.000000
# 6 0.000000 0.000000 0.000000 0.002472 0.000000 0.031397
#
#
# Mechanical properties :
#
#
# Convention : Reuss Voigt Hill
#
# Bulk Modulus (GPa) = 36.19401 41.26029 38.72715
# Shear Modulus (GPa) = 24.09342 31.15093 27.62217
#
# Velocity S-wave (km/s) = 3.56395 4.05245 3.81603
# Velocity P-wave (km/s) = 6.00139 6.60670 6.31131
#
# Compressibility (1/GPa) = 0.02762888
#
# Stress axis : x y z
#
# Youngs Moduli (GPa) = 133.96607 56.10641 64.20749
#
# Poissons Ratio (x) = 0.18143 -0.10197
# Poissons Ratio (y) = 0.43321 0.31918
# Poissons Ratio (z) = -0.21276 0.27891
#
# Static dielectric constant tensor:
#      x y z
#    x 1.784690 0.000000 0.005710 
#    y 0.000000 1.617690 0.000000 
#    z 0.005710 0.000000 1.719050 
# 
# From -- ./inp_files/191470.got.cif
#   From: 2010.05.17/outbox.cif.g08.bks.cpg/sg12_96_cif.got.tgz:191470.got - 2010.06.03 13:09:07.
