data_PCOD9186492
_publ_section_title
;
Structure prediction by ZEFSAII (Michael W. Deem and Ramdas Pophale) SiO2 
 PCOD9186492
Probable space group: C 2/M
;
_chemical_formula_sum "Si O2"
_cell_formula_units_Z 56
_cell_length_a 12.485749
_cell_length_b 19.162883
_cell_length_c 18.368910
_cell_angle_alpha 90.000000
_cell_angle_beta 50.277587
_cell_angle_gamma 90.000000
_cell_volume 3380.412241
_symmetry_space_group_name_H-M "C 2/M"
_symmetry_group_IT_number 12
_symmetry_cell_setting 'monoclinic'
loop_
_space_group_symop_operation_xyz
x,y,z
-x,y,-z
-x,-y,-z
x,-y,z
1/2+x,1/2+y,z
1/2-x,1/2+y,-z
1/2-x,1/2-y,-z
1/2+x,1/2-y,z
loop_
_atom_site_type_symbol
_atom_site_label
_atom_site_fract_x
_atom_site_fract_y
_atom_site_fract_z
Si Si1 0.052825 0.210528 0.080239
Si Si2 0.138219 0.175061 0.206270
Si Si3 0.231700 0.819040 0.860689
Si Si4 0.994301 0.915688 0.381031
Si Si5 0.944850 0.369860 0.102446
Si Si6 0.481916 0.920245 0.774378
Si Si7 0.724277 0.584109 0.404539
O O1 0.103398 0.184682 0.136367
O O2 0.910594 0.170051 0.121657
O O3 0.006254 0.292026 0.093845
O O4 0.171027 0.199493 0.967602
O O5 0.181521 0.253827 0.209307
O O6 0.019531 0.133786 0.301193
O O7 0.279732 0.133707 0.162544
O O8 0.340244 0.880842 0.818832
O O9 0.120446 0.899615 0.382848
O O10 0.854037 0.898147 0.486671
O O11 0.996763 0.000000 0.365215
O O12 0.987380 0.415320 0.152732
O O13 0.000000 0.392188 0.000000
O O14 0.620661 0.888219 0.676522
O O15 0.468942 0.000000 0.757528
O O16 0.733911 0.500000 0.399598
#
# Coordination Sequence:
#
# PCOD9186492 Si02
#       7
#     8   8   8   8   8   8   8
#     4  10  19  35  53  73 102 146 181 204 247 324
#     4  11  18  29  55  80 102 132 175 222 254 300
#     4  10  20  35  54  73 102 148 185 201 251 319
#     4   9  17  31  51  78 106 135 169 211 267 318
#     4  11  19  31  52  79 105 134 173 213 263 313
#     4  11  21  34  53  77 106 137 176 221 260 306
#     4   8  16  32  52  73 105 140 167 202 266 335
#
# _framework density 16.566026999999998
#
# number of rings (size 3 to 8) (size 9 to 14) (size 15 to 20)
#    0.000    2.000    5.714    2.143    0.000    0.286 
#    0.000    5.000    0.000    0.857    0.000    3.000 
#    0.000    0.000    0.000    0.000    0.000    0.000 
#
# Total GULP energy -155928.681644 kJ/mol
# GULP energy per Si atom -5568.881487 kJ/mol
# Density = 1.652832 g / cm^3
# Si number density = 16.566027 Si / 1000 Ang^3
#
#
#
# Elastic Constant Matrix: (Units=GPa)
#
#
# Indices 1 2 3 4 5 6 
#
# 1 66.2492 21.8419 24.9031 0.0000 -12.5687 -0.0001
# 2 21.8419 35.9068 36.5986 0.0001 -7.2137 -0.0002
# 3 24.9031 36.5986 97.9743 0.0001 -13.4401 -0.0002
# 4 0.0000 0.0001 0.0001 32.3756 -0.0001 -15.0062
# 5 -12.5687 -7.2137 -13.4401 -0.0001 22.8196 0.0002
# 6 -0.0001 -0.0002 -0.0002 -15.0062 0.0002 75.0801
#
#
#
# Elastic Compliance Matrix: (Units=1/GPa)
#
#
# Indices 1 2 3 4 5 6 
#
# 1 0.020068 -0.010563 -0.000106 0.000000 0.007652 0.000000
# 2 -0.010563 0.051001 -0.016268 0.000000 0.000724 0.000000
# 3 -0.000106 -0.016268 0.016968 0.000000 0.004793 0.000000
# 4 0.000000 0.000000 0.000000 0.034041 0.000000 0.006804
# 5 0.007652 0.000724 0.004793 0.000000 0.051088 0.000000
# 6 0.000000 0.000000 0.000000 0.006804 0.000000 0.014679
#
#
# Mechanical properties :
#
#
# Convention : Reuss Voigt Hill
#
# Bulk Modulus (GPa) = 29.26875 40.75751 35.01313
# Shear Modulus (GPa) = 19.75454 33.84084 26.79769
#
# Velocity S-wave (km/s) = 3.45697 4.52462 4.02634
# Velocity P-wave (km/s) = 5.80004 7.20783 6.54191
#
# Compressibility (1/GPa) = 0.03416613
#
# Stress axis : x y z
#
# Youngs Moduli (GPa) = 49.82964 19.60728 58.93467
#
# Poissons Ratio (x) = 0.20710 0.00622
# Poissons Ratio (y) = 0.52633 0.95873
# Poissons Ratio (z) = 0.00526 0.31897
#
# Static dielectric constant tensor:
#      x y z
#    x 1.565050 0.000000 -0.013580 
#    y 0.000000 1.560300 0.000000 
#    z -0.013580 0.000000 1.593700 
# 
# From -- ./inp_files/264228.got.cif
#   From: 2010.05.17/outbox.cif.g08.bks.cpg/sg12_133_cif.got.tgz:264228.got - 2010.06.03 13:09:07.
