data_PCOD9186433
_publ_section_title
;
Structure prediction by ZEFSAII (Michael W. Deem and Ramdas Pophale) SiO2 
 PCOD9186433
Probable space group: C 2/M
;
_chemical_formula_sum "Si O2"
_cell_formula_units_Z 56
_cell_length_a 9.333727
_cell_length_b 16.839395
_cell_length_c 15.391806
_cell_angle_alpha 90.000000
_cell_angle_beta 88.344359
_cell_angle_gamma 90.000000
_cell_volume 2418.186631
_symmetry_space_group_name_H-M "C 2/M"
_symmetry_group_IT_number 12
_symmetry_cell_setting 'monoclinic'
loop_
_space_group_symop_operation_xyz
x,y,z
-x,y,-z
-x,-y,-z
x,-y,z
1/2+x,1/2+y,z
1/2-x,1/2+y,-z
1/2-x,1/2-y,-z
1/2+x,1/2-y,z
loop_
_atom_site_type_symbol
_atom_site_label
_atom_site_fract_x
_atom_site_fract_y
_atom_site_fract_z
Si Si1 0.054054 0.771309 0.374337
Si Si2 0.649775 0.500000 0.546139
Si Si3 0.854629 0.593818 0.855951
Si Si4 0.682795 0.158622 0.625652
Si Si5 0.795922 0.858668 0.317062
Si Si6 0.819324 0.402680 0.190779
Si Si7 0.406944 0.000000 0.418200
Si Si8 0.838931 0.903250 0.984189
O O1 0.159906 0.833526 0.419668
O O2 0.172861 0.705832 0.344428
O O3 0.922050 0.722003 0.417205
O O4 0.953046 0.817845 0.307227
O O5 0.500000 0.500000 0.500000
O O6 0.684803 0.424850 0.608171
O O7 0.751105 0.500000 0.460999
O O8 0.870134 0.500000 0.870663
O O9 0.757836 0.606081 0.772453
O O10 0.017359 0.620152 0.836397
O O11 0.772537 0.627166 0.941210
O O12 0.722730 0.152764 0.727144
O O13 0.580517 0.081440 0.629744
O O14 0.810484 0.500000 0.208793
O O15 0.718199 0.386090 0.110786
O O16 0.500000 0.000000 0.500000
O O17 0.841244 0.000000 0.990950
O O18 0.000000 0.875233 0.000000
#
# Coordination Sequence:
#
# PCOD9186433 Si02
#       8
#     8   4   8   8   8   8   4   8
#     4  10  24  40  66  91 132 172 218 254 316 397
#     4  12  26  46  68 103 130 159 213 278 323 374
#     4  10  19  34  63  92 124 171 216 267 321 374
#     4  11  22  44  62  98 124 176 213 262 318 379
#     4  11  22  44  66  94 130 172 217 262 320 385
#     4  10  19  34  63  90 128 166 221 265 318 379
#     4  12  26  42  72  99 130 159 213 272 319 378
#     4   9  19  33  51  96 135 162 206 276 325 368
#
# _framework density 23.157848000000001
#
# number of rings (size 3 to 8) (size 9 to 14) (size 15 to 20)
#    0.000    1.571    2.857    2.143    2.000    1.714 
#    0.000   14.286    0.000    5.143    0.000    0.000 
#    0.000    0.000    0.000    0.000    0.000    0.000 
#
# Total GULP energy -155984.371299 kJ/mol
# GULP energy per Si atom -5570.870404 kJ/mol
# Density = 2.310514 g / cm^3
# Si number density = 23.157848 Si / 1000 Ang^3
#
#
#
# Elastic Constant Matrix: (Units=GPa)
#
#
# Indices 1 2 3 4 5 6 
#
# 1 156.1516 22.2747 10.3491 0.0000 21.4414 0.0000
# 2 22.2747 50.5482 11.9021 0.0000 5.3569 0.0000
# 3 10.3491 11.9021 80.3245 0.0000 16.9073 0.0000
# 4 0.0000 0.0000 0.0000 14.5743 0.0000 3.0683
# 5 21.4414 5.3569 16.9073 0.0000 28.8363 0.0000
# 6 0.0000 0.0000 0.0000 3.0683 0.0000 26.8274
#
#
#
# Elastic Compliance Matrix: (Units=1/GPa)
#
#
# Indices 1 2 3 4 5 6 
#
# 1 0.007517 -0.002880 0.000596 0.000000 -0.005404 0.000000
# 2 -0.002880 0.021738 -0.002796 0.000000 -0.000257 0.000000
# 3 0.000596 -0.002796 0.014569 0.000000 -0.008466 0.000000
# 4 0.000000 0.000000 0.000000 0.070307 0.000000 -0.008041
# 5 -0.005404 -0.000257 -0.008466 0.000000 0.043708 0.000000
# 6 0.000000 0.000000 0.000000 -0.008041 0.000000 0.038195
#
#
# Mechanical properties :
#
#
# Convention : Reuss Voigt Hill
#
# Bulk Modulus (GPa) = 29.70566 41.78623 35.74595
# Shear Modulus (GPa) = 22.99738 30.21415 26.60577
#
# Velocity S-wave (km/s) = 3.15472 3.61599 3.39320
# Velocity P-wave (km/s) = 5.11126 5.95962 5.55167
#
# Compressibility (1/GPa) = 0.03366361
#
# Stress axis : x y z
#
# Youngs Moduli (GPa) = 133.02428 46.00269 68.63922
#
# Poissons Ratio (x) = 0.13250 -0.04089
# Poissons Ratio (y) = 0.38314 0.19190
# Poissons Ratio (z) = -0.07924 0.12861
#
# Static dielectric constant tensor:
#      x y z
#    x 1.877200 0.000000 -0.023320 
#    y 0.000000 2.515540 0.000000 
#    z -0.023320 0.000000 1.886640 
# 
# From -- ./inp_files/197590.got.cif
#   From: 2010.05.17/outbox.cif.g08.bks.cpg/sg12_99_cif.got.tgz:197590.got - 2010.06.03 13:09:07.
