data_PCOD9186103
_publ_section_title
;
Structure prediction by ZEFSAII (Michael W. Deem and Ramdas Pophale) SiO2 
 PCOD9186103
Probable space group: C 2/M
;
_chemical_formula_sum "Si O2"
_cell_formula_units_Z 58
_cell_length_a 18.076071
_cell_length_b 20.213685
_cell_length_c 8.847953
_cell_angle_alpha 90.000000
_cell_angle_beta 95.010855
_cell_angle_gamma 90.000000
_cell_volume 3220.544903
_symmetry_space_group_name_H-M "C 2/M"
_symmetry_group_IT_number 12
_symmetry_cell_setting 'monoclinic'
loop_
_space_group_symop_operation_xyz
x,y,z
-x,y,-z
-x,-y,-z
x,-y,z
1/2+x,1/2+y,z
1/2-x,1/2+y,-z
1/2-x,1/2-y,-z
1/2+x,1/2-y,z
loop_
_atom_site_type_symbol
_atom_site_label
_atom_site_fract_x
_atom_site_fract_y
_atom_site_fract_z
Si Si1 0.344672 0.297582 0.626729
Si Si2 0.741497 0.075400 0.076808
Si Si3 0.000000 0.000000 0.000000
Si Si4 0.465237 0.191451 0.647052
Si Si5 0.090646 0.245557 0.882371
Si Si6 0.882439 0.882146 0.912543
Si Si7 0.918362 0.377134 0.927105
Si Si8 0.275619 0.696991 0.295454
O O1 0.408942 0.248223 0.585232
O O2 0.374687 0.354488 0.741176
O O3 0.301106 0.319473 0.469926
O O4 0.290499 0.249680 0.711343
O O5 0.652569 0.080105 0.035635
O O6 0.755457 0.129394 0.209009
O O7 0.760249 0.000000 0.121180
O O8 0.799648 0.097518 0.956678
O O9 0.938657 0.942263 0.942740
O O10 0.500000 0.162796 0.500000
O O11 0.523122 0.230661 0.764859
O O12 0.427256 0.137257 0.749624
O O13 0.159822 0.233226 0.785707
O O14 0.086973 0.178367 0.978394
O O15 0.098298 0.305748 0.000372
O O16 0.000000 0.399378 0.000000
#
# Coordination Sequence:
#
# PCOD9186103 Si02
#       8
#     8   8   2   8   8   8   8   8
#     4  11  20  36  59  88 116 152 195 251 294 356
#     4  11  22  41  58  82 119 160 202 244 292 356
#     4  12  24  40  56  90 118 168 194 246 294 356
#     4  11  19  32  53  88 120 146 182 244 309 347
#     4  10  19  34  59  86 115 145 195 247 295 348
#     4  11  22  38  61  83 119 159 204 240 291 352
#     4  10  21  36  60  89 112 151 192 252 306 352
#     4  10  21  35  60  88 116 152 197 244 306 348
#
# _framework density 18.009376
#
# number of rings (size 3 to 8) (size 9 to 14) (size 15 to 20)
#    0.000    1.379    4.828    1.655    0.966    2.483 
#    1.241    0.000    0.000    2.069    0.000    0.000 
#    0.000    0.000    0.000    0.000    0.000    0.000 
#
# Total GULP energy -161443.101098 kJ/mol
# GULP energy per Si atom -5567.003486 kJ/mol
# Density = 1.796839 g / cm^3
# Si number density = 18.009376 Si / 1000 Ang^3
#
#
#
# Elastic Constant Matrix: (Units=GPa)
#
#
# Indices 1 2 3 4 5 6 
#
# 1 77.5332 6.6361 17.1561 0.0000 -7.7149 0.0000
# 2 6.6361 50.2127 16.6167 0.0000 -8.4790 0.0000
# 3 17.1561 16.6167 43.1837 0.0000 1.3286 0.0000
# 4 0.0000 0.0000 0.0000 6.1384 0.0000 7.1197
# 5 -7.7149 -8.4790 1.3286 0.0000 22.9601 0.0000
# 6 0.0000 0.0000 0.0000 7.1197 0.0000 24.9137
#
#
#
# Elastic Compliance Matrix: (Units=1/GPa)
#
#
# Indices 1 2 3 4 5 6 
#
# 1 0.014815 0.001176 -0.006516 0.000000 0.005789 0.000000
# 2 0.001176 0.024912 -0.010367 0.000000 0.010195 0.000000
# 3 -0.006516 -0.010367 0.029973 0.000000 -0.007753 0.000000
# 4 0.000000 0.000000 0.000000 0.243676 0.000000 -0.069636
# 5 0.005789 0.010195 -0.007753 0.000000 0.049713 0.000000
# 6 0.000000 0.000000 0.000000 -0.069636 0.000000 0.060039
#
#
# Mechanical properties :
#
#
# Convention : Reuss Voigt Hill
#
# Bulk Modulus (GPa) = 26.11913 27.97193 27.04553
# Shear Modulus (GPa) = 10.69965 19.50381 15.10173
#
# Velocity S-wave (km/s) = 2.44009 3.29444 2.89891
# Velocity P-wave (km/s) = 4.74060 5.48057 5.12396
#
# Compressibility (1/GPa) = 0.03828611
#
# Stress axis : x y z
#
# Youngs Moduli (GPa) = 67.49895 40.14115 33.36291
#
# Poissons Ratio (x) = -0.04721 0.21741
# Poissons Ratio (y) = -0.07939 0.34587
# Poissons Ratio (z) = 0.43985 0.41614
#
# Static dielectric constant tensor:
#      x y z
#    x 1.689780 0.000000 0.001900 
#    y 0.000000 1.577350 0.000000 
#    z 0.001900 0.000000 1.614520 
# 
# From -- ./inp_files/75934.got.cif
#   From: 2010.05.17/outbox.cif.g08.bks.cpg/sg12_38_cif.got.tgz:75934.got - 2010.06.03 13:09:07.
