data_PCOD9186560
_publ_section_title
;
Structure prediction by ZEFSAII (Michael W. Deem and Ramdas Pophale) SiO2 
 PCOD9186560
Probable space group: C 2/M
;
_chemical_formula_sum "Si O2"
_cell_formula_units_Z 60
_cell_length_a 11.543636
_cell_length_b 20.936509
_cell_length_c 9.667992
_cell_angle_alpha 90.000000
_cell_angle_beta 88.513271
_cell_angle_gamma 90.000000
_cell_volume 2335.806967
_symmetry_space_group_name_H-M "C 2/M"
_symmetry_group_IT_number 12
_symmetry_cell_setting 'monoclinic'
loop_
_space_group_symop_operation_xyz
x,y,z
-x,y,-z
-x,-y,-z
x,-y,z
1/2+x,1/2+y,z
1/2-x,1/2+y,-z
1/2-x,1/2-y,-z
1/2+x,1/2-y,z
loop_
_atom_site_type_symbol
_atom_site_label
_atom_site_fract_x
_atom_site_fract_y
_atom_site_fract_z
Si Si1 0.336696 0.267529 0.376162
Si Si2 0.144629 0.627548 0.674864
Si Si3 0.134382 0.876293 0.127829
Si Si4 0.836013 0.263321 0.869001
Si Si5 0.153176 0.097969 0.532900
Si Si6 0.568009 0.500000 0.297952
Si Si7 0.554548 0.101181 0.140230
Si Si8 0.182050 0.931448 0.845183
O O1 0.250000 0.250000 0.500000
O O2 0.398026 0.200723 0.342696
O O3 0.252415 0.281754 0.250699
O O4 0.394082 0.331509 0.429822
O O5 0.238873 0.623249 0.798263
O O6 0.216592 0.606598 0.536786
O O7 0.033757 0.589831 0.731372
O O8 0.096554 0.803475 0.163931
O O9 0.072560 0.940294 0.183799
O O10 0.140827 0.881269 0.961289
O O11 0.919934 0.323083 0.883358
O O12 0.750000 0.250000 0.000000
O O13 0.094591 0.055380 0.418251
O O14 0.147461 0.068142 0.685299
O O15 0.679658 0.073464 0.162457
O O16 0.500000 0.076599 0.000000
O O17 0.151459 0.000000 0.904154
#
# Coordination Sequence:
#
# PCOD9186560 Si02
#       8
#     8   8   8   8   8   4   8   8
#     4   9  17  34  56  77 104 138 179 226 279 316
#     4   9  20  35  54  79 110 143 177 222 277 322
#     4  10  19  36  57  80 108 145 182 229 272 329
#     4  11  19  34  58  81 105 142 185 229 279 321
#     4  10  19  35  54  78 108 144 179 228 262 319
#     4  10  20  34  58  80 113 139 191 222 269 326
#     4  12  22  36  54  82 114 146 182 228 270 323
#     4  12  22  35  52  77 109 148 193 215 261 319
#
# _framework density 25.687055999999998
#
# number of rings (size 3 to 8) (size 9 to 14) (size 15 to 20)
#    0.000    1.600    5.333    1.600    0.000    0.800 
#    4.800    0.667    0.000    0.000    0.000    2.333 
#    0.000    0.000    0.000    0.000    0.000    0.000 
#
# Total GULP energy -167198.806622 kJ/mol
# GULP energy per Si atom -5573.293554 kJ/mol
# Density = 2.562859 g / cm^3
# Si number density = 25.687056 Si / 1000 Ang^3
#
#
#
# Elastic Constant Matrix: (Units=GPa)
#
#
# Indices 1 2 3 4 5 6 
#
# 1 74.3189 22.0789 39.0262 0.0000 -5.4401 0.0000
# 2 22.0789 155.9595 25.2564 0.0000 -3.5236 0.0000
# 3 39.0262 25.2564 190.2331 0.0000 -0.6826 0.0000
# 4 0.0000 0.0000 0.0000 47.6144 0.0000 -11.9082
# 5 -5.4401 -3.5236 -0.6826 0.0000 42.0007 0.0000
# 6 0.0000 0.0000 0.0000 -11.9082 0.0000 -46.3211
#
#
#
# Elastic Compliance Matrix: (Units=1/GPa)
#
#
# Indices 1 2 3 4 5 6 
#
# 1 0.015658 -0.001692 -0.002981 0.000000 0.001838 0.000000
# 2 -0.001692 0.006748 -0.000547 0.000000 0.000338 0.000000
# 3 -0.002981 -0.000547 0.005940 0.000000 -0.000336 0.000000
# 4 0.000000 0.000000 0.000000 0.019733 0.000000 -0.005073
# 5 0.001838 0.000338 -0.000336 0.000000 0.024070 0.000000
# 6 0.000000 0.000000 0.000000 -0.005073 0.000000 -0.020284
#
#
# Mechanical properties :
#
#
# Convention : Reuss Voigt Hill
#
# Bulk Modulus (GPa) = 55.85347 65.91495 60.88421
# Shear Modulus (GPa) = 73.23362 30.93545 52.08453
#
# Velocity S-wave (km/s) = 5.34526 3.47410 4.50784
# Velocity P-wave (km/s) = 7.73866 6.46598 7.13077
#
# Compressibility (1/GPa) = 0.01790399
#
# Stress axis : x y z
#
# Youngs Moduli (GPa) = 63.86425 148.19624 168.35769
#
# Poissons Ratio (x) = 0.25081 0.50187
# Poissons Ratio (y) = 0.10809 0.09217
# Poissons Ratio (z) = 0.19038 0.08113
#
# Static dielectric constant tensor:
#      x y z
#    x 2.052550 0.000000 -0.021450 
#    y 0.000000 2.120680 0.000000 
#    z -0.021450 0.000000 1.958550 
# 
# From -- ./inp_files/77482.got.cif
#   From: 2010.05.17/outbox.cif.g08.bks.cpg/sg12_39_cif.got.tgz:77482.got - 2010.06.03 13:09:07.
