data_PCOD9186370
_publ_section_title
;
Structure prediction by ZEFSAII (Michael W. Deem and Ramdas Pophale) SiO2 
 PCOD9186370
Probable space group: C 2/M
;
_chemical_formula_sum "Si O2"
_cell_formula_units_Z 32
_cell_length_a 10.393877
_cell_length_b 13.616091
_cell_length_c 14.836366
_cell_angle_alpha 90.000000
_cell_angle_beta 45.044103
_cell_angle_gamma 90.000000
_cell_volume 1485.855570
_symmetry_space_group_name_H-M "C 2/M"
_symmetry_group_IT_number 12
_symmetry_cell_setting 'monoclinic'
loop_
_space_group_symop_operation_xyz
x,y,z
-x,y,-z
-x,-y,-z
x,-y,z
1/2+x,1/2+y,z
1/2-x,1/2+y,-z
1/2-x,1/2-y,-z
1/2+x,1/2-y,z
loop_
_atom_site_type_symbol
_atom_site_label
_atom_site_fract_x
_atom_site_fract_y
_atom_site_fract_z
Si Si1 0.719794 0.603718 0.742753
Si Si2 0.801901 0.216833 0.576461
Si Si3 0.190172 0.886951 0.095962
Si Si4 0.410839 0.173493 0.817949
O O1 0.757110 0.500000 0.679141
O O2 0.798045 0.686951 0.640743
O O3 0.503008 0.612070 0.860253
O O4 0.807588 0.609971 0.796182
O O5 0.750000 0.250000 0.500000
O O6 0.624810 0.159331 0.698580
O O7 0.000000 0.171115 0.500000
O O8 0.153369 0.787244 0.172013
O O9 0.216065 0.000000 0.118122
O O10 0.348288 0.857375 0.948427
#
# Coordination Sequence:
#
# PCOD9186370 Si02
#       4
#     8   8   8   8
#     4  10  20  36  64  92 117 157 210 252 294 364
#     4  11  22  40  60  88 120 165 206 250 298 356
#     4   9  19  35  59  92 122 154 201 251 305 367
#     4  10  19  34  61  91 121 156 201 253 306 345
#
# _framework density 21.536411999999999
#
# number of rings (size 3 to 8) (size 9 to 14) (size 15 to 20)
#    0.000    2.000    2.500    1.500    0.000    2.500 
#    0.000    0.000    0.000   41.250    0.000    0.000 
#    0.000    0.000    0.000    0.000    0.000    0.000 
#
# Total GULP energy -89122.716231 kJ/mol
# GULP energy per Si atom -5570.169764 kJ/mol
# Density = 2.148739 g / cm^3
# Si number density = 21.536412 Si / 1000 Ang^3
#
#
#
# Elastic Constant Matrix: (Units=GPa)
#
#
# Indices 1 2 3 4 5 6 
#
# 1 54.4239 0.6007 28.7611 0.0000 -9.7880 0.0000
# 2 0.6007 84.3916 -3.8878 0.0000 -8.5089 0.0000
# 3 28.7611 -3.8878 93.5568 0.0000 -26.7547 0.0001
# 4 0.0000 0.0000 0.0000 2.2972 0.0000 -7.9442
# 5 -9.7880 -8.5089 -26.7547 0.0000 27.3284 0.0000
# 6 0.0000 0.0000 0.0001 -7.9442 0.0000 15.4936
#
#
#
# Elastic Compliance Matrix: (Units=1/GPa)
#
#
# Indices 1 2 3 4 5 6 
#
# 1 0.022005 -0.000285 -0.006317 0.000000 0.001608 0.000000
# 2 -0.000285 0.012578 0.002363 0.000000 0.006127 0.000000
# 3 -0.006317 0.002363 0.017072 0.000000 0.015187 0.000000
# 4 0.000000 0.000000 0.000000 -0.563023 0.000000 -0.288684
# 5 0.001608 0.006127 0.015187 0.000000 0.053944 0.000000
# 6 0.000000 0.000000 0.000000 -0.288684 0.000000 -0.083477
#
#
# Mechanical properties :
#
#
# Convention : Reuss Voigt Hill
#
# Bulk Modulus (GPa) = 23.16112 31.48004 27.32058
# Shear Modulus (GPa) = -9.65193 22.81705 6.58256
#
# Velocity S-wave (km/s) = -2.11929 3.25847 1.75018
# Velocity P-wave (km/s) = 2.18843 5.36709 4.09847
#
# Compressibility (1/GPa) = 0.04317581
#
# Stress axis : x y z
#
# Youngs Moduli (GPa) = 45.44467 79.50285 58.57662
#
# Poissons Ratio (x) = 0.02270 0.37000
# Poissons Ratio (y) = 0.01297 -0.13840
# Poissons Ratio (z) = 0.28705 -0.18784
#
# Static dielectric constant tensor:
#      x y z
#    x 1.773850 0.000000 -0.042530 
#    y 0.000000 2.049780 0.000000 
#    z -0.042530 0.000000 1.821490 
# 
# From -- ./inp_files/117433.got.cif
#   From: 2010.05.17/outbox.cif.g08.bks.cpg/sg12_59_cif.got.tgz:117433.got - 2010.06.03 13:09:07.
