data_PCOD9186822
_publ_section_title
;
Structure prediction by ZEFSAII (Michael W. Deem and Ramdas Pophale) SiO2 
 PCOD9186822
Probable space group: C 2/M
;
_chemical_formula_sum "Si O2"
_cell_formula_units_Z 56
_cell_length_a 10.143588
_cell_length_b 27.431025
_cell_length_c 12.595199
_cell_angle_alpha 90.000000
_cell_angle_beta 56.482941
_cell_angle_gamma 90.000000
_cell_volume 2921.861648
_symmetry_space_group_name_H-M "C 2/M"
_symmetry_group_IT_number 12
_symmetry_cell_setting 'monoclinic'
loop_
_space_group_symop_operation_xyz
x,y,z
-x,y,-z
-x,-y,-z
x,-y,z
1/2+x,1/2+y,z
1/2-x,1/2+y,-z
1/2-x,1/2-y,-z
1/2+x,1/2-y,z
loop_
_atom_site_type_symbol
_atom_site_label
_atom_site_fract_x
_atom_site_fract_y
_atom_site_fract_z
Si Si1 0.182418 0.000000 0.882698
Si Si2 0.998940 0.241121 0.268855
Si Si3 0.299905 0.601824 0.387421
Si Si4 0.374657 0.848153 0.343083
Si Si5 0.338282 0.286471 0.123636
Si Si6 0.308504 0.000000 0.583130
Si Si7 0.211340 0.607598 0.180424
Si Si8 0.072072 0.147102 0.356114
O O1 0.245179 0.054547 0.887116
O O2 0.230141 0.000000 0.735966
O O3 0.000000 0.000000 0.000000
O O4 0.182751 0.255407 0.161645
O O5 0.014463 0.201202 0.353443
O O6 0.924703 0.292298 0.334032
O O7 0.886630 0.218797 0.226546
O O8 0.208619 0.636335 0.510250
O O9 0.254792 0.547998 0.444612
O O10 0.240516 0.606205 0.294321
O O11 0.486596 0.612991 0.308858
O O12 0.527240 0.880429 0.251088
O O13 0.256641 0.852780 0.295810
O O14 0.304514 0.342887 0.105302
O O15 0.500000 0.268101 0.000000
O O16 0.500000 0.000000 0.500000
O O17 0.000000 0.130957 0.500000
#
# Coordination Sequence:
#
# PCOD9186822 Si02
#       8
#     4   8   8   8   8   4   8   8
#     4  10  20  36  59  91 117 147 189 243 295 344
#     4  11  21  37  54  75 114 146 187 231 285 337
#     4  10  19  35  56  81 112 145 183 230 287 344
#     4  10  21  34  53  82 112 146 185 228 285 348
#     4  11  22  36  55  80 106 147 194 238 280 337
#     4  10  20  36  60  89 115 147 191 245 296 344
#     4  10  20  35  58  81 113 144 187 237 284 337
#     4  10  21  35  52  79 114 146 182 226 281 349
#
# _framework density 19.165865
#
# number of rings (size 3 to 8) (size 9 to 14) (size 15 to 20)
#    0.000    1.714    2.857    3.000    0.000    4.571 
#    0.000    3.929    0.000    0.000    0.000    4.000 
#    0.000    0.000    0.000    0.000    0.000    0.000 
#
# Total GULP energy -155918.040751 kJ/mol
# GULP energy per Si atom -5568.501455 kJ/mol
# Density = 1.912224 g / cm^3
# Si number density = 19.165865 Si / 1000 Ang^3
#
#
#
# Elastic Constant Matrix: (Units=GPa)
#
#
# Indices 1 2 3 4 5 6 
#
# 1 121.2129 39.0388 10.6966 0.0000 -34.6553 0.0000
# 2 39.0388 94.7135 -3.6065 0.0000 -19.6125 0.0000
# 3 10.6966 -3.6065 30.2955 0.0000 -16.1781 0.0000
# 4 0.0000 0.0000 0.0000 10.6447 0.0000 -9.9026
# 5 -34.6553 -19.6125 -16.1781 0.0000 26.5540 0.0000
# 6 0.0000 0.0000 0.0000 -9.9026 0.0000 16.0257
#
#
#
# Elastic Compliance Matrix: (Units=1/GPa)
#
#
# Indices 1 2 3 4 5 6 
#
# 1 0.014239 -0.001148 0.006383 0.000000 0.021624 0.000000
# 2 -0.001148 0.014715 0.010614 0.000000 0.015836 0.000000
# 3 0.006383 0.010614 0.060257 0.000000 0.052882 0.000000
# 4 0.000000 0.000000 0.000000 0.220960 0.000000 0.136535
# 5 0.021624 0.015836 0.052882 0.000000 0.109795 0.000000
# 6 0.000000 0.000000 0.000000 0.136535 0.000000 0.146768
#
#
# Mechanical properties :
#
#
# Convention : Reuss Voigt Hill
#
# Bulk Modulus (GPa) = 8.27069 37.60887 22.93978
# Shear Modulus (GPa) = 8.69054 23.98442 16.33748
#
# Velocity S-wave (km/s) = 2.13172 3.54137 2.92280
# Velocity P-wave (km/s) = 3.22237 6.03218 4.83585
#
# Compressibility (1/GPa) = 0.12090894
#
# Stress axis : x y z
#
# Youngs Moduli (GPa) = 70.23076 67.95882 16.59546
#
# Poissons Ratio (x) = 0.07803 -0.10593
# Poissons Ratio (y) = 0.08063 -0.17614
# Poissons Ratio (z) = -0.44831 -0.72130
#
# Static dielectric constant tensor:
#      x y z
#    x 1.711830 0.000000 -0.018660 
#    y 0.000000 1.671460 0.000000 
#    z -0.018660 0.000000 1.719820 
# 
# From -- ./inp_files/200882.got.cif
#   From: 2010.05.17/outbox.cif.g08.bks.cpg/sg12_101_cif.got.tgz:200882.got - 2010.06.03 13:09:07.
