data_PCOD9186411
_publ_section_title
;
Structure prediction by ZEFSAII (Michael W. Deem and Ramdas Pophale) SiO2 
 PCOD9186411
Probable space group: C 2/M
;
_chemical_formula_sum "Si O2"
_cell_formula_units_Z 50
_cell_length_a 11.384011
_cell_length_b 25.724527
_cell_length_c 8.531300
_cell_angle_alpha 90.000000
_cell_angle_beta 109.129080
_cell_angle_gamma 90.000000
_cell_volume 2360.423107
_symmetry_space_group_name_H-M "C 2/M"
_symmetry_group_IT_number 12
_symmetry_cell_setting 'monoclinic'
loop_
_space_group_symop_operation_xyz
x,y,z
-x,y,-z
-x,-y,-z
x,-y,z
1/2+x,1/2+y,z
1/2-x,1/2+y,-z
1/2-x,1/2-y,-z
1/2+x,1/2-y,z
loop_
_atom_site_type_symbol
_atom_site_label
_atom_site_fract_x
_atom_site_fract_y
_atom_site_fract_z
Si Si1 0.844858 0.164097 0.086033
Si Si2 0.851614 0.943445 0.957878
Si Si3 0.611996 0.797551 0.164814
Si Si4 0.967085 0.407957 0.731603
Si Si5 0.203639 0.599532 0.615071
Si Si6 0.000000 0.500000 0.000000
Si Si7 0.379708 0.689830 0.733090
O O1 0.739634 0.195750 0.127116
O O2 0.978739 0.170730 0.225563
O O3 0.812074 0.103049 0.054595
O O4 0.853790 0.181737 0.908560
O O5 0.795132 0.934813 0.760947
O O6 0.814730 0.000000 0.003049
O O7 0.000000 0.940275 0.000000
O O8 0.575810 0.854203 0.209661
O O9 0.625981 0.751340 0.296560
O O10 0.500000 0.781267 0.000000
O O11 0.856393 0.424459 0.565459
O O12 0.998677 0.453848 0.863280
O O13 0.087497 0.392432 0.681207
O O14 0.279209 0.652340 0.609279
#
# Coordination Sequence:
#
# PCOD9186411 Si02
#       7
#     8   8   8   8   8   2   8
#     4  10  19  35  55  97 126 167 217 269 314 385
#     4  10  19  34  62  92 121 165 218 260 308 389
#     4  12  22  36  62  95 132 174 218 276 328 384
#     4  11  27  43  66  96 134 173 222 274 336 390
#     4  10  23  45  65  95 135 172 219 270 329 404
#     4  12  28  46  64 104 130 174 230 276 334 386
#     4  10  20  36  64  90 129 171 218 262 328 392
#
# _framework density 21.182642999999999
#
# number of rings (size 3 to 8) (size 9 to 14) (size 15 to 20)
#    0.000    1.440    5.600    2.400    4.480    1.280 
#    0.000    0.800    0.000    0.000    0.000    4.480 
#    0.000    0.000    0.000    0.000    0.000    0.000 
#
# Total GULP energy -139408.241794 kJ/mol
# GULP energy per Si atom -5576.329672 kJ/mol
# Density = 2.113443 g / cm^3
# Si number density = 21.182643 Si / 1000 Ang^3
#
#
#
# Elastic Constant Matrix: (Units=GPa)
#
#
# Indices 1 2 3 4 5 6 
#
# 1 77.2309 24.1043 31.9855 0.0000 22.7276 0.0000
# 2 24.1043 145.0800 5.5431 0.0000 3.5082 0.0000
# 3 31.9855 5.5431 44.8346 0.0000 19.5489 0.0000
# 4 0.0000 0.0000 0.0000 8.2331 0.0000 1.2496
# 5 22.7276 3.5082 19.5489 0.0000 24.5887 0.0000
# 6 0.0000 0.0000 0.0000 1.2496 0.0000 4.3802
#
#
#
# Elastic Compliance Matrix: (Units=1/GPa)
#
#
# Indices 1 2 3 4 5 6 
#
# 1 0.021293 -0.002885 -0.009845 0.000000 -0.011443 0.000000
# 2 -0.002885 0.007320 0.000682 0.000000 0.001080 0.000000
# 3 -0.009845 0.000682 0.038751 0.000000 -0.021806 0.000000
# 4 0.000000 0.000000 0.000000 0.126958 0.000000 -0.036219
# 5 -0.011443 0.001080 -0.021806 0.000000 0.068429 0.000000
# 6 0.000000 0.000000 0.000000 -0.036219 0.000000 0.238634
#
#
# Mechanical properties :
#
#
# Convention : Reuss Voigt Hill
#
# Bulk Modulus (GPa) = 23.11075 43.37904 33.24490
# Shear Modulus (GPa) = 9.26091 21.14123 15.20107
#
# Velocity S-wave (km/s) = 2.09319 3.16261 2.68175
# Velocity P-wave (km/s) = 4.09583 5.81886 5.03165
#
# Compressibility (1/GPa) = 0.04326990
#
# Stress axis : x y z
#
# Youngs Moduli (GPa) = 46.96305 136.61411 25.80560
#
# Poissons Ratio (x) = 0.39412 0.25405
# Poissons Ratio (y) = 0.13549 -0.01761
# Poissons Ratio (z) = 0.46234 -0.09322
#
# Static dielectric constant tensor:
#      x y z
#    x 1.832540 0.000000 0.043460 
#    y 0.000000 1.790830 0.000000 
#    z 0.043460 0.000000 1.782320 
# 
# From -- ./inp_files/52723.got.cif
#   From: 2010.05.17/outbox.cif.g08.bks.cpg/sg12_27_cif.got.tgz:52723.got - 2010.06.03 13:09:07.
