data_PCOD9186564
_publ_section_title
;
Structure prediction by ZEFSAII (Michael W. Deem and Ramdas Pophale) SiO2 
 PCOD9186564
Probable space group: C 2/M
;
_chemical_formula_sum "Si O2"
_cell_formula_units_Z 64
_cell_length_a 21.430153
_cell_length_b 17.897476
_cell_length_c 25.720822
_cell_angle_alpha 90.000000
_cell_angle_beta 21.835882
_cell_angle_gamma 90.000000
_cell_volume 3669.319885
_symmetry_space_group_name_H-M "C 2/M"
_symmetry_group_IT_number 12
_symmetry_cell_setting 'monoclinic'
loop_
_space_group_symop_operation_xyz
x,y,z
-x,y,-z
-x,-y,-z
x,-y,z
1/2+x,1/2+y,z
1/2-x,1/2+y,-z
1/2-x,1/2-y,-z
1/2+x,1/2-y,z
loop_
_atom_site_type_symbol
_atom_site_label
_atom_site_fract_x
_atom_site_fract_y
_atom_site_fract_z
Si Si1 0.764183 0.190457 0.555665
Si Si2 0.279735 0.586763 0.295022
Si Si3 0.951498 0.413246 0.621903
Si Si4 0.498935 0.589419 0.561345
Si Si5 0.011536 0.207657 0.811797
Si Si6 0.993127 0.694961 0.685445
Si Si7 0.814106 0.410749 0.121258
Si Si8 0.752120 0.301299 0.072527
O O1 0.850886 0.130331 0.525080
O O2 0.669795 0.254924 0.660857
O O3 0.908817 0.231554 0.410993
O O4 0.622325 0.159051 0.626675
O O5 0.332310 0.500000 0.253701
O O6 0.197036 0.605477 0.303496
O O7 0.423570 0.642649 0.201235
O O8 0.125557 0.592860 0.455246
O O9 0.933211 0.500000 0.651106
O O10 0.955280 0.359385 0.667692
O O11 0.500000 0.612670 0.500000
O O12 0.520264 0.500000 0.546354
O O13 0.326894 0.606640 0.725826
O O14 0.883517 0.176932 0.866912
O O15 0.918486 0.273928 0.914652
O O16 0.828229 0.726636 0.840163
O O17 0.803442 0.500000 0.118447
O O18 0.780905 0.362334 0.095039
O O19 0.000000 0.395518 0.000000
#
# Coordination Sequence:
#
# PCOD9186564 Si02
#       8
#     8   8   8   8   8   8   8   8
#     4  10  20  34  56  80 105 141 180 223 272 319
#     4   9  18  33  54  81 108 138 178 217 263 321
#     4   9  18  32  53  82 111 137 172 221 268 315
#     4  10  22  38  56  82 112 142 183 231 275 324
#     4  10  21  37  56  80 111 145 180 224 269 317
#     4  10  19  35  54  79 110 138 178 224 270 320
#     4  10  22  39  57  79 110 147 185 225 274 331
#     4  10  22  38  54  79 112 144 182 223 268 324
#
# _framework density 17.441924
#
# number of rings (size 3 to 8) (size 9 to 14) (size 15 to 20)
#    0.000    2.250    2.500    0.750    1.750    3.000 
#    0.000    3.125    0.000    6.000    0.000    0.000 
#    0.000    0.000    0.000    0.000    0.000    0.000 
#
# Total GULP energy -178451.912560 kJ/mol
# GULP energy per Si atom -5576.622268 kJ/mol
# Density = 1.740223 g / cm^3
# Si number density = 17.441924 Si / 1000 Ang^3
#
#
#
# Elastic Constant Matrix: (Units=GPa)
#
#
# Indices 1 2 3 4 5 6 
#
# 1 139.4798 71.3865 25.3524 0.0040 -5.8953 0.0065
# 2 71.3865 48.8221 13.4767 0.0178 -12.3442 0.0119
# 3 25.3524 13.4767 43.2869 0.0180 -4.4779 0.0066
# 4 0.0040 0.0178 0.0180 15.2089 0.0050 3.2728
# 5 -5.8953 -12.3442 -4.4779 0.0050 22.9979 0.0059
# 6 0.0065 0.0119 0.0066 3.2728 0.0059 60.3315
#
#
#
# Elastic Compliance Matrix: (Units=1/GPa)
#
#
# Indices 1 2 3 4 5 6 
#
# 1 0.037505 -0.059068 -0.005982 0.000073 -0.023256 0.000007
# 2 -0.059068 0.118469 0.002779 -0.000139 0.048989 -0.000015
# 3 -0.005982 0.002779 0.026265 -0.000034 0.005072 -0.000001
# 4 0.000073 -0.000139 -0.000034 0.066528 -0.000076 -0.003609
# 5 -0.023256 0.048989 0.005072 -0.000076 0.064803 -0.000010
# 6 0.000007 -0.000015 -0.000001 -0.003609 -0.000010 0.016771
#
#
# Mechanical properties :
#
#
# Convention : Reuss Voigt Hill
#
# Bulk Modulus (GPa) = 17.33163 50.22443 33.77803
# Shear Modulus (GPa) = 10.54598 27.79922 19.17260
#
# Velocity S-wave (km/s) = 2.46160 3.99659 3.31905
# Velocity P-wave (km/s) = 4.24707 7.08200 5.83919
#
# Compressibility (1/GPa) = 0.05769798
#
# Stress axis : x y z
#
# Youngs Moduli (GPa) = 26.66307 8.44101 38.07391
#
# Poissons Ratio (x) = 0.49859 0.22776
# Poissons Ratio (y) = 1.57493 -0.10582
# Poissons Ratio (z) = 0.15950 -0.02346
#
# Static dielectric constant tensor:
#      x y z
#    x 1.592300 0.000000 0.005470 
#    y 0.000000 1.560270 0.000010 
#    z 0.005470 0.000010 1.585960 
# 
# From -- ./inp_files/99137.got.cif
#   From: 2010.05.17/outbox.cif.g08.bks.cpg/sg12_50_cif.got.tgz:99137.got - 2010.06.03 13:09:07.
