data_PCOD9186783
_publ_section_title
;
Structure prediction by ZEFSAII (Michael W. Deem and Ramdas Pophale) SiO2 
 PCOD9186783
Probable space group: C 2/M
;
_chemical_formula_sum "Si O2"
_cell_formula_units_Z 64
_cell_length_a 16.402551
_cell_length_b 8.559129
_cell_length_c 28.672670
_cell_angle_alpha 90.000000
_cell_angle_beta 127.472537
_cell_angle_gamma 90.000000
_cell_volume 3194.739208
_symmetry_space_group_name_H-M "C 2/M"
_symmetry_group_IT_number 12
_symmetry_cell_setting 'monoclinic'
loop_
_space_group_symop_operation_xyz
x,y,z
-x,y,-z
-x,-y,-z
x,-y,z
1/2+x,1/2+y,z
1/2-x,1/2+y,-z
1/2-x,1/2-y,-z
1/2+x,1/2-y,z
loop_
_atom_site_type_symbol
_atom_site_label
_atom_site_fract_x
_atom_site_fract_y
_atom_site_fract_z
Si Si1 0.140061 0.823917 0.967860
Si Si2 0.105919 0.689121 0.362697
Si Si3 0.072463 0.310323 0.769371
Si Si4 0.661638 0.689779 0.572242
Si Si5 0.971752 0.188753 0.565212
Si Si6 0.881161 0.329300 0.948545
Si Si7 0.011515 0.686246 0.159718
Si Si8 0.803404 0.187545 0.826042
O O1 0.057333 0.727822 0.909356
O O2 0.130335 0.000000 0.948580
O O3 0.250000 0.750000 0.000000
O O4 0.136569 0.811327 0.022259
O O5 0.108018 0.500000 0.363061
O O6 0.220702 0.744141 0.389002
O O7 0.020841 0.741896 0.295835
O O8 0.069712 0.742562 0.401165
O O9 0.072479 0.500000 0.770097
O O10 0.183160 0.266294 0.786429
O O11 0.048802 0.261043 0.814480
O O12 0.663421 0.500000 0.574836
O O13 0.586051 0.739858 0.588090
O O14 0.604245 0.730969 0.503951
O O15 0.972246 0.000000 0.568966
O O16 0.831282 0.500000 0.941437
O O17 0.852189 0.275049 0.887398
O O18 0.000000 0.352669 0.000000
O O19 0.024270 0.500000 0.166515
O O20 0.123942 0.761924 0.191582
O O21 0.810348 0.000000 0.833652
#
# Coordination Sequence:
#
# PCOD9186783 Si02
#       8
#     8   8   8   8   8   8   8   8
#     4  12  24  38  59  86 115 146 180 227 284 346
#     4  10  19  35  56  79 108 149 192 232 278 332
#     4   9  22  40  57  78 110 150 193 232 277 337
#     4   8  16  31  54  80 114 152 184 222 279 341
#     4   9  17  32  53  83 115 146 185 231 279 333
#     4  11  22  37  59  86 113 139 177 227 280 348
#     4  11  22  40  61  83 110 147 190 235 280 338
#     4  11  22  39  61  84 112 149 186 233 291 345
#
# _framework density 20.032934000000001
#
# number of rings (size 3 to 8) (size 9 to 14) (size 15 to 20)
#    0.000    1.875    1.250    4.125    0.000    2.500 
#    0.000    7.500    0.000    0.000    0.000    0.000 
#    0.000    0.000    0.000    0.000    0.000    0.000 
#
# Total GULP energy -178341.510510 kJ/mol
# GULP energy per Si atom -5573.172203 kJ/mol
# Density = 1.998734 g / cm^3
# Si number density = 20.032934 Si / 1000 Ang^3
#
#
#
# Elastic Constant Matrix: (Units=GPa)
#
#
# Indices 1 2 3 4 5 6 
#
# 1 125.1344 17.6319 38.4739 0.0000 35.3396 0.0000
# 2 17.6319 44.6490 10.6205 0.0000 8.4559 0.0000
# 3 38.4739 10.6205 61.4669 0.0000 28.3545 0.0000
# 4 0.0000 0.0000 0.0000 25.2121 0.0000 -3.0238
# 5 35.3396 8.4559 28.3545 0.0000 28.0700 0.0000
# 6 0.0000 0.0000 0.0000 -3.0238 0.0000 29.2738
#
#
#
# Elastic Compliance Matrix: (Units=1/GPa)
#
#
# Indices 1 2 3 4 5 6 
#
# 1 0.012610 -0.002046 -0.000937 0.000000 -0.014313 0.000000
# 2 -0.002046 0.024159 -0.001357 0.000000 -0.003331 0.000000
# 3 -0.000937 -0.001357 0.030630 0.000000 -0.029352 0.000000
# 4 0.000000 0.000000 0.000000 0.040161 0.000000 0.004148
# 5 -0.014313 -0.003331 -0.029352 0.000000 0.084297 0.000000
# 6 0.000000 0.000000 0.000000 0.004148 0.000000 0.034589
#
#
# Mechanical properties :
#
#
# Convention : Reuss Voigt Hill
#
# Bulk Modulus (GPa) = 17.03053 40.52255 28.77654
# Shear Modulus (GPa) = 19.63108 27.47945 23.55527
#
# Velocity S-wave (km/s) = 3.13380 3.70768 3.43275
# Velocity P-wave (km/s) = 4.64908 6.21298 5.48703
#
# Compressibility (1/GPa) = 0.05871808
#
# Stress axis : x y z
#
# Youngs Moduli (GPa) = 79.30265 41.39329 32.64808
#
# Poissons Ratio (x) = 0.08470 0.03059
# Poissons Ratio (y) = 0.16226 0.04430
# Poissons Ratio (z) = 0.07430 0.05617
#
# Static dielectric constant tensor:
#      x y z
#    x 1.709140 0.000000 0.034500 
#    y 0.000000 1.664890 0.000000 
#    z 0.034500 0.000000 1.664780 
# 
# From -- ./inp_files/375613.got.cif
#   From: 2010.05.17/outbox.cif.g08.bks.cpg/sg12_188_cif.got.tgz:375613.got - 2010.06.03 13:09:07.
