data_PCOD9186504
_publ_section_title
;
Structure prediction by ZEFSAII (Michael W. Deem and Ramdas Pophale) SiO2 
 PCOD9186504
Probable space group: C 2/M
;
_chemical_formula_sum "Si O2"
_cell_formula_units_Z 48
_cell_length_a 7.944842
_cell_length_b 28.215099
_cell_length_c 14.746049
_cell_angle_alpha 90.000000
_cell_angle_beta 39.522696
_cell_angle_gamma 90.000000
_cell_volume 2103.592673
_symmetry_space_group_name_H-M "C 2/M"
_symmetry_group_IT_number 12
_symmetry_cell_setting 'monoclinic'
loop_
_space_group_symop_operation_xyz
x,y,z
-x,y,-z
-x,-y,-z
x,-y,z
1/2+x,1/2+y,z
1/2-x,1/2+y,-z
1/2-x,1/2-y,-z
1/2+x,1/2-y,z
loop_
_atom_site_type_symbol
_atom_site_label
_atom_site_fract_x
_atom_site_fract_y
_atom_site_fract_z
Si Si1 0.093305 0.552599 0.064891
Si Si2 0.593668 0.203501 0.814118
Si Si3 0.482837 0.448512 0.615059
Si Si4 0.114487 0.304081 0.303734
Si Si5 0.397403 0.650325 0.941821
Si Si6 0.903916 0.847744 0.432811
O O1 0.201706 0.500000 0.042873
O O2 0.824993 0.560216 0.233277
O O3 0.282874 0.597544 0.993624
O O4 0.000000 0.551292 0.000000
O O5 0.719533 0.255589 0.761072
O O6 0.497670 0.194159 0.751669
O O7 0.843822 0.170043 0.727759
O O8 0.339765 0.187869 0.978733
O O9 0.500000 0.451947 0.500000
O O10 0.556691 0.500000 0.624176
O O11 0.648135 0.402111 0.571506
O O12 0.338343 0.343670 0.226663
O O13 0.849068 0.313568 0.471294
O O14 0.500000 0.662036 0.000000
O O15 0.000000 0.847342 0.500000
#
# Coordination Sequence:
#
# PCOD9186504 Si02
#       6
#     8   8   8   8   8   8
#     4  10  21  38  61  89 121 155 192 240 296 352
#     4  10  19  35  53  77 110 151 194 243 289 345
#     4   9  17  32  59  88 112 148 197 235 281 350
#     4  10  21  33  53  80 114 147 192 246 292 341
#     4  10  21  36  55  83 116 152 194 244 292 343
#     4   9  17  32  54  79 109 145 190 242 284 334
#
# _framework density 22.818107000000001
#
# number of rings (size 3 to 8) (size 9 to 14) (size 15 to 20)
#    0.000    2.333    1.667    1.000    2.333    1.667 
#    0.000    0.833    0.000    0.000    0.000    3.500 
#    0.000    0.000    0.000    0.000    0.000    0.000 
#
# Total GULP energy -133900.088217 kJ/mol
# GULP energy per Si atom -5579.170342 kJ/mol
# Density = 2.276617 g / cm^3
# Si number density = 22.818107 Si / 1000 Ang^3
#
#
#
# Elastic Constant Matrix: (Units=GPa)
#
#
# Indices 1 2 3 4 5 6 
#
# 1 69.6771 7.9090 23.4350 0.0000 -14.7916 0.0000
# 2 7.9090 141.2891 55.9419 0.0000 -32.4236 0.0000
# 3 23.4350 55.9419 115.8581 0.0000 -34.4666 0.0000
# 4 0.0000 0.0000 0.0000 12.8629 0.0000 -54.1935
# 5 -14.7916 -32.4236 -34.4666 0.0000 23.2975 0.0000
# 6 0.0000 0.0000 0.0000 -54.1935 0.0000 -141.6755
#
#
#
# Elastic Compliance Matrix: (Units=1/GPa)
#
#
# Indices 1 2 3 4 5 6 
#
# 1 0.017091 0.002310 -0.000693 0.000000 0.013042 0.000000
# 2 0.002310 0.010818 -0.001385 0.000000 0.014474 0.000000
# 3 -0.000693 -0.001385 0.015603 0.000000 0.020715 0.000000
# 4 0.000000 0.000000 0.000000 0.029768 0.000000 -0.011387
# 5 0.013042 0.014474 0.020715 0.000000 0.101993 0.000000
# 6 0.000000 0.000000 0.000000 -0.011387 0.000000 -0.002703
#
#
# Mechanical properties :
#
#
# Convention : Reuss Voigt Hill
#
# Bulk Modulus (GPa) = 22.73913 55.71070 39.22491
# Shear Modulus (GPa) = 26.77159 -5.13382 10.81888
#
# Velocity S-wave (km/s) = 3.42901 -1.50159 2.17983
# Velocity P-wave (km/s) = 5.06601 4.63268 4.85419
#
# Compressibility (1/GPa) = 0.04397705
#
# Stress axis : x y z
#
# Youngs Moduli (GPa) = 58.50927 92.43621 64.09100
#
# Poissons Ratio (x) = -0.21357 0.04441
# Poissons Ratio (y) = -0.13519 0.08878
# Poissons Ratio (z) = 0.04055 0.12804
#
# Static dielectric constant tensor:
#      x y z
#    x 1.831360 0.000000 0.027480 
#    y 0.000000 1.935770 0.000000 
#    z 0.027480 0.000000 1.859990 
# 
# From -- ./inp_files/42151.got.cif
#   From: 2010.05.17/outbox.cif.g08.bks.cpg/sg12_22_cif.got.tgz:42151.got - 2010.06.03 13:09:07.
