data_PCOD9186613
_publ_section_title
;
Structure prediction by ZEFSAII (Michael W. Deem and Ramdas Pophale) SiO2 
 PCOD9186613
Probable space group: C 2/M
;
_chemical_formula_sum "Si O2"
_cell_formula_units_Z 64
_cell_length_a 24.106039
_cell_length_b 8.922751
_cell_length_c 17.756537
_cell_angle_alpha 90.000000
_cell_angle_beta 71.184156
_cell_angle_gamma 90.000000
_cell_volume 3615.189747
_symmetry_space_group_name_H-M "C 2/M"
_symmetry_group_IT_number 12
_symmetry_cell_setting 'monoclinic'
loop_
_space_group_symop_operation_xyz
x,y,z
-x,y,-z
-x,-y,-z
x,-y,z
1/2+x,1/2+y,z
1/2-x,1/2+y,-z
1/2-x,1/2-y,-z
1/2+x,1/2-y,z
loop_
_atom_site_type_symbol
_atom_site_label
_atom_site_fract_x
_atom_site_fract_y
_atom_site_fract_z
Si Si1 0.857268 0.179789 0.467903
Si Si2 0.429706 0.828667 0.017055
Si Si3 0.491893 0.677511 0.413890
Si Si4 0.946372 0.822055 0.856331
Si Si5 0.183748 0.320057 0.662366
Si Si6 0.075134 0.681571 0.813675
Si Si7 0.311955 0.319314 0.653752
Si Si8 0.403466 0.821904 0.724922
O O1 0.925239 0.220143 0.424415
O O2 0.818660 0.252167 0.419760
O O3 0.839251 0.222524 0.560382
O O4 0.852468 0.000000 0.465745
O O5 0.420327 0.727239 0.948520
O O6 0.411478 0.000000 0.009209
O O7 0.500000 0.830931 0.000000
O O8 0.405887 0.780157 0.108885
O O9 0.500000 0.695979 0.500000
O O10 0.500261 0.500000 0.393771
O O11 0.539378 0.770383 0.347433
O O12 0.910327 0.751184 0.803806
O O13 0.012753 0.756609 0.823655
O O14 0.948570 0.000000 0.848938
O O15 0.183231 0.500000 0.656130
O O16 0.125838 0.274439 0.733642
O O17 0.243492 0.279712 0.678992
O O18 0.067491 0.500000 0.815007
O O19 0.317904 0.500000 0.659060
O O20 0.347948 0.240306 0.703503
O O21 0.401711 0.000000 0.731473
#
# Coordination Sequence:
#
# PCOD9186613 Si02
#       8
#     8   8   8   8   8   8   8   8
#     4  10  20  34  54  76 103 138 174 216 265 310
#     4   8  15  30  52  77 110 141 165 204 261 315
#     4  10  19  35  55  75 104 139 171 209 263 314
#     4  11  21  33  53  81 110 140 174 211 257 313
#     4  10  21  35  55  78 103 136 177 220 258 308
#     4   9  18  34  54  81 112 140 169 210 264 313
#     4  10  21  39  55  71 100 141 181 219 265 309
#     4  12  24  36  53  77 105 138 178 221 264 311
#
# _framework density 17.703081999999998
#
# number of rings (size 3 to 8) (size 9 to 14) (size 15 to 20)
#    0.000    2.000    1.250    4.125    0.000    6.500 
#    0.000    0.000    0.000    0.750    0.000    0.000 
#    0.000    0.000    0.000    0.000    0.000    0.000 
#
# Total GULP energy -178657.735834 kJ/mol
# GULP energy per Si atom -5583.054245 kJ/mol
# Density = 1.766279 g / cm^3
# Si number density = 17.703082 Si / 1000 Ang^3
#
#
#
# Elastic Constant Matrix: (Units=GPa)
#
#
# Indices 1 2 3 4 5 6 
#
# 1 84.8887 39.4332 46.3229 0.0000 23.8070 0.0000
# 2 39.4332 61.6007 43.4574 0.0000 19.7129 0.0000
# 3 46.3229 43.4574 97.0468 0.0000 30.9384 0.0000
# 4 0.0000 0.0000 0.0000 20.9185 0.0000 8.6246
# 5 23.8070 19.7129 30.9384 0.0000 23.4582 0.0000
# 6 0.0000 0.0000 0.0000 8.6246 0.0000 20.7633
#
#
#
# Elastic Compliance Matrix: (Units=1/GPa)
#
#
# Indices 1 2 3 4 5 6 
#
# 1 0.019515 -0.007288 -0.002916 0.000000 -0.009835 0.000000
# 2 -0.007288 0.027964 -0.006746 0.000000 -0.007205 0.000000
# 3 -0.002916 -0.006746 0.020648 0.000000 -0.018603 0.000000
# 4 0.000000 0.000000 0.000000 0.057683 0.000000 -0.023960
# 5 -0.009835 -0.007205 -0.018603 0.000000 0.083201 0.000000
# 6 0.000000 0.000000 0.000000 -0.023960 0.000000 0.058114
#
#
# Mechanical properties :
#
#
# Convention : Reuss Voigt Hill
#
# Bulk Modulus (GPa) = 29.21747 55.77369 42.49558
# Shear Modulus (GPa) = 16.00330 20.64951 18.32641
#
# Velocity S-wave (km/s) = 3.00989 3.41902 3.22096
# Velocity P-wave (km/s) = 5.34970 6.86729 6.15544
#
# Compressibility (1/GPa) = 0.03422609
#
# Stress axis : x y z
#
# Youngs Moduli (GPa) = 51.24254 35.76011 48.43061
#
# Poissons Ratio (x) = 0.26061 0.14124
# Poissons Ratio (y) = 0.37345 0.32674
# Poissons Ratio (z) = 0.14944 0.24126
#
# Static dielectric constant tensor:
#      x y z
#    x 1.592840 0.000000 -0.003490 
#    y 0.000000 1.590640 0.000000 
#    z -0.003490 0.000000 1.614600 
# 
# From -- ./inp_files/287489.got.cif
#   From: 2010.05.17/outbox.cif.g08.bks.cpg/sg12_144_cif.got.tgz:287489.got - 2010.06.03 13:09:07.
