data_PCOD9186290
_publ_section_title
;
Structure prediction by ZEFSAII (Michael W. Deem and Ramdas Pophale) SiO2 
 PCOD9186290
Probable space group: C 2/M
;
_chemical_formula_sum "Si O2"
_cell_formula_units_Z 64
_cell_length_a 24.949526
_cell_length_b 16.693958
_cell_length_c 18.304237
_cell_angle_alpha 90.000000
_cell_angle_beta 159.261681
_cell_angle_gamma 90.000000
_cell_volume 2699.601385
_symmetry_space_group_name_H-M "C 2/M"
_symmetry_group_IT_number 12
_symmetry_cell_setting 'monoclinic'
loop_
_space_group_symop_operation_xyz
x,y,z
-x,y,-z
-x,-y,-z
x,-y,z
1/2+x,1/2+y,z
1/2-x,1/2+y,-z
1/2-x,1/2-y,-z
1/2+x,1/2-y,z
loop_
_atom_site_type_symbol
_atom_site_label
_atom_site_fract_x
_atom_site_fract_y
_atom_site_fract_z
Si Si1 0.267236 0.655025 0.534226
Si Si2 0.659339 0.829867 0.679375
Si Si3 0.056713 0.369816 0.149156
Si Si4 0.236331 0.096398 0.788743
Si Si5 0.058745 0.404872 0.399208
Si Si6 0.764112 0.096256 0.964488
Si Si7 0.012207 0.902636 0.634815
Si Si8 0.481686 0.692091 0.053009
O O1 0.250000 0.750000 0.500000
O O2 0.159479 0.633529 0.464839
O O3 0.438059 0.643579 0.779977
O O4 0.205819 0.607674 0.384794
O O5 0.500000 0.790686 0.500000
O O6 0.620391 0.882143 0.558350
O O7 0.719227 0.877748 0.826180
O O8 0.809962 0.782956 0.849797
O O9 0.071657 0.274776 0.156072
O O10 0.911323 0.381712 0.015586
O O11 0.000000 0.406267 0.000000
O O12 0.149661 0.123885 0.603805
O O13 0.134446 0.119900 0.727961
O O14 0.231021 0.000000 0.780913
O O15 0.064092 0.500000 0.396977
O O16 0.882692 0.379408 0.174337
O O17 0.770756 0.000000 0.973511
O O18 0.916296 0.127311 0.198152
O O19 0.006903 0.000000 0.631356
O O20 0.500000 0.646052 0.000000
#
# Coordination Sequence:
#
# PCOD9186290 Si02
#       8
#     8   8   8   8   8   8   8   8
#     4  10  21  38  61  82 111 159 208 242 293 364
#     4  10  20  35  58  87 123 153 193 244 299 353
#     4  10  22  36  55  80 104 148 202 244 291 351
#     4   9  17  32  53  78 111 149 193 244 301 355
#     4  10  19  34  60  90 119 155 202 249 297 358
#     4   9  17  30  53  86 123 157 188 236 301 359
#     4   8  15  29  51  78 111 153 186 224 291 366
#     4  10  20  40  60  77 112 162 199 238 290 356
#
# _framework density 23.707204000000001
#
# number of rings (size 3 to 8) (size 9 to 14) (size 15 to 20)
#    0.000    2.500    1.250    1.875    0.000    4.250 
#    2.250    1.875    0.000    6.750    0.000    0.000 
#    0.000    0.000    0.000    0.000    0.000    0.000 
#
# Total GULP energy -178469.253041 kJ/mol
# GULP energy per Si atom -5577.164158 kJ/mol
# Density = 2.365325 g / cm^3
# Si number density = 23.707204 Si / 1000 Ang^3
#
#
#
# Elastic Constant Matrix: (Units=GPa)
#
#
# Indices 1 2 3 4 5 6 
#
# 1 99.2289 14.1262 45.5938 -0.0003 -19.4191 0.0001
# 2 14.1262 27.6706 17.3266 -0.0003 -3.8633 0.0003
# 3 45.5938 17.3266 168.1836 -0.0006 -35.6929 0.0003
# 4 -0.0003 -0.0003 -0.0006 27.0098 -0.0003 -2.1349
# 5 -19.4191 -3.8633 -35.6929 -0.0003 47.4143 0.0003
# 6 0.0001 0.0003 0.0003 -2.1349 0.0003 11.3964
#
#
#
# Elastic Compliance Matrix: (Units=1/GPa)
#
#
# Indices 1 2 3 4 5 6 
#
# 1 0.012333 -0.004471 -0.002247 0.000000 0.002995 0.000000
# 2 -0.004471 0.040254 -0.003127 0.000000 -0.000905 -0.000001
# 3 -0.002247 -0.003127 0.007888 0.000000 0.004763 0.000000
# 4 0.000000 0.000000 0.000000 0.037580 0.000000 0.007040
# 5 0.002995 -0.000905 0.004763 0.000000 0.025829 -0.000001
# 6 0.000000 -0.000001 0.000000 0.007040 -0.000001 0.089066
#
#
# Mechanical properties :
#
#
# Convention : Reuss Voigt Hill
#
# Bulk Modulus (GPa) = 24.51918 49.90848 37.21383
# Shear Modulus (GPa) = 20.30586 31.69987 26.00286
#
# Velocity S-wave (km/s) = 2.92982 3.66066 3.31544
# Velocity P-wave (km/s) = 4.67013 6.24219 5.51249
#
# Compressibility (1/GPa) = 0.04078441
#
# Stress axis : x y z
#
# Youngs Moduli (GPa) = 81.08428 24.84247 126.77430
#
# Poissons Ratio (x) = 0.11107 0.28488
# Poissons Ratio (y) = 0.36251 0.39644
# Poissons Ratio (z) = 0.18221 0.07769
#
# Static dielectric constant tensor:
#      x y z
#    x 1.503430 0.000010 -0.152910 
#    y 0.000010 1.852960 0.000000 
#    z -0.152910 0.000000 1.947270 
# 
# From -- ./inp_files/290963.got.cif
#   From: 2010.05.17/outbox.cif.g08.bks.cpg/sg12_146_cif.got.tgz:290963.got - 2010.06.03 13:09:07.
