data_PCOD9186819
_publ_section_title
;
Structure prediction by ZEFSAII (Michael W. Deem and Ramdas Pophale) SiO2 
 PCOD9186819
Probable space group: C 2/M
;
_chemical_formula_sum "Si O2"
_cell_formula_units_Z 60
_cell_length_a 32.339823
_cell_length_b 12.617910
_cell_length_c 8.193227
_cell_angle_alpha 90.000000
_cell_angle_beta 70.142094
_cell_angle_gamma 90.000000
_cell_volume 3144.534558
_symmetry_space_group_name_H-M "C 2/M"
_symmetry_group_IT_number 12
_symmetry_cell_setting 'monoclinic'
loop_
_space_group_symop_operation_xyz
x,y,z
-x,y,-z
-x,-y,-z
x,-y,z
1/2+x,1/2+y,z
1/2-x,1/2+y,-z
1/2-x,1/2-y,-z
1/2+x,1/2-y,z
loop_
_atom_site_type_symbol
_atom_site_label
_atom_site_fract_x
_atom_site_fract_y
_atom_site_fract_z
Si Si1 0.294983 0.124301 0.277796
Si Si2 0.867426 0.752425 0.379131
Si Si3 0.491339 0.622805 0.823765
Si Si4 0.606635 0.378979 0.956613
Si Si5 0.591901 0.126554 0.383274
Si Si6 0.168910 0.260402 0.079490
Si Si7 0.500000 0.238165 0.500000
Si Si8 0.301603 0.376970 0.671001
O O1 0.326887 0.187401 0.355364
O O2 0.242886 0.138022 0.373324
O O3 0.305027 0.000000 0.275040
O O4 0.305255 0.167192 0.082565
O O5 0.895685 0.803088 0.196825
O O6 0.894488 0.676287 0.460805
O O7 0.844867 0.847031 0.511105
O O8 0.506450 0.500000 0.792767
O O9 0.509100 0.690302 0.648759
O O10 0.500000 0.657758 0.000000
O O11 0.438369 0.625223 0.881967
O O12 0.613518 0.500000 0.896273
O O13 0.646466 0.335445 0.010332
O O14 0.628884 0.172601 0.211340
O O15 0.543225 0.168363 0.407599
O O16 0.593170 0.000000 0.383343
O O17 0.197579 0.206577 0.182032
O O18 0.302401 0.500000 0.722818
#
# Coordination Sequence:
#
# PCOD9186819 Si02
#       8
#     8   8   8   8   8   8   4   8
#     4  10  20  35  56  79 112 148 189 232 277 336
#     4  10  21  36  57  81 112 149 187 233 286 344
#     4  10  21  37  59  88 120 151 190 237 293 358
#     4  10  19  35  56  81 111 145 180 229 287 346
#     4  11  23  39  58  80 110 150 197 241 286 336
#     4  10  20  36  55  80 110 149 186 231 280 342
#     4  12  22  40  62  86 118 154 198 248 300 340
#     4  10  20  34  54  85 113 144 184 231 283 341
#
# _framework density 19.080724
#
# number of rings (size 3 to 8) (size 9 to 14) (size 15 to 20)
#    0.000    1.733    1.333    3.600    0.000    0.000 
#    0.000    1.333    0.000   14.400    0.000    0.000 
#    0.000    0.000    0.000    0.000    0.000    0.000 
#
# Total GULP energy -167446.379045 kJ/mol
# GULP energy per Si atom -5581.545968 kJ/mol
# Density = 1.903730 g / cm^3
# Si number density = 19.080724 Si / 1000 Ang^3
#
#
#
# Elastic Constant Matrix: (Units=GPa)
#
#
# Indices 1 2 3 4 5 6 
#
# 1 53.8515 26.5117 2.8160 0.0000 -0.2085 0.0000
# 2 26.5117 103.0527 16.1408 0.0000 -2.1102 0.0000
# 3 2.8160 16.1408 39.7167 0.0000 4.2253 0.0000
# 4 0.0000 0.0000 0.0000 17.5192 0.0000 -2.1984
# 5 -0.2085 -2.1102 4.2253 0.0000 24.0082 0.0000
# 6 0.0000 0.0000 0.0000 -2.1984 0.0000 22.1647
#
#
#
# Elastic Compliance Matrix: (Units=1/GPa)
#
#
# Indices 1 2 3 4 5 6 
#
# 1 0.021289 -0.005615 0.000821 0.000000 -0.000453 0.000000
# 2 -0.005615 0.011911 -0.004636 0.000000 0.001814 0.000000
# 3 0.000821 -0.004636 0.027563 0.000000 -0.005251 0.000000
# 4 0.000000 0.000000 0.000000 0.057800 0.000000 0.005733
# 5 -0.000453 0.001814 -0.005251 0.000000 0.042732 0.000000
# 6 0.000000 0.000000 0.000000 0.005733 0.000000 0.045685
#
#
# Mechanical properties :
#
#
# Convention : Reuss Voigt Hill
#
# Bulk Modulus (GPa) = 23.86428 31.95088 27.90758
# Shear Modulus (GPa) = 20.84999 22.81522 21.83261
#
# Velocity S-wave (km/s) = 3.30923 3.46167 3.38631
# Velocity P-wave (km/s) = 5.20917 5.72355 5.47241
#
# Compressibility (1/GPa) = 0.04190364
#
# Stress axis : x y z
#
# Youngs Moduli (GPa) = 46.97235 83.95280 36.28085
#
# Poissons Ratio (x) = 0.47137 -0.02977
# Poissons Ratio (y) = 0.26374 0.16819
# Poissons Ratio (z) = -0.03854 0.38918
#
# Static dielectric constant tensor:
#      x y z
#    x 1.671140 0.000000 0.011550 
#    y 0.000000 1.628290 0.000000 
#    z 0.011550 0.000000 1.663270 
# 
# From -- ./inp_files/110414.got.cif
#   From: 2010.05.17/outbox.cif.g08.bks.cpg/sg12_56_cif.got.tgz:110414.got - 2010.06.03 13:09:07.
