data_PCOD9186838
_publ_section_title
;
Structure prediction by ZEFSAII (Michael W. Deem and Ramdas Pophale) SiO2 
 PCOD9186838
Probable space group: C 2/M
;
_chemical_formula_sum "Si O2"
_cell_formula_units_Z 52
_cell_length_a 11.465217
_cell_length_b 24.325053
_cell_length_c 9.734889
_cell_angle_alpha 90.000000
_cell_angle_beta 64.327423
_cell_angle_gamma 90.000000
_cell_volume 2446.971827
_symmetry_space_group_name_H-M "C 2/M"
_symmetry_group_IT_number 12
_symmetry_cell_setting 'monoclinic'
loop_
_space_group_symop_operation_xyz
x,y,z
-x,y,-z
-x,-y,-z
x,-y,z
1/2+x,1/2+y,z
1/2-x,1/2+y,-z
1/2-x,1/2-y,-z
1/2+x,1/2-y,z
loop_
_atom_site_type_symbol
_atom_site_label
_atom_site_fract_x
_atom_site_fract_y
_atom_site_fract_z
Si Si1 0.000000 0.637315 0.500000
Si Si2 0.101623 0.106712 0.074592
Si Si3 0.400379 0.734129 0.919922
Si Si4 0.359040 0.675085 0.518951
Si Si5 0.686799 0.936794 0.228851
Si Si6 0.114052 0.282007 0.649852
Si Si7 0.397409 0.439735 0.367516
O O1 0.071677 0.599587 0.350615
O O2 0.098326 0.677614 0.528308
O O3 0.238443 0.087968 0.941497
O O4 0.099261 0.169975 0.121855
O O5 0.000000 0.102040 0.000000
O O6 0.038161 0.071134 0.228260
O O7 0.472492 0.776764 0.784193
O O8 0.500000 0.735882 0.000000
O O9 0.250000 0.750000 0.000000
O O10 0.500000 0.689893 0.500000
O O11 0.233754 0.691693 0.671962
O O12 0.348608 0.718631 0.398715
O O13 0.362298 0.611540 0.480293
O O14 0.794266 0.938089 0.295590
O O15 0.647467 0.000000 0.222877
O O16 0.390811 0.500000 0.434893
#
# Coordination Sequence:
#
# PCOD9186838 Si02
#       7
#     4   8   8   8   8   8   8
#     4  12  21  38  58  88 125 160 198 244 304 368
#     4   9  18  33  56  82 113 150 196 247 305 352
#     4  11  24  38  61  88 124 161 204 254 308 367
#     4  11  23  38  59  83 118 158 198 246 302 364
#     4  10  20  34  56  86 119 152 194 246 304 358
#     4  11  24  38  61  89 120 159 203 247 303 369
#     4  10  19  35  56  82 113 152 200 247 296 355
#
# _framework density 21.250754000000001
#
# number of rings (size 3 to 8) (size 9 to 14) (size 15 to 20)
#    0.000    1.538    3.846    1.615    2.154    2.154 
#    0.000    0.000    0.000    0.000    0.000    0.000 
#    0.000    8.000    0.000    0.000    0.000    0.000 
#
# Total GULP energy -144956.315252 kJ/mol
# GULP energy per Si atom -5575.242894 kJ/mol
# Density = 2.120239 g / cm^3
# Si number density = 21.250754 Si / 1000 Ang^3
#
#
#
# Elastic Constant Matrix: (Units=GPa)
#
#
# Indices 1 2 3 4 5 6 
#
# 1 81.8335 36.6002 29.6718 0.0000 -29.1490 0.0000
# 2 36.6002 157.8243 61.3473 0.0000 -22.9389 0.0000
# 3 29.6718 61.3473 88.3990 0.0000 -42.0369 0.0000
# 4 0.0000 0.0000 0.0000 33.3185 0.0000 -7.2810
# 5 -29.1490 -22.9389 -42.0369 0.0000 37.9588 0.0000
# 6 0.0000 0.0000 0.0000 -7.2810 0.0000 19.0653
#
#
#
# Elastic Compliance Matrix: (Units=1/GPa)
#
#
# Indices 1 2 3 4 5 6 
#
# 1 0.018082 -0.003394 0.004043 0.000000 0.016311 0.000000
# 2 -0.003394 0.009480 -0.008354 0.000000 -0.006129 0.000000
# 3 0.004043 -0.008354 0.031325 0.000000 0.032746 0.000000
# 4 0.000000 0.000000 0.000000 0.032746 0.000000 0.012506
# 5 0.016311 -0.006129 0.032746 0.000000 0.071430 0.000000
# 6 0.000000 0.000000 0.000000 0.012506 0.000000 0.057227
#
#
# Mechanical properties :
#
#
# Convention : Reuss Voigt Hill
#
# Bulk Modulus (GPa) = 23.00138 64.81058 43.90598
# Shear Modulus (GPa) = 19.98452 31.43103 25.70778
#
# Velocity S-wave (km/s) = 3.06995 3.85002 3.48190
# Velocity P-wave (km/s) = 4.83874 7.09421 6.07211
#
# Compressibility (1/GPa) = 0.04347565
#
# Stress axis : x y z
#
# Youngs Moduli (GPa) = 55.30309 105.48840 31.92327
#
# Poissons Ratio (x) = 0.35802 -0.12905
# Poissons Ratio (y) = 0.18769 0.26670
# Poissons Ratio (z) = -0.22356 0.88128
#
# Static dielectric constant tensor:
#      x y z
#    x 1.852630 0.000000 -0.017980 
#    y 0.000000 1.737230 0.000000 
#    z -0.017980 0.000000 1.888440 
# 
# From -- ./inp_files/135833.got.cif
#   From: 2010.05.17/outbox.cif.g08.bks.cpg/sg12_68_cif.got.tgz:135833.got - 2010.06.03 13:09:07.
