data_PCOD9186324
_publ_section_title
;
Structure prediction by ZEFSAII (Michael W. Deem and Ramdas Pophale) SiO2 
 PCOD9186324
Probable space group: C 2/M
;
_chemical_formula_sum "Si O2"
_cell_formula_units_Z 48
_cell_length_a 21.596707
_cell_length_b 13.871992
_cell_length_c 13.331305
_cell_angle_alpha 90.000000
_cell_angle_beta 150.761264
_cell_angle_gamma 90.000000
_cell_volume 1950.827558
_symmetry_space_group_name_H-M "C 2/M"
_symmetry_group_IT_number 12
_symmetry_cell_setting 'monoclinic'
loop_
_space_group_symop_operation_xyz
x,y,z
-x,y,-z
-x,-y,-z
x,-y,z
1/2+x,1/2+y,z
1/2-x,1/2+y,-z
1/2-x,1/2-y,-z
1/2+x,1/2-y,z
loop_
_atom_site_type_symbol
_atom_site_label
_atom_site_fract_x
_atom_site_fract_y
_atom_site_fract_z
Si Si1 0.082685 0.897538 0.719108
Si Si2 0.517373 0.890585 0.785460
Si Si3 0.173466 0.239043 0.126890
Si Si4 0.868673 0.686382 0.251344
Si Si5 0.332949 0.389399 0.477787
Si Si6 0.283461 0.387435 0.636078
O O1 0.152827 0.797423 0.812510
O O2 0.000000 0.901970 0.500000
O O3 0.981942 0.890517 0.666179
O O4 0.151827 0.000000 0.822951
O O5 0.595915 0.877970 0.793755
O O6 0.367318 0.878034 0.554495
O O7 0.535173 0.000000 0.850579
O O8 0.565582 0.804494 0.924744
O O9 0.250420 0.170368 0.158081
O O10 0.270709 0.319003 0.309212
O O11 0.141633 0.174751 0.177488
O O12 0.000000 0.685082 0.500000
O O13 0.287092 0.500000 0.399765
O O14 0.304509 0.358463 0.550477
O O15 0.317008 0.500000 0.690959
#
# Coordination Sequence:
#
# PCOD9186324 Si02
#       6
#     8   8   8   8   8   8
#     4   9  16  30  57  89 120 157 201 251 308 367
#     4  11  25  42  63  95 129 167 212 263 321 381
#     4  12  22  39  64  92 125 168 217 262 312 377
#     4  11  20  38  62  92 126 163 213 260 316 376
#     4  10  19  34  60  93 126 165 211 261 312 372
#     4  10  23  42  63  91 130 170 212 260 318 378
#
# _framework density 24.604942999999999
#
# number of rings (size 3 to 8) (size 9 to 14) (size 15 to 20)
#    0.000    1.500    5.000    1.500    0.000    2.333 
#    0.000    3.333    0.000    2.000    0.000   11.667 
#    0.000    0.000    0.000    0.000    0.000    0.000 
#
# Total GULP energy -134371.459169 kJ/mol
# GULP energy per Si atom -5598.810799 kJ/mol
# Density = 2.454894 g / cm^3
# Si number density = 24.604943 Si / 1000 Ang^3
#
#
#
# Elastic Constant Matrix: (Units=GPa)
#
#
# Indices 1 2 3 4 5 6 
#
# 1 121.2024 16.1330 36.8644 0.0000 -7.1075 0.0000
# 2 16.1330 84.5677 46.1139 0.0000 -0.0205 0.0000
# 3 36.8644 46.1139 88.0920 0.0000 -3.9250 0.0000
# 4 0.0000 0.0000 0.0000 -4.9120 0.0000 9.4159
# 5 -7.1075 -0.0205 -3.9250 0.0000 30.1390 0.0000
# 6 0.0000 0.0000 0.0000 9.4159 0.0000 26.5033
#
#
#
# Elastic Compliance Matrix: (Units=1/GPa)
#
#
# Indices 1 2 3 4 5 6 
#
# 1 0.009556 0.000443 -0.004154 0.000000 0.001713 0.000000
# 2 0.000443 0.016607 -0.008925 0.000000 -0.001047 0.000000
# 3 -0.004154 -0.008925 0.017822 0.000000 0.001335 0.000000
# 4 0.000000 0.000000 0.000000 -0.121106 0.000000 0.043026
# 5 0.001713 -0.001047 0.001335 0.000000 0.033757 0.000000
# 6 0.000000 0.000000 0.000000 0.043026 0.000000 0.022445
#
#
# Mechanical properties :
#
#
# Convention : Reuss Voigt Hill
#
# Bulk Modulus (GPa) = 53.44449 54.67607 54.06028
# Shear Modulus (GPa) = 472.10182 23.32945 247.71563
#
# Velocity S-wave (km/s) = 13.86684 3.08256 10.04469
# Velocity P-wave (km/s) = 16.67795 5.91096 12.51186
#
# Compressibility (1/GPa) = 0.01871100
#
# Stress axis : x y z
#
# Youngs Moduli (GPa) = 104.64936 60.21577 56.11086
#
# Poissons Ratio (x) = -0.02666 0.23310
# Poissons Ratio (y) = -0.04634 0.50080
# Poissons Ratio (z) = 0.43475 0.53744
#
# Static dielectric constant tensor:
#      x y z
#    x 1.933030 0.000000 -0.003540 
#    y 0.000000 1.938720 0.000000 
#    z -0.003540 0.000000 1.992930 
# 
# From -- ./inp_files/167653.got.cif
#   From: 2010.05.17/outbox.cif.g08.bks.cpg/sg12_84_cif.got.tgz:167653.got - 2010.06.03 13:09:07.
