data_PCOD9186348
_publ_section_title
;
Structure prediction by ZEFSAII (Michael W. Deem and Ramdas Pophale) SiO2 
 PCOD9186348
Probable space group: C 2/M
;
_chemical_formula_sum "Si O2"
_cell_formula_units_Z 64
_cell_length_a 26.253242
_cell_length_b 19.043658
_cell_length_c 18.897524
_cell_angle_alpha 90.000000
_cell_angle_beta 20.345396
_cell_angle_gamma 90.000000
_cell_volume 3284.855217
_symmetry_space_group_name_H-M "C 2/M"
_symmetry_group_IT_number 12
_symmetry_cell_setting 'monoclinic'
loop_
_space_group_symop_operation_xyz
x,y,z
-x,y,-z
-x,-y,-z
x,-y,z
1/2+x,1/2+y,z
1/2-x,1/2+y,-z
1/2-x,1/2-y,-z
1/2+x,1/2-y,z
loop_
_atom_site_type_symbol
_atom_site_label
_atom_site_fract_x
_atom_site_fract_y
_atom_site_fract_z
Si Si1 0.464914 0.323574 0.736313
Si Si2 0.174675 0.630541 0.927188
Si Si3 0.565571 0.305231 0.762083
Si Si4 0.727770 0.581079 0.350227
Si Si5 0.256698 0.793682 0.792609
Si Si6 0.039626 0.314624 0.338978
Si Si7 0.848400 0.649280 0.331923
Si Si8 0.289283 0.917838 0.966929
O O1 0.519891 0.293711 0.739351
O O2 0.592981 0.365284 0.530352
O O3 0.412365 0.258080 0.759630
O O4 0.340255 0.381185 0.908213
O O5 0.204767 0.589947 0.815241
O O6 0.226255 0.710823 0.846770
O O7 0.244752 0.599568 0.906695
O O8 0.000974 0.627199 0.166872
O O9 0.705573 0.356063 0.568509
O O10 0.626621 0.232819 0.715502
O O11 0.408000 0.324865 0.001140
O O12 0.686050 0.500000 0.415698
O O13 0.826215 0.607207 0.287886
O O14 0.369484 0.805252 0.581501
O O15 0.354619 0.821852 0.730539
O O16 0.068686 0.377435 0.247108
O O17 0.297958 0.000000 0.945238
#
# Coordination Sequence:
#
# PCOD9186348 Si02
#       8
#     8   8   8   8   8   8   8   8
#     4  11  20  38  60  86 120 160 204 249 302 371
#     4  11  21  38  57  86 123 164 206 244 294 366
#     4   9  18  36  60  86 110 147 203 257 298 351
#     4  11  23  37  56  85 127 166 199 249 307 364
#     4  10  19  34  61  88 114 148 205 251 302 355
#     4  11  20  36  60  89 118 157 195 251 305 362
#     4   9  20  35  58  82 115 155 204 250 297 348
#     4  12  25  38  59  91 128 162 199 250 312 376
#
# _framework density 19.483353999999999
#
# number of rings (size 3 to 8) (size 9 to 14) (size 15 to 20)
#    0.000    1.500    3.750    3.000    0.000    2.000 
#    0.000    2.500    0.000    0.000    0.000    0.875 
#    0.000    0.000    0.000    0.000    0.000    0.000 
#
# Total GULP energy -178403.214754 kJ/mol
# GULP energy per Si atom -5575.100461 kJ/mol
# Density = 1.943901 g / cm^3
# Si number density = 19.483354 Si / 1000 Ang^3
#
#
#
# Elastic Constant Matrix: (Units=GPa)
#
#
# Indices 1 2 3 4 5 6 
#
# 1 26.5037 18.4726 8.4575 -0.0008 5.8224 0.0006
# 2 18.4726 74.8092 32.0056 0.0008 25.6266 -0.0005
# 3 8.4575 32.0056 126.2800 -0.0006 -8.4456 0.0011
# 4 -0.0008 0.0008 -0.0006 18.4004 -0.0003 2.3572
# 5 5.8224 25.6266 -8.4456 -0.0003 19.1611 0.0005
# 6 0.0006 -0.0005 0.0011 2.3572 0.0005 11.8462
#
#
#
# Elastic Compliance Matrix: (Units=1/GPa)
#
#
# Indices 1 2 3 4 5 6 
#
# 1 0.045630 -0.012278 0.000234 0.000003 0.002659 -0.000003
# 2 -0.012278 0.042929 -0.014063 -0.000005 -0.059882 0.000007
# 3 0.000234 -0.014063 0.013107 0.000002 0.024514 -0.000003
# 4 0.000003 -0.000005 0.000002 0.055768 0.000008 -0.011097
# 5 0.002659 -0.059882 0.024514 0.000008 0.142274 -0.000013
# 6 -0.000003 0.000007 -0.000003 -0.011097 -0.000013 0.086623
#
#
# Mechanical properties :
#
#
# Convention : Reuss Voigt Hill
#
# Bulk Modulus (GPa) = 20.22211 38.38493 29.30352
# Shear Modulus (GPa) = 10.98831 21.12534 16.05683
#
# Velocity S-wave (km/s) = 2.37741 3.29641 2.87388
# Velocity P-wave (km/s) = 4.23531 5.85086 5.10737
#
# Compressibility (1/GPa) = 0.04945083
#
# Stress axis : x y z
#
# Youngs Moduli (GPa) = 21.91565 23.29444 76.29522
#
# Poissons Ratio (x) = 0.28601 -0.01783
# Poissons Ratio (y) = 0.26908 1.07293
# Poissons Ratio (z) = -0.00512 0.32759
#
# Static dielectric constant tensor:
#      x y z
#    x 1.670250 0.000000 -0.011010 
#    y 0.000000 1.657760 0.000000 
#    z -0.011010 0.000000 1.782790 
# 
# From -- ./inp_files/294144.got.cif
#   From: 2010.05.17/outbox.cif.g08.bks.cpg/sg12_148_cif.got.tgz:294144.got - 2010.06.03 13:09:07.
