data_PCOD9186991
_publ_section_title
;
Structure prediction by ZEFSAII (Michael W. Deem and Ramdas Pophale) SiO2 
 PCOD9186991
Probable space group: C 2/M
;
_chemical_formula_sum "Si O2"
_cell_formula_units_Z 60
_cell_length_a 10.049607
_cell_length_b 26.355971
_cell_length_c 22.114110
_cell_angle_alpha 90.000000
_cell_angle_beta 145.297507
_cell_angle_gamma 90.000000
_cell_volume 3334.651222
_symmetry_space_group_name_H-M "C 2/M"
_symmetry_group_IT_number 12
_symmetry_cell_setting 'monoclinic'
loop_
_space_group_symop_operation_xyz
x,y,z
-x,y,-z
-x,-y,-z
x,-y,z
1/2+x,1/2+y,z
1/2-x,1/2+y,-z
1/2-x,1/2-y,-z
1/2+x,1/2-y,z
loop_
_atom_site_type_symbol
_atom_site_label
_atom_site_fract_x
_atom_site_fract_y
_atom_site_fract_z
Si Si1 0.574669 0.608429 0.276575
Si Si2 0.488912 0.441349 0.619450
Si Si3 0.000000 0.781318 0.000000
Si Si4 0.329095 0.134889 0.073015
Si Si5 0.752402 0.944122 0.061896
Si Si6 0.013564 0.558562 0.768401
Si Si7 0.817992 0.316389 0.879358
Si Si8 0.005094 0.440985 0.622963
O O1 0.537066 0.593998 0.332019
O O2 0.434628 0.568774 0.182199
O O3 0.440704 0.660999 0.211431
O O4 0.840890 0.598654 0.357340
O O5 0.478903 0.500000 0.637195
O O6 0.737494 0.435313 0.679825
O O7 0.268722 0.433822 0.493253
O O8 0.160226 0.817881 0.020435
O O9 0.153093 0.743682 0.099705
O O10 0.358972 0.100587 0.143590
O O11 0.570158 0.159699 0.138987
O O12 0.239744 0.096963 0.987899
O O13 0.795682 0.000000 0.052629
O O14 0.500000 0.944478 0.000000
O O15 0.075115 0.500000 0.807731
O O16 0.054530 0.564963 0.712511
O O17 0.000000 0.334825 0.000000
O O18 0.059756 0.500000 0.626492
#
# Coordination Sequence:
#
# PCOD9186991 Si02
#       8
#     8   8   4   8   8   8   8   8
#     4  12  19  34  56  81 115 151 192 240 279 338
#     4  10  19  35  57  81 115 160 200 234 278 340
#     4  10  26  38  61  80 113 144 192 258 294 330
#     4  12  20  39  57  84 115 149 194 233 287 352
#     4  11  20  32  52  81 120 157 185 220 272 347
#     4  10  21  36  56  85 122 162 192 222 283 356
#     4  10  21  40  56  82 110 145 198 240 286 349
#     4  10  22  35  51  84 124 156 196 240 279 332
#
# _framework density 17.992887
#
# number of rings (size 3 to 8) (size 9 to 14) (size 15 to 20)
#    0.400    0.933    4.000    2.800    1.867    4.800 
#    0.000    0.667    0.000    0.000    0.000    5.600 
#    0.000    0.000    0.000    0.000    0.000    0.000 
#
# Total GULP energy -167325.933360 kJ/mol
# GULP energy per Si atom -5577.531112 kJ/mol
# Density = 1.795193 g / cm^3
# Si number density = 17.992887 Si / 1000 Ang^3
#
#
#
# Elastic Constant Matrix: (Units=GPa)
#
#
# Indices 1 2 3 4 5 6 
#
# 1 52.2685 29.7991 -6.2120 -0.0001 -5.0371 0.0001
# 2 29.7991 114.2785 19.1866 -0.0003 -5.0503 0.0000
# 3 -6.2120 19.1866 31.7134 0.0000 -9.0613 0.0014
# 4 -0.0001 -0.0003 0.0000 21.6360 -0.0001 9.4064
# 5 -5.0371 -5.0503 -9.0613 -0.0001 20.4516 0.0002
# 6 0.0001 0.0000 0.0014 9.4064 0.0002 20.5594
#
#
#
# Elastic Compliance Matrix: (Units=1/GPa)
#
#
# Indices 1 2 3 4 5 6 
#
# 1 0.026755 -0.008788 0.013534 0.000001 0.010416 -0.000001
# 2 -0.008788 0.012628 -0.010406 0.000000 -0.003657 0.000001
# 3 0.013534 -0.010406 0.046596 0.000002 0.021409 -0.000004
# 4 0.000001 0.000000 0.000002 0.057696 0.000002 -0.026397
# 5 0.010416 -0.003657 0.021409 0.000002 0.060044 -0.000003
# 6 -0.000001 0.000001 -0.000004 -0.026397 -0.000003 0.060717
#
#
# Mechanical properties :
#
#
# Convention : Reuss Voigt Hill
#
# Bulk Modulus (GPa) = 13.39463 31.53418 22.46441
# Shear Modulus (GPa) = 16.63111 22.89520 19.76316
#
# Velocity S-wave (km/s) = 3.04355 3.57102 3.31779
# Velocity P-wave (km/s) = 4.45101 5.87936 5.21433
#
# Compressibility (1/GPa) = 0.07465677
#
# Stress axis : x y z
#
# Youngs Moduli (GPa) = 37.37671 79.19093 21.46105
#
# Poissons Ratio (x) = 0.69596 -0.29045
# Poissons Ratio (y) = 0.32848 0.22333
# Poissons Ratio (z) = -0.50585 0.82407
#
# Static dielectric constant tensor:
#      x y z
#    x 1.673360 0.000000 0.039800 
#    y 0.000000 1.622110 0.000000 
#    z 0.039800 0.000000 1.624010 
# 
# From -- ./inp_files/302783.got.cif
#   From: 2010.05.17/outbox.cif.g08.bks.cpg/sg12_152_cif.got.tgz:302783.got - 2010.06.03 13:09:07.
