data_PCOD9186281
_publ_section_title
;
Structure prediction by ZEFSAII (Michael W. Deem and Ramdas Pophale) SiO2 
 PCOD9186281
Probable space group: C 2/M
;
_chemical_formula_sum "Si O2"
_cell_formula_units_Z 64
_cell_length_a 9.487007
_cell_length_b 23.853106
_cell_length_c 14.272554
_cell_angle_alpha 90.000000
_cell_angle_beta 121.307111
_cell_angle_gamma 90.000000
_cell_volume 2759.524280
_symmetry_space_group_name_H-M "C 2/M"
_symmetry_group_IT_number 12
_symmetry_cell_setting 'monoclinic'
loop_
_space_group_symop_operation_xyz
x,y,z
-x,y,-z
-x,-y,-z
x,-y,z
1/2+x,1/2+y,z
1/2-x,1/2+y,-z
1/2-x,1/2-y,-z
1/2+x,1/2-y,z
loop_
_atom_site_type_symbol
_atom_site_label
_atom_site_fract_x
_atom_site_fract_y
_atom_site_fract_z
Si Si1 0.169027 0.937314 0.861021
Si Si2 0.910703 0.439084 0.332759
Si Si3 0.889836 0.813994 0.572829
Si Si4 0.630722 0.438061 0.380701
Si Si5 0.537729 0.827411 0.401050
Si Si6 0.082075 0.656769 0.124661
Si Si7 0.730821 0.750612 0.691562
Si Si8 0.677771 0.063961 0.897438
O O1 0.272629 0.886191 0.854181
O O2 0.995753 0.937177 0.749888
O O3 0.240822 0.000000 0.866269
O O4 0.177227 0.930901 0.976279
O O5 0.988116 0.500000 0.356861
O O6 0.808510 0.433004 0.392543
O O7 0.789946 0.434015 0.201833
O O8 0.042946 0.390814 0.371183
O O9 0.905173 0.881127 0.576921
O O10 0.720429 0.802881 0.455253
O O11 0.839358 0.789969 0.658828
O O12 0.064323 0.786130 0.608624
O O13 0.616458 0.500000 0.420662
O O14 0.500000 0.824149 0.500000
O O15 0.381999 0.798988 0.296560
O O16 0.153674 0.707552 0.211844
O O17 0.949391 0.614119 0.124530
O O18 0.000000 0.678828 0.000000
O O19 0.609692 0.000000 0.888751
#
# Coordination Sequence:
#
# PCOD9186281 Si02
#       8
#     8   8   8   8   8   8   8   8
#     4   9  17  33  57  84 116 154 196 241 289 356
#     4  10  20  35  57  87 119 150 190 249 308 359
#     4  11  23  42  61  89 115 161 205 253 300 356
#     4  10  19  34  60  89 118 149 195 252 303 350
#     4  10  21  39  59  82 110 153 205 245 298 356
#     4  10  20  36  59  86 115 157 197 238 294 357
#     4  11  23  39  61  85 121 152 205 251 288 354
#     4   9  19  34  55  86 120 154 194 239 296 360
#
# _framework density 23.192402999999999
#
# number of rings (size 3 to 8) (size 9 to 14) (size 15 to 20)
#    0.000    2.000    3.750    0.750    1.750    2.750 
#    0.000    4.375    0.000    0.000    0.000    1.750 
#    0.000    0.000    0.000    0.000    0.000    0.000 
#
# Total GULP energy -178324.750719 kJ/mol
# GULP energy per Si atom -5572.648460 kJ/mol
# Density = 2.313962 g / cm^3
# Si number density = 23.192403 Si / 1000 Ang^3
#
#
#
# Elastic Constant Matrix: (Units=GPa)
#
#
# Indices 1 2 3 4 5 6 
#
# 1 80.6972 11.8805 1.7910 0.0000 8.7014 0.0000
# 2 11.8805 163.4801 23.1865 0.0000 4.9092 0.0000
# 3 1.7910 23.1865 69.0669 0.0000 14.5102 0.0000
# 4 0.0000 0.0000 0.0000 32.6756 0.0000 6.3048
# 5 8.7014 4.9092 14.5102 0.0000 24.9759 0.0000
# 6 0.0000 0.0000 0.0000 6.3048 0.0000 18.0891
#
#
#
# Elastic Compliance Matrix: (Units=1/GPa)
#
#
# Indices 1 2 3 4 5 6 
#
# 1 0.013042 -0.000944 0.001019 0.000000 -0.004950 0.000000
# 2 -0.000944 0.006491 -0.002228 0.000000 0.000347 0.000000
# 3 0.001019 -0.002228 0.017293 0.000000 -0.009964 0.000000
# 4 0.000000 0.000000 0.000000 0.032810 0.000000 -0.011436
# 5 -0.004950 0.000347 -0.009964 0.000000 0.047484 0.000000
# 6 0.000000 0.000000 0.000000 -0.011436 0.000000 0.059268
#
#
# Mechanical properties :
#
#
# Convention : Reuss Voigt Hill
#
# Bulk Modulus (GPa) = 30.74909 42.99559 36.87234
# Shear Modulus (GPa) = 26.10501 33.57386 29.83943
#
# Velocity S-wave (km/s) = 3.35861 3.80889 3.59082
# Velocity P-wave (km/s) = 5.32235 6.15812 5.75543
#
# Compressibility (1/GPa) = 0.03252129
#
# Stress axis : x y z
#
# Youngs Moduli (GPa) = 76.67497 154.05843 57.82532
#
# Poissons Ratio (x) = 0.14537 -0.05890
# Poissons Ratio (y) = 0.07235 0.12881
# Poissons Ratio (z) = -0.07810 0.34317
#
# Static dielectric constant tensor:
#      x y z
#    x 1.877420 0.000000 -0.021260 
#    y 0.000000 1.924840 0.000000 
#    z -0.021260 0.000000 1.908210 
# 
# From -- ./inp_files/265105.got.cif
#   From: 2010.05.17/outbox.cif.g08.bks.cpg/sg12_133_cif.got.tgz:265105.got - 2010.06.03 13:09:07.
