data_PCOD9186086
_publ_section_title
;
Structure prediction by ZEFSAII (Michael W. Deem and Ramdas Pophale) SiO2 
 PCOD9186086
Probable space group: C 2/M
;
_chemical_formula_sum "Si O2"
_cell_formula_units_Z 56
_cell_length_a 30.162943
_cell_length_b 17.040777
_cell_length_c 9.464835
_cell_angle_alpha 90.000000
_cell_angle_beta 35.735188
_cell_angle_gamma 90.000000
_cell_volume 2841.310046
_symmetry_space_group_name_H-M "C 2/M"
_symmetry_group_IT_number 12
_symmetry_cell_setting 'monoclinic'
loop_
_space_group_symop_operation_xyz
x,y,z
-x,y,-z
-x,-y,-z
x,-y,z
1/2+x,1/2+y,z
1/2-x,1/2+y,-z
1/2-x,1/2-y,-z
1/2+x,1/2-y,z
loop_
_atom_site_type_symbol
_atom_site_label
_atom_site_fract_x
_atom_site_fract_y
_atom_site_fract_z
Si Si1 0.275124 0.346917 0.809734
Si Si2 0.140112 0.086402 0.663810
Si Si3 0.356466 0.752133 0.998630
Si Si4 0.284047 0.411232 0.244968
Si Si5 0.839216 0.409831 0.657461
Si Si6 0.413077 0.758553 0.556293
Si Si7 0.956565 0.766998 0.982411
O O1 0.324059 0.402315 0.582187
O O2 0.334037 0.286213 0.727038
O O3 0.217957 0.299409 0.855308
O O4 0.225467 0.390320 0.056996
O O5 0.105321 0.000000 0.768109
O O6 0.206466 0.091623 0.610940
O O7 0.082084 0.155914 0.850374
O O8 0.336503 0.659742 0.056483
O O9 0.415071 0.764596 0.719425
O O10 0.390943 0.775087 0.061189
O O11 0.307426 0.500000 0.140439
O O12 0.202200 0.398559 0.386249
O O13 0.863117 0.500000 0.609467
O O14 0.903693 0.345786 0.517367
O O15 0.480230 0.715667 0.300266
O O16 0.000000 0.726266 0.000000
#
# Coordination Sequence:
#
# PCOD9186086 Si02
#       7
#     8   8   8   8   8   8   8
#     4  11  19  35  59  86 109 143 186 232 277 323
#     4  10  22  37  53  79 117 149 184 224 275 330
#     4  10  20  36  57  80 112 145 186 236 273 321
#     4   9  17  31  51  79 110 142 177 225 274 320
#     4  10  19  34  59  85 112 140 181 233 282 323
#     4  11  20  37  55  85 113 145 185 230 272 329
#     4  11  23  37  54  81 113 154 188 220 273 330
#
# _framework density 19.709219000000001
#
# number of rings (size 3 to 8) (size 9 to 14) (size 15 to 20)
#    0.000    1.714    4.286    1.714    0.000    3.714 
#    0.000    0.714    0.000   11.571    0.000    0.000 
#    0.000    0.000    0.000    0.000    0.000    0.000 
#
# Total GULP energy -156110.652280 kJ/mol
# GULP energy per Si atom -5575.380439 kJ/mol
# Density = 1.966436 g / cm^3
# Si number density = 19.709219 Si / 1000 Ang^3
#
#
#
# Elastic Constant Matrix: (Units=GPa)
#
#
# Indices 1 2 3 4 5 6 
#
# 1 102.3073 14.0270 -11.8569 0.0000 12.3905 0.0000
# 2 14.0270 52.9063 -2.7012 0.0000 6.4337 0.0000
# 3 -11.8569 -2.7012 46.3285 0.0000 3.6270 0.0000
# 4 0.0000 0.0000 0.0000 13.4181 0.0000 7.2631
# 5 12.3905 6.4337 3.6270 0.0000 23.3493 0.0000
# 6 0.0000 0.0000 0.0000 7.2631 0.0000 16.4712
#
#
#
# Elastic Compliance Matrix: (Units=1/GPa)
#
#
# Indices 1 2 3 4 5 6 
#
# 1 0.011135 -0.002081 0.003185 0.000000 -0.005830 0.000000
# 2 -0.002081 0.020061 0.000996 0.000000 -0.004578 0.000000
# 3 0.003185 0.000996 0.022890 0.000000 -0.005520 0.000000
# 4 0.000000 0.000000 0.000000 0.097892 0.000000 -0.043166
# 5 -0.005830 -0.004578 -0.005520 0.000000 0.048041 0.000000
# 6 0.000000 0.000000 0.000000 -0.043166 0.000000 0.079746
#
#
# Mechanical properties :
#
#
# Convention : Reuss Voigt Hill
#
# Bulk Modulus (GPa) = 17.15693 22.27555 19.71624
# Shear Modulus (GPa) = 16.94954 24.11925 20.53440
#
# Velocity S-wave (km/s) = 2.93572 3.50202 3.23130
# Velocity P-wave (km/s) = 4.49613 5.26106 4.89357
#
# Compressibility (1/GPa) = 0.05828550
#
# Stress axis : x y z
#
# Youngs Moduli (GPa) = 89.80723 49.84912 43.68665
#
# Poissons Ratio (x) = 0.10372 -0.13914
# Poissons Ratio (y) = 0.18685 -0.04349
# Poissons Ratio (z) = -0.28603 -0.04963
#
# Static dielectric constant tensor:
#      x y z
#    x 1.751810 0.000000 -0.003350 
#    y 0.000000 1.692560 0.000000 
#    z -0.003350 0.000000 1.687300 
# 
# From -- ./inp_files/75823.got.cif
#   From: 2010.05.17/outbox.cif.g08.bks.cpg/sg12_38_cif.got.tgz:75823.got - 2010.06.03 13:09:07.
