data_PCOD9186204
_publ_section_title
;
Structure prediction by ZEFSAII (Michael W. Deem and Ramdas Pophale) SiO2 
 PCOD9186204
Probable space group: C 2/M
;
_chemical_formula_sum "Si O2"
_cell_formula_units_Z 60
_cell_length_a 27.134005
_cell_length_b 14.830136
_cell_length_c 15.487043
_cell_angle_alpha 90.000000
_cell_angle_beta 152.905330
_cell_angle_gamma 90.000000
_cell_volume 2838.440373
_symmetry_space_group_name_H-M "C 2/M"
_symmetry_group_IT_number 12
_symmetry_cell_setting 'monoclinic'
loop_
_space_group_symop_operation_xyz
x,y,z
-x,y,-z
-x,-y,-z
x,-y,z
1/2+x,1/2+y,z
1/2-x,1/2+y,-z
1/2-x,1/2-y,-z
1/2+x,1/2-y,z
loop_
_atom_site_type_symbol
_atom_site_label
_atom_site_fract_x
_atom_site_fract_y
_atom_site_fract_z
Si Si1 0.326005 0.597932 0.779846
Si Si2 0.326309 0.288287 0.945799
Si Si3 0.070010 0.595909 0.399815
Si Si4 0.031159 0.110453 0.333660
Si Si5 0.110169 0.597241 0.017178
Si Si6 0.865087 0.198064 0.675145
Si Si7 0.582151 0.250185 0.549878
Si Si8 0.500000 0.831633 0.000000
O O1 0.362760 0.500000 0.867480
O O2 0.354079 0.671255 0.894644
O O3 0.196177 0.600804 0.575389
O O4 0.365710 0.619065 0.746906
O O5 0.197193 0.293021 0.759410
O O6 0.409411 0.344871 0.135230
O O7 0.340306 0.181586 0.955286
O O8 0.049179 0.500000 0.412824
O O9 0.039948 0.679233 0.412360
O O10 0.005897 0.593343 0.211027
O O11 0.098153 0.156278 0.358419
O O12 0.085546 0.154458 0.503999
O O13 0.029954 0.000000 0.329475
O O14 0.164265 0.500000 0.088540
O O15 0.089964 0.613303 0.087163
O O16 0.750000 0.250000 0.500000
O O17 0.946155 0.270290 0.842876
O O18 0.500000 0.257246 0.500000
#
# Coordination Sequence:
#
# PCOD9186204 Si02
#       8
#     8   8   8   8   8   8   8   4
#     4  10  19  34  59  91 126 168 212 254 304 374
#     4  11  22  43  67  95 130 172 215 273 334 403
#     4   9  19  39  64  93 127 165 213 268 322 383
#     4  12  26  45  68  99 138 180 225 278 340 402
#     4  11  21  37  60  90 129 169 212 259 317 386
#     4  12  22  37  62  90 133 180 218 261 311 384
#     4  11  25  46  72  95 129 168 222 286 353 411
#     4  12  21  36  55  88 128 172 219 258 305 368
#
# _framework density 21.138369000000001
#
# number of rings (size 3 to 8) (size 9 to 14) (size 15 to 20)
#    0.000    1.067    4.000    3.400    0.000    2.133 
#    0.000    3.333    0.000    0.000    0.000    0.000 
#    0.000    0.000    0.000    0.000    0.000    0.000 
#
# Total GULP energy -167323.160940 kJ/mol
# GULP energy per Si atom -5577.438698 kJ/mol
# Density = 2.109026 g / cm^3
# Si number density = 21.138369 Si / 1000 Ang^3
#
#
#
# Elastic Constant Matrix: (Units=GPa)
#
#
# Indices 1 2 3 4 5 6 
#
# 1 71.5089 34.7616 12.8115 0.0000 3.7710 0.0000
# 2 34.7616 157.1349 20.5683 0.0000 -0.5664 0.0000
# 3 12.8115 20.5683 65.4245 0.0000 14.6070 0.0000
# 4 0.0000 0.0000 0.0000 20.9498 0.0000 -3.2945
# 5 3.7710 -0.5664 14.6070 0.0000 14.0354 0.0000
# 6 0.0000 0.0000 0.0000 -3.2945 0.0000 5.6627
#
#
#
# Elastic Compliance Matrix: (Units=1/GPa)
#
#
# Indices 1 2 3 4 5 6 
#
# 1 0.016034 -0.003372 -0.001417 0.000000 -0.002970 0.000000
# 2 -0.003372 0.007457 -0.002545 0.000000 0.003855 0.000000
# 3 -0.001417 -0.002545 0.021234 0.000000 -0.021821 0.000000
# 4 0.000000 0.000000 0.000000 0.052540 0.000000 0.030567
# 5 -0.002970 0.003855 -0.021821 0.000000 0.094912 0.000000
# 6 0.000000 0.000000 0.000000 0.030567 0.000000 0.194377
#
#
# Mechanical properties :
#
#
# Convention : Reuss Voigt Hill
#
# Bulk Modulus (GPa) = 33.26916 47.81680 40.54298
# Shear Modulus (GPa) = 12.15833 23.19138 17.67486
#
# Velocity S-wave (km/s) = 2.40089 3.31588 2.89476
# Velocity P-wave (km/s) = 4.84341 6.10983 5.51310
#
# Compressibility (1/GPa) = 0.03005786
#
# Stress axis : x y z
#
# Youngs Moduli (GPa) = 62.36734 134.10241 47.09413
#
# Poissons Ratio (x) = 0.45224 0.06671
# Poissons Ratio (y) = 0.21033 0.11984
# Poissons Ratio (z) = 0.08834 0.34126
#
# Static dielectric constant tensor:
#      x y z
#    x 1.772420 0.000000 0.072410 
#    y 0.000000 1.841870 0.000000 
#    z 0.072410 0.000000 1.922570 
# 
# From -- ./inp_files/246744.got.cif
#   From: 2010.05.17/outbox.cif.g08.bks.cpg/sg12_124_cif.got.tgz:246744.got - 2010.06.03 13:09:07.
