data_PCOD9186814
_publ_section_title
;
Structure prediction by ZEFSAII (Michael W. Deem and Ramdas Pophale) SiO2 
 PCOD9186814
Probable space group: C 2/M
;
_chemical_formula_sum "Si O2"
_cell_formula_units_Z 58
_cell_length_a 25.236082
_cell_length_b 19.326255
_cell_length_c 21.330158
_cell_angle_alpha 90.000000
_cell_angle_beta 160.740233
_cell_angle_gamma 90.000000
_cell_volume 3431.486314
_symmetry_space_group_name_H-M "C 2/M"
_symmetry_group_IT_number 12
_symmetry_cell_setting 'monoclinic'
loop_
_space_group_symop_operation_xyz
x,y,z
-x,y,-z
-x,-y,-z
x,-y,z
1/2+x,1/2+y,z
1/2-x,1/2+y,-z
1/2-x,1/2-y,-z
1/2+x,1/2-y,z
loop_
_atom_site_type_symbol
_atom_site_label
_atom_site_fract_x
_atom_site_fract_y
_atom_site_fract_z
Si Si1 0.934750 0.920832 0.612093
Si Si2 0.316129 0.204190 0.514945
Si Si3 0.812357 0.338209 0.913918
Si Si4 0.500000 0.000000 0.000000
Si Si5 0.383361 0.707356 0.186012
Si Si6 0.253149 0.622308 0.295766
Si Si7 0.929425 0.759467 0.858012
Si Si8 0.088735 0.419506 0.293903
O O1 0.905079 0.899022 0.506759
O O2 0.758068 0.913222 0.445692
O O3 0.060855 0.866318 0.780515
O O4 0.985790 0.000000 0.674398
O O5 0.250000 0.250000 0.500000
O O6 0.456391 0.247046 0.637740
O O7 0.175152 0.196007 0.306740
O O8 0.388444 0.133765 0.623540
O O9 0.925382 0.275349 0.017756
O O10 0.936657 0.393535 0.083242
O O11 0.691547 0.310020 0.830556
O O12 0.728708 0.368461 0.758445
O O13 0.626258 0.060677 0.162773
O O14 0.250000 0.750000 0.000000
O O15 0.177201 0.693580 0.237498
O O16 0.000000 0.793160 0.000000
O O17 0.067749 0.500000 0.286772
#
# Coordination Sequence:
#
# PCOD9186814 Si02
#       8
#     8   8   8   2   8   8   8   8
#     4  11  22  37  53  79 114 153 190 231 276 332
#     4  12  19  39  61  76 108 149 193 234 281 337
#     4  11  21  32  52  81 114 146 186 228 274 332
#     4  12  16  28  56  78 112 160 194 214 258 332
#     4  12  23  37  53  77 109 153 187 239 285 322
#     4  11  19  31  51  79 111 151 191 218 262 334
#     4  10  19  35  56  81 104 144 192 232 269 331
#     4  11  22  35  59  83 108 145 194 237 279 336
#
# _framework density 16.902297000000001
#
# number of rings (size 3 to 8) (size 9 to 14) (size 15 to 20)
#    0.000    0.828    9.655    0.000    2.897    1.103 
#    0.000    0.690    0.000    0.414    0.000    0.000 
#    0.000    4.414    0.000    0.000    0.000    0.000 
#
# Total GULP energy -161571.289131 kJ/mol
# GULP energy per Si atom -5571.423763 kJ/mol
# Density = 1.686383 g / cm^3
# Si number density = 16.902297 Si / 1000 Ang^3
#
#
#
# Elastic Constant Matrix: (Units=GPa)
#
#
# Indices 1 2 3 4 5 6 
#
# 1 80.4507 44.3834 28.0214 0.0025 3.7590 -0.0001
# 2 44.3834 85.0373 36.7184 0.0031 -2.4047 0.0016
# 3 28.0214 36.7184 68.2857 0.0019 -6.8966 0.0002
# 4 0.0025 0.0031 0.0019 21.3527 0.0005 4.4396
# 5 3.7590 -2.4047 -6.8966 0.0005 26.8964 -0.0005
# 6 -0.0001 0.0016 0.0002 4.4396 -0.0005 11.9420
#
#
#
# Elastic Compliance Matrix: (Units=1/GPa)
#
#
# Indices 1 2 3 4 5 6 
#
# 1 0.018378 -0.008167 -0.003576 -0.000001 -0.004216 0.000001
# 2 -0.008167 0.018960 -0.006732 -0.000001 0.001111 -0.000002
# 3 -0.003576 -0.006732 0.020245 -0.000001 0.005089 0.000001
# 4 -0.000001 -0.000001 -0.000001 0.050756 -0.000001 -0.018869
# 5 -0.004216 0.001111 0.005089 -0.000001 0.039173 0.000002
# 6 0.000001 -0.000002 0.000001 -0.018869 0.000002 0.090753
#
#
# Mechanical properties :
#
#
# Convention : Reuss Voigt Hill
#
# Bulk Modulus (GPa) = 48.46221 50.22448 49.34334
# Shear Modulus (GPa) = 17.72464 20.34826 19.03645
#
# Velocity S-wave (km/s) = 3.24180 3.47346 3.35963
# Velocity P-wave (km/s) = 6.53809 6.77242 6.65628
#
# Compressibility (1/GPa) = 0.02063463
#
# Stress axis : x y z
#
# Youngs Moduli (GPa) = 54.41238 52.74146 49.39412
#
# Poissons Ratio (x) = 0.43076 0.17661
# Poissons Ratio (y) = 0.44441 0.33250
# Poissons Ratio (z) = 0.19456 0.35504
#
# Static dielectric constant tensor:
#      x y z
#    x 1.610150 0.000000 -0.001480 
#    y 0.000000 1.561150 0.000000 
#    z -0.001480 0.000000 1.620540 
# 
# From -- ./inp_files/326275.got.cif
#   From: 2010.05.17/outbox.cif.g08.bks.cpg/sg12_164_cif.got.tgz:326275.got - 2010.06.03 13:09:07.
