data_PCOD9186642
_publ_section_title
;
Structure prediction by ZEFSAII (Michael W. Deem and Ramdas Pophale) SiO2 
 PCOD9186642
Probable space group: C 2/M
;
_chemical_formula_sum "Si O2"
_cell_formula_units_Z 50
_cell_length_a 14.209312
_cell_length_b 7.420008
_cell_length_c 24.753103
_cell_angle_alpha 90.000000
_cell_angle_beta 45.075250
_cell_angle_gamma 90.000000
_cell_volume 1847.828715
_symmetry_space_group_name_H-M "C 2/M"
_symmetry_group_IT_number 12
_symmetry_cell_setting 'monoclinic'
loop_
_space_group_symop_operation_xyz
x,y,z
-x,y,-z
-x,-y,-z
x,-y,z
1/2+x,1/2+y,z
1/2-x,1/2+y,-z
1/2-x,1/2-y,-z
1/2+x,1/2-y,z
loop_
_atom_site_type_symbol
_atom_site_label
_atom_site_fract_x
_atom_site_fract_y
_atom_site_fract_z
Si Si1 0.857236 0.201431 0.118882
Si Si2 0.591110 0.780797 0.274890
Si Si3 0.066012 0.287292 0.557931
Si Si4 0.430072 0.702473 0.236333
Si Si5 0.296650 0.214443 0.598554
Si Si6 0.500000 0.000000 0.000000
Si Si7 0.185834 0.216222 0.083672
O O1 0.749744 0.255859 0.209188
O O2 0.767899 0.197333 0.099641
O O3 0.908258 0.000000 0.107813
O O4 0.965816 0.344255 0.058837
O O5 0.492465 0.716596 0.362208
O O6 0.532678 0.696303 0.244886
O O7 0.582993 0.000000 0.276366
O O8 0.091676 0.500000 0.554512
O O9 0.935211 0.272083 0.573485
O O10 0.182984 0.214701 0.471055
O O11 0.387154 0.500000 0.238536
O O12 0.308414 0.794538 0.316757
O O13 0.530577 0.772738 0.150268
O O14 0.266994 0.000000 0.604989
O O15 0.194924 0.000000 0.089708
O O16 0.250000 0.250000 0.000000
#
# Coordination Sequence:
#
# PCOD9186642 Si02
#       7
#     8   8   8   8   8   2   8
#     4  10  21  38  58  82 114 149 186 235 286 334
#     4   9  18  32  52  76 103 140 175 216 272 326
#     4   8  14  27  48  73 106 138 172 217 267 321
#     4   9  18  31  51  75 103 136 179 223 269 327
#     4   8  14  27  47  74 103 136 175 219 266 317
#     4  12  22  40  60  82 116 146 194 232 280 342
#     4  10  19  35  55  78 110 148 189 238 290 338
#
# _framework density 27.058783999999999
#
# number of rings (size 3 to 8) (size 9 to 14) (size 15 to 20)
#    0.000    2.880    0.800    1.680    1.120    1.280 
#    2.880    0.000    0.000    0.960    0.000    2.240 
#    0.000    0.000    0.000    0.000    0.000    0.000 
#
# Total GULP energy -139395.540994 kJ/mol
# GULP energy per Si atom -5575.821640 kJ/mol
# Density = 2.699720 g / cm^3
# Si number density = 27.058784 Si / 1000 Ang^3
#
#
#
# Elastic Constant Matrix: (Units=GPa)
#
#
# Indices 1 2 3 4 5 6 
#
# 1 36.4454 13.6322 30.0477 0.0044 9.4053 0.0002
# 2 13.6322 123.8025 46.2359 0.0269 -3.3841 0.0023
# 3 30.0477 46.2359 299.9041 0.0006 18.4195 0.0001
# 4 0.0044 0.0269 0.0006 -143.7214 0.0007 -25.8046
# 5 9.4053 -3.3841 18.4195 0.0007 46.8657 0.0000
# 6 0.0002 0.0023 0.0001 -25.8046 0.0000 5.4486
#
#
#
# Elastic Compliance Matrix: (Units=1/GPa)
#
#
# Indices 1 2 3 4 5 6 
#
# 1 0.031932 -0.002765 -0.002426 0.000000 -0.005655 0.000001
# 2 -0.002765 0.008873 -0.001193 0.000001 0.001664 0.000002
# 3 -0.002426 -0.001193 0.003829 0.000000 -0.001104 0.000000
# 4 0.000000 0.000001 0.000000 -0.003760 0.000000 -0.017809
# 5 -0.005655 0.001664 -0.001104 0.000000 0.023027 0.000000
# 6 0.000001 0.000002 0.000000 -0.017809 0.000000 0.099189
#
#
# Mechanical properties :
#
#
# Convention : Reuss Voigt Hill
#
# Bulk Modulus (GPa) = 31.38090 71.10927 51.24508
# Shear Modulus (GPa) = 26.81271 6.40100 16.60685
#
# Velocity S-wave (km/s) = 3.15128 1.53972 2.48005
# Velocity P-wave (km/s) = 4.98631 5.43117 5.21348
#
# Compressibility (1/GPa) = 0.03186652
#
# Stress axis : x y z
#
# Youngs Moduli (GPa) = 31.31695 112.70265 261.15054
#
# Poissons Ratio (x) = 0.31159 0.63348
# Poissons Ratio (y) = 0.08658 0.31159
# Poissons Ratio (z) = 0.07597 0.13447
#
# Static dielectric constant tensor:
#      x y z
#    x 2.206370 0.000000 -0.078600 
#    y 0.000000 2.112750 0.000000 
#    z -0.078600 0.000000 2.363120 
# 
# From -- ./inp_files/362683.got.cif
#   From: 2010.05.17/outbox.cif.g08.bks.cpg/sg12_182_cif.got.tgz:362683.got - 2010.06.03 13:09:07.
