data_PCOD9186373
_publ_section_title
;
Structure prediction by ZEFSAII (Michael W. Deem and Ramdas Pophale) SiO2 
 PCOD9186373
Probable space group: C 2/M
;
_chemical_formula_sum "Si O2"
_cell_formula_units_Z 60
_cell_length_a 14.470118
_cell_length_b 17.793491
_cell_length_c 13.137048
_cell_angle_alpha 90.000000
_cell_angle_beta 73.992204
_cell_angle_gamma 90.000000
_cell_volume 3251.290017
_symmetry_space_group_name_H-M "C 2/M"
_symmetry_group_IT_number 12
_symmetry_cell_setting 'monoclinic'
loop_
_space_group_symop_operation_xyz
x,y,z
-x,y,-z
-x,-y,-z
x,-y,z
1/2+x,1/2+y,z
1/2-x,1/2+y,-z
1/2-x,1/2-y,-z
1/2+x,1/2-y,z
loop_
_atom_site_type_symbol
_atom_site_label
_atom_site_fract_x
_atom_site_fract_y
_atom_site_fract_z
Si Si1 0.961930 0.413635 0.371822
Si Si2 0.663972 0.416393 0.217019
Si Si3 0.390179 0.343090 0.563820
Si Si4 0.609140 0.082839 0.836079
Si Si5 0.759560 0.410729 0.550429
Si Si6 0.350507 0.186849 0.679910
Si Si7 0.157067 0.236010 0.099240
Si Si8 0.000000 0.702082 0.000000
O O1 0.992951 0.500000 0.384810
O O2 0.937872 0.409602 0.259891
O O3 0.862374 0.399517 0.461470
O O4 0.047140 0.355258 0.365163
O O5 0.640177 0.500000 0.186757
O O6 0.611244 0.398188 0.338454
O O7 0.776776 0.414479 0.210536
O O8 0.650284 0.349033 0.142292
O O9 0.500000 0.331773 0.500000
O O10 0.323885 0.375694 0.494201
O O11 0.349074 0.263785 0.616188
O O12 0.584482 0.000000 0.884785
O O13 0.573634 0.148101 0.918955
O O14 0.745334 0.500000 0.565832
O O15 0.771797 0.368443 0.654324
O O16 0.337833 0.210700 0.801702
O O17 0.250000 0.250000 0.000000
O O18 0.062136 0.252897 0.062760
#
# Coordination Sequence:
#
# PCOD9186373 Si02
#       8
#     8   8   8   8   8   8   8   4
#     4  10  19  35  60  91 125 154 185 235 308 374
#     4  10  21  41  63  86 119 159 203 249 295 349
#     4  11  23  39  60  86 119 166 211 242 279 340
#     4  10  19  34  61  92 118 152 197 249 310 367
#     4  11  22  38  60  89 125 161 190 237 300 362
#     4  11  23  39  59  90 120 154 197 249 301 359
#     4  11  24  42  62  89 119 157 197 253 307 355
#     4  12  21  40  65  88 118 156 204 256 305 366
#
# _framework density 18.454214
#
# number of rings (size 3 to 8) (size 9 to 14) (size 15 to 20)
#    0.000    1.333    4.000    2.600    0.000    2.133 
#    4.800    1.667    0.000    0.000    0.000    0.000 
#    0.000    0.000    0.000    0.000    0.000    0.000 
#
# Total GULP energy -167550.408724 kJ/mol
# GULP energy per Si atom -5585.013624 kJ/mol
# Density = 1.841221 g / cm^3
# Si number density = 18.454214 Si / 1000 Ang^3
#
#
#
# Elastic Constant Matrix: (Units=GPa)
#
#
# Indices 1 2 3 4 5 6 
#
# 1 72.4289 45.3909 38.7625 0.0000 23.7106 0.0000
# 2 45.3909 106.3193 37.6167 0.0000 32.2249 0.0000
# 3 38.7625 37.6167 83.1992 0.0000 19.3780 0.0000
# 4 0.0000 0.0000 0.0000 5.8420 0.0000 3.7052
# 5 23.7106 32.2249 19.3780 0.0000 31.8298 0.0000
# 6 0.0000 0.0000 0.0000 3.7052 0.0000 35.9658
#
#
#
# Elastic Compliance Matrix: (Units=1/GPa)
#
#
# Indices 1 2 3 4 5 6 
#
# 1 0.023195 -0.005116 -0.006613 0.000000 -0.008073 0.000000
# 2 -0.005116 0.015588 -0.002186 0.000000 -0.010640 0.000000
# 3 -0.006613 -0.002186 0.016810 0.000000 -0.003094 0.000000
# 4 0.000000 0.000000 0.000000 0.183140 0.000000 -0.018867
# 5 -0.008073 -0.010640 -0.003094 0.000000 0.050086 0.000000
# 6 0.000000 0.000000 0.000000 -0.018867 0.000000 0.029748
#
#
# Mechanical properties :
#
#
# Convention : Reuss Voigt Hill
#
# Bulk Modulus (GPa) = 36.02083 56.16529 46.09306
# Shear Modulus (GPa) = 14.05876 24.07268 19.06572
#
# Velocity S-wave (km/s) = 2.76310 3.61564 3.21773
# Velocity P-wave (km/s) = 5.45353 6.92326 6.23187
#
# Compressibility (1/GPa) = 0.02776172
#
# Stress axis : x y z
#
# Youngs Moduli (GPa) = 43.11330 64.15151 59.49014
#
# Poissons Ratio (x) = 0.32819 0.39342
# Poissons Ratio (y) = 0.22056 0.13006
# Poissons Ratio (z) = 0.28512 0.14025
#
# Static dielectric constant tensor:
#      x y z
#    x 1.622350 0.000000 -0.003610 
#    y 0.000000 1.650930 0.000000 
#    z -0.003610 0.000000 1.649680 
# 
# From -- ./inp_files/146115.got.cif
#   From: 2010.05.17/outbox.cif.g08.bks.cpg/sg12_74_cif.got.tgz:146115.got - 2010.06.03 13:09:07.
