data_PCOD9186153
_publ_section_title
;
Structure prediction by ZEFSAII (Michael W. Deem and Ramdas Pophale) SiO2 
 PCOD9186153
Probable space group: C 2/M
;
_chemical_formula_sum "Si O2"
_cell_formula_units_Z 64
_cell_length_a 25.475784
_cell_length_b 8.175112
_cell_length_c 14.799422
_cell_angle_alpha 90.000000
_cell_angle_beta 90.186645
_cell_angle_gamma 90.000000
_cell_volume 3082.220602
_symmetry_space_group_name_H-M "C 2/M"
_symmetry_group_IT_number 12
_symmetry_cell_setting 'monoclinic'
loop_
_space_group_symop_operation_xyz
x,y,z
-x,y,-z
-x,-y,-z
x,-y,z
1/2+x,1/2+y,z
1/2-x,1/2+y,-z
1/2-x,1/2-y,-z
1/2+x,1/2-y,z
loop_
_atom_site_type_symbol
_atom_site_label
_atom_site_fract_x
_atom_site_fract_y
_atom_site_fract_z
Si Si1 0.835113 0.698350 0.232128
Si Si2 0.917624 0.309909 0.513247
Si Si3 0.307034 0.685599 0.526962
Si Si4 0.308829 0.804209 0.027345
Si Si5 0.349011 0.309562 0.847083
Si Si6 0.940143 0.301297 0.716424
Si Si7 0.273916 0.814342 0.704401
Si Si8 0.444799 0.199511 0.319848
O O1 0.832376 0.500000 0.236940
O O2 0.786804 0.769001 0.289157
O O3 0.891497 0.751691 0.270285
O O4 0.824788 0.748478 0.128371
O O5 0.932763 0.500000 0.519335
O O6 0.855528 0.292632 0.493872
O O7 0.926902 0.242916 0.613888
O O8 0.945636 0.241258 0.424260
O O9 0.314726 0.500000 0.497693
O O10 0.250000 0.750000 0.500000
O O11 0.304546 0.699175 0.635371
O O12 0.348479 0.737410 0.951876
O O13 0.310016 0.000000 0.026098
O O14 0.250000 0.750000 0.000000
O O15 0.336266 0.500000 0.838623
O O16 0.401246 0.269094 0.791124
O O17 0.301863 0.208895 0.800255
O O18 0.933937 0.500000 0.718295
O O19 0.001227 0.258590 0.729536
O O20 0.280826 0.000000 0.672915
O O21 0.443131 0.000000 0.324054
#
# Coordination Sequence:
#
# PCOD9186153 Si02
#       8
#     8   8   8   8   8   8   8   8
#     4  10  21  38  61  89 122 157 197 246 302 362
#     4  10  19  34  59  88 119 156 200 244 293 351
#     4  12  24  37  54  81 121 162 202 245 297 355
#     4  11  22  37  61  90 120 156 199 247 304 364
#     4  12  24  39  60  87 119 155 197 249 304 357
#     4  10  20  37  62  89 120 158 203 246 291 352
#     4  12  23  37  59  86 119 157 197 243 301 362
#     4   9  19  37  61  89 119 156 200 246 294 353
#
# _framework density 20.764250000000001
#
# number of rings (size 3 to 8) (size 9 to 14) (size 15 to 20)
#    0.000    1.250    2.500    4.875    0.000    3.000 
#    0.000    1.875    0.000    5.250    0.000    0.000 
#    0.000    0.000    0.000    0.000    0.000    0.000 
#
# Total GULP energy -178860.489310 kJ/mol
# GULP energy per Si atom -5589.390291 kJ/mol
# Density = 2.071699 g / cm^3
# Si number density = 20.764250 Si / 1000 Ang^3
#
#
#
# Elastic Constant Matrix: (Units=GPa)
#
#
# Indices 1 2 3 4 5 6 
#
# 1 124.3034 5.6367 30.2039 0.0000 -15.3679 0.0000
# 2 5.6367 41.6676 9.9813 0.0000 -0.8458 0.0000
# 3 30.2039 9.9813 87.7277 0.0000 -16.3362 0.0000
# 4 0.0000 0.0000 0.0000 17.6039 0.0000 -3.7235
# 5 -15.3679 -0.8458 -16.3362 0.0000 28.9269 0.0000
# 6 0.0000 0.0000 0.0000 -3.7235 0.0000 22.8139
#
#
#
# Elastic Compliance Matrix: (Units=1/GPa)
#
#
# Indices 1 2 3 4 5 6 
#
# 1 0.009085 -0.000579 -0.002421 0.000000 0.003442 0.000000
# 2 -0.000579 0.024733 -0.002835 0.000000 -0.001186 0.000000
# 3 -0.002421 -0.002835 0.013746 0.000000 0.006394 0.000000
# 4 0.000000 0.000000 0.000000 0.058837 0.000000 0.009603
# 5 0.003442 -0.001186 0.006394 0.000000 0.039975 0.000000
# 6 0.000000 0.000000 0.000000 0.009603 0.000000 0.045400
#
#
# Mechanical properties :
#
#
# Convention : Reuss Voigt Hill
#
# Bulk Modulus (GPa) = 27.86104 38.37138 33.11621
# Shear Modulus (GPa) = 23.21148 27.72737 25.46943
#
# Velocity S-wave (km/s) = 3.34707 3.65820 3.50608
# Velocity P-wave (km/s) = 5.32767 6.03016 5.68977
#
# Compressibility (1/GPa) = 0.03589242
#
# Stress axis : x y z
#
# Youngs Moduli (GPa) = 110.07232 40.43184 72.75047
#
# Poissons Ratio (x) = 0.02342 0.17612
# Poissons Ratio (y) = 0.06375 0.20628
# Poissons Ratio (z) = 0.26648 0.11464
#
# Static dielectric constant tensor:
#      x y z
#    x 1.733270 0.000000 0.018940 
#    y 0.000000 1.732290 0.000000 
#    z 0.018940 0.000000 1.783590 
# 
# From -- ./inp_files/238587.got.cif
#   From: 2010.05.17/outbox.cif.g08.bks.cpg/sg12_120_cif.got.tgz:238587.got - 2010.06.03 13:09:07.
