data_PCOD9186735
_publ_section_title
;
Structure prediction by ZEFSAII (Michael W. Deem and Ramdas Pophale) SiO2 
 PCOD9186735
Probable space group: C 2/M
;
_chemical_formula_sum "Si O2"
_cell_formula_units_Z 64
_cell_length_a 19.281112
_cell_length_b 8.806169
_cell_length_c 33.006176
_cell_angle_alpha 90.000000
_cell_angle_beta 38.673397
_cell_angle_gamma 90.000000
_cell_volume 3501.959241
_symmetry_space_group_name_H-M "C 2/M"
_symmetry_group_IT_number 12
_symmetry_cell_setting 'monoclinic'
loop_
_space_group_symop_operation_xyz
x,y,z
-x,y,-z
-x,-y,-z
x,-y,z
1/2+x,1/2+y,z
1/2-x,1/2+y,-z
1/2-x,1/2-y,-z
1/2+x,1/2-y,z
loop_
_atom_site_type_symbol
_atom_site_label
_atom_site_fract_x
_atom_site_fract_y
_atom_site_fract_z
Si Si1 0.727245 0.681365 0.717226
Si Si2 0.430217 0.678331 0.770100
Si Si3 0.007393 0.815188 0.865726
Si Si4 0.166115 0.317718 0.570790
Si Si5 0.450060 0.683174 0.979775
Si Si6 0.330829 0.820609 0.338549
Si Si7 0.921654 0.179605 0.681388
Si Si8 0.206721 0.181605 0.087588
O O1 0.728648 0.500000 0.718414
O O2 0.611985 0.734611 0.791044
O O3 0.730154 0.734832 0.669617
O O4 0.830140 0.747829 0.694662
O O5 0.463426 0.500000 0.758922
O O6 0.539457 0.778816 0.725420
O O7 0.387996 0.702171 0.743843
O O8 0.342474 0.709028 0.845120
O O9 0.889948 0.767525 0.899439
O O10 0.006911 0.000000 0.864649
O O11 0.014736 0.768471 0.909402
O O12 0.164265 0.500000 0.569216
O O13 0.250000 0.250000 0.500000
O O14 0.199683 0.275261 0.601639
O O15 0.042237 0.254242 0.620852
O O16 0.452002 0.500000 0.979982
O O17 0.324024 0.736918 0.030881
O O18 0.500000 0.738124 0.000000
O O19 0.314652 0.000000 0.341660
O O20 0.930494 0.000000 0.670153
O O21 0.221961 0.000000 0.075511
#
# Coordination Sequence:
#
# PCOD9186735 Si02
#       8
#     8   8   8   8   8   8   8   8
#     4  11  21  36  58  82 115 153 188 234 290 341
#     4   9  18  34  55  79 109 146 184 228 283 338
#     4   9  19  36  55  75 105 145 186 230 283 341
#     4  10  21  39  63  90 119 155 191 227 272 328
#     4  10  22  37  52  75 107 142 183 234 289 341
#     4  10  20  35  57  87 118 145 185 231 272 326
#     4  10  21  36  56  85 119 150 187 235 280 330
#     4  10  19  35  56  76 103 140 185 230 279 341
#
# _framework density 18.275485
#
# number of rings (size 3 to 8) (size 9 to 14) (size 15 to 20)
#    0.000    2.125    1.250    1.875    1.750    2.750 
#    0.000    1.875    0.000    3.750    0.000    0.000 
#    0.000    0.000    0.000    0.000    0.000    0.000 
#
# Total GULP energy -178601.682386 kJ/mol
# GULP energy per Si atom -5581.302575 kJ/mol
# Density = 1.823389 g / cm^3
# Si number density = 18.275485 Si / 1000 Ang^3
#
#
#
# Elastic Constant Matrix: (Units=GPa)
#
#
# Indices 1 2 3 4 5 6 
#
# 1 150.2281 42.2214 59.0085 0.0004 13.5222 -0.0002
# 2 42.2214 33.7863 27.1977 -0.0021 11.6345 -0.0008
# 3 59.0085 27.1977 97.2521 0.0013 22.1087 0.0000
# 4 0.0004 -0.0021 0.0013 24.4200 0.0000 -6.4968
# 5 13.5222 11.6345 22.1087 0.0000 19.1574 0.0001
# 6 -0.0002 -0.0008 0.0000 -6.4968 0.0001 28.5592
#
#
#
# Elastic Compliance Matrix: (Units=1/GPa)
#
#
# Indices 1 2 3 4 5 6 
#
# 1 0.011489 -0.012253 -0.004599 -0.000001 0.004639 -0.000001
# 2 -0.012253 0.054600 -0.003068 0.000006 -0.020970 0.000003
# 3 -0.004599 -0.003068 0.017311 -0.000001 -0.014869 0.000000
# 4 -0.000001 0.000006 -0.000001 0.043588 -0.000001 0.009916
# 5 0.004639 -0.020970 -0.014869 -0.000001 0.078819 -0.000001
# 6 -0.000001 0.000003 0.000000 0.009916 -0.000001 0.037271
#
#
# Mechanical properties :
#
#
# Convention : Reuss Voigt Hill
#
# Bulk Modulus (GPa) = 22.95632 59.79131 41.37381
# Shear Modulus (GPa) = 16.81020 24.61657 20.71339
#
# Velocity S-wave (km/s) = 3.03615 3.67409 3.37025
# Velocity P-wave (km/s) = 4.98793 7.12645 6.15084
#
# Compressibility (1/GPa) = 0.04356099
#
# Stress axis : x y z
#
# Youngs Moduli (GPa) = 87.03926 18.31492 57.76577
#
# Poissons Ratio (x) = 0.22441 0.26567
# Poissons Ratio (y) = 1.06647 0.17722
# Poissons Ratio (z) = 0.40031 0.05619
#
# Static dielectric constant tensor:
#      x y z
#    x 1.626110 0.000000 0.031280 
#    y 0.000000 1.613510 0.000000 
#    z 0.031280 0.000000 1.612030 
# 
# From -- ./inp_files/378068.got.cif
#   From: 2010.05.17/outbox.cif.g08.bks.cpg/sg12_190_cif.got.tgz:378068.got - 2010.06.03 13:09:07.
