data_PCOD9186045
_publ_section_title
;
Structure prediction by ZEFSAII (Michael W. Deem and Ramdas Pophale) SiO2 
 PCOD9186045
Probable space group: C 2/M
;
_chemical_formula_sum "Si O2"
_cell_formula_units_Z 64
_cell_length_a 19.811563
_cell_length_b 18.751958
_cell_length_c 16.379669
_cell_angle_alpha 90.000000
_cell_angle_beta 143.287512
_cell_angle_gamma 90.000000
_cell_volume 3637.695225
_symmetry_space_group_name_H-M "C 2/M"
_symmetry_group_IT_number 12
_symmetry_cell_setting 'monoclinic'
loop_
_space_group_symop_operation_xyz
x,y,z
-x,y,-z
-x,-y,-z
x,-y,z
1/2+x,1/2+y,z
1/2-x,1/2+y,-z
1/2-x,1/2-y,-z
1/2+x,1/2-y,z
loop_
_atom_site_type_symbol
_atom_site_label
_atom_site_fract_x
_atom_site_fract_y
_atom_site_fract_z
Si Si1 0.934093 0.416622 0.082529
Si Si2 0.662991 0.313883 0.089989
Si Si3 0.253909 0.844066 0.796412
Si Si4 0.334619 0.168815 0.692896
Si Si5 0.339282 0.415781 0.577662
Si Si6 0.252736 0.083338 0.042988
Si Si7 0.099178 0.826335 0.212065
Si Si8 0.575207 0.583662 0.724129
O O1 0.963634 0.500000 0.107148
O O2 0.866271 0.403252 0.101153
O O3 0.043257 0.367871 0.181190
O O4 0.845156 0.397498 0.925249
O O5 0.712697 0.234146 0.138074
O O6 0.734398 0.365865 0.101812
O O7 0.654267 0.336593 0.176305
O O8 0.534337 0.314830 0.932259
O O9 0.269627 0.843795 0.715107
O O10 0.132166 0.868767 0.709885
O O11 0.265105 0.130723 0.554586
O O12 0.352643 0.253343 0.702545
O O13 0.314800 0.500000 0.551482
O O14 0.376400 0.390656 0.703371
O O15 0.446709 0.401650 0.623063
O O16 0.250049 0.000000 0.063868
O O17 0.151368 0.094762 0.879398
O O18 0.586101 0.500000 0.712881
#
# Coordination Sequence:
#
# PCOD9186045 Si02
#       8
#     8   8   8   8   8   8   8   8
#     4  10  20  33  53  81 110 141 181 225 264 310
#     4  10  19  34  59  83 106 140 174 221 280 319
#     4  10  20  34  54  81 109 137 180 225 266 313
#     4  11  22  37  54  77 109 147 180 217 265 318
#     4  11  23  38  56  78 109 147 183 216 261 324
#     4   9  18  33  53  80 111 136 172 226 272 314
#     4  10  21  37  55  81 112 136 177 228 266 315
#     4   9  19  34  51  78 112 142 176 219 263 311
#
# _framework density 17.593558000000002
#
# number of rings (size 3 to 8) (size 9 to 14) (size 15 to 20)
#    0.000    2.000    2.500    2.250    0.000    6.500 
#    0.000    2.500    0.000    2.250    0.000    2.625 
#    0.000    0.000    0.000    0.000    0.000    0.000 
#
# Total GULP energy -178615.665739 kJ/mol
# GULP energy per Si atom -5581.739554 kJ/mol
# Density = 1.755351 g / cm^3
# Si number density = 17.593558 Si / 1000 Ang^3
#
#
#
# Elastic Constant Matrix: (Units=GPa)
#
#
# Indices 1 2 3 4 5 6 
#
# 1 40.7657 28.8132 -4.6875 0.0000 -6.4589 0.0000
# 2 28.8132 45.6652 8.4956 0.0000 -9.6738 0.0000
# 3 -4.6875 8.4956 37.8866 0.0000 -2.7174 0.0000
# 4 0.0000 0.0000 0.0000 -22.0580 0.0000 4.2026
# 5 -6.4589 -9.6738 -2.7174 0.0000 10.1509 0.0000
# 6 0.0000 0.0000 0.0000 4.2026 0.0000 29.6559
#
#
#
# Elastic Compliance Matrix: (Units=1/GPa)
#
#
# Indices 1 2 3 4 5 6 
#
# 1 0.050610 -0.033749 0.014103 0.000000 0.003815 0.000000
# 2 -0.033749 0.050668 -0.013881 0.000000 0.023097 0.000000
# 3 0.014103 -0.013881 0.031553 0.000000 0.004192 0.000000
# 4 0.000000 0.000000 0.000000 -0.044143 0.000000 0.006256
# 5 0.003815 0.023097 0.004192 0.000000 0.124074 0.000000
# 6 0.000000 0.000000 0.000000 0.006256 0.000000 0.032834
#
#
# Mechanical properties :
#
#
# Convention : Reuss Voigt Hill
#
# Bulk Modulus (GPa) = 15.20253 21.06222 18.13238
# Shear Modulus (GPa) = 14.94431 9.66285 12.30358
#
# Velocity S-wave (km/s) = 2.91764 2.34610 2.64734
# Velocity P-wave (km/s) = 4.47324 4.39732 4.43545
#
# Compressibility (1/GPa) = 0.06577852
#
# Stress axis : x y z
#
# Youngs Moduli (GPa) = 19.75878 19.73619 31.69296
#
# Poissons Ratio (x) = 0.66608 -0.44697
# Poissons Ratio (y) = 0.66684 0.43992
# Poissons Ratio (z) = -0.27866 0.27395
#
# Static dielectric constant tensor:
#      x y z
#    x 1.594810 0.000000 0.000130 
#    y 0.000000 1.581510 0.000000 
#    z 0.000130 0.000000 1.582320 
# 
# From -- ./inp_files/168786.got.cif
#   From: 2010.05.17/outbox.cif.g08.bks.cpg/sg12_85_cif.got.tgz:168786.got - 2010.06.03 13:09:07.
