data_PCOD9186928
_publ_section_title
;
Structure prediction by ZEFSAII (Michael W. Deem and Ramdas Pophale) SiO2 
 PCOD9186928
Probable space group: C 2/M
;
_chemical_formula_sum "Si O2"
_cell_formula_units_Z 56
_cell_length_a 21.795324
_cell_length_b 7.530972
_cell_length_c 18.807121
_cell_angle_alpha 90.000000
_cell_angle_beta 121.847555
_cell_angle_gamma 90.000000
_cell_volume 2622.267994
_symmetry_space_group_name_H-M "C 2/M"
_symmetry_group_IT_number 12
_symmetry_cell_setting 'monoclinic'
loop_
_space_group_symop_operation_xyz
x,y,z
-x,y,-z
-x,-y,-z
x,-y,z
1/2+x,1/2+y,z
1/2-x,1/2+y,-z
1/2-x,1/2-y,-z
1/2+x,1/2-y,z
loop_
_atom_site_type_symbol
_atom_site_label
_atom_site_fract_x
_atom_site_fract_y
_atom_site_fract_z
Si Si1 0.598411 0.290799 0.733515
Si Si2 0.233636 0.213033 0.907223
Si Si3 0.448291 0.203960 0.702887
Si Si4 0.985753 0.717055 0.879442
Si Si5 0.416140 0.785626 0.436981
Si Si6 0.884703 0.716416 0.946847
Si Si7 0.168872 0.713563 0.475632
O O1 0.589891 0.500000 0.741846
O O2 0.660332 0.221139 0.825032
O O3 0.521701 0.203823 0.703065
O O4 0.612681 0.266592 0.658509
O O5 0.303666 0.279144 0.907178
O O6 0.231211 0.000000 0.898930
O O7 0.250000 0.250000 0.000000
O O8 0.466445 0.284459 0.790194
O O9 0.385224 0.285393 0.617676
O O10 0.426696 0.000000 0.703909
O O11 0.987739 0.500000 0.879647
O O12 0.926058 0.769879 0.900797
O O13 0.063949 0.772484 0.956456
O O14 0.500000 0.725294 0.500000
O O15 0.362606 0.723955 0.467451
O O16 0.418413 0.000000 0.440065
O O17 0.883532 0.500000 0.946127
O O18 0.161393 0.500000 0.473670
O O19 0.250000 0.750000 0.500000
#
# Coordination Sequence:
#
# PCOD9186928 Si02
#       7
#     8   8   8   8   8   8   8
#     4  11  23  35  54  86 115 146 189 240 293 339
#     4  10  21  35  52  78 113 146 181 228 280 334
#     4  10  19  35  57  79 104 144 191 229 277 344
#     4   8  14  25  49  76  97 130 178 223 265 316
#     4  10  20  40  63  82 110 150 198 241 280 344
#     4   8  14  27  45  72 104 133 171 221 268 317
#     4  10  22  38  58  84 113 146 186 238 292 344
#
# _framework density 21.355560000000001
#
# number of rings (size 3 to 8) (size 9 to 14) (size 15 to 20)
#    0.000    2.429    1.429    2.143    0.000    4.857 
#    0.000    2.857    0.000    0.857    0.000    4.000 
#    0.000    0.000    0.000    0.000    0.000    0.000 
#
# Total GULP energy -156272.542462 kJ/mol
# GULP energy per Si atom -5581.162231 kJ/mol
# Density = 2.130695 g / cm^3
# Si number density = 21.355560 Si / 1000 Ang^3
#
#
#
# Elastic Constant Matrix: (Units=GPa)
#
#
# Indices 1 2 3 4 5 6 
#
# 1 117.2263 -6.8035 69.9051 0.0000 16.2718 0.0000
# 2 -6.8035 56.8401 -1.5762 0.0000 2.7352 0.0000
# 3 69.9051 -1.5762 160.4802 0.0000 -2.0926 0.0000
# 4 0.0000 0.0000 0.0000 4.8612 0.0000 -5.5811
# 5 16.2718 2.7352 -2.0926 0.0000 37.2082 0.0000
# 6 0.0000 0.0000 0.0000 -5.5811 0.0000 10.8839
#
#
#
# Elastic Compliance Matrix: (Units=1/GPa)
#
#
# Indices 1 2 3 4 5 6 
#
# 1 0.012841 0.001672 -0.005656 0.000000 -0.006057 0.000000
# 2 0.001672 0.017877 -0.000580 0.000000 -0.002078 0.000000
# 3 -0.005656 -0.000580 0.008729 0.000000 0.003007 0.000000
# 4 0.000000 0.000000 0.000000 0.500179 0.000000 0.256484
# 5 -0.006057 -0.002078 0.003007 0.000000 0.029846 0.000000
# 6 0.000000 0.000000 0.000000 0.256484 0.000000 0.223400
#
#
# Mechanical properties :
#
#
# Convention : Reuss Voigt Hill
#
# Bulk Modulus (GPa) = 32.98306 50.84415 41.91360
# Shear Modulus (GPa) = 6.15682 28.79205 17.47444
#
# Velocity S-wave (km/s) = 1.69978 3.67580 2.86363
# Velocity P-wave (km/s) = 4.39666 6.47112 5.53200
#
# Compressibility (1/GPa) = 0.03031860
#
# Stress axis : x y z
#
# Youngs Moduli (GPa) = 77.87472 55.93713 114.56547
#
# Poissons Ratio (x) = -0.09351 0.64800
# Poissons Ratio (y) = -0.13018 0.06641
# Poissons Ratio (z) = 0.44047 0.03243
#
# Static dielectric constant tensor:
#      x y z
#    x 1.753750 0.000000 -0.004760 
#    y 0.000000 1.842480 0.000000 
#    z -0.004760 0.000000 1.775940 
# 
# From -- ./inp_files/281731.got.cif
#   From: 2010.05.17/outbox.cif.g08.bks.cpg/sg12_141_cif.got.tgz:281731.got - 2010.06.03 13:09:07.
