data_PCOD9186062
_publ_section_title
;
Structure prediction by ZEFSAII (Michael W. Deem and Ramdas Pophale) SiO2 
 PCOD9186062
Probable space group: C 2/M
;
_chemical_formula_sum "Si O2"
_cell_formula_units_Z 64
_cell_length_a 20.964191
_cell_length_b 8.770609
_cell_length_c 19.793552
_cell_angle_alpha 90.000000
_cell_angle_beta 90.178260
_cell_angle_gamma 90.000000
_cell_volume 3639.397501
_symmetry_space_group_name_H-M "C 2/M"
_symmetry_group_IT_number 12
_symmetry_cell_setting 'monoclinic'
loop_
_space_group_symop_operation_xyz
x,y,z
-x,y,-z
-x,-y,-z
x,-y,z
1/2+x,1/2+y,z
1/2-x,1/2+y,-z
1/2-x,1/2-y,-z
1/2+x,1/2-y,z
loop_
_atom_site_type_symbol
_atom_site_label
_atom_site_fract_x
_atom_site_fract_y
_atom_site_fract_z
Si Si1 0.311526 0.818046 0.963758
Si Si2 0.639289 0.316931 0.325261
Si Si3 0.137008 0.317059 0.179092
Si Si4 0.566477 0.317780 0.962151
Si Si5 0.810832 0.316461 0.538556
Si Si6 0.503849 0.683666 0.825223
Si Si7 0.062151 0.316663 0.541228
Si Si8 0.990037 0.817659 0.327364
O O1 0.320637 0.770546 0.885304
O O2 0.307145 0.000000 0.964584
O O3 0.250000 0.750000 0.000000
O O4 0.374801 0.766171 0.003613
O O5 0.643032 0.500000 0.325801
O O6 0.656176 0.255761 0.250825
O O7 0.680524 0.247039 0.385743
O O8 0.564623 0.273282 0.337226
O O9 0.137810 0.500000 0.184986
O O10 0.064621 0.261924 0.164309
O O11 0.577509 0.500000 0.966941
O O12 0.553100 0.276926 0.884210
O O13 0.500000 0.285103 0.000000
O O14 0.807977 0.500000 0.540447
O O15 0.750000 0.250000 0.500000
O O16 0.873867 0.268945 0.496679
O O17 0.493286 0.500000 0.827856
O O18 0.526430 0.722223 0.749893
O O19 0.060964 0.500000 0.541627
O O20 0.000000 0.261517 0.500000
O O21 0.053936 0.258210 0.616978
O O22 0.986494 0.000000 0.334438
#
# Coordination Sequence:
#
# PCOD9186062 Si02
#       8
#     8   8   8   8   8   8   8   8
#     4  11  24  39  57  83 116 152 194 238 284 339
#     4  10  20  35  57  84 112 145 185 229 279 338
#     4  10  20  34  55  83 112 146 187 233 280 332
#     4  10  19  34  59  84 112 149 187 231 286 339
#     4  11  23  39  58  82 114 150 189 232 281 334
#     4   9  18  33  53  83 115 146 184 229 282 336
#     4  10  20  35  55  80 110 142 180 227 275 324
#     4   9  18  31  52  82 113 143 182 229 275 328
#
# _framework density 17.585328000000001
#
# number of rings (size 3 to 8) (size 9 to 14) (size 15 to 20)
#    0.000    2.000    2.500    2.250    0.000    5.500 
#    0.000    1.250    0.000    4.500    0.000    0.000 
#    0.000    0.000    0.000    0.000    0.000    0.000 
#
# Total GULP energy -178600.185788 kJ/mol
# GULP energy per Si atom -5581.255806 kJ/mol
# Density = 1.754530 g / cm^3
# Si number density = 17.585328 Si / 1000 Ang^3
#
#
#
# Elastic Constant Matrix: (Units=GPa)
#
#
# Indices 1 2 3 4 5 6 
#
# 1 97.9985 37.5057 77.5464 0.0000 -2.1950 0.0000
# 2 37.5057 38.3397 48.0986 0.0000 -0.1306 0.0000
# 3 77.5464 48.0986 170.5215 0.0000 0.0951 0.0000
# 4 0.0000 0.0000 0.0000 31.9454 0.0000 -0.0741
# 5 -2.1950 -0.1306 0.0951 0.0000 29.3388 0.0000
# 6 0.0000 0.0000 0.0000 -0.0741 0.0000 27.2019
#
#
#
# Elastic Compliance Matrix: (Units=1/GPa)
#
#
# Indices 1 2 3 4 5 6 
#
# 1 0.018971 -0.011962 -0.005254 0.000000 0.001383 0.000000
# 2 -0.011962 0.047912 -0.008074 0.000000 -0.000655 0.000000
# 3 -0.005254 -0.008074 0.010531 0.000000 -0.000463 0.000000
# 4 0.000000 0.000000 0.000000 0.031304 0.000000 0.000085
# 5 0.001383 -0.000655 -0.000463 0.000000 0.034187 0.000000
# 6 0.000000 0.000000 0.000000 0.000085 0.000000 0.036762
#
#
# Mechanical properties :
#
#
# Convention : Reuss Voigt Hill
#
# Bulk Modulus (GPa) = 37.26685 70.35122 53.80903
# Shear Modulus (GPa) = 20.90383 27.27782 24.09083
#
# Velocity S-wave (km/s) = 3.45151 3.94276 3.70528
# Velocity P-wave (km/s) = 6.09277 7.79869 6.99791
#
# Compressibility (1/GPa) = 0.02683350
#
# Stress axis : x y z
#
# Youngs Moduli (GPa) = 52.71298 20.87175 94.95616
#
# Poissons Ratio (x) = 0.24968 0.49887
# Poissons Ratio (y) = 0.63057 0.76667
# Poissons Ratio (z) = 0.27694 0.16852
#
# Static dielectric constant tensor:
#      x y z
#    x 1.568190 0.000000 -0.002960 
#    y 0.000000 1.592980 0.000000 
#    z -0.002960 0.000000 1.614270 
# 
# From -- ./inp_files/281417.got.cif
#   From: 2010.05.17/outbox.cif.g08.bks.cpg/sg12_141_cif.got.tgz:281417.got - 2010.06.03 13:09:07.
