data_PCOD9186912
_publ_section_title
;
Structure prediction by ZEFSAII (Michael W. Deem and Ramdas Pophale) SiO2 
 PCOD9186912
Probable space group: C 2/M
;
_chemical_formula_sum "Si O2"
_cell_formula_units_Z 48
_cell_length_a 16.969419
_cell_length_b 29.454034
_cell_length_c 7.797008
_cell_angle_alpha 90.000000
_cell_angle_beta 143.900339
_cell_angle_gamma 90.000000
_cell_volume 2296.128907
_symmetry_space_group_name_H-M "C 2/M"
_symmetry_group_IT_number 12
_symmetry_cell_setting 'monoclinic'
loop_
_space_group_symop_operation_xyz
x,y,z
-x,y,-z
-x,-y,-z
x,-y,z
1/2+x,1/2+y,z
1/2-x,1/2+y,-z
1/2-x,1/2-y,-z
1/2+x,1/2-y,z
loop_
_atom_site_type_symbol
_atom_site_label
_atom_site_fract_x
_atom_site_fract_y
_atom_site_fract_z
Si Si1 0.938980 0.401384 0.083797
Si Si2 0.602464 0.293030 0.838779
Si Si3 0.302066 0.947594 0.326282
Si Si4 0.113231 0.694482 0.843703
Si Si5 0.315077 0.448903 0.492922
Si Si6 0.054268 0.890278 0.789938
O O1 0.899349 0.350699 0.068050
O O2 0.053591 0.423736 0.403432
O O3 0.806108 0.431681 0.838732
O O4 0.000000 0.400009 0.000000
O O5 0.500000 0.289738 0.500000
O O6 0.600414 0.243050 0.918337
O O7 0.568765 0.338645 0.881766
O O8 0.746413 0.302514 0.008025
O O9 0.242090 0.948788 0.414705
O O10 0.311013 0.000000 0.282699
O O11 0.195007 0.916671 0.039238
O O12 0.000000 0.691585 0.500000
O O13 0.354435 0.500000 0.516005
O O14 0.443077 0.417283 0.699482
O O15 0.000000 0.888142 0.500000
#
# Coordination Sequence:
#
# PCOD9186912 Si02
#       6
#     8   8   8   8   8   8
#     4  10  20  35  56  81 107 136 176 223 262 303
#     4   9  19  34  55  77 103 139 176 210 256 319
#     4  10  21  37  55  76 106 144 179 212 260 319
#     4  10  19  35  57  78 103 139 176 211 261 319
#     4  10  21  37  55  75 105 145 180 211 259 320
#     4  11  21  35  55  80 107 136 176 224 263 303
#
# _framework density 20.90475
#
# number of rings (size 3 to 8) (size 9 to 14) (size 15 to 20)
#    0.000    2.000    0.000    4.500    0.000    4.667 
#    0.000    1.667    0.000   17.000    0.000    0.000 
#    0.000    0.000    0.000    0.000    0.000    0.000 
#
# Total GULP energy -134084.984473 kJ/mol
# GULP energy per Si atom -5586.874353 kJ/mol
# Density = 2.085717 g / cm^3
# Si number density = 20.904750 Si / 1000 Ang^3
#
#
#
# Elastic Constant Matrix: (Units=GPa)
#
#
# Indices 1 2 3 4 5 6 
#
# 1 35.1433 13.5747 -6.3408 0.0000 3.7523 0.0000
# 2 13.5747 171.8494 -2.6795 0.0000 0.6945 0.0000
# 3 -6.3408 -2.6795 85.3568 0.0000 6.6149 0.0000
# 4 0.0000 0.0000 0.0000 18.2272 0.0000 18.5674
# 5 3.7523 0.6945 6.6149 0.0000 16.9634 0.0000
# 6 0.0000 0.0000 0.0000 18.5674 0.0000 29.7423
#
#
#
# Elastic Compliance Matrix: (Units=1/GPa)
#
#
# Indices 1 2 3 4 5 6 
#
# 1 0.030702 -0.002350 0.002811 0.000000 -0.007791 0.000000
# 2 -0.002350 0.006003 -0.000008 0.000000 0.000277 0.000000
# 3 0.002811 -0.000008 0.012345 0.000000 -0.005436 0.000000
# 4 0.000000 0.000000 0.000000 0.150692 0.000000 -0.094074
# 5 -0.007791 0.000277 -0.005436 0.000000 0.062782 0.000000
# 6 0.000000 0.000000 0.000000 -0.094074 0.000000 0.092350
#
#
# Mechanical properties :
#
#
# Convention : Reuss Voigt Hill
#
# Bulk Modulus (GPa) = 20.01727 33.49537 26.75632
# Shear Modulus (GPa) = 13.49089 32.17291 22.83190
#
# Velocity S-wave (km/s) = 2.54313 3.92730 3.30841
# Velocity P-wave (km/s) = 4.26844 6.05165 5.23651
#
# Compressibility (1/GPa) = 0.04995686
#
# Stress axis : x y z
#
# Youngs Moduli (GPa) = 32.57162 166.57137 81.00238
#
# Poissons Ratio (x) = 0.39142 -0.22767
# Poissons Ratio (y) = 0.07654 0.00061
# Poissons Ratio (z) = -0.09155 0.00126
#
# Static dielectric constant tensor:
#      x y z
#    x 1.748190 0.000000 -0.015270 
#    y 0.000000 1.781120 0.000000 
#    z -0.015270 0.000000 1.733050 
# 
# From -- ./inp_files/42195.got.cif
#   From: 2010.05.17/outbox.cif.g08.bks.cpg/sg12_22_cif.got.tgz:42195.got - 2010.06.03 13:09:07.
