data_PCOD9186155
_publ_section_title
;
Structure prediction by ZEFSAII (Michael W. Deem and Ramdas Pophale) SiO2 
 PCOD9186155
Probable space group: C 2/M
;
_chemical_formula_sum "Si O2"
_cell_formula_units_Z 40
_cell_length_a 12.728201
_cell_length_b 17.247622
_cell_length_c 18.947510
_cell_angle_alpha 90.000000
_cell_angle_beta 154.379968
_cell_angle_gamma 90.000000
_cell_volume 1798.602158
_symmetry_space_group_name_H-M "C 2/M"
_symmetry_group_IT_number 12
_symmetry_cell_setting 'monoclinic'
loop_
_space_group_symop_operation_xyz
x,y,z
-x,y,-z
-x,-y,-z
x,-y,z
1/2+x,1/2+y,z
1/2-x,1/2+y,-z
1/2-x,1/2-y,-z
1/2+x,1/2-y,z
loop_
_atom_site_type_symbol
_atom_site_label
_atom_site_fract_x
_atom_site_fract_y
_atom_site_fract_z
Si Si1 0.150516 0.589975 0.018361
Si Si2 0.035161 0.407452 0.632035
Si Si3 0.744871 0.188251 0.436378
Si Si4 0.845005 0.917139 0.334795
Si Si5 0.651718 0.667317 0.292593
O O1 0.233722 0.500000 0.069687
O O2 0.939142 0.595607 0.831409
O O3 0.373067 0.646096 0.138216
O O4 0.000000 0.604806 0.000000
O O5 0.073740 0.500000 0.656150
O O6 0.955096 0.374984 0.660515
O O7 0.812400 0.384963 0.444295
O O8 0.256336 0.360433 0.728873
O O9 0.750000 0.250000 0.500000
O O10 0.707940 0.242090 0.344865
O O11 0.008243 0.150997 0.609665
O O12 0.000000 0.922668 0.500000
O O13 0.874536 0.000000 0.314935
#
# Coordination Sequence:
#
# PCOD9186155 Si02
#       5
#     8   8   8   8   8
#     4  10  19  35  61  93 122 155 210 266 307 360
#     4  10  19  34  59  88 119 165 211 251 308 380
#     4  10  21  34  58  84 124 159 200 251 309 373
#     4  10  22  39  63  88 122 166 205 252 313 380
#     4  10  20  34  58  90 121 156 202 271 310 361
#
# _framework density 22.239491999999998
#
# number of rings (size 3 to 8) (size 9 to 14) (size 15 to 20)
#    0.000    2.000    0.000    5.400    5.600    1.600 
#    0.000    1.000    4.400    0.000    0.000    5.600 
#    0.000    0.000    0.000    0.000    0.000    0.200 
#
# Total GULP energy -111442.269944 kJ/mol
# GULP energy per Si atom -5572.113497 kJ/mol
# Density = 2.218887 g / cm^3
# Si number density = 22.239492 Si / 1000 Ang^3
#
#
#
# Elastic Constant Matrix: (Units=GPa)
#
#
# Indices 1 2 3 4 5 6 
#
# 1 61.3355 29.5179 25.9429 0.0009 12.4871 0.0032
# 2 29.5179 121.9948 33.5126 -0.0152 16.6237 0.0014
# 3 25.9429 33.5126 120.2357 -0.0053 23.6950 0.0088
# 4 0.0009 -0.0152 -0.0053 29.1959 0.0126 13.4331
# 5 12.4871 16.6237 23.6950 0.0126 32.0764 0.0028
# 6 0.0032 0.0014 0.0088 13.4331 0.0028 33.2615
#
#
#
# Elastic Compliance Matrix: (Units=1/GPa)
#
#
# Indices 1 2 3 4 5 6 
#
# 1 0.019908 -0.003578 -0.002500 -0.000001 -0.004048 0.000000
# 2 -0.003578 0.009818 -0.001447 0.000007 -0.002626 -0.000002
# 3 -0.002500 -0.001447 0.010440 0.000006 -0.005989 -0.000004
# 4 -0.000001 0.000007 0.000006 0.042069 -0.000023 -0.016990
# 5 -0.004048 -0.002626 -0.005989 -0.000023 0.038537 0.000008
# 6 0.000000 -0.000002 -0.000004 -0.016990 0.000008 0.036926
#
#
# Mechanical properties :
#
#
# Convention : Reuss Voigt Hill
#
# Bulk Modulus (GPa) = 39.81697 53.50143 46.65920
# Shear Modulus (GPa) = 27.60600 33.21294 30.40947
#
# Velocity S-wave (km/s) = 3.52704 3.86867 3.70180
# Velocity P-wave (km/s) = 5.87616 6.63812 6.26873
#
# Compressibility (1/GPa) = 0.02511492
#
# Stress axis : x y z
#
# Youngs Moduli (GPa) = 50.23211 101.85107 95.78567
#
# Poissons Ratio (x) = 0.36446 0.23948
# Poissons Ratio (y) = 0.17975 0.13859
# Poissons Ratio (z) = 0.12559 0.14737
#
# Static dielectric constant tensor:
#      x y z
#    x 1.895560 0.000000 -0.072260 
#    y 0.000000 1.939970 0.000000 
#    z -0.072260 0.000000 1.783650 
# 
# From -- ./inp_files/340692.got.cif
#   From: 2010.05.17/outbox.cif.g08.bks.cpg/sg12_171_cif.got.tgz:340692.got - 2010.06.03 13:09:07.
