data_PCOD9186376
_publ_section_title
;
Structure prediction by ZEFSAII (Michael W. Deem and Ramdas Pophale) SiO2 
 PCOD9186376
Probable space group: C 2/M
;
_chemical_formula_sum "Si O2"
_cell_formula_units_Z 48
_cell_length_a 22.163396
_cell_length_b 13.119477
_cell_length_c 16.745109
_cell_angle_alpha 90.000000
_cell_angle_beta 29.149597
_cell_angle_gamma 90.000000
_cell_volume 2371.654459
_symmetry_space_group_name_H-M "C 2/M"
_symmetry_group_IT_number 12
_symmetry_cell_setting 'monoclinic'
loop_
_space_group_symop_operation_xyz
x,y,z
-x,y,-z
-x,-y,-z
x,-y,z
1/2+x,1/2+y,z
1/2-x,1/2+y,-z
1/2-x,1/2-y,-z
1/2+x,1/2-y,z
loop_
_atom_site_type_symbol
_atom_site_label
_atom_site_fract_x
_atom_site_fract_y
_atom_site_fract_z
Si Si1 0.129078 0.886884 0.897741
Si Si2 0.226146 0.116526 0.014900
Si Si3 0.398767 0.225711 0.932245
Si Si4 0.704652 0.194010 0.431691
Si Si5 0.335767 0.119468 0.350295
Si Si6 0.529656 0.119663 0.372419
O O1 0.231715 0.867703 0.712727
O O2 0.146544 0.000000 0.914977
O O3 0.127657 0.790957 0.958075
O O4 0.000000 0.887995 0.000000
O O5 0.293188 0.151219 0.019161
O O6 0.331662 0.130949 0.823103
O O7 0.192577 0.000000 0.058336
O O8 0.110111 0.185096 0.124316
O O9 0.525425 0.164746 0.799547
O O10 0.725803 0.137813 0.491632
O O11 0.762901 0.306149 0.374159
O O12 0.561029 0.187971 0.575587
O O13 0.337363 0.000000 0.328511
O O14 0.500000 0.140251 0.500000
O O15 0.499392 0.000000 0.393695
#
# Coordination Sequence:
#
# PCOD9186376 Si02
#       6
#     8   8   8   8   8   8
#     4  11  22  37  58  91 125 153 198 259 312 354
#     4  10  21  37  59  87 122 162 207 254 302 362
#     4  11  21  38  60  88 123 162 202 251 304 368
#     4  11  22  40  64  92 123 157 202 258 306 366
#     4  11  23  41  65  91 122 163 206 252 308 370
#     4  10  19  34  61  92 122 158 200 252 308 359
#
# _framework density 20.239037
#
# number of rings (size 3 to 8) (size 9 to 14) (size 15 to 20)
#    0.000    1.333    3.333    3.500    0.000    1.333 
#    0.000    3.333    0.000    0.500    0.000    0.000 
#    0.000    0.000    0.000    0.000    0.000    0.000 
#
# Total GULP energy -133932.385253 kJ/mol
# GULP energy per Si atom -5580.516052 kJ/mol
# Density = 2.019297 g / cm^3
# Si number density = 20.239037 Si / 1000 Ang^3
#
#
#
# Elastic Constant Matrix: (Units=GPa)
#
#
# Indices 1 2 3 4 5 6 
#
# 1 79.3569 38.6281 8.8547 0.0000 -9.4126 0.0000
# 2 38.6281 137.4293 21.8745 0.0000 -15.6621 0.0000
# 3 8.8547 21.8745 54.9635 0.0000 5.5454 0.0000
# 4 0.0000 0.0000 0.0000 27.5509 0.0000 1.6577
# 5 -9.4126 -15.6621 5.5454 0.0000 31.8116 0.0000
# 6 0.0000 0.0000 0.0000 1.6577 0.0000 16.2956
#
#
#
# Elastic Compliance Matrix: (Units=1/GPa)
#
#
# Indices 1 2 3 4 5 6 
#
# 1 0.014852 -0.003661 -0.001219 0.000000 0.002804 0.000000
# 2 -0.003661 0.009341 -0.003545 0.000000 0.004134 0.000000
# 3 -0.001219 -0.003545 0.020372 0.000000 -0.005657 0.000000
# 4 0.000000 0.000000 0.000000 0.036520 0.000000 -0.003715
# 5 0.002804 0.004134 -0.005657 0.000000 0.035286 0.000000
# 6 0.000000 0.000000 0.000000 -0.003715 0.000000 0.061744
#
#
# Mechanical properties :
#
#
# Convention : Reuss Voigt Hill
#
# Bulk Modulus (GPa) = 36.08050 45.60715 40.84383
# Shear Modulus (GPa) = 24.48556 28.62443 26.55500
#
# Velocity S-wave (km/s) = 3.48202 3.76482 3.62618
# Velocity P-wave (km/s) = 5.83368 6.44063 6.14465
#
# Compressibility (1/GPa) = 0.02771580
#
# Stress axis : x y z
#
# Youngs Moduli (GPa) = 67.33131 107.05763 49.08769
#
# Poissons Ratio (x) = 0.39193 0.05982
# Poissons Ratio (y) = 0.24650 0.17400
# Poissons Ratio (z) = 0.08205 0.37949
#
# Static dielectric constant tensor:
#      x y z
#    x 1.733830 0.000000 0.034780 
#    y 0.000000 1.704250 0.000000 
#    z 0.034780 0.000000 1.720780 
# 
# From -- ./inp_files/289316.got.cif
#   From: 2010.05.17/outbox.cif.g08.bks.cpg/sg12_145_cif.got.tgz:289316.got - 2010.06.03 13:09:07.
