data_PCOD9186519
_publ_section_title
;
Structure prediction by ZEFSAII (Michael W. Deem and Ramdas Pophale) SiO2 
 PCOD9186519
Probable space group: C 2/M
;
_chemical_formula_sum "Si O2"
_cell_formula_units_Z 56
_cell_length_a 14.396754
_cell_length_b 18.148998
_cell_length_c 16.312811
_cell_angle_alpha 90.000000
_cell_angle_beta 37.330151
_cell_angle_gamma 90.000000
_cell_volume 2584.700286
_symmetry_space_group_name_H-M "C 2/M"
_symmetry_group_IT_number 12
_symmetry_cell_setting 'monoclinic'
loop_
_space_group_symop_operation_xyz
x,y,z
-x,y,-z
-x,-y,-z
x,-y,z
1/2+x,1/2+y,z
1/2-x,1/2+y,-z
1/2-x,1/2-y,-z
1/2+x,1/2-y,z
loop_
_atom_site_type_symbol
_atom_site_label
_atom_site_fract_x
_atom_site_fract_y
_atom_site_fract_z
Si Si1 0.936571 0.584200 0.789582
Si Si2 0.790362 0.175883 0.811543
Si Si3 0.595249 0.084519 0.847619
Si Si4 0.083845 0.227412 0.527500
Si Si5 0.232342 0.628817 0.492062
Si Si6 0.028283 0.084774 0.187684
Si Si7 0.675993 0.699360 0.979731
O O1 0.883475 0.500000 0.831909
O O2 0.998168 0.606710 0.836678
O O3 0.078349 0.588273 0.627351
O O4 0.800280 0.639170 0.863987
O O5 0.739329 0.135392 0.765211
O O6 0.836836 0.112674 0.844751
O O7 0.661978 0.236134 0.923452
O O8 0.946985 0.221094 0.690021
O O9 0.641958 0.000000 0.800902
O O10 0.500000 0.086738 0.000000
O O11 0.179824 0.300972 0.475468
O O12 0.191896 0.159806 0.477338
O O13 0.000000 0.226361 0.500000
O O14 0.366589 0.588485 0.348533
O O15 0.053821 0.000000 0.144283
O O16 0.039446 0.148554 0.110249
O O17 0.750000 0.750000 0.000000
#
# Coordination Sequence:
#
# PCOD9186519 Si02
#       7
#     8   8   8   8   8   8   8
#     4  11  21  36  59  86 118 153 192 239 292 352
#     4  10  19  35  53  82 117 149 189 235 286 353
#     4  10  20  33  52  85 123 155 186 232 295 356
#     4  10  20  36  58  84 118 152 191 244 297 343
#     4  10  21  37  59  87 117 150 199 242 289 355
#     4  10  20  35  57  83 113 151 190 238 293 347
#     4  10  20  34  55  81 115 151 192 234 279 343
#
# _framework density 21.665955
#
# number of rings (size 3 to 8) (size 9 to 14) (size 15 to 20)
#    0.000    1.857    1.429    3.857    2.000    1.143 
#    2.571    0.000    0.000    8.571    0.000    1.000 
#    0.000    0.000    0.000    0.000    0.000    0.000 
#
# Total GULP energy -156209.877563 kJ/mol
# GULP energy per Si atom -5578.924199 kJ/mol
# Density = 2.161664 g / cm^3
# Si number density = 21.665955 Si / 1000 Ang^3
#
#
#
# Elastic Constant Matrix: (Units=GPa)
#
#
# Indices 1 2 3 4 5 6 
#
# 1 37.8282 7.1207 -1.1082 0.0017 -9.9017 -0.0005
# 2 7.1207 91.7816 22.9968 0.0019 -9.9866 -0.0012
# 3 -1.1082 22.9968 102.9403 0.0066 -11.5036 -0.0027
# 4 0.0017 0.0019 0.0066 19.5192 -0.0019 -9.9700
# 5 -9.9017 -9.9866 -11.5036 -0.0019 18.4881 0.0007
# 6 -0.0005 -0.0012 -0.0027 -9.9700 0.0007 11.4110
#
#
#
# Elastic Compliance Matrix: (Units=1/GPa)
#
#
# Indices 1 2 3 4 5 6 
#
# 1 0.031385 -0.001146 0.002583 -0.000003 0.017797 -0.000002
# 2 -0.001146 0.012026 -0.002194 0.000000 0.004517 0.000001
# 3 0.002583 -0.002194 0.011021 -0.000004 0.007055 -0.000001
# 4 -0.000003 0.000000 -0.000004 0.092523 0.000003 0.080839
# 5 0.017797 0.004517 0.007055 0.000003 0.070450 0.000001
# 6 -0.000002 0.000001 -0.000001 0.080839 0.000001 0.158265
#
#
# Mechanical properties :
#
#
# Convention : Reuss Voigt Hill
#
# Bulk Modulus (GPa) = 18.89738 32.28541 25.59140
# Shear Modulus (GPa) = 12.66391 23.45305 18.05848
#
# Velocity S-wave (km/s) = 2.42028 3.29368 2.89016
# Velocity P-wave (km/s) = 4.06835 5.42202 4.79321
#
# Compressibility (1/GPa) = 0.05291738
#
# Stress axis : x y z
#
# Youngs Moduli (GPa) = 31.86224 83.15638 90.73795
#
# Poissons Ratio (x) = 0.09526 -0.23434
# Poissons Ratio (y) = 0.03650 0.19908
# Poissons Ratio (z) = -0.08229 0.18245
#
# Static dielectric constant tensor:
#      x y z
#    x 1.787790 0.000000 0.024870 
#    y 0.000000 1.758850 0.000000 
#    z 0.024870 0.000000 1.877360 
# 
# From -- ./inp_files/271365.got.cif
#   From: 2010.05.17/outbox.cif.g08.bks.cpg/sg12_136_cif.got.tgz:271365.got - 2010.06.03 13:09:07.
