data_PCOD9186410
_publ_section_title
;
Structure prediction by ZEFSAII (Michael W. Deem and Ramdas Pophale) SiO2 
 PCOD9186410
Probable space group: C 2/M
;
_chemical_formula_sum "Si O2"
_cell_formula_units_Z 48
_cell_length_a 16.980858
_cell_length_b 14.825644
_cell_length_c 11.990016
_cell_angle_alpha 90.000000
_cell_angle_beta 124.718214
_cell_angle_gamma 90.000000
_cell_volume 2481.105572
_symmetry_space_group_name_H-M "C 2/M"
_symmetry_group_IT_number 12
_symmetry_cell_setting 'monoclinic'
loop_
_space_group_symop_operation_xyz
x,y,z
-x,y,-z
-x,-y,-z
x,-y,z
1/2+x,1/2+y,z
1/2-x,1/2+y,-z
1/2-x,1/2-y,-z
1/2+x,1/2-y,z
loop_
_atom_site_type_symbol
_atom_site_label
_atom_site_fract_x
_atom_site_fract_y
_atom_site_fract_z
Si Si1 0.645900 0.292200 0.432547
Si Si2 0.889760 0.900535 0.034696
Si Si3 0.193426 0.099975 0.268179
Si Si4 0.955615 0.274761 0.204989
Si Si5 0.682731 0.271210 0.704508
Si Si6 0.299770 0.105053 0.966303
O O1 0.750000 0.250000 0.500000
O O2 0.645554 0.375479 0.346959
O O3 0.566209 0.220203 0.328395
O O4 0.638613 0.314791 0.557230
O O5 0.946018 0.814756 0.122527
O O6 0.782989 0.889746 0.004353
O O7 0.924492 0.000000 0.098237
O O8 0.879852 0.899575 0.894074
O O9 0.267270 0.178699 0.294747
O O10 0.237107 0.000000 0.306922
O O11 0.897648 0.253336 0.270902
O O12 0.897679 0.352839 0.094164
O O13 0.758808 0.334949 0.830967
O O14 0.310620 0.000000 0.945492
#
# Coordination Sequence:
#
# PCOD9186410 Si02
#       6
#     8   8   8   8   8   8
#     4  10  24  38  53  79 120 163 196 234 291 351
#     4   9  17  32  58  92 114 138 188 247 303 343
#     4  10  19  36  60  85 119 151 184 240 298 348
#     4  11  19  36  61  86 116 153 201 245 289 347
#     4  10  19  39  60  88 115 156 196 242 296 351
#     4  10  19  34  62  92 118 146 192 254 297 343
#
# _framework density 19.346214
#
# number of rings (size 3 to 8) (size 9 to 14) (size 15 to 20)
#    0.000    2.000    3.333    1.500    0.000    2.000 
#    0.000    5.000    0.000   15.000    0.000    0.000 
#    0.000    0.000    0.000    0.000    0.000    0.000 
#
# Total GULP energy -133812.851698 kJ/mol
# GULP energy per Si atom -5575.535487 kJ/mol
# Density = 1.930218 g / cm^3
# Si number density = 19.346214 Si / 1000 Ang^3
#
#
#
# Elastic Constant Matrix: (Units=GPa)
#
#
# Indices 1 2 3 4 5 6 
#
# 1 42.0590 42.3334 39.3539 0.0000 13.3392 0.0000
# 2 42.3334 115.7557 55.3282 0.0000 -3.9441 0.0000
# 3 39.3539 55.3282 108.2313 0.0000 0.4743 0.0000
# 4 0.0000 0.0000 0.0000 14.2676 0.0000 -9.1213
# 5 13.3392 -3.9441 0.4743 0.0000 45.5455 0.0000
# 6 0.0000 0.0000 0.0000 -9.1213 0.0000 19.7740
#
#
#
# Elastic Compliance Matrix: (Units=1/GPa)
#
#
# Indices 1 2 3 4 5 6 
#
# 1 0.056684 -0.015248 -0.012738 0.000000 -0.017789 0.000000
# 2 -0.015248 0.015584 -0.002448 0.000000 0.005841 0.000000
# 3 -0.012738 -0.002448 0.015108 0.000000 0.003361 0.000000
# 4 0.000000 0.000000 0.000000 0.099402 0.000000 0.045852
# 5 -0.017789 0.005841 0.003361 0.000000 0.027637 0.000000
# 6 0.000000 0.000000 0.000000 0.045852 0.000000 0.071722
#
#
# Mechanical properties :
#
#
# Convention : Reuss Voigt Hill
#
# Bulk Modulus (GPa) = 37.72408 60.00855 48.86631
# Shear Modulus (GPa) = 14.05117 24.51943 19.28530
#
# Velocity S-wave (km/s) = 2.69792 3.56392 3.16072
# Velocity P-wave (km/s) = 5.40803 6.92972 6.21562
#
# Compressibility (1/GPa) = 0.02650827
#
# Stress axis : x y z
#
# Youngs Moduli (GPa) = 17.64159 64.16686 66.19015
#
# Poissons Ratio (x) = 0.97840 0.84315
# Poissons Ratio (y) = 0.26900 0.16204
# Poissons Ratio (z) = 0.22472 0.15709
#
# Static dielectric constant tensor:
#      x y z
#    x 1.717150 0.000000 0.008450 
#    y 0.000000 1.756840 0.000000 
#    z 0.008450 0.000000 1.731450 
# 
# From -- ./inp_files/166869.got.cif
#   From: 2010.05.17/outbox.cif.g08.bks.cpg/sg12_84_cif.got.tgz:166869.got - 2010.06.03 13:09:07.
