data_PCOD9186935
_publ_section_title
;
Structure prediction by ZEFSAII (Michael W. Deem and Ramdas Pophale) SiO2 
 PCOD9186935
Probable space group: C 2/M
;
_chemical_formula_sum "Si O2"
_cell_formula_units_Z 56
_cell_length_a 29.173997
_cell_length_b 7.888150
_cell_length_c 22.426600
_cell_angle_alpha 90.000000
_cell_angle_beta 29.934801
_cell_angle_gamma 90.000000
_cell_volume 2575.416243
_symmetry_space_group_name_H-M "C 2/M"
_symmetry_group_IT_number 12
_symmetry_cell_setting 'monoclinic'
loop_
_space_group_symop_operation_xyz
x,y,z
-x,y,-z
-x,-y,-z
x,-y,z
1/2+x,1/2+y,z
1/2-x,1/2+y,-z
1/2-x,1/2-y,-z
1/2+x,1/2-y,z
loop_
_atom_site_type_symbol
_atom_site_label
_atom_site_fract_x
_atom_site_fract_y
_atom_site_fract_z
Si Si1 0.703899 0.199511 0.393270
Si Si2 0.758866 0.199031 0.778468
Si Si3 0.378998 0.793820 0.269320
Si Si4 0.399426 0.695657 0.857267
Si Si5 0.550505 0.793457 0.003750
Si Si6 0.215023 0.698373 0.123934
Si Si7 0.104419 0.302968 0.620701
O O1 0.695458 0.276972 0.337351
O O2 0.806297 0.229334 0.303275
O O3 0.640068 0.271876 0.518361
O O4 0.686508 0.000000 0.406027
O O5 0.805371 0.280747 0.783635
O O6 0.753681 0.000000 0.797003
O O7 0.654381 0.268658 0.891394
O O8 0.481959 0.744797 0.134097
O O9 0.357878 0.729853 0.359630
O O10 0.374973 0.000000 0.273196
O O11 0.419381 0.500000 0.848817
O O12 0.353378 0.709263 0.843820
O O13 0.494739 0.793225 0.749516
O O14 0.319181 0.759431 0.992089
O O15 0.554734 0.000000 0.997196
O O16 0.500000 0.739544 0.000000
O O17 0.212730 0.500000 0.110204
O O18 0.132514 0.500000 0.587804
#
# Coordination Sequence:
#
# PCOD9186935 Si02
#       7
#     8   8   8   8   8   8   8
#     4  11  23  37  52  78 116 153 192 237 285 332
#     4  11  21  36  59  83 112 152 194 231 277 338
#     4  10  19  35  57  79 107 148 195 235 280 339
#     4  10  21  38  62  90 116 144 184 229 276 334
#     4   9  16  29  51  79 107 138 180 228 275 323
#     4  10  21  38  61  89 120 146 175 225 287 339
#     4  10  22  38  57  80 111 153 193 235 286 333
#
# _framework density 21.744059
#
# number of rings (size 3 to 8) (size 9 to 14) (size 15 to 20)
#    0.000    1.857    1.429    3.000    0.000    4.571 
#    0.000    2.857    0.000    4.286    0.000    0.000 
#    0.000    0.000    0.000    0.000    0.000    0.000 
#
# Total GULP energy -156439.673409 kJ/mol
# GULP energy per Si atom -5587.131193 kJ/mol
# Density = 2.169457 g / cm^3
# Si number density = 21.744059 Si / 1000 Ang^3
#
#
#
# Elastic Constant Matrix: (Units=GPa)
#
#
# Indices 1 2 3 4 5 6 
#
# 1 73.2578 -6.1008 18.0593 0.0011 36.6533 0.0012
# 2 -6.1008 34.6901 -3.7957 0.0069 2.6816 0.0096
# 3 18.0593 -3.7957 67.9625 -0.0028 29.9061 0.0076
# 4 0.0011 0.0069 -0.0028 14.9348 0.0027 -2.6247
# 5 36.6533 2.6816 29.9061 0.0027 35.7245 -0.0015
# 6 0.0012 0.0096 0.0076 -2.6247 -0.0015 15.7914
#
#
#
# Elastic Compliance Matrix: (Units=1/GPa)
#
#
# Indices 1 2 3 4 5 6 
#
# 1 0.034989 0.011055 0.011845 -0.000001 -0.046644 -0.000020
# 2 0.011055 0.033221 0.007926 -0.000016 -0.020471 -0.000030
# 3 0.011845 0.007926 0.027894 0.000003 -0.036099 -0.000022
# 4 -0.000001 -0.000016 0.000003 0.068972 -0.000006 0.011464
# 5 -0.046644 -0.020471 -0.036099 -0.000006 0.107606 0.000043
# 6 -0.000020 -0.000030 -0.000022 0.011464 0.000043 0.065231
#
#
# Mechanical properties :
#
#
# Convention : Reuss Voigt Hill
#
# Bulk Modulus (GPa) = 6.33890 21.35956 13.84923
# Shear Modulus (GPa) = 15.20472 24.47330 19.83901
#
# Velocity S-wave (km/s) = 2.64722 3.35851 3.02385
# Velocity P-wave (km/s) = 3.50218 4.98838 4.30983
#
# Compressibility (1/GPa) = 0.15775613
#
# Stress axis : x y z
#
# Youngs Moduli (GPa) = 28.58066 30.10178 35.84986
#
# Poissons Ratio (x) = -0.33278 -0.42465
# Poissons Ratio (y) = -0.31596 -0.28414
# Poissons Ratio (z) = -0.33855 -0.23858
#
# Static dielectric constant tensor:
#      x y z
#    x 1.777810 0.000000 0.026070 
#    y 0.000000 1.774700 0.000000 
#    z 0.026070 0.000000 1.821010 
# 
# From -- ./inp_files/238934.got.cif
#   From: 2010.05.17/outbox.cif.g08.bks.cpg/sg12_120_cif.got.tgz:238934.got - 2010.06.03 13:09:07.
