data_PCOD9186198
_publ_section_title
;
Structure prediction by ZEFSAII (Michael W. Deem and Ramdas Pophale) SiO2 
 PCOD9186198
Probable space group: C 2/M
;
_chemical_formula_sum "Si O2"
_cell_formula_units_Z 64
_cell_length_a 18.827219
_cell_length_b 29.432208
_cell_length_c 13.259198
_cell_angle_alpha 90.000000
_cell_angle_beta 151.449768
_cell_angle_gamma 90.000000
_cell_volume 3511.475976
_symmetry_space_group_name_H-M "C 2/M"
_symmetry_group_IT_number 12
_symmetry_cell_setting 'monoclinic'
loop_
_space_group_symop_operation_xyz
x,y,z
-x,y,-z
-x,-y,-z
x,-y,z
1/2+x,1/2+y,z
1/2-x,1/2+y,-z
1/2-x,1/2-y,-z
1/2+x,1/2-y,z
loop_
_atom_site_type_symbol
_atom_site_label
_atom_site_fract_x
_atom_site_fract_y
_atom_site_fract_z
Si Si1 0.335424 0.743714 0.305037
Si Si2 0.850701 0.128765 0.061319
Si Si3 0.850982 0.681307 0.052794
Si Si4 0.662380 0.672768 0.155665
Si Si5 0.670319 0.204119 0.440453
Si Si6 0.364141 0.552858 0.251746
Si Si7 0.858924 0.396772 0.897335
Si Si8 0.661764 0.665217 0.524501
O O1 0.500000 0.763285 0.500000
O O2 0.209924 0.781739 0.155623
O O3 0.337612 0.709859 0.403941
O O4 0.288706 0.711003 0.156302
O O5 0.865111 0.084497 0.152289
O O6 0.002800 0.156094 0.276185
O O7 0.704238 0.154315 0.919523
O O8 0.834514 0.130994 0.919528
O O9 0.997074 0.711399 0.243092
O O10 0.887927 0.644610 0.011588
O O11 0.769964 0.678566 0.385846
O O12 0.500000 0.676298 0.000000
O O13 0.750000 0.250000 0.500000
O O14 0.711944 0.171361 0.401131
O O15 0.500000 0.562652 0.500000
O O16 0.374298 0.500000 0.237189
O O17 0.211296 0.563336 0.122353
O O18 0.718968 0.377395 0.659656
O O19 0.000000 0.405749 0.000000
#
# Coordination Sequence:
#
# PCOD9186198 Si02
#       8
#     8   8   8   8   8   8   8   8
#     4  11  23  35  53  80 116 159 205 249 291 342
#     4  11  23  40  59  83 119 152 197 250 303 363
#     4  10  23  35  55  81 116 163 201 242 299 347
#     4  12  26  37  54  80 111 159 213 253 293 341
#     4  12  23  38  54  79 116 164 216 256 286 332
#     4  10  21  39  66  95 120 149 187 241 321 394
#     4  10  19  34  59  91 121 152 186 236 304 370
#     4  11  20  36  54  79 120 159 191 245 297 338
#
# _framework density 18.225954000000002
#
# number of rings (size 3 to 8) (size 9 to 14) (size 15 to 20)
#    0.000    1.125    6.250    0.750    1.750    0.750 
#    0.000    0.000    0.000    0.375    0.000    7.000 
#    0.000    0.000    0.000    0.000    0.000    0.000 
#
# Total GULP energy -178280.116269 kJ/mol
# GULP energy per Si atom -5571.253633 kJ/mol
# Density = 1.818447 g / cm^3
# Si number density = 18.225954 Si / 1000 Ang^3
#
#
#
# Elastic Constant Matrix: (Units=GPa)
#
#
# Indices 1 2 3 4 5 6 
#
# 1 104.5162 36.2049 37.3392 0.0000 8.6412 0.0000
# 2 36.2049 65.3849 14.8770 0.0000 -3.1265 0.0000
# 3 37.3392 14.8770 71.6010 0.0000 6.8697 0.0000
# 4 0.0000 0.0000 0.0000 16.9113 0.0000 1.2860
# 5 8.6412 -3.1265 6.8697 0.0000 37.7558 0.0000
# 6 0.0000 0.0000 0.0000 1.2860 0.0000 12.7573
#
#
#
# Elastic Compliance Matrix: (Units=1/GPa)
#
#
# Indices 1 2 3 4 5 6 
#
# 1 0.014151 -0.006663 -0.005731 0.000000 -0.002748 0.000000
# 2 -0.006663 0.019335 -0.000858 0.000000 0.003282 0.000000
# 3 -0.005731 -0.000858 0.017317 0.000000 -0.001910 0.000000
# 4 0.000000 0.000000 0.000000 0.059589 0.000000 -0.006007
# 5 -0.002748 0.003282 -0.001910 0.000000 0.027734 0.000000
# 6 0.000000 0.000000 0.000000 -0.006007 0.000000 0.078992
#
#
# Mechanical properties :
#
#
# Convention : Reuss Voigt Hill
#
# Bulk Modulus (GPa) = 41.15436 46.48270 43.81853
# Shear Modulus (GPa) = 19.86320 23.69026 21.77673
#
# Velocity S-wave (km/s) = 3.30484 3.60920 3.46037
# Velocity P-wave (km/s) = 6.09850 6.55190 6.32926
#
# Compressibility (1/GPa) = 0.02429876
#
# Stress axis : x y z
#
# Youngs Moduli (GPa) = 70.66789 51.71836 57.74787
#
# Poissons Ratio (x) = 0.34459 0.33098
# Poissons Ratio (y) = 0.47085 0.04953
# Poissons Ratio (z) = 0.40503 0.04436
#
# Static dielectric constant tensor:
#      x y z
#    x 1.714620 0.000000 -0.071290 
#    y 0.000000 1.639120 0.000000 
#    z -0.071290 0.000000 1.705530 
# 
# From -- ./inp_files/161216.got.cif
#   From: 2010.05.17/outbox.cif.g08.bks.cpg/sg12_81_cif.got.tgz:161216.got - 2010.06.03 13:09:07.
