data_PCOD9186235
_publ_section_title
;
Structure prediction by ZEFSAII (Michael W. Deem and Ramdas Pophale) SiO2 
 PCOD9186235
Probable space group: C 2/M
;
_chemical_formula_sum "Si O2"
_cell_formula_units_Z 56
_cell_length_a 33.024981
_cell_length_b 19.302385
_cell_length_c 6.292428
_cell_angle_alpha 90.000000
_cell_angle_beta 126.371292
_cell_angle_gamma 90.000000
_cell_volume 3229.763575
_symmetry_space_group_name_H-M "C 2/M"
_symmetry_group_IT_number 12
_symmetry_cell_setting 'monoclinic'
loop_
_space_group_symop_operation_xyz
x,y,z
-x,y,-z
-x,-y,-z
x,-y,z
1/2+x,1/2+y,z
1/2-x,1/2+y,-z
1/2-x,1/2-y,-z
1/2+x,1/2-y,z
loop_
_atom_site_type_symbol
_atom_site_label
_atom_site_fract_x
_atom_site_fract_y
_atom_site_fract_z
Si Si1 0.171794 0.672309 0.279784
Si Si2 0.828879 0.581418 0.106340
Si Si3 0.855144 0.794564 0.121266
Si Si4 0.599544 0.817539 0.436617
Si Si5 0.249408 0.826027 0.106464
Si Si6 0.023854 0.000000 0.828127
Si Si7 0.546672 0.652435 0.808965
Si Si8 0.500000 0.242650 0.000000
O O1 0.122794 0.673041 0.276148
O O2 0.220130 0.678606 0.579266
O O3 0.173347 0.602993 0.146187
O O4 0.167769 0.736723 0.107926
O O5 0.828782 0.500000 0.141609
O O6 0.878310 0.619012 0.357596
O O7 0.781329 0.619608 0.068021
O O8 0.875516 0.751477 0.385549
O O9 0.902282 0.828698 0.152758
O O10 0.808999 0.843441 0.041643
O O11 0.540312 0.804606 0.248498
O O12 0.250000 0.750000 0.000000
O O13 0.050526 0.925589 0.908076
O O14 0.000000 0.000000 0.500000
O O15 0.000000 0.000000 0.000000
O O16 0.500000 0.655520 0.500000
O O17 0.532350 0.707457 0.946866
#
# Coordination Sequence:
#
# PCOD9186235 Si02
#       8
#     8   8   8   8   8   4   8   4
#     4  10  19  34  60  85 111 154 191 243 309 360
#     4  10  23  41  59  84 125 167 200 243 312 383
#     4  11  20  34  56  90 117 150 196 257 306 349
#     4  10  21  35  61  92 118 151 205 259 303 366
#     4  11  20  35  62  89 117 148 202 255 296 362
#     4  10  22  40  60  84 120 176 214 248 312 395
#     4  11  22  36  59  83 123 160 207 253 314 373
#     4  12  20  35  63  94 116 152 214 268 308 352
#
# _framework density 17.338730999999999
#
# number of rings (size 3 to 8) (size 9 to 14) (size 15 to 20)
#    0.000    1.429    7.857    0.429    0.000    2.286 
#    1.286    0.357    0.000    0.857    0.000    0.000 
#    0.000    0.000    0.000    0.000    0.000    0.000 
#
# Total GULP energy -155991.751106 kJ/mol
# GULP energy per Si atom -5571.133968 kJ/mol
# Density = 1.729927 g / cm^3
# Si number density = 17.338731 Si / 1000 Ang^3
#
#
#
# Elastic Constant Matrix: (Units=GPa)
#
#
# Indices 1 2 3 4 5 6 
#
# 1 124.8105 56.0889 38.7775 0.0000 12.8870 0.0000
# 2 56.0889 119.8004 33.9058 0.0000 9.1371 0.0000
# 3 38.7775 33.9058 75.1767 0.0000 5.6495 0.0000
# 4 0.0000 0.0000 0.0000 14.6577 0.0000 -3.8546
# 5 12.8870 9.1371 5.6495 0.0000 32.9665 0.0000
# 6 0.0000 0.0000 0.0000 -3.8546 0.0000 21.9501
#
#
#
# Elastic Compliance Matrix: (Units=1/GPa)
#
#
# Indices 1 2 3 4 5 6 
#
# 1 0.011263 -0.003993 -0.003810 0.000000 -0.002643 0.000000
# 2 -0.003993 0.011108 -0.002873 0.000000 -0.001025 0.000000
# 3 -0.003810 -0.002873 0.016605 0.000000 -0.000560 0.000000
# 4 0.000000 0.000000 0.000000 0.071527 0.000000 0.012561
# 5 -0.002643 -0.001025 -0.000560 0.000000 0.031747 0.000000
# 6 0.000000 0.000000 0.000000 0.012561 0.000000 0.047764
#
#
# Mechanical properties :
#
#
# Convention : Reuss Voigt Hill
#
# Bulk Modulus (GPa) = 56.74204 64.14803 60.44503
# Shear Modulus (GPa) = 23.01574 26.64919 24.83247
#
# Velocity S-wave (km/s) = 3.64733 3.92468 3.78854
# Velocity P-wave (km/s) = 7.10873 7.59044 7.35353
#
# Compressibility (1/GPa) = 0.01762362
#
# Stress axis : x y z
#
# Youngs Moduli (GPa) = 88.78248 90.02340 60.22207
#
# Poissons Ratio (x) = 0.35950 0.22946
# Poissons Ratio (y) = 0.35455 0.17302
# Poissons Ratio (z) = 0.33828 0.25864
#
# Static dielectric constant tensor:
#      x y z
#    x 1.617450 0.000000 -0.023810 
#    y 0.000000 1.566800 0.000000 
#    z -0.023810 0.000000 1.626130 
# 
# From -- ./inp_files/32113.got.cif
#   From: 2010.05.17/outbox.cif.g08.bks.cpg/sg12_17_cif.got.tgz:32113.got - 2010.06.03 13:09:07.
