data_PCOD9186716
_publ_section_title
;
Structure prediction by ZEFSAII (Michael W. Deem and Ramdas Pophale) SiO2 
 PCOD9186716
Probable space group: C 2/M
;
_chemical_formula_sum "Si O2"
_cell_formula_units_Z 64
_cell_length_a 18.652442
_cell_length_b 14.606294
_cell_length_c 24.241753
_cell_angle_alpha 90.000000
_cell_angle_beta 152.306182
_cell_angle_gamma 90.000000
_cell_volume 3069.417023
_symmetry_space_group_name_H-M "C 2/M"
_symmetry_group_IT_number 12
_symmetry_cell_setting 'monoclinic'
loop_
_space_group_symop_operation_xyz
x,y,z
-x,y,-z
-x,-y,-z
x,-y,z
1/2+x,1/2+y,z
1/2-x,1/2+y,-z
1/2-x,1/2-y,-z
1/2+x,1/2-y,z
loop_
_atom_site_type_symbol
_atom_site_label
_atom_site_fract_x
_atom_site_fract_y
_atom_site_fract_z
Si Si1 0.438501 0.229512 0.517271
Si Si2 0.835735 0.106451 0.921190
Si Si3 0.124947 0.393158 0.418104
Si Si4 0.946510 0.249400 0.078548
Si Si5 0.752281 0.743115 0.779415
Si Si6 0.444742 0.599618 0.677534
Si Si7 0.903722 0.282097 0.710251
Si Si8 0.304445 0.896200 0.900683
O O1 0.500000 0.192251 0.500000
O O2 0.410098 0.155390 0.547039
O O3 0.587815 0.282357 0.642576
O O4 0.280069 0.286552 0.401189
O O5 0.737930 0.175135 0.815029
O O6 0.786687 0.000000 0.892167
O O7 0.859374 0.158388 0.995975
O O8 0.000000 0.106333 0.000000
O O9 0.083068 0.500000 0.390644
O O10 0.312440 0.385266 0.542062
O O11 0.063975 0.342687 0.322011
O O12 0.123523 0.227988 0.181336
O O13 0.971585 0.289647 0.156489
O O14 0.866251 0.331039 0.990422
O O15 0.834611 0.657368 0.864792
O O16 0.413586 0.500000 0.680709
O O17 0.424462 0.677144 0.707802
O O18 0.618437 0.602613 0.775674
O O19 0.358997 0.000000 0.941475
#
# Coordination Sequence:
#
# PCOD9186716 Si02
#       8
#     8   8   8   8   8   8   8   8
#     4  11  21  38  64  90 120 157 200 251 308 359
#     4   8  16  32  52  74 109 153 190 234 290 347
#     4  10  22  39  60  87 122 165 203 240 298 365
#     4  10  21  33  54  86 118 150 198 242 295 357
#     4  10  19  35  55  86 118 151 195 243 298 362
#     4   9  19  37  59  82 106 146 202 244 291 353
#     4  11  21  38  60  88 123 165 192 245 302 359
#     4  10  20  36  59  82 111 153 199 249 295 346
#
# _framework density 20.850864999999999
#
# number of rings (size 3 to 8) (size 9 to 14) (size 15 to 20)
#    0.000    2.125    1.250    4.125    0.000    3.250 
#    0.000    0.000    0.000    0.750    0.000    0.000 
#    0.000    0.000    0.000    0.000    0.000    0.000 
#
# Total GULP energy -178229.074170 kJ/mol
# GULP energy per Si atom -5569.658568 kJ/mol
# Density = 2.080341 g / cm^3
# Si number density = 20.850865 Si / 1000 Ang^3
#
#
#
# Elastic Constant Matrix: (Units=GPa)
#
#
# Indices 1 2 3 4 5 6 
#
# 1 85.3092 24.7587 28.3545 -0.0012 -17.1244 0.0007
# 2 24.7587 97.3530 27.0438 -0.0024 -22.0004 0.0014
# 3 28.3545 27.0438 80.9731 -0.0030 -24.4386 0.0020
# 4 -0.0012 -0.0024 -0.0030 -33.3171 -0.0007 42.9941
# 5 -17.1244 -22.0004 -24.4386 -0.0007 39.6007 0.0007
# 6 0.0007 0.0014 0.0020 42.9941 0.0007 -20.4749
#
#
#
# Elastic Compliance Matrix: (Units=1/GPa)
#
#
# Indices 1 2 3 4 5 6 
#
# 1 0.013993 -0.001972 -0.003374 0.000000 0.002873 0.000000
# 2 -0.001972 0.012417 -0.002005 0.000000 0.004808 0.000000
# 3 -0.003374 -0.002005 0.016497 0.000000 0.007608 0.000001
# 4 0.000000 0.000000 0.000000 0.017555 -0.000001 0.036863
# 5 0.002873 0.004808 0.007608 -0.000001 0.033860 0.000001
# 6 0.000000 0.000000 0.000001 0.036863 0.000001 0.028566
#
#
# Mechanical properties :
#
#
# Convention : Reuss Voigt Hill
#
# Bulk Modulus (GPa) = 35.45641 47.10548 41.28095
# Shear Modulus (GPa) = 34.01540 9.39362 21.70451
#
# Velocity S-wave (km/s) = 4.04340 2.12484 3.22986
# Velocity P-wave (km/s) = 6.23221 5.35356 5.80952
#
# Compressibility (1/GPa) = 0.02820365
#
# Stress axis : x y z
#
# Youngs Moduli (GPa) = 71.46665 80.53435 60.61650
#
# Poissons Ratio (x) = 0.15882 0.20453
# Poissons Ratio (y) = 0.14093 0.12156
# Poissons Ratio (z) = 0.24113 0.16151
#
# Static dielectric constant tensor:
#      x y z
#    x 1.823210 0.000000 0.043320 
#    y 0.000000 1.724970 0.000000 
#    z 0.043320 0.000000 1.821950 
# 
# From -- ./inp_files/344108.got.cif
#   From: 2010.05.17/outbox.cif.g08.bks.cpg/sg12_173_cif.got.tgz:344108.got - 2010.06.03 13:09:07.
