data_PCOD9186738
_publ_section_title
;
Structure prediction by ZEFSAII (Michael W. Deem and Ramdas Pophale) SiO2 
 PCOD9186738
Probable space group: C 2/M
;
_chemical_formula_sum "Si O2"
_cell_formula_units_Z 56
_cell_length_a 30.070731
_cell_length_b 9.404862
_cell_length_c 11.939141
_cell_angle_alpha 90.000000
_cell_angle_beta 64.249812
_cell_angle_gamma 90.000000
_cell_volume 3041.221981
_symmetry_space_group_name_H-M "C 2/M"
_symmetry_group_IT_number 12
_symmetry_cell_setting 'monoclinic'
loop_
_space_group_symop_operation_xyz
x,y,z
-x,y,-z
-x,-y,-z
x,-y,z
1/2+x,1/2+y,z
1/2-x,1/2+y,-z
1/2-x,1/2-y,-z
1/2+x,1/2-y,z
loop_
_atom_site_type_symbol
_atom_site_label
_atom_site_fract_x
_atom_site_fract_y
_atom_site_fract_z
Si Si1 0.082843 0.167664 0.706788
Si Si2 0.854257 0.833197 0.569119
Si Si3 0.790358 0.667923 0.803237
Si Si4 0.949006 0.836399 0.624813
Si Si5 0.018171 0.330858 0.202418
Si Si6 0.318812 0.666470 0.989477
Si Si7 0.415530 0.334445 0.032108
O O1 0.128386 0.201377 0.575504
O O2 0.093151 0.186068 0.826741
O O3 0.036049 0.263203 0.727284
O O4 0.070626 0.000000 0.700057
O O5 0.811286 0.739911 0.669090
O O6 0.903068 0.812581 0.592860
O O7 0.841260 0.000000 0.589063
O O8 0.798948 0.500000 0.792383
O O9 0.732191 0.693152 0.888281
O O10 0.817617 0.739037 0.879698
O O11 0.950845 0.730209 0.726669
O O12 0.000000 0.822781 0.500000
O O13 0.946000 0.000000 0.669727
O O14 0.016987 0.500000 0.202948
O O15 0.042889 0.267042 0.063830
O O16 0.319004 0.500000 0.955382
O O17 0.365642 0.690820 0.016832
O O18 0.430464 0.500000 0.999391
#
# Coordination Sequence:
#
# PCOD9186738 Si02
#       7
#     8   8   8   8   8   8   8
#     4  10  21  39  58  76 102 144 192 226 256 312
#     4  10  20  35  56  80 107 140 180 222 265 314
#     4  10  20  34  56  84 113 140 170 215 273 329
#     4  10  19  35  56  76 104 141 182 222 257 307
#     4  12  24  35  52  81 115 143 174 222 279 327
#     4   9  19  37  58  82 108 138 178 222 266 314
#     4  10  21  38  60  78 100 141 191 230 260 309
#
# _framework density 18.413651000000002
#
# number of rings (size 3 to 8) (size 9 to 14) (size 15 to 20)
#    0.000    1.857    1.429    3.000    0.000    8.286 
#    0.000    0.714    0.000    0.000    0.000    0.000 
#    0.000    0.000    0.000    0.000    0.000    0.000 
#
# Total GULP energy -156457.426303 kJ/mol
# GULP energy per Si atom -5587.765225 kJ/mol
# Density = 1.837174 g / cm^3
# Si number density = 18.413651 Si / 1000 Ang^3
#
#
#
# Elastic Constant Matrix: (Units=GPa)
#
#
# Indices 1 2 3 4 5 6 
#
# 1 20.8711 24.4431 10.5796 0.0000 -0.8200 0.0000
# 2 24.4431 80.2907 71.1594 0.0000 -2.5075 0.0000
# 3 10.5796 71.1594 134.4109 0.0000 -3.3758 0.0000
# 4 0.0000 0.0000 0.0000 26.3526 0.0000 -8.1190
# 5 -0.8200 -2.5075 -3.3758 0.0000 22.1806 0.0000
# 6 0.0000 0.0000 0.0000 -8.1190 0.0000 6.7040
#
#
#
# Elastic Compliance Matrix: (Units=1/GPa)
#
#
# Indices 1 2 3 4 5 6 
#
# 1 0.085430 -0.037755 0.013287 0.000000 0.000912 0.000000
# 2 -0.037755 0.040163 -0.018282 0.000000 0.000362 0.000000
# 3 0.013287 -0.018282 0.016095 0.000000 0.000874 0.000000
# 4 0.000000 0.000000 0.000000 0.060533 0.000000 0.073310
# 5 0.000912 0.000362 0.000874 0.000000 0.045292 0.000000
# 6 0.000000 0.000000 0.000000 0.073310 0.000000 0.237950
#
#
# Mechanical properties :
#
#
# Convention : Reuss Voigt Hill
#
# Bulk Modulus (GPa) = 17.79755 49.77075 33.78415
# Shear Modulus (GPa) = 8.47899 19.67347 14.07623
#
# Velocity S-wave (km/s) = 2.14819 3.27221 2.76786
# Velocity P-wave (km/s) = 3.97987 6.43152 5.34807
#
# Compressibility (1/GPa) = 0.05618751
#
# Stress axis : x y z
#
# Youngs Moduli (GPa) = 11.70544 24.89873 62.13179
#
# Poissons Ratio (x) = 0.94005 -0.82553
# Poissons Ratio (y) = 0.44194 1.13589
# Poissons Ratio (z) = -0.15553 0.45520
#
# Static dielectric constant tensor:
#      x y z
#    x 1.622570 0.000000 -0.003660 
#    y 0.000000 1.612750 0.000000 
#    z -0.003660 0.000000 1.651680 
# 
# From -- ./inp_files/186866.got.cif
#   From: 2010.05.17/outbox.cif.g08.bks.cpg/sg12_94_cif.got.tgz:186866.got - 2010.06.03 13:09:07.
