data_PCOD9186143
_publ_section_title
;
Structure prediction by ZEFSAII (Michael W. Deem and Ramdas Pophale) SiO2 
 PCOD9186143
Probable space group: C 2/M
;
_chemical_formula_sum "Si O2"
_cell_formula_units_Z 64
_cell_length_a 29.071081
_cell_length_b 19.442045
_cell_length_c 7.935665
_cell_angle_alpha 90.000000
_cell_angle_beta 131.743512
_cell_angle_gamma 90.000000
_cell_volume 3346.590449
_symmetry_space_group_name_H-M "C 2/M"
_symmetry_group_IT_number 12
_symmetry_cell_setting 'monoclinic'
loop_
_space_group_symop_operation_xyz
x,y,z
-x,y,-z
-x,-y,-z
x,-y,z
1/2+x,1/2+y,z
1/2-x,1/2+y,-z
1/2-x,1/2-y,-z
1/2+x,1/2-y,z
loop_
_atom_site_type_symbol
_atom_site_label
_atom_site_fract_x
_atom_site_fract_y
_atom_site_fract_z
Si Si1 0.929554 0.924256 0.762430
Si Si2 0.624944 0.845657 0.010691
Si Si3 0.985892 0.363251 0.781492
Si Si4 0.160196 0.077606 0.135161
Si Si5 0.867219 0.419102 0.318860
Si Si6 0.593144 0.297520 0.845904
Si Si7 0.456818 0.287537 0.643303
Si Si8 0.803495 0.582038 0.511946
O O1 0.881984 0.920751 0.800779
O O2 0.924855 0.853561 0.647534
O O3 0.920138 0.000000 0.655130
O O4 0.000000 0.924815 0.000000
O O5 0.551142 0.857097 0.847202
O O6 0.645521 0.878351 0.883864
O O7 0.631799 0.763492 0.023881
O O8 0.658683 0.879199 0.251579
O O9 0.936660 0.404661 0.552908
O O10 0.958091 0.285920 0.739458
O O11 0.000000 0.393530 0.000000
O O12 0.230678 0.094245 0.349998
O O13 0.158515 0.000000 0.062542
O O14 0.130668 0.132465 0.938271
O O15 0.858707 0.500000 0.266369
O O16 0.825670 0.398425 0.378200
O O17 0.528606 0.306713 0.787428
O O18 0.573745 0.274653 0.612281
O O19 0.814814 0.500000 0.557628
#
# Coordination Sequence:
#
# PCOD9186143 Si02
#       8
#     8   8   8   8   8   8   8   8
#     4  10  19  34  59  88 114 148 198 247 292 349
#     4  11  22  40  62  91 122 155 205 249 296 357
#     4  11  21  36  61  91 123 157 192 247 306 357
#     4  10  22  41  60  85 119 156 201 248 298 357
#     4  11  23  40  62  88 119 157 203 254 302 354
#     4  10  21  36  59  87 121 157 191 244 304 354
#     4  10  20  35  56  89 124 152 191 238 307 362
#     4  10  23  43  63  83 119 167 204 244 303 358
#
# _framework density 19.123942
#
# number of rings (size 3 to 8) (size 9 to 14) (size 15 to 20)
#    0.000    1.625    3.750    1.125    1.750    2.750 
#    2.250    1.875    0.000    0.000    0.000    0.000 
#    0.000    0.000    0.000    0.000    0.000    0.000 
#
# Total GULP energy -178614.022481 kJ/mol
# GULP energy per Si atom -5581.688203 kJ/mol
# Density = 1.908042 g / cm^3
# Si number density = 19.123942 Si / 1000 Ang^3
#
#
#
# Elastic Constant Matrix: (Units=GPa)
#
#
# Indices 1 2 3 4 5 6 
#
# 1 82.1839 26.5472 29.4347 0.0000 3.7155 0.0000
# 2 26.5472 61.9497 28.4768 0.0000 -1.7509 0.0000
# 3 29.4347 28.4768 38.8920 0.0000 3.1057 0.0000
# 4 0.0000 0.0000 0.0000 16.5518 0.0000 -12.9879
# 5 3.7155 -1.7509 3.1057 0.0000 29.7942 0.0000
# 6 0.0000 0.0000 0.0000 -12.9879 0.0000 22.6091
#
#
#
# Elastic Compliance Matrix: (Units=1/GPa)
#
#
# Indices 1 2 3 4 5 6 
#
# 1 0.016897 -0.002159 -0.011122 0.000000 -0.001075 0.000000
# 2 -0.002159 0.024936 -0.016904 0.000000 0.003497 0.000000
# 3 -0.011122 -0.016904 0.046865 0.000000 -0.004492 0.000000
# 4 0.000000 0.000000 0.000000 0.110001 0.000000 0.063191
# 5 -0.001075 0.003497 -0.004492 0.000000 0.034371 0.000000
# 6 0.000000 0.000000 0.000000 0.063191 0.000000 0.080530
#
#
# Mechanical properties :
#
#
# Convention : Reuss Voigt Hill
#
# Bulk Modulus (GPa) = 35.29845 39.10480 37.20163
# Shear Modulus (GPa) = 13.04077 20.36214 16.70146
#
# Velocity S-wave (km/s) = 2.61417 3.26658 2.95842
# Velocity P-wave (km/s) = 5.25449 5.89236 5.58254
#
# Compressibility (1/GPa) = 0.02832986
#
# Stress axis : x y z
#
# Youngs Moduli (GPa) = 59.18181 40.10206 21.33784
#
# Poissons Ratio (x) = 0.08658 0.23731
# Poissons Ratio (y) = 0.12777 0.36069
# Poissons Ratio (z) = 0.65820 0.67788
#
# Static dielectric constant tensor:
#      x y z
#    x 1.673000 0.000000 -0.013040 
#    y 0.000000 1.699650 0.000000 
#    z -0.013040 0.000000 1.633780 
# 
# From -- ./inp_files/112882.got.cif
#   From: 2010.05.17/outbox.cif.g08.bks.cpg/sg12_57_cif.got.tgz:112882.got - 2010.06.03 13:09:07.
