data_PCOD9186061
_publ_section_title
;
Structure prediction by ZEFSAII (Michael W. Deem and Ramdas Pophale) SiO2 
 PCOD9186061
Probable space group: C 2/M
;
_chemical_formula_sum "Si O2"
_cell_formula_units_Z 60
_cell_length_a 14.969592
_cell_length_b 10.288731
_cell_length_c 25.050780
_cell_angle_alpha 90.000000
_cell_angle_beta 123.277392
_cell_angle_gamma 90.000000
_cell_volume 3225.609125
_symmetry_space_group_name_H-M "C 2/M"
_symmetry_group_IT_number 12
_symmetry_cell_setting 'monoclinic'
loop_
_space_group_symop_operation_xyz
x,y,z
-x,y,-z
-x,-y,-z
x,-y,z
1/2+x,1/2+y,z
1/2-x,1/2+y,-z
1/2-x,1/2-y,-z
1/2+x,1/2-y,z
loop_
_atom_site_type_symbol
_atom_site_label
_atom_site_fract_x
_atom_site_fract_y
_atom_site_fract_z
Si Si1 0.602846 0.844764 0.064571
Si Si2 0.430024 0.345673 0.587619
Si Si3 0.343878 0.658182 0.134493
Si Si4 0.205580 0.651523 0.293172
Si Si5 0.513878 0.151092 0.151478
Si Si6 0.104521 0.844308 0.727049
Si Si7 0.240079 0.645368 0.597402
Si Si8 0.000000 0.715525 0.500000
O O1 0.720512 0.801626 0.086328
O O2 0.584092 0.828289 0.121404
O O3 0.604072 0.000000 0.055320
O O4 0.500000 0.790068 0.000000
O O5 0.446045 0.500000 0.589607
O O6 0.503357 0.293201 0.660470
O O7 0.307913 0.325144 0.566061
O O8 0.470586 0.292042 0.544654
O O9 0.353930 0.500000 0.131997
O O10 0.421063 0.742868 0.123013
O O11 0.376493 0.695816 0.206029
O O12 0.219229 0.500000 0.313516
O O13 0.292632 0.680473 0.275877
O O14 0.227667 0.747761 0.348757
O O15 0.090733 0.666298 0.227824
O O16 0.476295 0.000000 0.137664
O O17 0.092260 0.000000 0.726274
O O18 0.273864 0.500000 0.625727
O O19 0.112588 0.645426 0.548162
#
# Coordination Sequence:
#
# PCOD9186061 Si02
#       8
#     8   8   8   8   8   8   8   4
#     4   9  18  34  56  81 113 157 199 228 265 327
#     4  10  21  36  58  83 106 140 188 230 269 329
#     4  10  19  34  59  84 111 149 190 229 277 334
#     4  10  19  36  61  84 107 142 187 230 275 329
#     4  10  20  35  57  85 115 143 182 237 284 324
#     4   9  16  32  57  81 104 136 183 232 271 320
#     4  11  24  40  57  83 116 145 176 226 286 333
#     4  12  22  38  58  78 111 150 183 222 273 332
#
# _framework density 18.601137999999999
#
# number of rings (size 3 to 8) (size 9 to 14) (size 15 to 20)
#    0.000    2.000    2.667    1.600    0.000    2.667 
#    0.000    2.667    0.000    0.800    0.000    0.000 
#    0.000    0.000    0.000    0.000    0.000    0.000 
#
# Total GULP energy -167163.346251 kJ/mol
# GULP energy per Si atom -5572.111542 kJ/mol
# Density = 1.855880 g / cm^3
# Si number density = 18.601138 Si / 1000 Ang^3
#
#
#
# Elastic Constant Matrix: (Units=GPa)
#
#
# Indices 1 2 3 4 5 6 
#
# 1 85.0521 31.4131 6.7284 0.0000 31.7313 0.0000
# 2 31.4131 50.4672 18.3390 0.0000 15.5728 0.0000
# 3 6.7284 18.3390 51.9791 0.0000 17.0352 0.0000
# 4 0.0000 0.0000 0.0000 11.1437 0.0000 4.8878
# 5 31.7313 15.5728 17.0352 0.0000 21.4717 0.0000
# 6 0.0000 0.0000 0.0000 4.8878 0.0000 30.7728
#
#
#
# Elastic Compliance Matrix: (Units=1/GPa)
#
#
# Indices 1 2 3 4 5 6 
#
# 1 0.038474 -0.011337 0.020215 0.000000 -0.064673 0.000000
# 2 -0.011337 0.029490 -0.010025 0.000000 0.003320 0.000000
# 3 0.020215 -0.010025 0.037253 0.000000 -0.052159 0.000000
# 4 0.000000 0.000000 0.000000 0.096457 0.000000 -0.015321
# 5 -0.064673 0.003320 -0.052159 0.000000 0.181121 0.000000
# 6 0.000000 0.000000 0.000000 -0.015321 0.000000 0.034930
#
#
# Mechanical properties :
#
#
# Convention : Reuss Voigt Hill
#
# Bulk Modulus (GPa) = 9.71607 33.38436 21.55021
# Shear Modulus (GPa) = 11.00530 21.41217 16.20873
#
# Velocity S-wave (km/s) = 2.43502 3.39650 2.95512
# Velocity P-wave (km/s) = 3.62498 5.77651 4.82227
#
# Compressibility (1/GPa) = 0.10292227
#
# Stress axis : x y z
#
# Youngs Moduli (GPa) = 25.99174 33.90946 26.84362
#
# Poissons Ratio (x) = 0.38444 -0.54264
# Poissons Ratio (y) = 0.29468 0.26911
# Poissons Ratio (z) = -0.52542 0.33994
#
# Static dielectric constant tensor:
#      x y z
#    x 1.641920 0.000000 0.027150 
#    y 0.000000 1.612000 0.000000 
#    z 0.027150 0.000000 1.683700 
# 
# From -- ./inp_files/357806.got.cif
#   From: 2010.05.17/outbox.cif.g08.bks.cpg/sg12_179_cif.got.tgz:357806.got - 2010.06.03 13:09:07.
