data_PCOD9186612
_publ_section_title
;
Structure prediction by ZEFSAII (Michael W. Deem and Ramdas Pophale) SiO2 
 PCOD9186612
Probable space group: C 2/M
;
_chemical_formula_sum "Si O2"
_cell_formula_units_Z 56
_cell_length_a 7.494226
_cell_length_b 27.137209
_cell_length_c 17.600235
_cell_angle_alpha 90.000000
_cell_angle_beta 115.201456
_cell_angle_gamma 90.000000
_cell_volume 3238.700699
_symmetry_space_group_name_H-M "C 2/M"
_symmetry_group_IT_number 12
_symmetry_cell_setting 'monoclinic'
loop_
_space_group_symop_operation_xyz
x,y,z
-x,y,-z
-x,-y,-z
x,-y,z
1/2+x,1/2+y,z
1/2-x,1/2+y,-z
1/2-x,1/2-y,-z
1/2+x,1/2-y,z
loop_
_atom_site_type_symbol
_atom_site_label
_atom_site_fract_x
_atom_site_fract_y
_atom_site_fract_z
Si Si1 0.068507 0.305378 0.776303
Si Si2 0.805908 0.444533 0.805908
Si Si3 0.532068 0.903858 0.319376
Si Si4 0.783286 0.443233 0.500000
Si Si5 0.401027 0.843832 0.901027
Si Si6 0.106683 0.903858 0.319376
Si Si7 0.015901 0.805378 0.223697
O O1 0.961911 0.346955 0.706094
O O2 0.998271 0.250000 0.748271
O O3 0.298415 0.308617 0.798415
O O4 0.025105 0.319190 0.855400
O O5 0.838583 0.500000 0.838583
O O6 0.875131 0.401499 0.875131
O O7 0.574771 0.435162 0.746252
O O8 0.917735 0.435162 0.746253
O O9 0.683355 0.916815 0.413799
O O10 0.311229 0.913670 0.311229
O O11 0.723355 0.500000 0.500000
O O12 0.644243 0.416815 0.413799
O O13 0.000000 0.443631 0.500000
O O14 0.185695 0.819190 0.855400
O O15 0.500000 0.837111 0.000000
O O16 0.049723 0.846955 0.293906
#
# Coordination Sequence:
#
# PCOD9186612 Si02
#       7
#     8   8   8   8   8   8   8
#     4  10  19  35  55  75 102 137 168 207 258 307
#     4  10  20  34  54  76 101 139 174 204 253 307
#     4   9  19  33  51  75 106 136 172 213 251 298
#     4   9  16  29  50  75 102 134 172 214 252 285
#     4  10  22  37  53  79 106 128 167 214 256 309
#     4   9  19  33  51  75 106 136 172 213 251 298
#     4  10  19  35  55  75 102 137 168 207 258 307
#
# _framework density 17.290884999999999
#
# number of rings (size 3 to 8) (size 9 to 14) (size 15 to 20)
#    0.000    2.429    1.429    0.857    0.000    3.714 
#    0.000    2.143    0.000    0.000    0.000    8.000 
#    0.000    0.000    0.000    0.000    0.000    0.000 
#
# Total GULP energy -156169.588532 kJ/mol
# GULP energy per Si atom -5577.485305 kJ/mol
# Density = 1.725153 g / cm^3
# Si number density = 17.290885 Si / 1000 Ang^3
#
#
#
# Elastic Constant Matrix: (Units=GPa)
#
#
# Indices 1 2 3 4 5 6 
#
# 1 78.5503 33.1909 34.0669 0.0000 0.0000 0.0000
# 2 33.1909 127.5275 43.1818 0.0000 0.0001 0.0000
# 3 34.0669 43.1818 107.3734 0.0000 0.0001 0.0000
# 4 0.0000 0.0000 0.0000 7.2867 0.0000 0.0001
# 5 0.0000 0.0001 0.0001 0.0000 15.3739 0.0000
# 6 0.0000 0.0000 0.0000 0.0001 0.0000 2.5079
#
#
#
# Elastic Compliance Matrix: (Units=1/GPa)
#
#
# Indices 1 2 3 4 5 6 
#
# 1 0.015554 -0.002752 -0.003828 0.000000 0.000000 0.000000
# 2 -0.002752 0.009564 -0.002973 0.000000 0.000000 0.000000
# 3 -0.003828 -0.002973 0.011724 0.000000 0.000000 0.000000
# 4 0.000000 0.000000 0.000000 0.137237 0.000000 -0.000003
# 5 0.000000 0.000000 0.000000 0.000000 0.065045 0.000000
# 6 0.000000 0.000000 0.000000 -0.000003 0.000000 0.398739
#
#
# Mechanical properties :
#
#
# Convention : Reuss Voigt Hill
#
# Bulk Modulus (GPa) = 56.38534 59.37006 57.87770
# Shear Modulus (GPa) = 7.54283 18.56781 13.05532
#
# Velocity S-wave (km/s) = 2.09088 3.28052 2.75078
# Velocity P-wave (km/s) = 6.20562 6.98281 6.60566
#
# Compressibility (1/GPa) = 0.01773511
#
# Stress axis : x y z
#
# Youngs Moduli (GPa) = 64.29337 104.55357 85.29761
#
# Poissons Ratio (x) = 0.28772 0.32653
# Poissons Ratio (y) = 0.17693 0.25362
# Poissons Ratio (z) = 0.24612 0.31088
#
# Static dielectric constant tensor:
#      x y z
#    x 1.609690 0.000000 0.000000 
#    y 0.000000 1.590010 0.000000 
#    z 0.000000 0.000000 1.540820 
# 
# From -- ./inp_files/259004.got.cif
#   From: 2010.05.17/outbox.cif.g08.bks.cpg/sg12_130_cif.got.tgz:259004.got - 2010.06.03 13:09:07.
