data_PCOD9186794
_publ_section_title
;
Structure prediction by ZEFSAII (Michael W. Deem and Ramdas Pophale) SiO2 
 PCOD9186794
Probable space group: C 2/M
;
_chemical_formula_sum "Si O2"
_cell_formula_units_Z 60
_cell_length_a 7.837482
_cell_length_b 20.111296
_cell_length_c 24.642169
_cell_angle_alpha 90.000000
_cell_angle_beta 134.604281
_cell_angle_gamma 90.000000
_cell_volume 2765.409337
_symmetry_space_group_name_H-M "C 2/M"
_symmetry_group_IT_number 12
_symmetry_cell_setting 'monoclinic'
loop_
_space_group_symop_operation_xyz
x,y,z
-x,y,-z
-x,-y,-z
x,-y,z
1/2+x,1/2+y,z
1/2-x,1/2+y,-z
1/2-x,1/2-y,-z
1/2+x,1/2-y,z
loop_
_atom_site_type_symbol
_atom_site_label
_atom_site_fract_x
_atom_site_fract_y
_atom_site_fract_z
Si Si1 0.040306 0.500000 0.866063
Si Si2 0.075662 0.713831 0.122522
Si Si3 0.728093 0.392617 0.013443
Si Si4 0.978239 0.852156 0.137636
Si Si5 0.330738 0.577300 0.719134
Si Si6 0.571676 0.578373 0.602651
Si Si7 0.624438 0.922459 0.440920
Si Si8 0.307008 0.885581 0.762067
O O1 0.070169 0.442087 0.919936
O O2 0.013710 0.440353 0.814406
O O3 0.271759 0.684414 0.125713
O O4 0.127238 0.682513 0.193445
O O5 0.826683 0.681452 0.046765
O O6 0.094335 0.792636 0.129319
O O7 0.500000 0.408658 0.000000
O O8 0.646339 0.400286 0.933489
O O9 0.151984 0.885529 0.219914
O O10 0.273351 0.500000 0.715867
O O11 0.590810 0.581932 0.749486
O O12 0.134056 0.605493 0.633126
O O13 0.555947 0.500000 0.615831
O O14 0.726303 0.579651 0.582060
O O15 0.305020 0.603504 0.527343
O O16 0.704970 0.618388 0.679107
O O17 0.588191 0.000000 0.447494
#
# Coordination Sequence:
#
# PCOD9186794 Si02
#       8
#     4   8   8   8   8   8   8   8
#     4  10  21  36  53  84 115 143 179 227 279 335
#     4  10  23  40  57  83 106 147 191 228 277 323
#     4  11  23  39  58  81 112 142 187 231 275 336
#     4  11  23  40  61  79 111 149 186 234 273 332
#     4  10  20  35  54  85 115 141 184 229 281 328
#     4   9  15  29  51  75 113 152 180 219 275 323
#     4   8  17  29  46  80 113 145 185 222 267 331
#     4  10  19  35  56  79 115 146 182 226 273 338
#
# _framework density 21.696605999999999
#
# number of rings (size 3 to 8) (size 9 to 14) (size 15 to 20)
#    0.000    2.133    1.333    2.600    0.933    3.733 
#    2.400    4.000    0.000    0.800    0.000    0.000 
#    0.000    0.000    0.000    0.000    0.000    0.000 
#
# Total GULP energy -167019.599157 kJ/mol
# GULP energy per Si atom -5567.319972 kJ/mol
# Density = 2.164722 g / cm^3
# Si number density = 21.696606 Si / 1000 Ang^3
#
#
#
# Elastic Constant Matrix: (Units=GPa)
#
#
# Indices 1 2 3 4 5 6 
#
# 1 42.1938 -3.6439 7.4226 0.0001 -5.0561 0.0001
# 2 -3.6439 33.2966 4.5797 0.0000 -3.5175 0.0000
# 3 7.4226 4.5797 123.9213 0.0000 -20.6964 0.0001
# 4 0.0001 0.0000 0.0000 41.3567 0.0001 5.8444
# 5 -5.0561 -3.5175 -20.6964 0.0001 27.9711 0.0002
# 6 0.0001 0.0000 0.0001 5.8444 0.0002 17.0492
#
#
#
# Elastic Compliance Matrix: (Units=1/GPa)
#
#
# Indices 1 2 3 4 5 6 
#
# 1 0.024643 0.003264 -0.000895 0.000000 0.004203 0.000000
# 2 0.003264 0.030903 -0.000673 0.000000 0.003978 0.000000
# 3 -0.000895 -0.000673 0.009250 0.000000 0.006598 0.000000
# 4 0.000000 0.000000 0.000000 0.025411 0.000000 -0.008711
# 5 0.004203 0.003978 0.006598 0.000000 0.041893 0.000000
# 6 0.000000 0.000000 0.000000 -0.008711 0.000000 0.061640
#
#
# Mechanical properties :
#
#
# Convention : Reuss Voigt Hill
#
# Bulk Modulus (GPa) = 14.66526 24.01427 19.33977
# Shear Modulus (GPa) = 23.46564 30.01227 26.73895
#
# Velocity S-wave (km/s) = 3.29224 3.72327 3.51437
# Velocity P-wave (km/s) = 4.60713 5.43837 5.03992
#
# Compressibility (1/GPa) = 0.06818835
#
# Stress axis : x y z
#
# Youngs Moduli (GPa) = 40.57930 32.35918 108.10749
#
# Poissons Ratio (x) = -0.10562 0.09673
# Poissons Ratio (y) = -0.13245 0.07278
# Poissons Ratio (z) = 0.03631 0.02178
#
# Static dielectric constant tensor:
#      x y z
#    x 1.855930 0.000000 0.057560 
#    y 0.000000 1.792550 0.000000 
#    z 0.057560 0.000000 1.861820 
# 
# From -- ./inp_files/356951.got.cif
#   From: 2010.05.17/outbox.cif.g08.bks.cpg/sg12_179_cif.got.tgz:356951.got - 2010.06.03 13:09:07.
