data_PCOD9186219
_publ_section_title
;
Structure prediction by ZEFSAII (Michael W. Deem and Ramdas Pophale) SiO2 
 PCOD9186219
Probable space group: C 2/M
;
_chemical_formula_sum "Si O2"
_cell_formula_units_Z 56
_cell_length_a 11.743908
_cell_length_b 25.999845
_cell_length_c 13.453898
_cell_angle_alpha 90.000000
_cell_angle_beta 37.220566
_cell_angle_gamma 90.000000
_cell_volume 2484.873788
_symmetry_space_group_name_H-M "C 2/M"
_symmetry_group_IT_number 12
_symmetry_cell_setting 'monoclinic'
loop_
_space_group_symop_operation_xyz
x,y,z
-x,y,-z
-x,-y,-z
x,-y,z
1/2+x,1/2+y,z
1/2-x,1/2+y,-z
1/2-x,1/2-y,-z
1/2+x,1/2-y,z
loop_
_atom_site_type_symbol
_atom_site_label
_atom_site_fract_x
_atom_site_fract_y
_atom_site_fract_z
Si Si1 0.336123 0.056191 0.697072
Si Si2 0.318984 0.363199 0.504759
Si Si3 0.771033 0.174157 0.735399
Si Si4 0.877879 0.783420 0.187439
Si Si5 0.286761 0.660857 0.943240
Si Si6 0.932104 0.661026 0.712094
Si Si7 0.493336 0.560359 0.229956
O O1 0.500000 0.056963 0.500000
O O2 0.382686 0.100842 0.739691
O O3 0.143635 0.064168 0.770419
O O4 0.331775 0.000000 0.747319
O O5 0.505764 0.329574 0.393468
O O6 0.240782 0.369441 0.672226
O O7 0.383711 0.414042 0.400481
O O8 0.155608 0.335292 0.556524
O O9 0.696394 0.226580 0.740395
O O10 0.695737 0.171197 0.899962
O O11 0.688687 0.814649 0.292029
O O12 0.015730 0.809718 0.171287
O O13 0.000000 0.784061 0.000000
O O14 0.338434 0.600314 0.906509
O O15 0.152385 0.679219 0.124750
O O16 0.535785 0.500000 0.215781
#
# Coordination Sequence:
#
# PCOD9186219 Si02
#       7
#     8   8   8   8   8   8   8
#     4  10  19  34  59  94 126 159 194 248 319 372
#     4  10  23  42  59  92 122 159 212 254 300 357
#     4  10  24  44  59  83 125 165 213 249 301 359
#     4  10  23  39  61  88 124 163 204 248 318 360
#     4  10  23  41  61  92 128 159 207 252 305 371
#     4  11  22  37  63  93 125 159 202 258 303 370
#     4  10  20  40  66  90 126 164 197 248 316 371
#
# _framework density 22.536356999999999
#
# number of rings (size 3 to 8) (size 9 to 14) (size 15 to 20)
#    0.000    1.857    2.857    0.000    4.000    2.286 
#   10.286    7.143    0.000    0.000    0.000   11.000 
#    0.000    0.000    0.000    0.000    0.000    0.000 
#
# Total GULP energy -156333.096894 kJ/mol
# GULP energy per Si atom -5583.324889 kJ/mol
# Density = 2.248506 g / cm^3
# Si number density = 22.536357 Si / 1000 Ang^3
#
#
#
# Elastic Constant Matrix: (Units=GPa)
#
#
# Indices 1 2 3 4 5 6 
#
# 1 109.6828 27.1852 37.0672 0.0000 -20.6046 0.0000
# 2 27.1852 76.0632 17.3360 0.0000 -30.0102 0.0000
# 3 37.0672 17.3360 38.8420 0.0000 -2.2107 0.0000
# 4 0.0000 0.0000 0.0000 20.4986 0.0000 -4.6428
# 5 -20.6046 -30.0102 -2.2107 0.0000 42.5796 0.0000
# 6 0.0000 0.0000 0.0000 -4.6428 0.0000 35.9394
#
#
#
# Elastic Compliance Matrix: (Units=1/GPa)
#
#
# Indices 1 2 3 4 5 6 
#
# 1 0.015113 0.000624 -0.014302 0.000000 0.007011 0.000000
# 2 0.000624 0.020651 -0.008994 0.000000 0.014390 0.000000
# 3 -0.014302 -0.008994 0.042780 0.000000 -0.011039 0.000000
# 4 0.000000 0.000000 0.000000 0.050254 0.000000 0.006492
# 5 0.007011 0.014390 -0.011039 0.000000 0.036447 0.000000
# 6 0.000000 0.000000 0.000000 0.006492 0.000000 0.028663
#
#
# Mechanical properties :
#
#
# Convention : Reuss Voigt Hill
#
# Bulk Modulus (GPa) = 30.11974 43.08496 36.60235
# Shear Modulus (GPa) = 19.97461 29.33682 24.65571
#
# Velocity S-wave (km/s) = 2.98036 3.61190 3.31122
# Velocity P-wave (km/s) = 5.02368 6.04598 5.55838
#
# Compressibility (1/GPa) = 0.03320081
#
# Stress axis : x y z
#
# Youngs Moduli (GPa) = 66.16927 48.42322 23.37568
#
# Poissons Ratio (x) = -0.03023 0.33431
# Poissons Ratio (y) = -0.04131 0.21024
# Poissons Ratio (z) = 0.94634 0.43551
#
# Static dielectric constant tensor:
#      x y z
#    x 1.835580 0.000000 0.040970 
#    y 0.000000 1.823980 0.000000 
#    z 0.040970 0.000000 2.008860 
# 
# From -- ./inp_files/209106.got.cif
#   From: 2010.05.17/outbox.cif.g08.bks.cpg/sg12_105_cif.got.tgz:209106.got - 2010.06.03 13:09:07.
