data_PCOD9186308
_publ_section_title
;
Structure prediction by ZEFSAII (Michael W. Deem and Ramdas Pophale) SiO2 
 PCOD9186308
Probable space group: C 2/M
;
_chemical_formula_sum "Si O2"
_cell_formula_units_Z 64
_cell_length_a 30.123496
_cell_length_b 8.316635
_cell_length_c 16.984366
_cell_angle_alpha 90.000000
_cell_angle_beta 139.399441
_cell_angle_gamma 90.000000
_cell_volume 2769.093603
_symmetry_space_group_name_H-M "C 2/M"
_symmetry_group_IT_number 12
_symmetry_cell_setting 'monoclinic'
loop_
_space_group_symop_operation_xyz
x,y,z
-x,y,-z
-x,-y,-z
x,-y,z
1/2+x,1/2+y,z
1/2-x,1/2+y,-z
1/2-x,1/2-y,-z
1/2+x,1/2-y,z
loop_
_atom_site_type_symbol
_atom_site_label
_atom_site_fract_x
_atom_site_fract_y
_atom_site_fract_z
Si Si1 0.338593 0.308591 0.718354
Si Si2 0.406128 0.691977 0.971373
Si Si3 0.582273 0.196450 0.705917
Si Si4 0.205787 0.310444 0.773501
Si Si5 0.669101 0.190064 0.974801
Si Si6 0.545652 0.691533 0.234877
Si Si7 0.207101 0.184749 0.608141
Si Si8 0.554574 0.186888 0.412338
O O1 0.347761 0.500000 0.729565
O O2 0.375436 0.248439 0.847843
O O3 0.381915 0.251017 0.701989
O O4 0.258914 0.273146 0.619605
O O5 0.390960 0.500000 0.956752
O O6 0.372485 0.774804 0.001441
O O7 0.487384 0.709602 0.090458
O O8 0.630047 0.242493 0.697317
O O9 0.624524 0.245923 0.840561
O O10 0.504330 0.251838 0.609148
O O11 0.579870 0.000000 0.702466
O O12 0.204908 0.500000 0.754995
O O13 0.230385 0.220090 0.728962
O O14 0.258795 0.277592 0.914863
O O15 0.681098 0.000000 0.982317
O O16 0.548447 0.500000 0.258697
O O17 0.525564 0.789185 0.285205
O O18 0.128403 0.234626 0.505386
O O19 0.211990 0.000000 0.594816
O O20 0.564947 0.000000 0.444958
#
# Coordination Sequence:
#
# PCOD9186308 Si02
#       8
#     8   8   8   8   8   8   8   8
#     4  10  21  39  63  90 123 162 200 239 294 359
#     4  10  19  34  60  91 124 161 195 236 294 356
#     4   9  21  39  62  90 122 157 199 243 294 356
#     4  11  22  40  63  89 120 160 200 241 297 360
#     4  11  20  35  59  92 127 158 194 243 292 349
#     4  10  21  38  62  94 125 156 198 247 295 350
#     4  12  26  43  61  87 119 154 201 256 301 350
#     4  11  23  43  65  86 116 159 203 248 300 356
#
# _framework density 23.112258000000001
#
# number of rings (size 3 to 8) (size 9 to 14) (size 15 to 20)
#    0.000    1.500    2.500    3.000    0.000    3.000 
#    0.000    6.875    0.000    2.250    0.000    0.000 
#    0.000    0.000    0.000    0.000    0.000    0.000 
#
# Total GULP energy -178920.735511 kJ/mol
# GULP energy per Si atom -5591.272985 kJ/mol
# Density = 2.305965 g / cm^3
# Si number density = 23.112258 Si / 1000 Ang^3
#
#
#
# Elastic Constant Matrix: (Units=GPa)
#
#
# Indices 1 2 3 4 5 6 
#
# 1 117.7336 -7.1684 3.2715 0.0000 29.7817 0.0000
# 2 -7.1684 9.5164 -4.6411 0.0000 -0.8357 0.0000
# 3 3.2715 -4.6411 66.9332 0.0000 21.7869 0.0000
# 4 0.0000 0.0000 0.0000 22.1123 0.0000 -0.8434
# 5 29.7817 -0.8357 21.7869 0.0000 32.9498 0.0000
# 6 0.0000 0.0000 0.0000 -0.8434 0.0000 17.5846
#
#
#
# Elastic Compliance Matrix: (Units=1/GPa)
#
#
# Indices 1 2 3 4 5 6 
#
# 1 0.012621 0.010577 0.004769 0.000000 -0.014292 0.000000
# 2 0.010577 0.117833 0.012478 0.000000 -0.014822 0.000000
# 3 0.004769 0.012478 0.021500 0.000000 -0.018210 0.000000
# 4 0.000000 0.000000 0.000000 0.045307 0.000000 0.002173
# 5 -0.014292 -0.014822 -0.018210 0.000000 0.054932 0.000000
# 6 0.000000 0.000000 0.000000 0.002173 0.000000 0.056972
#
#
# Mechanical properties :
#
#
# Convention : Reuss Voigt Hill
#
# Bulk Modulus (GPa) = 4.81694 19.67860 12.24777
# Shear Modulus (GPa) = 15.49351 28.04407 21.76879
#
# Velocity S-wave (km/s) = 2.59194 3.48715 3.07232
# Velocity P-wave (km/s) = 3.32358 4.97458 4.23040
#
# Compressibility (1/GPa) = 0.20760089
#
# Stress axis : x y z
#
# Youngs Moduli (GPa) = 79.23609 8.48660 46.51238
#
# Poissons Ratio (x) = -0.08976 -0.22180
# Poissons Ratio (y) = -0.83810 -0.58039
# Poissons Ratio (z) = -0.37784 -0.10590
#
# Static dielectric constant tensor:
#      x y z
#    x 1.861920 0.000000 0.011380 
#    y 0.000000 1.799650 0.000000 
#    z 0.011380 0.000000 1.939060 
# 
# From -- ./inp_files/295803.got.cif
#   From: 2010.05.17/outbox.cif.g08.bks.cpg/sg12_148_cif.got.tgz:295803.got - 2010.06.03 13:09:07.
