data_PCOD9186283
_publ_section_title
;
Structure prediction by ZEFSAII (Michael W. Deem and Ramdas Pophale) SiO2 
 PCOD9186283
Probable space group: C 2/M
;
_chemical_formula_sum "Si O2"
_cell_formula_units_Z 56
_cell_length_a 10.554226
_cell_length_b 15.241979
_cell_length_c 18.693504
_cell_angle_alpha 90.000000
_cell_angle_beta 72.983679
_cell_angle_gamma 90.000000
_cell_volume 2875.523611
_symmetry_space_group_name_H-M "C 2/M"
_symmetry_group_IT_number 12
_symmetry_cell_setting 'monoclinic'
loop_
_space_group_symop_operation_xyz
x,y,z
-x,y,-z
-x,-y,-z
x,-y,z
1/2+x,1/2+y,z
1/2-x,1/2+y,-z
1/2-x,1/2-y,-z
1/2+x,1/2-y,z
loop_
_atom_site_type_symbol
_atom_site_label
_atom_site_fract_x
_atom_site_fract_y
_atom_site_fract_z
Si Si1 0.529062 0.402893 0.302520
Si Si2 0.039339 0.099067 0.853932
Si Si3 0.257375 0.094737 0.603275
Si Si4 0.618002 0.194761 0.530261
Si Si5 0.352300 0.103422 0.833503
Si Si6 0.582190 0.209239 0.317227
Si Si7 0.900902 0.735647 0.950370
O O1 0.591712 0.500000 0.300669
O O2 0.474992 0.398017 0.229859
O O3 0.400562 0.399652 0.375495
O O4 0.605963 0.312836 0.302794
O O5 0.192484 0.111105 0.850925
O O6 0.952708 0.176179 0.902337
O O7 0.998777 0.000000 0.883092
O O8 0.336692 0.105564 0.516372
O O9 0.308668 0.168638 0.648114
O O10 0.288051 0.000000 0.631076
O O11 0.500000 0.232090 0.500000
O O12 0.750000 0.250000 0.500000
O O13 0.556545 0.192398 0.618643
O O14 0.412966 0.156311 0.756865
O O15 0.399306 0.153877 0.896405
O O16 0.384443 0.000000 0.827632
O O17 0.750000 0.750000 0.000000
O O18 0.000000 0.720341 0.000000
#
# Coordination Sequence:
#
# PCOD9186283 Si02
#       7
#     8   8   8   8   8   8   8
#     4  10  19  34  60  89 118 159 208 256 309 369
#     4  10  21  40  66  94 124 164 213 254 305 384
#     4  10  20  35  58  88 122 162 214 263 307 364
#     4  10  21  35  57  92 126 167 209 261 322 364
#     4  11  23  40  64  95 128 166 211 261 315 376
#     4  11  20  34  62  88 124 161 216 261 311 364
#     4  12  25  42  67  97 128 165 206 255 319 375
#
# _framework density 19.474713999999999
#
# number of rings (size 3 to 8) (size 9 to 14) (size 15 to 20)
#    0.000    1.429    5.714    0.429    0.000    4.286 
#    0.000    0.000    0.000   13.714    0.000    0.000 
#    0.000    0.000    0.000    0.000    0.000    0.000 
#
# Total GULP energy -156184.021717 kJ/mol
# GULP energy per Si atom -5578.000776 kJ/mol
# Density = 1.943039 g / cm^3
# Si number density = 19.474714 Si / 1000 Ang^3
#
#
#
# Elastic Constant Matrix: (Units=GPa)
#
#
# Indices 1 2 3 4 5 6 
#
# 1 65.3250 45.0308 25.5047 0.0000 -11.7038 0.0000
# 2 45.0308 191.9103 56.8669 0.0000 -3.0410 0.0000
# 3 25.5047 56.8669 98.7574 0.0000 -14.5140 0.0000
# 4 0.0000 0.0000 0.0000 23.8926 0.0000 2.5433
# 5 -11.7038 -3.0410 -14.5140 0.0000 22.0879 0.0000
# 6 0.0000 0.0000 0.0000 2.5433 0.0000 30.9423
#
#
#
# Elastic Compliance Matrix: (Units=1/GPa)
#
#
# Indices 1 2 3 4 5 6 
#
# 1 0.020456 -0.004210 -0.001495 0.000000 0.009277 0.000000
# 2 -0.004210 0.007206 -0.003591 0.000000 -0.003598 0.000000
# 3 -0.001495 -0.003591 0.013715 0.000000 0.007725 0.000000
# 4 0.000000 0.000000 0.000000 0.042223 0.000000 -0.003471
# 5 0.009277 -0.003598 0.007725 0.000000 0.054770 0.000000
# 6 0.000000 0.000000 0.000000 -0.003471 0.000000 0.032603
#
#
# Mechanical properties :
#
#
# Convention : Reuss Voigt Hill
#
# Bulk Modulus (GPa) = 43.88908 67.86638 55.87773
# Shear Modulus (GPa) = 25.36008 30.62393 27.99200
#
# Velocity S-wave (km/s) = 3.61252 3.96977 3.79535
# Velocity P-wave (km/s) = 6.32343 7.47905 6.92539
#
# Compressibility (1/GPa) = 0.02278471
#
# Stress axis : x y z
#
# Youngs Moduli (GPa) = 48.88560 138.78177 72.91267
#
# Poissons Ratio (x) = 0.58424 0.10903
# Poissons Ratio (y) = 0.20580 0.26181
# Poissons Ratio (z) = 0.07310 0.49833
#
# Static dielectric constant tensor:
#      x y z
#    x 1.672760 0.000000 -0.001430 
#    y 0.000000 1.712060 0.000000 
#    z -0.001430 0.000000 1.723640 
# 
# From -- ./inp_files/262826.got.cif
#   From: 2010.05.17/outbox.cif.g08.bks.cpg/sg12_132_cif.got.tgz:262826.got - 2010.06.03 13:09:07.
