data_PCOD9186493
_publ_section_title
;
Structure prediction by ZEFSAII (Michael W. Deem and Ramdas Pophale) SiO2 
 PCOD9186493
Probable space group: C 2/M
;
_chemical_formula_sum "Si O2"
_cell_formula_units_Z 56
_cell_length_a 14.292977
_cell_length_b 30.182906
_cell_length_c 16.392399
_cell_angle_alpha 90.000000
_cell_angle_beta 153.881184
_cell_angle_gamma 90.000000
_cell_volume 3113.220646
_symmetry_space_group_name_H-M "C 2/M"
_symmetry_group_IT_number 12
_symmetry_cell_setting 'monoclinic'
loop_
_space_group_symop_operation_xyz
x,y,z
-x,y,-z
-x,-y,-z
x,-y,z
1/2+x,1/2+y,z
1/2-x,1/2+y,-z
1/2-x,1/2-y,-z
1/2+x,1/2-y,z
loop_
_atom_site_type_symbol
_atom_site_label
_atom_site_fract_x
_atom_site_fract_y
_atom_site_fract_z
Si Si1 0.312594 0.051867 0.796204
Si Si2 0.679052 0.774954 0.751880
Si Si3 0.851107 0.141367 0.574564
Si Si4 0.813178 0.211079 0.681437
Si Si5 0.796485 0.324701 0.890732
Si Si6 0.663500 0.551926 0.506110
Si Si7 0.969277 0.302435 0.200083
O O1 0.286785 0.069075 0.683888
O O2 0.084344 0.052887 0.661475
O O3 0.360249 0.000000 0.819838
O O4 0.500000 0.068914 0.000000
O O5 0.429052 0.776149 0.532923
O O6 0.808598 0.792560 0.775630
O O7 0.745432 0.724645 0.819055
O O8 0.685192 0.800317 0.842689
O O9 0.862157 0.166480 0.670073
O O10 0.800352 0.089211 0.533881
O O11 0.674592 0.168932 0.386206
O O12 0.081022 0.147931 0.713132
O O13 0.956557 0.252051 0.762574
O O14 0.000000 0.339790 0.000000
O O15 0.861194 0.321724 0.035655
O O16 0.713870 0.500000 0.527440
#
# Coordination Sequence:
#
# PCOD9186493 Si02
#       7
#     8   8   8   8   8   8   8
#     4   8  15  31  53  73  96 131 172 211 262 321
#     4  10  19  35  53  74 101 143 174 208 257 315
#     4  11  23  37  49  77 109 136 182 221 254 316
#     4  10  19  36  57  71 105 143 172 217 265 301
#     4  12  23  32  53  78 107 143 176 212 259 309
#     4   9  19  34  52  72 101 138 174 220 268 311
#     4  11  21  36  54  74 106 138 174 218 263 311
#
# _framework density 17.987801999999999
#
# number of rings (size 3 to 8) (size 9 to 14) (size 15 to 20)
#    0.000    1.857    4.286    2.143    0.000    4.571 
#    0.000    0.000    0.000    0.000    0.000    8.000 
#    0.000    1.143    0.000    0.000    0.000    3.714 
#
# Total GULP energy -156274.982912 kJ/mol
# GULP energy per Si atom -5581.249390 kJ/mol
# Density = 1.794686 g / cm^3
# Si number density = 17.987802 Si / 1000 Ang^3
#
#
#
# Elastic Constant Matrix: (Units=GPa)
#
#
# Indices 1 2 3 4 5 6 
#
# 1 91.7831 41.7311 38.3381 0.0001 -6.2663 -0.0003
# 2 41.7311 110.4315 29.3768 0.0001 -11.6293 0.0000
# 3 38.3381 29.3768 82.5927 -0.0001 -2.0370 -0.0003
# 4 0.0001 0.0001 -0.0001 -2.6827 0.0000 -5.8041
# 5 -6.2663 -11.6293 -2.0370 0.0000 28.2893 -0.0005
# 6 -0.0003 0.0000 -0.0003 -5.8041 -0.0005 14.3295
#
#
#
# Elastic Compliance Matrix: (Units=1/GPa)
#
#
# Indices 1 2 3 4 5 6 
#
# 1 0.015174 -0.004126 -0.005545 0.000000 0.001266 0.000000
# 2 -0.004126 0.011563 -0.002107 0.000000 0.003688 0.000000
# 3 -0.005545 -0.002107 0.015406 -0.000001 -0.000985 0.000000
# 4 0.000000 0.000000 -0.000001 -0.198661 -0.000001 -0.080467
# 5 0.001266 0.003688 -0.000985 -0.000001 0.037075 0.000001
# 6 0.000000 0.000000 0.000000 -0.080467 0.000001 0.037193
#
#
# Mechanical properties :
#
#
# Convention : Reuss Voigt Hill
#
# Bulk Modulus (GPa) = 53.79551 55.96658 54.88104
# Shear Modulus (GPa) = -95.23882 19.67795 -37.78044
#
# Velocity S-wave (km/s) = -7.28432 3.31110 -4.58791
# Velocity P-wave (km/s) = 6.38567 6.76749 1.58464
#
# Compressibility (1/GPa) = 0.01858891
#
# Stress axis : x y z
#
# Youngs Moduli (GPa) = 65.90437 86.48080 64.90806
#
# Poissons Ratio (x) = 0.35679 0.35989
# Poissons Ratio (y) = 0.27190 0.13675
# Poissons Ratio (z) = 0.36542 0.18220
#
# Static dielectric constant tensor:
#      x y z
#    x 1.629440 0.000000 -0.005210 
#    y 0.000000 1.616570 0.000000 
#    z -0.005210 0.000000 1.676410 
# 
# From -- ./inp_files/219156.got.cif
#   From: 2010.05.17/outbox.cif.g08.bks.cpg/sg12_110_cif.got.tgz:219156.got - 2010.06.03 13:09:07.
