data_PCOD9186553
_publ_section_title
;
Structure prediction by ZEFSAII (Michael W. Deem and Ramdas Pophale) SiO2 
 PCOD9186553
Probable space group: C 2/M
;
_chemical_formula_sum "Si O2"
_cell_formula_units_Z 48
_cell_length_a 12.773582
_cell_length_b 25.378110
_cell_length_c 15.422515
_cell_angle_alpha 90.000000
_cell_angle_beta 152.144810
_cell_angle_gamma 90.000000
_cell_volume 2335.962101
_symmetry_space_group_name_H-M "C 2/M"
_symmetry_group_IT_number 12
_symmetry_cell_setting 'monoclinic'
loop_
_space_group_symop_operation_xyz
x,y,z
-x,y,-z
-x,-y,-z
x,-y,z
1/2+x,1/2+y,z
1/2-x,1/2+y,-z
1/2-x,1/2-y,-z
1/2+x,1/2-y,z
loop_
_atom_site_type_symbol
_atom_site_label
_atom_site_fract_x
_atom_site_fract_y
_atom_site_fract_z
Si Si1 0.830865 0.177253 0.142361
Si Si2 0.804941 0.687266 0.534444
Si Si3 0.473519 0.114397 0.803076
Si Si4 0.500000 0.412229 0.500000
Si Si5 0.012418 0.772242 0.099356
Si Si6 0.058724 0.500000 0.895632
Si Si7 0.000000 0.285914 0.500000
Si Si8 0.637194 0.500000 0.720800
O O1 0.053095 0.165124 0.358737
O O2 0.932770 0.195196 0.123940
O O3 0.668251 0.128664 0.012303
O O4 0.665635 0.225274 0.045427
O O5 0.750000 0.750000 0.500000
O O6 0.959292 0.659164 0.718490
O O7 0.926227 0.681299 0.530606
O O8 0.526455 0.053833 0.818183
O O9 0.232033 0.118010 0.670743
O O10 0.501456 0.449637 0.586417
O O11 0.270170 0.755575 0.307193
O O12 0.000000 0.803429 0.000000
O O13 0.855497 0.500000 0.817103
O O14 0.278565 0.500000 0.118807
#
# Coordination Sequence:
#
# PCOD9186553 Si02
#       8
#     8   8   8   4   8   4   4   4
#     4  10  22  34  51  83 113 143 189 239 282 341
#     4  11  23  39  59  84 121 156 200 244 290 358
#     4  11  22  38  55  88 115 157 197 241 293 350
#     4   9  20  33  60  87 124 157 192 240 286 358
#     4  10  19  35  54  76 110 151 187 230 284 341
#     4   9  20  36  62  78 118 156 198 245 294 355
#     4  10  20  35  58  80 110 162 188 241 296 344
#     4   8  16  38  56  85 118 158 193 235 299 346
#
# _framework density 20.548278
#
# number of rings (size 3 to 8) (size 9 to 14) (size 15 to 20)
#    0.000    2.000    0.000    5.500    2.333    4.000 
#    3.000    0.000    0.000    0.500    0.000   11.083 
#    0.000    0.000    0.000    0.000    0.000    0.000 
#
# Total GULP energy -133817.099578 kJ/mol
# GULP energy per Si atom -5575.712482 kJ/mol
# Density = 2.050151 g / cm^3
# Si number density = 20.548278 Si / 1000 Ang^3
#
#
#
# Elastic Constant Matrix: (Units=GPa)
#
#
# Indices 1 2 3 4 5 6 
#
# 1 62.1378 4.0216 21.7602 0.0001 3.8723 -0.0003
# 2 4.0216 74.0562 15.4202 -0.0001 -3.2285 0.0000
# 3 21.7602 15.4202 142.1978 -0.0001 14.8854 -0.0008
# 4 0.0001 -0.0001 -0.0001 30.6179 0.0000 -1.3794
# 5 3.8723 -3.2285 14.8854 0.0000 35.2576 -0.0005
# 6 -0.0003 0.0000 -0.0008 -1.3794 -0.0005 -0.3095
#
#
#
# Elastic Compliance Matrix: (Units=1/GPa)
#
#
# Indices 1 2 3 4 5 6 
#
# 1 0.017041 -0.000450 -0.002468 0.000000 -0.000871 -0.000005
# 2 -0.000450 0.013961 -0.001657 0.000000 0.002028 -0.000001
# 3 -0.002468 -0.001657 0.007928 0.000000 -0.003228 -0.000010
# 4 0.000000 0.000000 0.000000 0.027199 -0.000001 -0.121231
# 5 -0.000871 0.002028 -0.003228 -0.000001 0.030007 -0.000033
# 6 -0.000005 -0.000001 -0.000010 -0.121231 -0.000033 -2.690833
#
#
# Mechanical properties :
#
#
# Convention : Reuss Voigt Hill
#
# Bulk Modulus (GPa) = 33.57932 40.08841 36.83387
# Shear Modulus (GPa) = -1.94128 28.92586 13.49229
#
# Velocity S-wave (km/s) = -0.97303 3.75601 2.56523
# Velocity P-wave (km/s) = 3.88777 6.19369 5.17091
#
# Compressibility (1/GPa) = 0.02978023
#
# Stress axis : x y z
#
# Youngs Moduli (GPa) = 58.68258 71.62726 126.13979
#
# Poissons Ratio (x) = 0.03220 0.31129
# Poissons Ratio (y) = 0.02638 0.20907
# Poissons Ratio (z) = 0.14482 0.11872
#
# Static dielectric constant tensor:
#      x y z
#    x 1.769780 0.000000 -0.025910 
#    y 0.000000 1.789210 0.000000 
#    z -0.025910 0.000000 1.804070 
# 
# From -- ./inp_files/209518.got.cif
#   From: 2010.05.17/outbox.cif.g08.bks.cpg/sg12_105_cif.got.tgz:209518.got - 2010.06.03 13:09:07.
