data_PCOD9186821
_publ_section_title
;
Structure prediction by ZEFSAII (Michael W. Deem and Ramdas Pophale) SiO2 
 PCOD9186821
Probable space group: C 2/M
;
_chemical_formula_sum "Si O2"
_cell_formula_units_Z 50
_cell_length_a 29.726601
_cell_length_b 7.380620
_cell_length_c 10.519152
_cell_angle_alpha 90.000000
_cell_angle_beta 57.428007
_cell_angle_gamma 90.000000
_cell_volume 1944.911715
_symmetry_space_group_name_H-M "C 2/M"
_symmetry_group_IT_number 12
_symmetry_cell_setting 'monoclinic'
loop_
_space_group_symop_operation_xyz
x,y,z
-x,y,-z
-x,-y,-z
x,-y,z
1/2+x,1/2+y,z
1/2-x,1/2+y,-z
1/2-x,1/2-y,-z
1/2+x,1/2-y,z
loop_
_atom_site_type_symbol
_atom_site_label
_atom_site_fract_x
_atom_site_fract_y
_atom_site_fract_z
Si Si1 0.552877 0.794619 0.366835
Si Si2 0.832826 0.707851 0.159955
Si Si3 0.998253 0.703336 0.824841
Si Si4 0.000000 0.000000 0.000000
Si Si5 0.285514 0.780358 0.686141
Si Si6 0.332848 0.778133 0.869549
Si Si7 0.120080 0.279470 0.646163
O O1 0.500000 0.702413 0.500000
O O2 0.537933 0.806931 0.242850
O O3 0.611674 0.720676 0.282017
O O4 0.555208 0.000000 0.421400
O O5 0.852125 0.500000 0.118868
O O6 0.769721 0.711061 0.286590
O O7 0.862067 0.782879 0.240441
O O8 0.834122 0.785880 0.013803
O O9 0.004037 0.500000 0.862498
O O10 0.058872 0.775647 0.709141
O O11 0.971700 0.840805 0.960065
O O12 0.289868 0.722914 0.828311
O O13 0.336274 0.722928 0.524573
O O14 0.284285 0.000000 0.686544
O O15 0.332457 0.000000 0.874774
O O16 0.120778 0.500000 0.643822
#
# Coordination Sequence:
#
# PCOD9186821 Si02
#       7
#     8   8   8   2   8   8   8
#     4   9  17  33  62  92 113 152 207 250 302 372
#     4  10  20  34  52  79 113 147 191 237 292 355
#     4  10  22  41  64  88 125 165 200 252 311 361
#     4  12  26  40  58  94 128 160 214 250 296 366
#     4  10  19  35  56  81 111 147 192 243 292 353
#     4   9  18  31  53  81 112 145 189 241 290 355
#     4   9  19  36  59  82 109 151 195 236 295 359
#
# _framework density 25.708110000000001
#
# number of rings (size 3 to 8) (size 9 to 14) (size 15 to 20)
#    0.000    2.400    0.000    2.160    2.240    3.840 
#    2.880    0.400    1.760    0.000    0.000    0.000 
#    0.000    0.000    0.000    0.000    0.000    0.000 
#
# Total GULP energy -139430.679834 kJ/mol
# GULP energy per Si atom -5577.227193 kJ/mol
# Density = 2.564960 g / cm^3
# Si number density = 25.708110 Si / 1000 Ang^3
#
#
#
# Elastic Constant Matrix: (Units=GPa)
#
#
# Indices 1 2 3 4 5 6 
#
# 1 107.2542 -7.6397 18.3484 0.0000 -4.5162 0.0000
# 2 -7.6397 113.4960 5.3348 0.0000 10.8105 0.0000
# 3 18.3484 5.3348 92.7162 0.0000 -2.5560 0.0000
# 4 0.0000 0.0000 0.0000 -15.9428 0.0000 2.1409
# 5 -4.5162 10.8105 -2.5560 0.0000 42.4273 0.0000
# 6 0.0000 0.0000 0.0000 2.1409 0.0000 8.9673
#
#
#
# Elastic Compliance Matrix: (Units=1/GPa)
#
#
# Indices 1 2 3 4 5 6 
#
# 1 0.009736 0.000676 -0.001945 0.000000 0.000747 0.000000
# 2 0.000676 0.009109 -0.000721 0.000000 -0.002292 0.000000
# 3 -0.001945 -0.000721 0.011230 0.000000 0.000653 0.000000
# 4 0.000000 0.000000 0.000000 -0.060776 0.000000 0.014510
# 5 0.000747 -0.002292 0.000653 0.000000 0.024273 0.000000
# 6 0.000000 0.000000 0.000000 0.014510 0.000000 0.108052
#
#
# Mechanical properties :
#
#
# Convention : Reuss Voigt Hill
#
# Bulk Modulus (GPa) = 38.32330 38.39483 38.35906
# Shear Modulus (GPa) = 43.74363 26.91856 35.33110
#
# Velocity S-wave (km/s) = 4.12946 3.23938 3.71120
# Velocity P-wave (km/s) = 6.13808 5.38134 5.77212
#
# Compressibility (1/GPa) = 0.02609379
#
# Stress axis : x y z
#
# Youngs Moduli (GPa) = 102.71192 109.78639 89.04713
#
# Poissons Ratio (x) = -0.07417 0.17320
# Poissons Ratio (y) = -0.06939 0.06420
# Poissons Ratio (z) = 0.19978 0.07916
#
# Static dielectric constant tensor:
#      x y z
#    x 1.853730 0.000000 -0.104850 
#    y 0.000000 2.021590 0.000000 
#    z -0.104850 0.000000 2.019810 
# 
# From -- ./inp_files/186309.got.cif
#   From: 2010.05.17/outbox.cif.g08.bks.cpg/sg12_94_cif.got.tgz:186309.got - 2010.06.03 13:09:07.
