data_PCOD9186791
_publ_section_title
;
Structure prediction by ZEFSAII (Michael W. Deem and Ramdas Pophale) SiO2 
 PCOD9186791
Probable space group: C 2/M
;
_chemical_formula_sum "Si O2"
_cell_formula_units_Z 64
_cell_length_a 30.644765
_cell_length_b 8.567559
_cell_length_c 12.086267
_cell_angle_alpha 90.000000
_cell_angle_beta 93.514538
_cell_angle_gamma 90.000000
_cell_volume 3167.291434
_symmetry_space_group_name_H-M "C 2/M"
_symmetry_group_IT_number 12
_symmetry_cell_setting 'monoclinic'
loop_
_space_group_symop_operation_xyz
x,y,z
-x,y,-z
-x,-y,-z
x,-y,z
1/2+x,1/2+y,z
1/2-x,1/2+y,-z
1/2-x,1/2-y,-z
1/2+x,1/2-y,z
loop_
_atom_site_type_symbol
_atom_site_label
_atom_site_fract_x
_atom_site_fract_y
_atom_site_fract_z
Si Si1 0.108460 0.811192 0.019399
Si Si2 0.163162 0.185221 0.682192
Si Si3 0.079260 0.314329 0.791521
Si Si4 0.255870 0.317798 0.713788
Si Si5 0.501810 0.188852 0.372242
Si Si6 0.794079 0.180449 0.957350
Si Si7 0.829972 0.809826 0.571289
Si Si8 0.588174 0.311034 0.265896
O O1 0.078526 0.757237 0.913915
O O2 0.110304 0.000000 0.020562
O O3 0.158346 0.752003 0.006968
O O4 0.092920 0.761081 0.138794
O O5 0.125262 0.267774 0.744059
O O6 0.211696 0.225877 0.730686
O O7 0.162372 0.236664 0.553623
O O8 0.156111 0.000000 0.687187
O O9 0.076308 0.500000 0.800187
O O10 0.040472 0.259328 0.704586
O O11 0.244268 0.500000 0.694511
O O12 0.287914 0.312428 0.824077
O O13 0.283893 0.255903 0.614976
O O14 0.500000 0.241520 0.500000
O O15 0.544990 0.248516 0.318009
O O16 0.502275 0.000000 0.373163
O O17 0.794845 0.000000 0.991646
O O18 0.750000 0.250000 0.000000
O O19 0.869718 0.760564 0.656071
O O20 0.828395 0.000000 0.573863
O O21 0.587369 0.500000 0.267044
#
# Coordination Sequence:
#
# PCOD9186791 Si02
#       8
#     8   8   8   8   8   8   8   8
#     4  10  21  39  61  86 118 152 192 243 291 341
#     4  11  22  35  55  85 118 151 193 244 291 340
#     4  11  24  41  60  83 115 154 193 235 290 350
#     4  10  19  35  56  79 113 155 194 233 287 348
#     4  10  23  43  64  88 119 153 191 238 292 350
#     4  10  20  34  54  78 110 153 196 238 282 332
#     4   9  18  35  58  84 116 152 191 237 289 345
#     4  10  20  38  65  91 116 152 196 241 293 347
#
# _framework density 20.206537999999998
#
# number of rings (size 3 to 8) (size 9 to 14) (size 15 to 20)
#    0.000    1.875    1.250    2.625    0.000    5.250 
#    0.000    4.375    0.000    0.000    0.000    0.000 
#    0.000    0.000    0.000    0.000    0.000    0.000 
#
# Total GULP energy -178765.566534 kJ/mol
# GULP energy per Si atom -5586.423954 kJ/mol
# Density = 2.016055 g / cm^3
# Si number density = 20.206538 Si / 1000 Ang^3
#
#
#
# Elastic Constant Matrix: (Units=GPa)
#
#
# Indices 1 2 3 4 5 6 
#
# 1 113.0757 9.3046 37.9725 0.0000 4.0958 0.0000
# 2 9.3046 9.4686 16.7838 0.0000 1.0436 0.0000
# 3 37.9725 16.7838 82.4530 0.0000 8.2497 0.0000
# 4 0.0000 0.0000 0.0000 26.0721 0.0000 -0.4944
# 5 4.0958 1.0436 8.2497 0.0000 36.1938 0.0000
# 6 0.0000 0.0000 0.0000 -0.4944 0.0000 24.5781
#
#
#
# Elastic Compliance Matrix: (Units=1/GPa)
#
#
# Indices 1 2 3 4 5 6 
#
# 1 0.010507 -0.002749 -0.004266 0.000000 -0.000138 0.000000
# 2 -0.002749 0.166263 -0.032879 0.000000 0.003011 0.000000
# 3 -0.004266 -0.032879 0.021124 0.000000 -0.003384 0.000000
# 4 0.000000 0.000000 0.000000 0.038370 0.000000 0.000772
# 5 -0.000138 0.003011 -0.003384 0.000000 0.028329 0.000000
# 6 0.000000 0.000000 0.000000 0.000772 0.000000 0.040702
#
#
# Mechanical properties :
#
#
# Convention : Reuss Voigt Hill
#
# Bulk Modulus (GPa) = 8.46691 37.01323 22.74007
# Shear Modulus (GPa) = 11.77989 26.76455 19.27222
#
# Velocity S-wave (km/s) = 2.41711 3.64338 3.09165
# Velocity P-wave (km/s) = 3.46253 6.00468 4.90129
#
# Compressibility (1/GPa) = 0.11810682
#
# Stress axis : x y z
#
# Youngs Moduli (GPa) = 95.17204 6.01456 47.33961
#
# Poissons Ratio (x) = 0.01653 0.20193
# Poissons Ratio (y) = 0.26163 1.55649
# Poissons Ratio (z) = 0.40597 0.19775
#
# Static dielectric constant tensor:
#      x y z
#    x 1.694480 0.000000 0.008380 
#    y 0.000000 1.695670 0.000000 
#    z 0.008380 0.000000 1.734510 
# 
# From -- ./inp_files/187514.got.cif
#   From: 2010.05.17/outbox.cif.g08.bks.cpg/sg12_94_cif.got.tgz:187514.got - 2010.06.03 13:09:07.
