data_PCOD9186700
_publ_section_title
;
Structure prediction by ZEFSAII (Michael W. Deem and Ramdas Pophale) SiO2 
 PCOD9186700
Probable space group: C 2/M
;
_chemical_formula_sum "Si O2"
_cell_formula_units_Z 48
_cell_length_a 19.625459
_cell_length_b 12.892589
_cell_length_c 13.472697
_cell_angle_alpha 90.000000
_cell_angle_beta 43.492827
_cell_angle_gamma 90.000000
_cell_volume 2346.223636
_symmetry_space_group_name_H-M "C 2/M"
_symmetry_group_IT_number 12
_symmetry_cell_setting 'monoclinic'
loop_
_space_group_symop_operation_xyz
x,y,z
-x,y,-z
-x,-y,-z
x,-y,z
1/2+x,1/2+y,z
1/2-x,1/2+y,-z
1/2-x,1/2-y,-z
1/2+x,1/2-y,z
loop_
_atom_site_type_symbol
_atom_site_label
_atom_site_fract_x
_atom_site_fract_y
_atom_site_fract_z
Si Si1 0.615875 0.613143 0.361060
Si Si2 0.824742 0.382095 0.500070
Si Si3 0.282477 0.199417 0.863015
Si Si4 0.774444 0.326578 0.331936
Si Si5 0.589449 0.748116 0.973377
Si Si6 0.461851 0.882656 0.778362
O O1 0.500000 0.624367 0.500000
O O2 0.634399 0.500000 0.293653
O O3 0.661178 0.709071 0.254537
O O4 0.675624 0.617099 0.400572
O O5 0.805916 0.500000 0.553418
O O6 0.810126 0.373054 0.397040
O O7 0.755208 0.294165 0.619621
O O8 0.940890 0.355459 0.388911
O O9 0.180265 0.174245 0.913597
O O10 0.366158 0.119737 0.808157
O O11 0.250000 0.250000 0.000000
O O12 0.855650 0.329279 0.158915
O O13 0.500000 0.704615 0.000000
O O14 0.551021 0.805721 0.113811
O O15 0.476041 0.000000 0.800587
#
# Coordination Sequence:
#
# PCOD9186700 Si02
#       6
#     8   8   8   8   8   8
#     4  10  20  35  56  79 106 142 189 231 272 324
#     4  10  20  34  55  83 112 144 181 224 282 337
#     4   9  20  34  53  80 114 147 174 225 278 334
#     4  10  20  34  55  81 113 144 179 235 276 327
#     4  10  19  35  55  83 108 144 186 228 276 318
#     4  10  20  35  58  87 114 142 181 230 283 335
#
# _framework density 20.458407999999999
#
# number of rings (size 3 to 8) (size 9 to 14) (size 15 to 20)
#    0.000    2.167    1.667    1.500    0.000    7.000 
#    0.000    3.333    0.000   12.000    0.000    0.000 
#    0.000    0.000    0.000    0.000    0.000    0.000 
#
# Total GULP energy -133709.549954 kJ/mol
# GULP energy per Si atom -5571.231248 kJ/mol
# Density = 2.041184 g / cm^3
# Si number density = 20.458408 Si / 1000 Ang^3
#
#
#
# Elastic Constant Matrix: (Units=GPa)
#
#
# Indices 1 2 3 4 5 6 
#
# 1 129.6548 0.1838 11.6515 0.0000 -29.6328 0.0000
# 2 0.1838 75.0303 14.8517 0.0000 -4.3427 0.0000
# 3 11.6515 14.8517 32.9961 0.0000 -9.9676 0.0000
# 4 0.0000 0.0000 0.0000 -4.6644 0.0000 18.7230
# 5 -29.6328 -4.3427 -9.9676 0.0000 34.3067 0.0000
# 6 0.0000 0.0000 0.0000 18.7230 0.0000 -20.0184
#
#
#
# Elastic Compliance Matrix: (Units=1/GPa)
#
#
# Indices 1 2 3 4 5 6 
#
# 1 0.009672 0.000699 -0.001293 0.000000 0.008067 0.000000
# 2 0.000699 0.014682 -0.006700 0.000000 0.000516 0.000000
# 3 -0.001293 -0.006700 0.036378 0.000000 0.008604 0.000000
# 4 0.000000 0.000000 0.000000 0.077839 0.000000 0.072802
# 5 0.008067 0.000516 0.008604 0.000000 0.038682 0.000000
# 6 0.000000 0.000000 0.000000 0.072802 0.000000 0.018137
#
#
# Mechanical properties :
#
#
# Convention : Reuss Voigt Hill
#
# Bulk Modulus (GPa) = 21.67084 32.33946 27.00515
# Shear Modulus (GPa) = 22.18685 15.99105 19.08895
#
# Velocity S-wave (km/s) = 3.29673 2.79881 3.05792
# Velocity P-wave (km/s) = 5.01067 5.12701 5.06917
#
# Compressibility (1/GPa) = 0.04614495
#
# Stress axis : x y z
#
# Youngs Moduli (GPa) = 103.39448 68.10951 27.48916
#
# Poissons Ratio (x) = -0.04762 0.03555
# Poissons Ratio (y) = -0.07229 0.18417
# Poissons Ratio (z) = 0.13370 0.45630
#
# Static dielectric constant tensor:
#      x y z
#    x 1.772250 0.000000 -0.034690 
#    y 0.000000 1.703430 0.000000 
#    z -0.034690 0.000000 1.726240 
# 
# From -- ./inp_files/232791.got.cif
#   From: 2010.05.17/outbox.cif.g08.bks.cpg/sg12_117_cif.got.tgz:232791.got - 2010.06.03 13:09:07.
