data_PCOD9186310
_publ_section_title
;
Structure prediction by ZEFSAII (Michael W. Deem and Ramdas Pophale) SiO2 
 PCOD9186310
Probable space group: C 2/M
;
_chemical_formula_sum "Si O2"
_cell_formula_units_Z 60
_cell_length_a 21.608317
_cell_length_b 16.620450
_cell_length_c 12.363851
_cell_angle_alpha 90.000000
_cell_angle_beta 139.010887
_cell_angle_gamma 90.000000
_cell_volume 2912.496761
_symmetry_space_group_name_H-M "C 2/M"
_symmetry_group_IT_number 12
_symmetry_cell_setting 'monoclinic'
loop_
_space_group_symop_operation_xyz
x,y,z
-x,y,-z
-x,-y,-z
x,-y,z
1/2+x,1/2+y,z
1/2-x,1/2+y,-z
1/2-x,1/2-y,-z
1/2+x,1/2-y,z
loop_
_atom_site_type_symbol
_atom_site_label
_atom_site_fract_x
_atom_site_fract_y
_atom_site_fract_z
Si Si1 0.000000 0.816101 0.500000
Si Si2 0.398380 0.835140 0.912047
Si Si3 0.341964 0.902476 0.612823
Si Si4 0.331413 0.207317 0.183200
Si Si5 0.659455 0.667472 0.071748
Si Si6 0.860946 0.096161 0.729915
Si Si7 0.456574 0.091853 0.201083
Si Si8 0.500498 0.597154 0.723204
O O1 0.092547 0.764580 0.656836
O O2 0.024694 0.870028 0.427974
O O3 0.344454 0.867565 0.736938
O O4 0.500000 0.808363 0.000000
O O5 0.352924 0.760601 0.913551
O O6 0.416891 0.902713 0.026289
O O7 0.245684 0.875865 0.431170
O O8 0.435615 0.878242 0.670717
O O9 0.344516 0.000000 0.622852
O O10 0.394092 0.148458 0.192849
O O11 0.250000 0.250000 0.000000
O O12 0.268900 0.157431 0.187113
O O13 0.598352 0.637098 0.890212
O O14 0.617538 0.621704 0.120186
O O15 0.926872 0.124390 0.719107
O O16 0.863499 0.000000 0.728896
O O17 0.456183 0.000000 0.238479
O O18 0.506645 0.500000 0.731096
#
# Coordination Sequence:
#
# PCOD9186310 Si02
#       8
#     4   8   8   8   8   8   8   8
#     4  12  27  48  71  96 146 176 232 290 333 412
#     4  10  19  34  60  91 125 165 211 270 333 393
#     4   9  20  38  60  95 131 165 220 279 337 402
#     4  12  26  47  66  98 135 182 228 281 344 402
#     4  12  24  42  65  97 134 177 227 272 339 408
#     4  10  23  41  65  97 132 172 220 280 342 406
#     4  10  21  40  64  90 127 175 221 273 333 401
#     4  11  24  45  72 101 135 180 229 282 341 405
#
# _framework density 20.60088
#
# number of rings (size 3 to 8) (size 9 to 14) (size 15 to 20)
#    0.000    1.333    2.667    2.200    3.733    5.333 
#    0.000    0.333    0.000    0.000    0.000    0.000 
#    0.000    0.000    0.000    0.000    0.000    0.000 
#
# Total GULP energy -167530.858099 kJ/mol
# GULP energy per Si atom -5584.361937 kJ/mol
# Density = 2.055399 g / cm^3
# Si number density = 20.600880 Si / 1000 Ang^3
#
#
#
# Elastic Constant Matrix: (Units=GPa)
#
#
# Indices 1 2 3 4 5 6 
#
# 1 145.0066 49.1957 44.4073 0.0000 -3.9854 0.0000
# 2 49.1957 43.7191 28.5027 0.0000 11.1644 0.0000
# 3 44.4073 28.5027 102.2038 0.0000 -2.5744 0.0000
# 4 0.0000 0.0000 0.0000 28.8521 0.0000 -2.2906
# 5 -3.9854 11.1644 -2.5744 0.0000 27.7457 0.0000
# 6 0.0000 0.0000 0.0000 -2.2906 0.0000 26.6644
#
#
#
# Elastic Compliance Matrix: (Units=1/GPa)
#
#
# Indices 1 2 3 4 5 6 
#
# 1 0.012783 -0.015856 -0.000928 0.000000 0.008130 0.000000
# 2 -0.015856 0.052273 -0.008295 0.000000 -0.024081 0.000000
# 3 -0.000928 -0.008295 0.012611 0.000000 0.004375 0.000000
# 4 0.000000 0.000000 0.000000 0.034898 0.000000 0.002998
# 5 0.008130 -0.024081 0.004375 0.000000 0.047305 0.000000
# 6 0.000000 0.000000 0.000000 0.002998 0.000000 0.037761
#
#
# Mechanical properties :
#
#
# Convention : Reuss Voigt Hill
#
# Bulk Modulus (GPa) = 36.35069 59.46011 47.90540
# Shear Modulus (GPa) = 19.45851 27.90737 23.68294
#
# Velocity S-wave (km/s) = 3.07668 3.68458 3.39427
# Velocity P-wave (km/s) = 5.50498 6.85762 6.21819
#
# Compressibility (1/GPa) = 0.02750979
#
# Stress axis : x y z
#
# Youngs Moduli (GPa) = 78.22842 19.13040 79.29631
#
# Poissons Ratio (x) = 0.30333 0.07355
# Poissons Ratio (y) = 1.24038 0.65777
# Poissons Ratio (z) = 0.07256 0.15869
#
# Static dielectric constant tensor:
#      x y z
#    x 1.744490 0.000000 -0.004590 
#    y 0.000000 1.739240 0.000000 
#    z -0.004590 0.000000 1.750840 
# 
# From -- ./inp_files/168969.got.cif
#   From: 2010.05.17/outbox.cif.g08.bks.cpg/sg12_85_cif.got.tgz:168969.got - 2010.06.03 13:09:07.
