data_PCOD9186363
_publ_section_title
;
Structure prediction by ZEFSAII (Michael W. Deem and Ramdas Pophale) SiO2 
 PCOD9186363
Probable space group: C 2/M
;
_chemical_formula_sum "Si O2"
_cell_formula_units_Z 56
_cell_length_a 18.652293
_cell_length_b 12.757727
_cell_length_c 11.673185
_cell_angle_alpha 90.000000
_cell_angle_beta 120.107472
_cell_angle_gamma 90.000000
_cell_volume 2403.002325
_symmetry_space_group_name_H-M "C 2/M"
_symmetry_group_IT_number 12
_symmetry_cell_setting 'monoclinic'
loop_
_space_group_symop_operation_xyz
x,y,z
-x,y,-z
-x,-y,-z
x,-y,z
1/2+x,1/2+y,z
1/2-x,1/2+y,-z
1/2-x,1/2-y,-z
1/2+x,1/2-y,z
loop_
_atom_site_type_symbol
_atom_site_label
_atom_site_fract_x
_atom_site_fract_y
_atom_site_fract_z
Si Si1 0.584596 0.835638 0.137480
Si Si2 0.412483 0.618898 0.205253
Si Si3 0.901503 0.111536 0.930667
Si Si4 0.828311 0.381414 0.373026
Si Si5 0.304284 0.385884 0.528922
Si Si6 0.555806 0.786961 0.361094
Si Si7 0.759704 0.168585 0.236477
O O1 0.610732 0.712278 0.155804
O O2 0.564633 0.859376 0.254269
O O3 0.666775 0.872703 0.136680
O O4 0.500000 0.851344 0.000000
O O5 0.449747 0.500000 0.241153
O O6 0.472856 0.715051 0.289900
O O7 0.331179 0.619318 0.217563
O O8 0.386146 0.634534 0.051632
O O9 0.862501 0.000000 0.865694
O O10 0.000000 0.099605 0.000000
O O11 0.834718 0.500000 0.331957
O O12 0.766380 0.382535 0.432562
O O13 0.915875 0.345143 0.499793
O O14 0.787083 0.292908 0.258433
O O15 0.343871 0.500000 0.564350
O O16 0.372643 0.298935 0.595020
O O17 0.266854 0.366516 0.374013
#
# Coordination Sequence:
#
# PCOD9186363 Si02
#       7
#     8   8   8   8   8   8   8
#     4  11  20  36  61  89 117 163 208 253 300 356
#     4  11  23  38  61  94 130 159 192 256 321 370
#     4   9  18  33  55  86 118 155 200 243 294 358
#     4  10  21  38  63  89 119 167 215 253 292 354
#     4  10  19  34  61  90 122 160 203 255 302 363
#     4  11  19  38  61  95 121 161 207 250 306 365
#     4  11  22  39  58  92 129 162 202 250 318 367
#
# _framework density 23.304181
#
# number of rings (size 3 to 8) (size 9 to 14) (size 15 to 20)
#    0.000    1.571    5.714    1.714    0.000    4.000 
#    0.000    5.000    0.000    3.857    0.000    0.000 
#    0.000    0.000    0.000    0.000    0.000    0.000 
#
# Total GULP energy -156142.074045 kJ/mol
# GULP energy per Si atom -5576.502644 kJ/mol
# Density = 2.325114 g / cm^3
# Si number density = 23.304181 Si / 1000 Ang^3
#
#
#
# Elastic Constant Matrix: (Units=GPa)
#
#
# Indices 1 2 3 4 5 6 
#
# 1 102.1535 4.4829 20.2322 0.0000 20.7709 0.0000
# 2 4.4829 99.2250 7.5387 0.0000 -0.5678 0.0000
# 3 20.2322 7.5387 57.7580 0.0000 29.3390 0.0000
# 4 0.0000 0.0000 0.0000 -84.9855 0.0000 -9.8398
# 5 20.7709 -0.5678 29.3390 0.0000 23.5562 0.0000
# 6 0.0000 0.0000 0.0000 -9.8398 0.0000 20.8558
#
#
#
# Elastic Compliance Matrix: (Units=1/GPa)
#
#
# Indices 1 2 3 4 5 6 
#
# 1 0.012224 -0.000914 0.003603 0.000000 -0.015289 0.000000
# 2 -0.000914 0.010484 -0.004318 0.000000 0.006436 0.000000
# 3 0.003603 -0.004318 0.049769 0.000000 -0.065269 0.000000
# 4 0.000000 0.000000 0.000000 -0.011157 0.000000 -0.005264
# 5 -0.015289 0.006436 -0.065269 0.000000 0.137380 0.000000
# 6 0.000000 0.000000 0.000000 -0.005264 0.000000 0.045465
#
#
# Mechanical properties :
#
#
# Convention : Reuss Voigt Hill
#
# Bulk Modulus (GPa) = 14.44623 35.96048 25.20335
# Shear Modulus (GPa) = 18.48468 7.01081 12.74775
#
# Velocity S-wave (km/s) = 2.81942 1.73635 2.34137
# Velocity P-wave (km/s) = 4.10016 4.41410 4.26002
#
# Compressibility (1/GPa) = 0.06922222
#
# Stress axis : x y z
#
# Youngs Moduli (GPa) = 81.80419 95.38128 20.09281
#
# Poissons Ratio (x) = 0.08714 -0.07240
# Poissons Ratio (y) = 0.07473 0.08675
# Poissons Ratio (z) = -0.29478 0.41182
#
# Static dielectric constant tensor:
#      x y z
#    x 1.920200 0.000000 0.047020 
#    y 0.000000 2.052930 0.000000 
#    z 0.047020 0.000000 1.896350 
# 
# From -- ./inp_files/156713.got.cif
#   From: 2010.05.17/outbox.cif.g08.bks.cpg/sg12_79_cif.got.tgz:156713.got - 2010.06.03 13:09:07.
