data_PCOD9186845
_publ_section_title
;
Structure prediction by ZEFSAII (Michael W. Deem and Ramdas Pophale) SiO2 
 PCOD9186845
Probable space group: C 2/M
;
_chemical_formula_sum "Si O2"
_cell_formula_units_Z 44
_cell_length_a 19.970086
_cell_length_b 8.092780
_cell_length_c 14.439549
_cell_angle_alpha 90.000000
_cell_angle_beta 51.746286
_cell_angle_gamma 90.000000
_cell_volume 1832.542538
_symmetry_space_group_name_H-M "C 2/M"
_symmetry_group_IT_number 12
_symmetry_cell_setting 'monoclinic'
loop_
_space_group_symop_operation_xyz
x,y,z
-x,y,-z
-x,-y,-z
x,-y,z
1/2+x,1/2+y,z
1/2-x,1/2+y,-z
1/2-x,1/2-y,-z
1/2+x,1/2-y,z
loop_
_atom_site_type_symbol
_atom_site_label
_atom_site_fract_x
_atom_site_fract_y
_atom_site_fract_z
Si Si1 0.473270 0.000000 0.650478
Si Si2 0.540856 0.684331 0.066843
Si Si3 0.091251 0.189396 0.522723
Si Si4 0.360173 0.687299 0.316427
Si Si5 0.752135 0.180138 0.745454
Si Si6 0.779468 0.500000 0.829022
Si Si7 0.617318 0.000000 0.084165
O O1 0.522535 0.165353 0.579656
O O2 0.624466 0.000000 0.297132
O O3 0.459373 0.000000 0.773286
O O4 0.579288 0.500000 0.040275
O O5 0.460019 0.687536 0.205067
O O6 0.601531 0.834773 0.040254
O O7 0.500000 0.703550 0.000000
O O8 0.145564 0.223502 0.570058
O O9 0.155099 0.190442 0.381982
O O10 0.056842 0.000000 0.560786
O O11 0.327567 0.500000 0.328170
O O12 0.312788 0.803108 0.284756
O O13 0.739452 0.333611 0.823858
O O14 0.744056 0.000000 0.796982
O O15 0.799080 0.500000 0.922020
#
# Coordination Sequence:
#
# PCOD9186845 Si02
#       7
#     4   8   8   8   8   4   4
#     4  10  21  35  60  74 112 150 187 239 270 329
#     4  10  21  38  63  96 115 135 178 240 300 338
#     4  10  21  35  53  84 113 149 194 234 286 327
#     4  10  19  35  56  82 118 146 179 236 288 343
#     4  11  23  35  53  79 116 160 194 228 270 334
#     4  10  23  41  52  83 112 161 192 234 268 329
#     4  10  21  38  63  83 115 151 185 231 278 347
#
# _framework density 24.010355000000001
#
# number of rings (size 3 to 8) (size 9 to 14) (size 15 to 20)
#    0.545    1.273    2.727    1.364    2.545    2.909 
#    0.000    1.818    0.000    1.091    0.000    0.000 
#    0.000    0.000    0.000    0.000    0.000    0.000 
#
# Total GULP energy -123094.721601 kJ/mol
# GULP energy per Si atom -5595.214618 kJ/mol
# Density = 2.395571 g / cm^3
# Si number density = 24.010355 Si / 1000 Ang^3
#
#
#
# Elastic Constant Matrix: (Units=GPa)
#
#
# Indices 1 2 3 4 5 6 
#
# 1 53.6295 69.6627 28.0397 0.0000 9.7076 -0.0001
# 2 69.6627 219.3354 66.5413 -0.0001 21.0946 -0.0003
# 3 28.0397 66.5413 71.5574 0.0000 5.3485 0.0000
# 4 0.0000 -0.0001 0.0000 10.8337 0.0000 -8.1340
# 5 9.7076 21.0946 5.3485 0.0000 49.8593 0.0001
# 6 -0.0001 -0.0003 0.0000 -8.1340 0.0001 -8.1428
#
#
#
# Elastic Compliance Matrix: (Units=1/GPa)
#
#
# Indices 1 2 3 4 5 6 
#
# 1 0.032929 -0.008894 -0.004471 0.000000 -0.002169 0.000000
# 2 -0.008894 0.008972 -0.004742 0.000000 -0.001556 0.000000
# 3 -0.004471 -0.004742 0.020082 0.000000 0.000722 0.000000
# 4 0.000000 0.000000 0.000000 0.052746 0.000000 -0.052688
# 5 -0.002169 -0.001556 0.000722 0.000000 0.021059 0.000000
# 6 0.000000 0.000000 0.000000 -0.052688 0.000000 -0.070176
#
#
# Mechanical properties :
#
#
# Convention : Reuss Voigt Hill
#
# Bulk Modulus (GPa) = 38.80407 74.77883 56.79145
# Shear Modulus (GPa) = 45.28354 22.52861 33.90608
#
# Velocity S-wave (km/s) = 4.34752 3.06647 3.76193
# Velocity P-wave (km/s) = 6.43411 6.61435 6.52485
#
# Compressibility (1/GPa) = 0.02577049
#
# Stress axis : x y z
#
# Youngs Moduli (GPa) = 30.36830 111.45650 49.79513
#
# Poissons Ratio (x) = 0.99124 0.22263
# Poissons Ratio (y) = 0.27008 0.23613
# Poissons Ratio (z) = 0.13578 0.52852
#
# Static dielectric constant tensor:
#      x y z
#    x 1.910620 0.000000 -0.024460 
#    y 0.000000 1.873110 0.000000 
#    z -0.024460 0.000000 1.935300 
# 
# From -- ./inp_files/163168.got.cif
#   From: 2010.05.17/outbox.cif.g08.bks.cpg/sg12_82_cif.got.tgz:163168.got - 2010.06.03 13:09:07.
