data_PCOD9186374
_publ_section_title
;
Structure prediction by ZEFSAII (Michael W. Deem and Ramdas Pophale) SiO2 
 PCOD9186374
Probable space group: C 2/M
;
_chemical_formula_sum "Si O2"
_cell_formula_units_Z 64
_cell_length_a 12.009903
_cell_length_b 14.123965
_cell_length_c 18.680588
_cell_angle_alpha 90.000000
_cell_angle_beta 96.040759
_cell_angle_gamma 90.000000
_cell_volume 3151.145385
_symmetry_space_group_name_H-M "C 2/M"
_symmetry_group_IT_number 12
_symmetry_cell_setting 'monoclinic'
loop_
_space_group_symop_operation_xyz
x,y,z
-x,y,-z
-x,-y,-z
x,-y,z
1/2+x,1/2+y,z
1/2-x,1/2+y,-z
1/2-x,1/2-y,-z
1/2+x,1/2-y,z
loop_
_atom_site_type_symbol
_atom_site_label
_atom_site_fract_x
_atom_site_fract_y
_atom_site_fract_z
Si Si1 0.218303 0.810918 0.663832
Si Si2 0.012991 0.108326 0.745109
Si Si3 0.781455 0.391120 0.873303
Si Si4 0.128215 0.888446 0.512778
Si Si5 0.598799 0.759473 0.833505
Si Si6 0.059301 0.391533 0.245340
Si Si7 0.880600 0.393851 0.030875
Si Si8 0.716940 0.393068 0.358269
O O1 0.116654 0.857836 0.702074
O O2 0.197888 0.841754 0.580807
O O3 0.339825 0.846241 0.701052
O O4 0.214779 0.697313 0.663329
O O5 0.006783 0.176600 0.813835
O O6 0.900649 0.112796 0.691716
O O7 0.030019 0.000000 0.766541
O O8 0.738914 0.500000 0.862525
O O9 0.708924 0.305786 0.836550
O O10 0.893434 0.391006 0.833288
O O11 0.798157 0.374734 0.958703
O O12 0.186896 0.880352 0.439939
O O13 0.000000 0.851556 0.500000
O O14 0.119550 0.000000 0.529938
O O15 0.555661 0.834083 0.771249
O O16 0.614509 0.816157 0.907596
O O17 0.043309 0.500000 0.266388
O O18 0.857612 0.500000 0.058271
O O19 0.000000 0.396701 0.000000
O O20 0.762610 0.500000 0.351068
#
# Coordination Sequence:
#
# PCOD9186374 Si02
#       8
#     8   8   8   8   8   8   8   8
#     4  12  21  37  63  90 116 160 203 244 293 351
#     4  11  22  38  61  87 117 152 201 247 289 353
#     4  10  21  38  61  87 114 151 195 240 289 349
#     4  10  19  34  61  92 120 152 201 251 289 343
#     4  12  21  35  59  90 117 152 192 244 302 345
#     4  11  22  36  58  89 119 151 199 247 289 350
#     4  10  20  37  61  88 117 151 195 244 292 349
#     4  10  22  39  58  88 122 156 195 244 298 347
#
# _framework density 20.310075999999999
#
# number of rings (size 3 to 8) (size 9 to 14) (size 15 to 20)
#    0.000    1.250    5.000    2.625    0.000    0.000 
#    0.000    1.250    0.000    4.875    0.000    0.000 
#    0.000    0.000    0.000    0.000    0.000    0.000 
#
# Total GULP energy -178394.104357 kJ/mol
# GULP energy per Si atom -5574.815761 kJ/mol
# Density = 2.026385 g / cm^3
# Si number density = 20.310076 Si / 1000 Ang^3
#
#
#
# Elastic Constant Matrix: (Units=GPa)
#
#
# Indices 1 2 3 4 5 6 
#
# 1 36.5858 30.6800 24.6176 0.0000 7.7494 0.0000
# 2 30.6800 156.3715 52.3575 0.0000 0.3758 0.0000
# 3 24.6176 52.3575 111.9763 0.0000 17.0398 0.0000
# 4 0.0000 0.0000 0.0000 12.9063 0.0000 16.5655
# 5 7.7494 0.3758 17.0398 0.0000 20.5612 0.0000
# 6 0.0000 0.0000 0.0000 16.5655 0.0000 26.9723
#
#
#
# Elastic Compliance Matrix: (Units=1/GPa)
#
#
# Indices 1 2 3 4 5 6 
#
# 1 0.037175 -0.006026 -0.003707 0.000000 -0.010829 0.000000
# 2 -0.006026 0.008748 -0.003532 0.000000 0.005039 0.000000
# 3 -0.003707 -0.003532 0.012787 0.000000 -0.009135 0.000000
# 4 0.000000 0.000000 0.000000 0.365990 0.000000 -0.224779
# 5 -0.010829 0.005039 -0.009135 0.000000 0.060195 0.000000
# 6 0.000000 0.000000 0.000000 -0.224779 0.000000 0.175127
#
#
# Mechanical properties :
#
#
# Convention : Reuss Voigt Hill
#
# Bulk Modulus (GPa) = 31.07670 57.80485 44.44078
# Shear Modulus (GPa) = 7.17071 25.23985 16.20528
#
# Velocity S-wave (km/s) = 1.88103 3.52906 2.82777
# Velocity P-wave (km/s) = 4.47795 6.71778 5.70879
#
# Compressibility (1/GPa) = 0.03217845
#
# Stress axis : x y z
#
# Youngs Moduli (GPa) = 26.90001 114.31214 78.20308
#
# Poissons Ratio (x) = 0.68889 0.28991
# Poissons Ratio (y) = 0.16211 0.27623
# Poissons Ratio (z) = 0.09972 0.40378
#
# Static dielectric constant tensor:
#      x y z
#    x 1.731720 0.000000 0.024460 
#    y 0.000000 1.754440 0.000000 
#    z 0.024460 0.000000 1.750690 
# 
# From -- ./inp_files/309919.got.cif
#   From: 2010.05.17/outbox.cif.g08.bks.cpg/sg12_155_cif.got.tgz:309919.got - 2010.06.03 13:09:07.
