data_PCOD9186953
_publ_section_title
;
Structure prediction by ZEFSAII (Michael W. Deem and Ramdas Pophale) SiO2 
 PCOD9186953
Probable space group: C 2/M
;
_chemical_formula_sum "Si O2"
_cell_formula_units_Z 56
_cell_length_a 8.826781
_cell_length_b 19.751727
_cell_length_c 29.247493
_cell_angle_alpha 90.000000
_cell_angle_beta 148.539839
_cell_angle_gamma 90.000000
_cell_volume 2661.264318
_symmetry_space_group_name_H-M "C 2/M"
_symmetry_group_IT_number 12
_symmetry_cell_setting 'monoclinic'
loop_
_space_group_symop_operation_xyz
x,y,z
-x,y,-z
-x,-y,-z
x,-y,z
1/2+x,1/2+y,z
1/2-x,1/2+y,-z
1/2-x,1/2-y,-z
1/2+x,1/2-y,z
loop_
_atom_site_type_symbol
_atom_site_label
_atom_site_fract_x
_atom_site_fract_y
_atom_site_fract_z
Si Si1 0.799658 0.695952 0.052795
Si Si2 0.759971 0.574215 0.217255
Si Si3 0.333813 0.332581 0.694734
Si Si4 0.386379 0.576178 0.419729
Si Si5 0.761435 0.281590 0.226700
Si Si6 0.325262 0.824382 0.501820
Si Si7 0.228776 0.423534 0.149757
O O1 0.003595 0.735244 0.141494
O O2 0.972135 0.630560 0.078527
O O3 0.500000 0.677308 0.000000
O O4 0.750000 0.750000 0.000000
O O5 0.781390 0.500000 0.198930
O O6 0.781652 0.649476 0.201452
O O7 0.450826 0.574276 0.163862
O O8 0.039168 0.575771 0.323387
O O9 0.292941 0.306067 0.735863
O O10 0.460510 0.266717 0.701942
O O11 0.567932 0.392566 0.757922
O O12 0.043595 0.355311 0.595570
O O13 0.500000 0.591436 0.500000
O O14 0.486014 0.500000 0.434427
O O15 0.537532 0.630408 0.425880
O O16 0.500000 0.821573 0.500000
O O17 0.250000 0.750000 0.500000
O O18 0.131021 0.500000 0.133351
#
# Coordination Sequence:
#
# PCOD9186953 Si02
#       7
#     8   8   8   8   8   8   8
#     4  11  22  38  62  91 119 148 185 234 293 354
#     4   9  17  32  54  79 109 146 190 234 276 334
#     4  10  20  35  57  79 108 152 193 237 286 347
#     4  10  20  35  57  83 114 156 202 247 297 352
#     4  10  19  35  57  80 108 143 188 229 279 348
#     4  12  24  37  56  85 121 157 202 259 313 357
#     4   9  19  36  59  85 113 151 193 232 284 348
#
# _framework density 21.042631
#
# number of rings (size 3 to 8) (size 9 to 14) (size 15 to 20)
#    0.000    1.857    0.000    6.429    0.000    2.286 
#    0.000    0.714    0.000   15.429    0.000    0.000 
#    0.000    0.000    0.000    0.000    0.000    0.000 
#
# Total GULP energy -156189.031934 kJ/mol
# GULP energy per Si atom -5578.179712 kJ/mol
# Density = 2.099474 g / cm^3
# Si number density = 21.042631 Si / 1000 Ang^3
#
#
#
# Elastic Constant Matrix: (Units=GPa)
#
#
# Indices 1 2 3 4 5 6 
#
# 1 74.8101 38.8320 26.2209 0.0019 13.5452 0.0007
# 2 38.8320 142.8875 21.4739 0.0004 22.4292 0.0003
# 3 26.2209 21.4739 67.9397 0.0070 19.5715 0.0022
# 4 0.0019 0.0004 0.0070 26.5402 0.0033 9.2892
# 5 13.5452 22.4292 19.5715 0.0033 29.9970 0.0012
# 6 0.0007 0.0003 0.0022 9.2892 0.0012 26.7755
#
#
#
# Elastic Compliance Matrix: (Units=1/GPa)
#
#
# Indices 1 2 3 4 5 6 
#
# 1 0.017364 -0.003680 -0.005015 0.000000 -0.001817 0.000000
# 2 -0.003680 0.008763 0.000073 0.000001 -0.004938 0.000000
# 3 -0.005015 0.000073 0.019697 -0.000004 -0.010641 0.000000
# 4 0.000000 0.000001 -0.000004 0.042886 -0.000003 -0.014879
# 5 -0.001817 -0.004938 -0.010641 -0.000003 0.044792 0.000000
# 6 0.000000 0.000000 0.000000 -0.014879 0.000000 0.042509
#
#
# Mechanical properties :
#
#
# Convention : Reuss Voigt Hill
#
# Bulk Modulus (GPa) = 34.98958 50.96564 42.97761
# Shear Modulus (GPa) = 24.65701 29.93658 27.29680
#
# Velocity S-wave (km/s) = 3.42682 3.77591 3.60559
# Velocity P-wave (km/s) = 5.68520 6.57897 6.14834
#
# Compressibility (1/GPa) = 0.02857994
#
# Stress axis : x y z
#
# Youngs Moduli (GPa) = 57.58984 114.11916 50.76976
#
# Poissons Ratio (x) = 0.41997 0.25461
# Poissons Ratio (y) = 0.21193 -0.00371
# Poissons Ratio (z) = 0.28881 -0.00835
#
# Static dielectric constant tensor:
#      x y z
#    x 1.783500 0.000000 0.002580 
#    y 0.000000 1.798000 0.000000 
#    z 0.002580 0.000000 1.770090 
# 
# From -- ./inp_files/373188.got.cif
#   From: 2010.05.17/outbox.cif.g08.bks.cpg/sg12_187_cif.got.tgz:373188.got - 2010.06.03 13:09:07.
