data_PCOD9186117
_publ_section_title
;
Structure prediction by ZEFSAII (Michael W. Deem and Ramdas Pophale) SiO2 
 PCOD9186117
Probable space group: C 2/M
;
_chemical_formula_sum "Si O2"
_cell_formula_units_Z 48
_cell_length_a 29.311835
_cell_length_b 11.107842
_cell_length_c 24.214197
_cell_angle_alpha 90.000000
_cell_angle_beta 19.943047
_cell_angle_gamma 90.000000
_cell_volume 2689.097468
_symmetry_space_group_name_H-M "C 2/M"
_symmetry_group_IT_number 12
_symmetry_cell_setting 'monoclinic'
loop_
_space_group_symop_operation_xyz
x,y,z
-x,y,-z
-x,-y,-z
x,-y,z
1/2+x,1/2+y,z
1/2-x,1/2+y,-z
1/2-x,1/2-y,-z
1/2+x,1/2-y,z
loop_
_atom_site_type_symbol
_atom_site_label
_atom_site_fract_x
_atom_site_fract_y
_atom_site_fract_z
Si Si1 0.957332 0.142506 0.673993
Si Si2 0.634115 0.369368 0.811142
Si Si3 0.695085 0.142578 0.916223
Si Si4 0.861595 0.140174 0.432535
Si Si5 0.081685 0.780839 0.752885
Si Si6 0.784823 0.139145 0.687251
O O1 0.812595 0.191813 0.822312
O O2 0.036496 0.191518 0.637218
O O3 0.059549 0.150402 0.506094
O O4 0.936760 0.000000 0.707504
O O5 0.701202 0.500000 0.746105
O O6 0.596796 0.363606 0.789296
O O7 0.712771 0.247434 0.736846
O O8 0.500000 0.365691 0.000000
O O9 0.748482 0.154543 0.792675
O O10 0.677807 0.000000 0.945696
O O11 0.553939 0.206146 0.084982
O O12 0.918958 0.156110 0.305868
O O13 0.716373 0.200615 0.599902
O O14 0.843568 0.000000 0.465663
O O15 0.745630 0.000000 0.716341
#
# Coordination Sequence:
#
# PCOD9186117 Si02
#       6
#     8   8   8   8   8   8
#     4   9  18  34  56  83 114 143 178 232 288 328
#     4  11  22  36  55  83 118 152 183 228 287 336
#     4  10  20  33  55  86 114 141 183 236 282 329
#     4  10  21  36  55  78 107 143 189 238 282 327
#     4  11  21  35  55  81 106 149 188 232 273 334
#     4  10  19  34  59  87 112 145 189 232 276 330
#
# _framework density 17.849855999999999
#
# number of rings (size 3 to 8) (size 9 to 14) (size 15 to 20)
#    0.000    1.833    3.333    1.500    0.000    3.667 
#    0.000    0.000    0.000    4.000    0.000    0.000 
#    0.000    0.000    0.000    0.000    0.000    0.000 
#
# Total GULP energy -133721.313196 kJ/mol
# GULP energy per Si atom -5571.721383 kJ/mol
# Density = 1.780923 g / cm^3
# Si number density = 17.849856 Si / 1000 Ang^3
#
#
#
# Elastic Constant Matrix: (Units=GPa)
#
#
# Indices 1 2 3 4 5 6 
#
# 1 96.0347 31.9229 50.3181 0.0000 -5.4913 0.0001
# 2 31.9229 72.0006 27.5122 0.0002 -14.3067 0.0009
# 3 50.3181 27.5122 71.2543 0.0003 -5.2569 0.0012
# 4 0.0000 0.0002 0.0003 8.0619 -0.0001 13.0735
# 5 -5.4913 -14.3067 -5.2569 -0.0001 33.8414 -0.0008
# 6 0.0001 0.0009 0.0012 13.0735 -0.0008 122.5823
#
#
#
# Elastic Compliance Matrix: (Units=1/GPa)
#
#
# Indices 1 2 3 4 5 6 
#
# 1 0.017259 -0.003594 -0.010830 0.000000 -0.000401 0.000000
# 2 -0.003594 0.018331 -0.004058 0.000000 0.006536 0.000000
# 3 -0.010830 -0.004058 0.023259 -0.000001 0.000140 0.000000
# 4 0.000000 0.000000 -0.000001 0.149979 0.000000 -0.015995
# 5 -0.000401 0.006536 0.000140 0.000000 0.032270 0.000000
# 6 0.000000 0.000000 0.000000 -0.015995 0.000000 0.009864
#
#
# Mechanical properties :
#
#
# Convention : Reuss Voigt Hill
#
# Bulk Modulus (GPa) = 45.69015 50.97732 48.33373
# Shear Modulus (GPa) = 16.93649 41.53290 29.23470
#
# Velocity S-wave (km/s) = 3.08365 4.82892 4.05138
# Velocity P-wave (km/s) = 6.19121 7.72737 7.00154
#
# Compressibility (1/GPa) = 0.02188656
#
# Stress axis : x y z
#
# Youngs Moduli (GPa) = 57.94114 54.55109 42.99356
#
# Poissons Ratio (x) = 0.19603 0.46562
# Poissons Ratio (y) = 0.20821 0.17447
# Poissons Ratio (z) = 0.62750 0.22137
#
# Static dielectric constant tensor:
#      x y z
#    x 1.645410 0.000000 -0.000920 
#    y 0.000000 1.609940 0.000000 
#    z -0.000920 0.000000 1.590530 
# 
# From -- ./inp_files/94412.got.cif
#   From: 2010.05.17/outbox.cif.g08.bks.cpg/sg12_48_cif.got.tgz:94412.got - 2010.06.03 13:09:07.
