data_PCOD9186060
_publ_section_title
;
Structure prediction by ZEFSAII (Michael W. Deem and Ramdas Pophale) SiO2 
 PCOD9186060
Probable space group: C 2/M
;
_chemical_formula_sum "Si O2"
_cell_formula_units_Z 48
_cell_length_a 24.063294
_cell_length_b 10.789944
_cell_length_c 13.281603
_cell_angle_alpha 90.000000
_cell_angle_beta 41.920839
_cell_angle_gamma 90.000000
_cell_volume 2303.924962
_symmetry_space_group_name_H-M "C 2/M"
_symmetry_group_IT_number 12
_symmetry_cell_setting 'monoclinic'
loop_
_space_group_symop_operation_xyz
x,y,z
-x,y,-z
-x,-y,-z
x,-y,z
1/2+x,1/2+y,z
1/2-x,1/2+y,-z
1/2-x,1/2-y,-z
1/2+x,1/2-y,z
loop_
_atom_site_type_symbol
_atom_site_label
_atom_site_fract_x
_atom_site_fract_y
_atom_site_fract_z
Si Si1 0.659311 0.638019 0.328683
Si Si2 0.053255 0.636285 0.529859
Si Si3 0.156910 0.259034 0.905898
Si Si4 0.085648 0.862045 0.819379
Si Si5 0.685099 0.360826 0.072467
Si Si6 0.012387 0.363163 0.807460
O O1 0.641384 0.500000 0.390580
O O2 0.615239 0.749195 0.444643
O O3 0.758088 0.664990 0.198189
O O4 0.632422 0.642644 0.246469
O O5 0.095436 0.500000 0.473182
O O6 0.999964 0.642065 0.703756
O O7 0.000000 0.641903 0.500000
O O8 0.154445 0.179779 0.807422
O O9 0.145508 0.168576 0.017996
O O10 0.075935 0.345759 0.018828
O O11 0.070346 0.750646 0.762453
O O12 0.100551 0.000000 0.757925
O O13 0.000000 0.867950 0.000000
O O14 0.722075 0.500000 0.019435
O O15 0.750000 0.250000 0.000000
O O16 0.046608 0.500000 0.785425
#
# Coordination Sequence:
#
# PCOD9186060 Si02
#       6
#     8   8   8   8   8   8
#     4  10  21  35  55  86 116 144 181 228 278 325
#     4  10  22  40  59  80 110 149 186 221 270 333
#     4  10  19  34  59  84 111 144 184 229 275 325
#     4   9  19  34  54  82 113 145 183 227 276 327
#     4   9  18  31  49  77 110 140 174 217 267 320
#     4  10  21  37  58  82 109 145 187 229 274 325
#
# _framework density 20.834012999999999
#
# number of rings (size 3 to 8) (size 9 to 14) (size 15 to 20)
#    0.000    2.333    0.000    2.000    0.000    9.333 
#    0.000    4.167    0.000    0.000    0.000    0.000 
#    0.000    0.000    0.000    0.000    0.000    0.000 
#
# Total GULP energy -133791.027802 kJ/mol
# GULP energy per Si atom -5574.626158 kJ/mol
# Density = 2.078659 g / cm^3
# Si number density = 20.834013 Si / 1000 Ang^3
#
#
#
# Elastic Constant Matrix: (Units=GPa)
#
#
# Indices 1 2 3 4 5 6 
#
# 1 68.6441 35.4502 -4.0648 0.0000 12.2485 0.0000
# 2 35.4502 203.1943 35.0330 0.0000 3.5577 0.0000
# 3 -4.0648 35.0330 30.8175 0.0000 2.3296 0.0000
# 4 0.0000 0.0000 0.0000 25.1399 0.0000 4.5522
# 5 12.2485 3.5577 2.3296 0.0000 15.9964 0.0000
# 6 0.0000 0.0000 0.0000 4.5522 0.0000 23.3503
#
#
#
# Elastic Compliance Matrix: (Units=1/GPa)
#
#
# Indices 1 2 3 4 5 6 
#
# 1 0.020550 -0.004951 0.009550 0.000000 -0.016025 0.000000
# 2 -0.004951 0.007316 -0.009235 0.000000 0.003509 0.000000
# 3 0.009550 -0.009235 0.045101 0.000000 -0.011827 0.000000
# 4 0.000000 0.000000 0.000000 0.041233 0.000000 -0.008038
# 5 -0.016025 0.003509 -0.011827 0.000000 0.075726 0.000000
# 6 0.000000 0.000000 0.000000 -0.008038 0.000000 0.044393
#
#
# Mechanical properties :
#
#
# Convention : Reuss Voigt Hill
#
# Bulk Modulus (GPa) = 15.69981 48.38808 32.04394
# Shear Modulus (GPa) = 18.88056 28.64649 23.76352
#
# Velocity S-wave (km/s) = 3.01364 3.71210 3.38096
# Velocity P-wave (km/s) = 4.43412 6.45360 5.53671
#
# Compressibility (1/GPa) = 0.06369505
#
# Stress axis : x y z
#
# Youngs Moduli (GPa) = 48.66242 136.68657 22.17235
#
# Poissons Ratio (x) = 0.67676 -0.21175
# Poissons Ratio (y) = 0.24094 0.20476
# Poissons Ratio (z) = -0.46474 1.26231
#
# Static dielectric constant tensor:
#      x y z
#    x 1.782260 0.000000 0.018740 
#    y 0.000000 1.773080 0.000000 
#    z 0.018740 0.000000 1.732240 
# 
# From -- ./inp_files/244753.got.cif
#   From: 2010.05.17/outbox.cif.g08.bks.cpg/sg12_123_cif.got.tgz:244753.got - 2010.06.03 13:09:07.
