data_PCOD9186641
_publ_section_title
;
Structure prediction by ZEFSAII (Michael W. Deem and Ramdas Pophale) SiO2 
 PCOD9186641
Probable space group: C 2/M
;
_chemical_formula_sum "Si O2"
_cell_formula_units_Z 40
_cell_length_a 32.503951
_cell_length_b 15.777771
_cell_length_c 10.217702
_cell_angle_alpha 90.000000
_cell_angle_beta 24.258833
_cell_angle_gamma 90.000000
_cell_volume 2152.921887
_symmetry_space_group_name_H-M "C 2/M"
_symmetry_group_IT_number 12
_symmetry_cell_setting 'monoclinic'
loop_
_space_group_symop_operation_xyz
x,y,z
-x,y,-z
-x,-y,-z
x,-y,z
1/2+x,1/2+y,z
1/2-x,1/2+y,-z
1/2-x,1/2-y,-z
1/2+x,1/2-y,z
loop_
_atom_site_type_symbol
_atom_site_label
_atom_site_fract_x
_atom_site_fract_y
_atom_site_fract_z
Si Si1 0.661006 0.183938 0.256284
Si Si2 0.276568 0.347779 0.406837
Si Si3 0.885394 0.399979 0.341574
Si Si4 0.339620 0.097885 0.023232
Si Si5 0.462160 0.266086 0.751055
O O1 0.660602 0.131161 0.389591
O O2 0.559563 0.239403 0.548277
O O3 0.750000 0.250000 0.000000
O O4 0.669843 0.125451 0.100796
O O5 0.250000 0.250000 0.500000
O O6 0.192764 0.380207 0.547858
O O7 0.258085 0.393402 0.599551
O O8 0.388662 0.336598 0.025392
O O9 0.895024 0.500000 0.316667
O O10 0.000000 0.365097 0.000000
O O11 0.375664 0.000000 0.928713
O O12 0.409361 0.173638 0.878416
O O13 0.500000 0.296314 0.500000
#
# Coordination Sequence:
#
# PCOD9186641 Si02
#       5
#     8   8   8   8   8
#     4  11  22  36  56  81 110 143 179 223 270 319
#     4  10  19  35  55  78 109 144 180 214 260 326
#     4  11  22  35  55  85 114 138 173 227 282 319
#     4  10  20  35  57  83 108 137 176 223 273 319
#     4   9  19  34  56  81 106 142 184 220 263 321
#
# _framework density 18.579402000000002
#
# number of rings (size 3 to 8) (size 9 to 14) (size 15 to 20)
#    0.000    1.800    0.000    7.200    0.000    6.000 
#    0.000    0.000    0.000   14.400    0.000    0.000 
#    0.000    0.000    0.000    0.000    0.000    0.000 
#
# Total GULP energy -111368.368950 kJ/mol
# GULP energy per Si atom -5568.418447 kJ/mol
# Density = 1.853711 g / cm^3
# Si number density = 18.579402 Si / 1000 Ang^3
#
#
#
# Elastic Constant Matrix: (Units=GPa)
#
#
# Indices 1 2 3 4 5 6 
#
# 1 62.6119 19.0021 38.1732 0.0000 27.2592 0.0000
# 2 19.0021 60.1004 41.3861 0.0000 5.1170 0.0000
# 3 38.1732 41.3861 123.6199 0.0000 21.7154 0.0000
# 4 0.0000 0.0000 0.0000 -49.1792 0.0000 4.9974
# 5 27.2592 5.1170 21.7154 0.0000 22.1143 0.0000
# 6 0.0000 0.0000 0.0000 4.9974 0.0000 27.2111
#
#
#
# Elastic Compliance Matrix: (Units=1/GPa)
#
#
# Indices 1 2 3 4 5 6 
#
# 1 0.038291 -0.007194 -0.001712 0.000000 -0.043853 0.000000
# 2 -0.007194 0.023095 -0.007407 0.000000 0.010797 0.000000
# 3 -0.001712 -0.007407 0.012599 0.000000 -0.008547 0.000000
# 4 0.000000 0.000000 0.000000 -0.019961 0.000000 0.003666
# 5 -0.043853 0.010797 -0.008547 0.000000 0.105171 0.000000
# 6 0.000000 0.000000 0.000000 0.003666 0.000000 0.036076
#
#
# Mechanical properties :
#
#
# Convention : Reuss Voigt Hill
#
# Bulk Modulus (GPa) = 24.17856 49.27278 36.72567
# Shear Modulus (GPa) = 20.68829 9.88063 15.28446
#
# Velocity S-wave (km/s) = 3.34055 2.30859 2.87131
# Velocity P-wave (km/s) = 5.28402 5.80378 5.54999
#
# Compressibility (1/GPa) = 0.04135895
#
# Stress axis : x y z
#
# Youngs Moduli (GPa) = 26.11582 43.30033 79.36982
#
# Poissons Ratio (x) = 0.31149 0.13591
# Poissons Ratio (y) = 0.18787 0.58789
# Poissons Ratio (z) = 0.04472 0.32072
#
# Static dielectric constant tensor:
#      x y z
#    x 1.221380 0.000000 0.368630 
#    y 0.000000 1.613870 0.000000 
#    z 0.368630 0.000000 1.469420 
# 
# From -- ./inp_files/105701.got.cif
#   From: 2010.05.17/outbox.cif.g08.bks.cpg/sg12_53_cif.got.tgz:105701.got - 2010.06.03 13:09:07.
