data_PCOD9186546
_publ_section_title
;
Structure prediction by ZEFSAII (Michael W. Deem and Ramdas Pophale) SiO2 
 PCOD9186546
Probable space group: C 2/M
;
_chemical_formula_sum "Si O2"
_cell_formula_units_Z 56
_cell_length_a 19.650635
_cell_length_b 8.703344
_cell_length_c 27.633788
_cell_angle_alpha 90.000000
_cell_angle_beta 40.672115
_cell_angle_gamma 90.000000
_cell_volume 3080.139895
_symmetry_space_group_name_H-M "C 2/M"
_symmetry_group_IT_number 12
_symmetry_cell_setting 'monoclinic'
loop_
_space_group_symop_operation_xyz
x,y,z
-x,y,-z
-x,-y,-z
x,-y,z
1/2+x,1/2+y,z
1/2-x,1/2+y,-z
1/2-x,1/2-y,-z
1/2+x,1/2-y,z
loop_
_atom_site_type_symbol
_atom_site_label
_atom_site_fract_x
_atom_site_fract_y
_atom_site_fract_z
Si Si1 0.306663 0.320053 0.824011
Si Si2 0.257849 0.814693 0.745457
Si Si3 0.964544 0.687974 0.573288
Si Si4 0.678594 0.816579 0.080898
Si Si5 0.443426 0.315527 0.208272
Si Si6 0.527095 0.825794 0.712344
Si Si7 0.641360 0.172034 0.549304
O O1 0.284010 0.500000 0.839652
O O2 0.266461 0.253585 0.794753
O O3 0.277122 0.237591 0.890543
O O4 0.430354 0.286695 0.756539
O O5 0.353633 0.765403 0.657857
O O6 0.145309 0.777553 0.782940
O O7 0.266079 0.000000 0.745202
O O8 0.961498 0.500000 0.575475
O O9 0.000000 0.733402 0.500000
O O10 0.057638 0.743279 0.558055
O O11 0.560074 0.751991 0.138242
O O12 0.677132 0.000000 0.079461
O O13 0.750000 0.750000 0.000000
O O14 0.450779 0.500000 0.207796
O O15 0.408071 0.241792 0.278251
O O16 0.587534 0.834950 0.630250
O O17 0.489998 0.000000 0.744075
O O18 0.750000 0.250000 0.500000
O O19 0.661660 0.000000 0.519944
#
# Coordination Sequence:
#
# PCOD9186546 Si02
#       7
#     8   8   8   8   8   8   8
#     4  11  21  35  59  87 114 148 192 234 279 338
#     4  10  20  37  58  82 116 154 195 240 289 345
#     4   9  18  34  55  77 106 149 196 240 290 344
#     4  11  22  40  65  90 122 153 186 231 280 338
#     4  10  21  35  58  89 116 148 193 236 280 341
#     4  10  19  35  54  75 108 149 189 237 289 342
#     4  10  21  34  52  75 106 141 188 240 292 348
#
# _framework density 18.180993000000001
#
# number of rings (size 3 to 8) (size 9 to 14) (size 15 to 20)
#    0.000    1.857    1.429    5.143    2.000    2.286 
#    0.000    0.714    0.000    5.143    0.000    0.000 
#    0.000    0.000    0.000    0.000    0.000    0.000 
#
# Total GULP energy -156040.086622 kJ/mol
# GULP energy per Si atom -5572.860236 kJ/mol
# Density = 1.813961 g / cm^3
# Si number density = 18.180993 Si / 1000 Ang^3
#
#
#
# Elastic Constant Matrix: (Units=GPa)
#
#
# Indices 1 2 3 4 5 6 
#
# 1 159.2486 50.8793 69.1723 0.0000 22.0398 -0.0001
# 2 50.8793 67.0068 35.6690 0.0000 8.9476 -0.0003
# 3 69.1723 35.6690 114.7619 0.0000 22.1511 0.0000
# 4 0.0000 0.0000 0.0000 22.5576 0.0000 4.7443
# 5 22.0398 8.9476 22.1511 0.0000 25.9469 0.0000
# 6 -0.0001 -0.0003 0.0000 4.7443 0.0000 27.2874
#
#
#
# Elastic Compliance Matrix: (Units=1/GPa)
#
#
# Indices 1 2 3 4 5 6 
#
# 1 0.010056 -0.005153 -0.003776 0.000000 -0.003541 0.000000
# 2 -0.005153 0.020586 -0.003313 0.000000 0.000106 0.000000
# 3 -0.003776 -0.003313 0.013386 0.000000 -0.007077 0.000000
# 4 0.000000 0.000000 0.000000 0.046014 0.000000 -0.008000
# 5 -0.003541 0.000106 -0.007077 0.000000 0.047553 0.000000
# 6 0.000000 0.000000 0.000000 -0.008000 0.000000 0.038038
#
#
# Mechanical properties :
#
#
# Convention : Reuss Voigt Hill
#
# Bulk Modulus (GPa) = 51.16781 72.49539 61.83160
# Shear Modulus (GPa) = 24.19774 27.51149 25.85462
#
# Velocity S-wave (km/s) = 3.65216 3.89421 3.77512
# Velocity P-wave (km/s) = 6.78152 7.75762 7.28593
#
# Compressibility (1/GPa) = 0.01954354
#
# Stress axis : x y z
#
# Youngs Moduli (GPa) = 99.44159 48.57719 74.70732
#
# Poissons Ratio (x) = 0.25031 0.28212
# Poissons Ratio (y) = 0.51240 0.24750
# Poissons Ratio (z) = 0.37552 0.16093
#
# Static dielectric constant tensor:
#      x y z
#    x 1.612510 0.000000 0.023960 
#    y 0.000000 1.468140 0.000000 
#    z 0.023960 0.000000 1.627650 
# 
# From -- ./inp_files/342272.got.cif
#   From: 2010.05.17/outbox.cif.g08.bks.cpg/sg12_172_cif.got.tgz:342272.got - 2010.06.03 13:09:07.
