data_PCOD9186398
_publ_section_title
;
Structure prediction by ZEFSAII (Michael W. Deem and Ramdas Pophale) SiO2 
 PCOD9186398
Probable space group: C 2/M
;
_chemical_formula_sum "Si O2"
_cell_formula_units_Z 56
_cell_length_a 27.210802
_cell_length_b 15.980623
_cell_length_c 8.848063
_cell_angle_alpha 90.000000
_cell_angle_beta 128.147393
_cell_angle_gamma 90.000000
_cell_volume 3025.799967
_symmetry_space_group_name_H-M "C 2/M"
_symmetry_group_IT_number 12
_symmetry_cell_setting 'monoclinic'
loop_
_space_group_symop_operation_xyz
x,y,z
-x,y,-z
-x,-y,-z
x,-y,z
1/2+x,1/2+y,z
1/2-x,1/2+y,-z
1/2-x,1/2-y,-z
1/2+x,1/2-y,z
loop_
_atom_site_type_symbol
_atom_site_label
_atom_site_fract_x
_atom_site_fract_y
_atom_site_fract_z
Si Si1 0.139640 0.325909 0.467271
Si Si2 0.555241 0.293827 0.507159
Si Si3 0.068860 0.500000 0.953402
Si Si4 0.869979 0.093565 0.115394
Si Si5 0.076195 0.500000 0.334684
Si Si6 0.032064 0.158773 0.900899
Si Si7 0.768387 0.215399 0.870813
Si Si8 0.618330 0.817155 0.067219
O O1 0.093036 0.266265 0.470448
O O2 0.115418 0.419032 0.457362
O O3 0.208278 0.298820 0.652096
O O4 0.133114 0.317789 0.274240
O O5 0.500000 0.251407 0.500000
O O6 0.599476 0.342729 0.706532
O O7 0.518561 0.355980 0.326029
O O8 0.070657 0.500000 0.140682
O O9 0.101593 0.410731 0.977736
O O10 0.997105 0.500000 0.758619
O O11 0.908907 0.103206 0.033760
O O12 0.873362 0.000000 0.178490
O O13 0.800930 0.125732 0.954357
O O14 0.059044 0.254023 0.940313
O O15 0.000000 0.145540 0.000000
O O16 0.822190 0.275779 0.903476
O O17 0.750000 0.250000 0.000000
#
# Coordination Sequence:
#
# PCOD9186398 Si02
#       8
#     8   8   4   8   4   8   8   8
#     4  11  20  38  60  87 119 157 197 238 287 350
#     4  10  20  35  60  84 116 153 191 231 291 354
#     4   9  18  36  59  94 127 148 189 238 299 362
#     4  10  23  41  58  81 115 156 195 243 294 339
#     4   9  20  32  60  95 122 155 179 246 303 346
#     4  10  19  34  62  90 115 149 187 237 293 353
#     4  11  23  41  61  81 114 159 207 240 288 351
#     4  10  21  37  62  89 119 156 195 240 292 349
#
# _framework density 18.507503
#
# number of rings (size 3 to 8) (size 9 to 14) (size 15 to 20)
#    0.000    1.857    2.857    1.286    3.000    2.857 
#    1.286    0.357    0.000    0.000    0.000    0.000 
#    0.000    0.000    0.000    0.000    0.000    0.000 
#
# Total GULP energy -156082.062278 kJ/mol
# GULP energy per Si atom -5574.359367 kJ/mol
# Density = 1.846538 g / cm^3
# Si number density = 18.507503 Si / 1000 Ang^3
#
#
#
# Elastic Constant Matrix: (Units=GPa)
#
#
# Indices 1 2 3 4 5 6 
#
# 1 109.6257 27.2453 26.4612 0.0000 -5.7400 0.0000
# 2 27.2453 86.7564 5.2503 0.0000 1.9135 0.0000
# 3 26.4612 5.2503 66.4997 0.0000 3.0667 0.0000
# 4 0.0000 0.0000 0.0000 11.2505 0.0000 -3.2384
# 5 -5.7400 1.9135 3.0667 0.0000 30.5515 0.0000
# 6 0.0000 0.0000 0.0000 -3.2384 0.0000 6.7742
#
#
#
# Elastic Compliance Matrix: (Units=1/GPa)
#
#
# Indices 1 2 3 4 5 6 
#
# 1 0.011118 -0.003292 -0.004290 0.000000 0.002726 0.000000
# 2 -0.003292 0.012569 0.000384 0.000000 -0.001444 0.000000
# 3 -0.004290 0.000384 0.016831 0.000000 -0.002519 0.000000
# 4 0.000000 0.000000 0.000000 0.103068 0.000000 0.049272
# 5 0.002726 -0.001444 -0.002519 0.000000 0.033587 0.000000
# 6 0.000000 0.000000 0.000000 0.049272 0.000000 0.171174
#
#
# Mechanical properties :
#
#
# Convention : Reuss Voigt Hill
#
# Bulk Modulus (GPa) = 38.28156 42.31060 40.29608
# Shear Modulus (GPa) = 13.46076 23.31023 18.38549
#
# Velocity S-wave (km/s) = 2.69980 3.55280 3.15526
# Velocity P-wave (km/s) = 5.51795 6.30403 5.92404
#
# Compressibility (1/GPa) = 0.02612223
#
# Stress axis : x y z
#
# Youngs Moduli (GPa) = 89.94131 79.56075 59.41581
#
# Poissons Ratio (x) = 0.26193 0.25489
# Poissons Ratio (y) = 0.29610 -0.02283
# Poissons Ratio (z) = 0.38584 -0.03057
#
# Static dielectric constant tensor:
#      x y z
#    x 1.643780 0.000000 0.000700 
#    y 0.000000 1.645450 0.000000 
#    z 0.000700 0.000000 1.630040 
# 
# From -- ./inp_files/97004.got.cif
#   From: 2010.05.17/outbox.cif.g08.bks.cpg/sg12_49_cif.got.tgz:97004.got - 2010.06.03 13:09:07.
