data_PCOD9186934
_publ_section_title
;
Structure prediction by ZEFSAII (Michael W. Deem and Ramdas Pophale) SiO2 
 PCOD9186934
Probable space group: C 2/M
;
_chemical_formula_sum "Si O2"
_cell_formula_units_Z 64
_cell_length_a 24.104031
_cell_length_b 21.284887
_cell_length_c 18.099795
_cell_angle_alpha 90.000000
_cell_angle_beta 158.979701
_cell_angle_gamma 90.000000
_cell_volume 3330.921982
_symmetry_space_group_name_H-M "C 2/M"
_symmetry_group_IT_number 12
_symmetry_cell_setting 'monoclinic'
loop_
_space_group_symop_operation_xyz
x,y,z
-x,y,-z
-x,-y,-z
x,-y,z
1/2+x,1/2+y,z
1/2-x,1/2+y,-z
1/2-x,1/2-y,-z
1/2+x,1/2-y,z
loop_
_atom_site_type_symbol
_atom_site_label
_atom_site_fract_x
_atom_site_fract_y
_atom_site_fract_z
Si Si1 0.756434 0.603480 0.006702
Si Si2 0.141566 0.069176 0.027131
Si Si3 0.681939 0.570524 0.441392
Si Si4 0.238252 0.700137 0.767463
Si Si5 0.560708 0.349659 0.422707
Si Si6 0.365543 0.831061 0.892791
Si Si7 0.941697 0.283941 0.305268
Si Si8 0.036028 0.569026 0.864174
O O1 0.711283 0.575141 0.030346
O O2 0.843301 0.669141 0.132877
O O3 0.874656 0.568250 0.101659
O O4 0.594875 0.609920 0.761660
O O5 0.195078 0.131302 0.135191
O O6 0.185087 0.000000 0.110587
O O7 0.956357 0.072433 0.788925
O O8 0.673372 0.500000 0.465012
O O9 0.644407 0.623270 0.454719
O O10 0.853534 0.578423 0.624784
O O11 0.356265 0.755928 0.894336
O O12 0.158654 0.724647 0.744697
O O13 0.105268 0.691698 0.540577
O O14 0.692850 0.347877 0.648918
O O15 0.489845 0.280232 0.325600
O O16 0.500000 0.844232 0.000000
O O17 0.402644 0.874171 0.009234
O O18 0.055804 0.500000 0.925285
#
# Coordination Sequence:
#
# PCOD9186934 Si02
#       8
#     8   8   8   8   8   8   8   8
#     4  10  20  35  58  86 113 142 186 231 276 327
#     4   9  18  37  62  85 111 147 187 226 276 337
#     4   9  19  35  54  77 110 149 187 230 278 326
#     4   9  19  36  58  85 114 146 183 231 279 333
#     4  10  19  35  57  79 107 148 188 228 274 333
#     4  11  22  38  56  81 113 151 187 230 281 327
#     4   9  18  35  58  83 115 145 179 230 288 324
#     4  11  23  38  55  81 115 150 189 233 281 328
#
# _framework density 19.213899999999999
#
# number of rings (size 3 to 8) (size 9 to 14) (size 15 to 20)
#    0.000    2.250    1.250    1.500    0.000    4.750 
#    4.500    7.500    0.000    0.375    0.000    0.000 
#    0.000    0.000    0.000    0.000    0.000    0.000 
#
# Total GULP energy -178306.038042 kJ/mol
# GULP energy per Si atom -5572.063689 kJ/mol
# Density = 1.917017 g / cm^3
# Si number density = 19.213900 Si / 1000 Ang^3
#
#
#
# Elastic Constant Matrix: (Units=GPa)
#
#
# Indices 1 2 3 4 5 6 
#
# 1 34.8473 14.5993 35.7769 0.0000 12.9784 0.0000
# 2 14.5993 61.1122 51.4107 0.0000 3.5230 0.0000
# 3 35.7769 51.4107 95.9829 0.0000 20.0198 0.0000
# 4 0.0000 0.0000 0.0000 8.0889 0.0000 -8.4316
# 5 12.9784 3.5230 20.0198 0.0000 21.8106 0.0000
# 6 0.0000 0.0000 0.0000 -8.4316 0.0000 10.7632
#
#
#
# Elastic Compliance Matrix: (Units=1/GPa)
#
#
# Indices 1 2 3 4 5 6 
#
# 1 0.050990 0.003847 -0.018067 0.000000 -0.014379 0.000000
# 2 0.003847 0.032932 -0.021626 0.000000 0.012242 0.000000
# 3 -0.018067 -0.021626 0.031867 0.000000 -0.015006 0.000000
# 4 0.000000 0.000000 0.000000 0.673902 0.000000 0.527912
# 5 -0.014379 0.012242 -0.015006 0.000000 0.066202 0.000000
# 6 0.000000 0.000000 0.000000 0.527912 0.000000 0.506457
#
#
# Mechanical properties :
#
#
# Convention : Reuss Voigt Hill
#
# Bulk Modulus (GPa) = 22.67872 43.94624 33.31248
# Shear Modulus (GPa) = 3.45127 14.14291 8.79709
#
# Velocity S-wave (km/s) = 1.34169 2.71602 2.14206
# Velocity P-wave (km/s) = 3.77215 5.72341 4.84698
#
# Compressibility (1/GPa) = 0.04409420
#
# Stress axis : x y z
#
# Youngs Moduli (GPa) = 19.61187 30.36575 31.38090
#
# Poissons Ratio (x) = -0.11682 0.56697
# Poissons Ratio (y) = -0.07545 0.67866
# Poissons Ratio (z) = 0.35434 0.65670
#
# Static dielectric constant tensor:
#      x y z
#    x 1.649350 0.000000 -0.000980 
#    y 0.000000 1.694410 0.000000 
#    z -0.000980 0.000000 1.675460 
# 
# From -- ./inp_files/290939.got.cif
#   From: 2010.05.17/outbox.cif.g08.bks.cpg/sg12_146_cif.got.tgz:290939.got - 2010.06.03 13:09:07.
