data_PCOD9186765
_publ_section_title
;
Structure prediction by ZEFSAII (Michael W. Deem and Ramdas Pophale) SiO2 
 PCOD9186765
Probable space group: C 2/M
;
_chemical_formula_sum "Si O2"
_cell_formula_units_Z 48
_cell_length_a 16.065031
_cell_length_b 29.297471
_cell_length_c 7.237301
_cell_angle_alpha 90.000000
_cell_angle_beta 38.888177
_cell_angle_gamma 90.000000
_cell_volume 2138.510293
_symmetry_space_group_name_H-M "C 2/M"
_symmetry_group_IT_number 12
_symmetry_cell_setting 'monoclinic'
loop_
_space_group_symop_operation_xyz
x,y,z
-x,y,-z
-x,-y,-z
x,-y,z
1/2+x,1/2+y,z
1/2-x,1/2+y,-z
1/2-x,1/2-y,-z
1/2+x,1/2-y,z
loop_
_atom_site_type_symbol
_atom_site_label
_atom_site_fract_x
_atom_site_fract_y
_atom_site_fract_z
Si Si1 0.544036 0.203835 0.640370
Si Si2 0.811853 0.949112 0.643417
Si Si3 0.540664 0.310103 0.722762
Si Si4 0.277942 0.355261 0.133999
Si Si5 0.884657 0.051242 0.958366
Si Si6 0.307790 0.858022 0.128083
O O1 0.500000 0.206900 0.500000
O O2 0.549950 0.255737 0.695244
O O3 0.685686 0.178678 0.409096
O O4 0.434737 0.173627 0.933907
O O5 0.847475 0.947923 0.802649
O O6 0.708843 0.909566 0.772117
O O7 0.956702 0.942235 0.301392
O O8 0.764591 0.000000 0.683247
O O9 0.676674 0.332116 0.423092
O O10 0.500000 0.323407 0.000000
O O11 0.413060 0.330175 0.837754
O O12 0.312517 0.404182 0.161826
O O13 0.198880 0.363803 0.082218
O O14 0.852106 0.000000 0.081910
#
# Coordination Sequence:
#
# PCOD9186765 Si02
#       6
#     8   8   8   8   8   8
#     4  10  22  36  53  77 105 138 174 211 257 310
#     4   8  13  24  48  79 104 129 164 206 252 299
#     4  12  24  36  53  76 101 136 180 220 259 302
#     4  10  19  35  56  78 105 137 172 211 255 306
#     4   8  13  24  48  79 104 129 164 206 252 299
#     4  10  19  35  56  78 105 137 172 211 255 306
#
# _framework density 22.445530000000002
#
# number of rings (size 3 to 8) (size 9 to 14) (size 15 to 20)
#    0.000    2.333    1.667    3.500    0.000    5.333 
#    0.000    0.833    0.000    7.000    0.000    0.000 
#    0.000    4.000    0.000    0.000    0.000    0.000 
#
# Total GULP energy -134091.529879 kJ/mol
# GULP energy per Si atom -5587.147078 kJ/mol
# Density = 2.239444 g / cm^3
# Si number density = 22.445530 Si / 1000 Ang^3
#
#
#
# Elastic Constant Matrix: (Units=GPa)
#
#
# Indices 1 2 3 4 5 6 
#
# 1 34.8130 5.3785 3.7769 0.0000 7.9884 0.0000
# 2 5.3785 192.8834 36.3283 0.0000 -21.2974 0.0000
# 3 3.7769 36.3283 84.8904 0.0000 -13.0957 0.0000
# 4 0.0000 0.0000 0.0000 -114.6201 0.0000 29.7349
# 5 7.9884 -21.2974 -13.0957 0.0000 27.7647 0.0000
# 6 0.0000 0.0000 0.0000 29.7349 0.0000 -51.2794
#
#
#
# Elastic Compliance Matrix: (Units=1/GPa)
#
#
# Indices 1 2 3 4 5 6 
#
# 1 0.031939 -0.001711 -0.002490 0.000000 -0.011676 0.000000
# 2 -0.001711 0.006052 -0.001857 0.000000 0.004259 0.000000
# 3 -0.002490 -0.001857 0.013563 0.000000 0.005689 0.000000
# 4 0.000000 0.000000 0.000000 -0.010269 0.000000 -0.005955
# 5 -0.011676 0.004259 0.005689 0.000000 0.045327 0.000000
# 6 0.000000 0.000000 0.000000 -0.005955 0.000000 -0.022954
#
#
# Mechanical properties :
#
#
# Convention : Reuss Voigt Hill
#
# Bulk Modulus (GPa) = 25.35611 44.83934 35.09772
# Shear Modulus (GPa) = 56.23086 -9.82010 23.20538
#
# Velocity S-wave (km/s) = 5.01064 -2.09394 3.21885
# Velocity P-wave (km/s) = 6.69303 3.76487 5.43005
#
# Compressibility (1/GPa) = 0.03943823
#
# Stress axis : x y z
#
# Youngs Moduli (GPa) = 31.30999 165.23018 73.73005
#
# Poissons Ratio (x) = 0.28269 0.18359
# Poissons Ratio (y) = 0.05357 0.13691
# Poissons Ratio (z) = 0.07796 0.30681
#
# Static dielectric constant tensor:
#      x y z
#    x 1.969310 0.000000 0.054160 
#    y 0.000000 1.817440 0.000000 
#    z 0.054160 0.000000 1.806670 
# 
# From -- ./inp_files/91172.got.cif
#   From: 2010.05.17/outbox.cif.g08.bks.cpg/sg12_46_cif.got.tgz:91172.got - 2010.06.03 13:09:07.
