data_PCOD9186004
_publ_section_title
;
Structure prediction by ZEFSAII (Michael W. Deem and Ramdas Pophale) SiO2 
 PCOD9186004
Probable space group: C 2/M
;
_chemical_formula_sum "Si O2"
_cell_formula_units_Z 56
_cell_length_a 8.020108
_cell_length_b 22.125623
_cell_length_c 26.943517
_cell_angle_alpha 90.000000
_cell_angle_beta 141.847325
_cell_angle_gamma 90.000000
_cell_volume 2953.582799
_symmetry_space_group_name_H-M "C 2/M"
_symmetry_group_IT_number 12
_symmetry_cell_setting 'monoclinic'
loop_
_space_group_symop_operation_xyz
x,y,z
-x,y,-z
-x,-y,-z
x,-y,z
1/2+x,1/2+y,z
1/2-x,1/2+y,-z
1/2-x,1/2-y,-z
1/2+x,1/2-y,z
loop_
_atom_site_type_symbol
_atom_site_label
_atom_site_fract_x
_atom_site_fract_y
_atom_site_fract_z
Si Si1 0.263993 0.889290 0.885121
Si Si2 0.145808 0.931315 0.967959
Si Si3 0.723877 0.572066 0.703523
Si Si4 0.520106 0.769621 0.092101
Si Si5 0.328919 0.842905 0.142747
Si Si6 0.258572 0.426801 0.408477
Si Si7 0.158263 0.927622 0.296428
O O1 0.171616 0.919375 0.914735
O O2 0.320266 0.818076 0.904585
O O3 0.048400 0.900162 0.791816
O O4 0.555640 0.918524 0.941259
O O5 0.918114 0.885190 0.931022
O O6 0.067855 0.000000 0.958875
O O7 0.790858 0.500000 0.723483
O O8 0.691384 0.586292 0.637792
O O9 0.461454 0.582914 0.676610
O O10 0.958916 0.614213 0.780340
O O11 0.452742 0.807813 0.125079
O O12 0.699459 0.711017 0.144747
O O13 0.250000 0.750000 0.000000
O O14 0.500000 0.404409 0.500000
O O15 0.255570 0.500000 0.411768
O O16 0.962556 0.406132 0.357282
O O17 0.154046 0.000000 0.287562
#
# Coordination Sequence:
#
# PCOD9186004 Si02
#       7
#     8   8   8   8   8   8   8
#     4  11  21  39  57  85 117 160 208 254 309 357
#     4  11  23  37  58  84 117 160 205 254 313 375
#     4  10  21  38  62  94 126 157 202 254 309 379
#     4  12  25  40  59  80 114 163 214 265 296 349
#     4  12  24  41  58  83 116 161 210 258 311 355
#     4   9  19  36  60  92 131 166 190 233 310 391
#     4  10  19  34  58  89 126 159 199 251 304 369
#
# _framework density 18.960023
#
# number of rings (size 3 to 8) (size 9 to 14) (size 15 to 20)
#    0.000    1.286    2.857    4.286    2.000    1.714 
#    0.000    3.571    0.000    0.000    0.000    4.000 
#    0.000    0.000    0.000    0.000    0.000    0.000 
#
# Total GULP energy -156519.257789 kJ/mol
# GULP energy per Si atom -5589.973492 kJ/mol
# Density = 1.891687 g / cm^3
# Si number density = 18.960023 Si / 1000 Ang^3
#
#
#
# Elastic Constant Matrix: (Units=GPa)
#
#
# Indices 1 2 3 4 5 6 
#
# 1 142.0378 44.0982 87.9720 0.0002 -1.2164 0.0008
# 2 44.0982 97.4789 41.4455 0.0050 -0.4505 0.0018
# 3 87.9720 41.4455 148.5292 0.0046 -3.4052 0.0046
# 4 0.0002 0.0050 0.0046 7.5246 0.0037 7.7908
# 5 -1.2164 -0.4505 -3.4052 0.0037 21.5768 0.0020
# 6 0.0008 0.0018 0.0046 7.7908 0.0020 20.6666
#
#
#
# Elastic Compliance Matrix: (Units=1/GPa)
#
#
# Indices 1 2 3 4 5 6 
#
# 1 0.011701 -0.002661 -0.006197 0.000007 -0.000374 -0.000001
# 2 -0.002661 0.012246 -0.001846 -0.000010 -0.000186 0.000003
# 3 -0.006197 -0.001846 0.010949 -0.000006 0.001340 0.000000
# 4 0.000007 -0.000010 -0.000006 0.217975 -0.000030 -0.082171
# 5 -0.000374 -0.000186 0.001340 -0.000030 0.046533 0.000007
# 6 -0.000001 0.000003 0.000000 -0.082171 0.000007 0.079364
#
#
# Mechanical properties :
#
#
# Convention : Reuss Voigt Hill
#
# Bulk Modulus (GPa) = 74.12736 81.67527 77.90131
# Shear Modulus (GPa) = 12.35578 24.25564 18.30571
#
# Velocity S-wave (km/s) = 2.55556 3.58062 3.11060
# Velocity P-wave (km/s) = 6.92022 7.76309 7.35374
#
# Compressibility (1/GPa) = 0.01349030
#
# Stress axis : x y z
#
# Youngs Moduli (GPa) = 85.46225 81.65898 91.33630
#
# Poissons Ratio (x) = 0.21726 0.56597
# Poissons Ratio (y) = 0.22737 0.16857
# Poissons Ratio (z) = 0.52957 0.15071
#
# Static dielectric constant tensor:
#      x y z
#    x 1.768470 0.000000 0.005520 
#    y 0.000000 1.654730 0.000000 
#    z 0.005520 0.000000 1.620810 
# 
# From -- ./inp_files/373176.got.cif
#   From: 2010.05.17/outbox.cif.g08.bks.cpg/sg12_187_cif.got.tgz:373176.got - 2010.06.03 13:09:07.
