data_PCOD9186195
_publ_section_title
;
Structure prediction by ZEFSAII (Michael W. Deem and Ramdas Pophale) SiO2 
 PCOD9186195
Probable space group: C 2/M
;
_chemical_formula_sum "Si O2"
_cell_formula_units_Z 56
_cell_length_a 14.068779
_cell_length_b 25.748685
_cell_length_c 7.899250
_cell_angle_alpha 90.000000
_cell_angle_beta 59.507941
_cell_angle_gamma 90.000000
_cell_volume 2465.773377
_symmetry_space_group_name_H-M "C 2/M"
_symmetry_group_IT_number 12
_symmetry_cell_setting 'monoclinic'
loop_
_space_group_symop_operation_xyz
x,y,z
-x,y,-z
-x,-y,-z
x,-y,z
1/2+x,1/2+y,z
1/2-x,1/2+y,-z
1/2-x,1/2-y,-z
1/2+x,1/2-y,z
loop_
_atom_site_type_symbol
_atom_site_label
_atom_site_fract_x
_atom_site_fract_y
_atom_site_fract_z
Si Si1 0.371457 0.441820 0.165294
Si Si2 0.341612 0.796704 0.691011
Si Si3 0.829348 0.347004 0.234114
Si Si4 0.015514 0.261621 0.759275
Si Si5 0.045967 0.555181 0.766129
Si Si6 0.646992 0.669056 0.658442
Si Si7 0.673440 0.098039 0.132331
O O1 0.345554 0.500000 0.254080
O O2 0.360553 0.391577 0.294451
O O3 0.285982 0.429095 0.089550
O O4 0.500000 0.442454 0.000000
O O5 0.389193 0.771465 0.819183
O O6 0.412766 0.775095 0.473101
O O7 0.217392 0.799199 0.736277
O O8 0.360721 0.857344 0.706328
O O9 0.917988 0.300371 0.174321
O O10 0.877866 0.394205 0.305730
O O11 0.715810 0.327693 0.420978
O O12 0.816516 0.372554 0.059534
O O13 0.033642 0.200475 0.766654
O O14 0.101139 0.500000 0.679316
O O15 0.932006 0.561015 0.769970
O O16 0.000000 0.554379 0.000000
#
# Coordination Sequence:
#
# PCOD9186195 Si02
#       7
#     8   8   8   8   8   8   8
#     4  10  23  47  66  81 113 158 206 257 303 357
#     4   9  18  34  59  83 120 165 190 232 296 354
#     4  10  19  34  59  90 128 155 192 247 297 356
#     4  10  19  37  57  83 127 165 193 243 295 352
#     4   9  17  29  50  85 122 151 185 232 292 350
#     4  10  22  41  61  89 119 161 205 242 304 360
#     4  10  19  36  61  91 117 159 198 242 305 355
#
# _framework density 22.710927000000002
#
# number of rings (size 3 to 8) (size 9 to 14) (size 15 to 20)
#    0.000    2.286    1.429    2.143    0.000    1.143 
#   10.286    3.571    0.000    5.143    0.000    0.000 
#    0.000    0.000    0.000    0.000    0.000    0.000 
#
# Total GULP energy -156028.549362 kJ/mol
# GULP energy per Si atom -5572.448191 kJ/mol
# Density = 2.265924 g / cm^3
# Si number density = 22.710927 Si / 1000 Ang^3
#
#
#
# Elastic Constant Matrix: (Units=GPa)
#
#
# Indices 1 2 3 4 5 6 
#
# 1 62.5926 32.0440 8.3880 0.0000 -6.2338 0.0000
# 2 32.0440 149.0293 27.2099 0.0000 -1.7961 0.0000
# 3 8.3880 27.2099 60.7715 0.0000 -0.7673 0.0000
# 4 0.0000 0.0000 0.0000 17.0290 0.0000 -14.7254
# 5 -6.2338 -1.7961 -0.7673 0.0000 24.8117 0.0000
# 6 0.0000 0.0000 0.0000 -14.7254 0.0000 16.9477
#
#
#
# Elastic Compliance Matrix: (Units=1/GPa)
#
#
# Indices 1 2 3 4 5 6 
#
# 1 0.018444 -0.003767 -0.000805 0.000000 0.004336 0.000000
# 2 -0.003767 0.008081 -0.003104 0.000000 -0.000457 0.000000
# 3 -0.000805 -0.003104 0.017958 0.000000 0.000129 0.000000
# 4 0.000000 0.000000 0.000000 0.236151 0.000000 0.205185
# 5 0.004336 -0.000457 0.000129 0.000000 0.041364 0.000000
# 6 0.000000 0.000000 0.000000 0.205185 0.000000 0.237285
#
#
# Mechanical properties :
#
#
# Convention : Reuss Voigt Hill
#
# Bulk Modulus (GPa) = 34.32605 45.29748 39.81177
# Shear Modulus (GPa) = 8.55660 25.40779 16.98219
#
# Velocity S-wave (km/s) = 1.94314 3.34840 2.73748
# Velocity P-wave (km/s) = 4.49239 5.91080 5.24972
#
# Compressibility (1/GPa) = 0.02913239
#
# Stress axis : x y z
#
# Youngs Moduli (GPa) = 54.21707 123.74313 55.68668
#
# Poissons Ratio (x) = 0.46611 0.04480
# Poissons Ratio (y) = 0.20422 0.17286
# Poissons Ratio (z) = 0.04362 0.38412
#
# Static dielectric constant tensor:
#      x y z
#    x 1.930650 0.000000 0.060750 
#    y 0.000000 1.858150 0.000000 
#    z 0.060750 0.000000 1.890220 
# 
# From -- ./inp_files/65759.got.cif
#   From: 2010.05.17/outbox.cif.g08.bks.cpg/sg12_33_cif.got.tgz:65759.got - 2010.06.03 13:09:07.
