data_PCOD9186956
_publ_section_title
;
Structure prediction by ZEFSAII (Michael W. Deem and Ramdas Pophale) SiO2 
 PCOD9186956
Probable space group: C 2/M
;
_chemical_formula_sum "Si O2"
_cell_formula_units_Z 58
_cell_length_a 14.436819
_cell_length_b 9.324294
_cell_length_c 22.421640
_cell_angle_alpha 90.000000
_cell_angle_beta 97.268251
_cell_angle_gamma 90.000000
_cell_volume 2993.994947
_symmetry_space_group_name_H-M "C 2/M"
_symmetry_group_IT_number 12
_symmetry_cell_setting 'monoclinic'
loop_
_space_group_symop_operation_xyz
x,y,z
-x,y,-z
-x,-y,-z
x,-y,z
1/2+x,1/2+y,z
1/2-x,1/2+y,-z
1/2-x,1/2-y,-z
1/2+x,1/2-y,z
loop_
_atom_site_type_symbol
_atom_site_label
_atom_site_fract_x
_atom_site_fract_y
_atom_site_fract_z
Si Si1 0.874692 0.173937 0.154285
Si Si2 0.218204 0.161223 0.589154
Si Si3 0.991341 0.671515 0.069640
Si Si4 0.835016 0.327471 0.832881
Si Si5 0.887829 0.774553 0.538579
Si Si6 0.461061 0.338633 0.358569
Si Si7 0.523229 0.172318 0.252353
Si Si8 0.500000 0.000000 0.500000
O O1 0.768999 0.220434 0.160692
O O2 0.910102 0.236723 0.094097
O O3 0.943232 0.248678 0.207446
O O4 0.881780 0.000000 0.156501
O O5 0.162528 0.155057 0.521842
O O6 0.308107 0.254819 0.582337
O O7 0.142065 0.213168 0.630796
O O8 0.246586 0.000000 0.608634
O O9 0.976162 0.500000 0.078677
O O10 0.087590 0.712420 0.111323
O O11 0.000000 0.694713 0.000000
O O12 0.830783 0.500000 0.833194
O O13 0.879555 0.287841 0.772555
O O14 0.975791 0.846152 0.577241
O O15 0.927436 0.624241 0.518126
O O16 0.453210 0.500000 0.332825
O O17 0.510164 0.231115 0.317367
O O18 0.513103 0.000000 0.249020
#
# Coordination Sequence:
#
# PCOD9186956 Si02
#       8
#     8   8   8   8   8   8   8   2
#     4  10  19  35  57  80 109 143 183 229 274 320
#     4  10  21  37  56  78 108 143 175 214 274 331
#     4   9  18  34  55  82 117 153 187 221 264 321
#     4   8  17  35  56  78 107 147 183 220 274 323
#     4  11  22  36  57  82 108 140 178 222 267 327
#     4  11  23  39  56  80 111 142 176 222 274 326
#     4  10  22  39  59  78 105 143 185 227 272 326
#     4  12  20  36  58  84 106 140 182 228 258 332
#
# _framework density 19.372108999999998
#
# number of rings (size 3 to 8) (size 9 to 14) (size 15 to 20)
#    0.000    2.069    2.069    2.069    0.966    3.034 
#    0.000   11.034    0.000    0.000    0.000    0.000 
#    0.000    0.000    0.000    0.000    0.000    0.000 
#
# Total GULP energy -161447.271942 kJ/mol
# GULP energy per Si atom -5567.147308 kJ/mol
# Density = 1.932802 g / cm^3
# Si number density = 19.372109 Si / 1000 Ang^3
#
#
#
# Elastic Constant Matrix: (Units=GPa)
#
#
# Indices 1 2 3 4 5 6 
#
# 1 123.3271 27.3477 21.9128 0.0000 -38.5865 0.0000
# 2 27.3477 79.3570 21.7387 0.0000 -14.1567 0.0000
# 3 21.9128 21.7387 53.0789 0.0000 -19.5858 0.0000
# 4 0.0000 0.0000 0.0000 92.5392 0.0000 4.9381
# 5 -38.5865 -14.1567 -19.5858 0.0000 23.4165 0.0000
# 6 0.0000 0.0000 0.0000 4.9381 0.0000 22.1897
#
#
#
# Elastic Compliance Matrix: (Units=1/GPa)
#
#
# Indices 1 2 3 4 5 6 
#
# 1 0.017814 -0.001782 0.005510 0.000000 0.032886 0.000000
# 2 -0.001782 0.014856 -0.004510 0.000000 0.002273 0.000000
# 3 0.005510 -0.004510 0.030022 0.000000 0.031464 0.000000
# 4 0.000000 0.000000 0.000000 0.010936 0.000000 -0.002434
# 5 0.032886 0.002273 0.031464 0.000000 0.124587 0.000000
# 6 0.000000 0.000000 0.000000 -0.002434 0.000000 0.045608
#
#
# Mechanical properties :
#
#
# Convention : Reuss Voigt Hill
#
# Bulk Modulus (GPa) = 16.35880 44.19572 30.27726
# Shear Modulus (GPa) = 18.81380 39.94666 29.38023
#
# Velocity S-wave (km/s) = 3.11976 4.54593 3.89861
# Velocity P-wave (km/s) = 4.63034 7.10053 5.99406
#
# Compressibility (1/GPa) = 0.06112917
#
# Stress axis : x y z
#
# Youngs Moduli (GPa) = 56.13606 67.31144 33.30857
#
# Poissons Ratio (x) = 0.11993 -0.18354
# Poissons Ratio (y) = 0.10002 0.15022
# Poissons Ratio (z) = -0.30932 0.30358
#
# Static dielectric constant tensor:
#      x y z
#    x 1.683550 0.000000 -0.004570 
#    y 0.000000 1.670050 0.000000 
#    z -0.004570 0.000000 1.714490 
# 
# From -- ./inp_files/337943.got.cif
#   From: 2010.05.17/outbox.cif.g08.bks.cpg/sg12_169_cif.got.tgz:337943.got - 2010.06.03 13:09:07.
