data_PCOD9186081
_publ_section_title
;
Structure prediction by ZEFSAII (Michael W. Deem and Ramdas Pophale) SiO2 
 PCOD9186081
Probable space group: C 2/M
;
_chemical_formula_sum "Si O2"
_cell_formula_units_Z 48
_cell_length_a 19.803203
_cell_length_b 7.599938
_cell_length_c 20.023809
_cell_angle_alpha 90.000000
_cell_angle_beta 136.119600
_cell_angle_gamma 90.000000
_cell_volume 2088.924435
_symmetry_space_group_name_H-M "C 2/M"
_symmetry_group_IT_number 12
_symmetry_cell_setting 'monoclinic'
loop_
_space_group_symop_operation_xyz
x,y,z
-x,y,-z
-x,-y,-z
x,-y,z
1/2+x,1/2+y,z
1/2-x,1/2+y,-z
1/2-x,1/2-y,-z
1/2+x,1/2-y,z
loop_
_atom_site_type_symbol
_atom_site_label
_atom_site_fract_x
_atom_site_fract_y
_atom_site_fract_z
Si Si1 0.312774 0.284067 0.212993
Si Si2 0.230561 0.709235 0.408956
Si Si3 0.358934 0.289172 0.102650
Si Si4 0.395434 0.200355 0.913372
Si Si5 0.388165 0.285048 0.411591
Si Si6 0.438532 0.705174 0.803822
O O1 0.310604 0.500000 0.212540
O O2 0.368879 0.229423 0.186616
O O3 0.201529 0.219987 0.125743
O O4 0.352511 0.227966 0.312859
O O5 0.227419 0.500000 0.399758
O O6 0.250000 0.750000 0.500000
O O7 0.315728 0.774173 0.419185
O O8 0.126956 0.778714 0.308708
O O9 0.368239 0.500000 0.109143
O O10 0.451870 0.223495 0.127379
O O11 0.250000 0.250000 0.000000
O O12 0.383924 0.199223 0.825290
O O13 0.401310 0.000000 0.942856
O O14 0.500000 0.285774 0.000000
O O15 0.500000 0.230060 0.500000
O O16 0.386988 0.500000 0.411521
O O17 0.442990 0.500000 0.825058
#
# Coordination Sequence:
#
# PCOD9186081 Si02
#       6
#     8   8   8   8   8   8
#     4   9  17  33  55  81 109 144 192 238 279 331
#     4  11  23  40  63  89 117 152 195 242 296 354
#     4  10  22  38  59  85 117 155 198 242 286 340
#     4  10  19  34  59  85 110 148 195 240 286 342
#     4   9  18  33  59  87 109 141 190 240 282 335
#     4  11  23  38  58  87 122 155 190 239 298 354
#
# _framework density 22.978332999999999
#
# number of rings (size 3 to 8) (size 9 to 14) (size 15 to 20)
#    0.000    2.000    1.667    2.000    2.333    3.000 
#    0.000    0.833    0.000    2.000    0.000    0.000 
#    0.000    0.000    0.000    0.000    0.000    0.000 
#
# Total GULP energy -134104.930491 kJ/mol
# GULP energy per Si atom -5587.705437 kJ/mol
# Density = 2.292603 g / cm^3
# Si number density = 22.978333 Si / 1000 Ang^3
#
#
#
# Elastic Constant Matrix: (Units=GPa)
#
#
# Indices 1 2 3 4 5 6 
#
# 1 107.0406 9.5884 14.8143 0.0000 1.1139 0.0000
# 2 9.5884 64.5965 0.8882 0.0000 1.5314 0.0000
# 3 14.8143 0.8882 99.2285 0.0000 0.6243 0.0000
# 4 0.0000 0.0000 0.0000 19.5838 0.0000 -7.6921
# 5 1.1139 1.5314 0.6243 0.0000 45.9650 0.0000
# 6 0.0000 0.0000 0.0000 -7.6921 0.0000 10.0460
#
#
#
# Elastic Compliance Matrix: (Units=1/GPa)
#
#
# Indices 1 2 3 4 5 6 
#
# 1 0.009668 -0.001411 -0.001430 0.000000 -0.000168 0.000000
# 2 -0.001411 0.015701 0.000073 0.000000 -0.000490 0.000000
# 3 -0.001430 0.000073 0.010291 0.000000 -0.000108 0.000000
# 4 0.000000 0.000000 0.000000 0.073024 0.000000 0.055914
# 5 -0.000168 -0.000490 -0.000108 0.000000 0.021778 0.000000
# 6 0.000000 0.000000 0.000000 0.055914 0.000000 0.142354
#
#
# Mechanical properties :
#
#
# Convention : Reuss Voigt Hill
#
# Bulk Modulus (GPa) = 33.19561 35.71638 34.45599
# Shear Modulus (GPa) = 17.33743 31.49062 24.41403
#
# Velocity S-wave (km/s) = 2.74982 3.70597 3.26311
# Velocity P-wave (km/s) = 4.95579 5.82147 5.40599
#
# Compressibility (1/GPa) = 0.03012446
#
# Stress axis : x y z
#
# Youngs Moduli (GPa) = 103.43069 63.69089 97.17020
#
# Poissons Ratio (x) = 0.08990 0.13893
# Poissons Ratio (y) = 0.14599 -0.00712
# Poissons Ratio (z) = 0.14788 -0.00467
#
# Static dielectric constant tensor:
#      x y z
#    x 1.853690 0.000000 -0.009360 
#    y 0.000000 1.867290 0.000000 
#    z -0.009360 0.000000 1.872990 
# 
# From -- ./inp_files/320308.got.cif
#   From: 2010.05.17/outbox.cif.g08.bks.cpg/sg12_161_cif.got.tgz:320308.got - 2010.06.03 13:09:07.
