data_PCOD9186995
_publ_section_title
;
Structure prediction by ZEFSAII (Michael W. Deem and Ramdas Pophale) SiO2 
 PCOD9186995
Probable space group: C 2/M
;
_chemical_formula_sum "Si O2"
_cell_formula_units_Z 56
_cell_length_a 19.198711
_cell_length_b 18.383416
_cell_length_c 9.128081
_cell_angle_alpha 90.000000
_cell_angle_beta 57.591021
_cell_angle_gamma 90.000000
_cell_volume 2719.854836
_symmetry_space_group_name_H-M "C 2/M"
_symmetry_group_IT_number 12
_symmetry_cell_setting 'monoclinic'
loop_
_space_group_symop_operation_xyz
x,y,z
-x,y,-z
-x,-y,-z
x,-y,z
1/2+x,1/2+y,z
1/2-x,1/2+y,-z
1/2-x,1/2-y,-z
1/2+x,1/2-y,z
loop_
_atom_site_type_symbol
_atom_site_label
_atom_site_fract_x
_atom_site_fract_y
_atom_site_fract_z
Si Si1 0.089917 0.375211 0.465918
Si Si2 0.134873 0.290464 0.013730
Si Si3 0.993273 0.582510 0.832516
Si Si4 0.268459 0.578586 0.206967
Si Si5 0.829027 0.216553 0.324233
Si Si6 0.683068 0.652383 0.124830
Si Si7 0.913643 0.202745 0.519435
O O1 0.169204 0.413930 0.310156
O O2 0.104758 0.288797 0.433147
O O3 0.000000 0.393373 0.500000
O O4 0.076692 0.398354 0.650175
O O5 0.137499 0.271042 0.838563
O O6 0.224261 0.319308 0.958743
O O7 0.068865 0.351188 0.130255
O O8 0.127436 0.214914 0.109813
O O9 0.967451 0.500000 0.819215
O O10 0.000000 0.582265 0.000000
O O11 0.289581 0.500000 0.244899
O O12 0.298236 0.645325 0.272904
O O13 0.308778 0.588607 0.001279
O O14 0.750000 0.250000 0.500000
O O15 0.899347 0.196709 0.362485
O O16 0.648105 0.648495 0.327103
O O17 0.000000 0.188831 0.500000
#
# Coordination Sequence:
#
# PCOD9186995 Si02
#       7
#     8   8   8   8   8   8   8
#     4  11  21  36  58  88 128 165 203 240 294 375
#     4  10  19  35  57  81 119 168 206 247 294 351
#     4  11  24  36  50  83 128 166 195 233 291 365
#     4  11  24  40  62  90 126 172 212 255 319 380
#     4  11  20  39  65  91 122 162 211 267 306 361
#     4  10  20  37  59  86 115 152 213 261 298 362
#     4  11  21  37  65  97 120 156 211 264 321 366
#
# _framework density 20.589334999999998
#
# number of rings (size 3 to 8) (size 9 to 14) (size 15 to 20)
#    0.000    1.286    2.857    5.571    0.000    2.857 
#    0.000    2.857    0.000    2.571    0.000    0.000 
#    0.000    0.000    0.000    0.000    0.000    0.000 
#
# Total GULP energy -156305.889921 kJ/mol
# GULP energy per Si atom -5582.353211 kJ/mol
# Density = 2.054247 g / cm^3
# Si number density = 20.589335 Si / 1000 Ang^3
#
#
#
# Elastic Constant Matrix: (Units=GPa)
#
#
# Indices 1 2 3 4 5 6 
#
# 1 67.8268 20.5000 5.3388 0.0000 11.5029 0.0000
# 2 20.5000 96.9711 33.1183 0.0000 -7.1561 0.0000
# 3 5.3388 33.1183 105.8199 0.0000 10.7949 0.0000
# 4 0.0000 0.0000 0.0000 16.0423 0.0000 5.1781
# 5 11.5029 -7.1561 10.7949 0.0000 32.9900 0.0000
# 6 0.0000 0.0000 0.0000 5.1781 0.0000 6.8125
#
#
#
# Elastic Compliance Matrix: (Units=1/GPa)
#
#
# Indices 1 2 3 4 5 6 
#
# 1 0.017322 -0.004678 0.001355 0.000000 -0.007498 0.000000
# 2 -0.004678 0.013293 -0.004536 0.000000 0.005999 0.000000
# 3 0.001355 -0.004536 0.011328 0.000000 -0.005163 0.000000
# 4 0.000000 0.000000 0.000000 0.082600 0.000000 -0.062784
# 5 -0.007498 0.005999 -0.005163 0.000000 0.035917 0.000000
# 6 0.000000 0.000000 0.000000 -0.062784 0.000000 0.194511
#
#
# Mechanical properties :
#
#
# Convention : Reuss Voigt Hill
#
# Bulk Modulus (GPa) = 38.13166 43.17021 40.65094
# Shear Modulus (GPa) = 13.17758 25.27968 19.22863
#
# Velocity S-wave (km/s) = 2.53261 3.50781 3.05931
# Velocity P-wave (km/s) = 5.20696 6.11711 5.68029
#
# Compressibility (1/GPa) = 0.02622492
#
# Stress axis : x y z
#
# Youngs Moduli (GPa) = 57.72905 75.22583 88.27607
#
# Poissons Ratio (x) = 0.35191 -0.11962
# Poissons Ratio (y) = 0.27006 0.40045
# Poissons Ratio (z) = -0.07823 0.34125
#
# Static dielectric constant tensor:
#      x y z
#    x 1.757820 0.000000 0.031320 
#    y 0.000000 1.724490 0.000000 
#    z 0.031320 0.000000 1.799950 
# 
# From -- ./inp_files/87841.got.cif
#   From: 2010.05.17/outbox.cif.g08.bks.cpg/sg12_44_cif.got.tgz:87841.got - 2010.06.03 13:09:07.
