data_PCOD9186625
_publ_section_title
;
Structure prediction by ZEFSAII (Michael W. Deem and Ramdas Pophale) SiO2 
 PCOD9186625
Probable space group: C 2/M
;
_chemical_formula_sum "Si O2"
_cell_formula_units_Z 48
_cell_length_a 31.515167
_cell_length_b 8.995220
_cell_length_c 9.843429
_cell_angle_alpha 90.000000
_cell_angle_beta 79.198002
_cell_angle_gamma 90.000000
_cell_volume 2741.027757
_symmetry_space_group_name_H-M "C 2/M"
_symmetry_group_IT_number 12
_symmetry_cell_setting 'monoclinic'
loop_
_space_group_symop_operation_xyz
x,y,z
-x,y,-z
-x,-y,-z
x,-y,z
1/2+x,1/2+y,z
1/2-x,1/2+y,-z
1/2-x,1/2-y,-z
1/2+x,1/2-y,z
loop_
_atom_site_type_symbol
_atom_site_label
_atom_site_fract_x
_atom_site_fract_y
_atom_site_fract_z
Si Si1 0.238709 0.677081 0.362030
Si Si2 0.451991 0.321560 0.066609
Si Si3 0.374741 0.322589 0.907620
Si Si4 0.606985 0.822057 0.682610
Si Si5 0.685583 0.177648 0.841472
Si Si6 0.637430 0.822331 0.369851
O O1 0.245659 0.500000 0.365720
O O2 0.250000 0.750000 0.500000
O O3 0.269931 0.748100 0.230845
O O4 0.188570 0.703389 0.359325
O O5 0.452809 0.500000 0.080408
O O6 0.432496 0.252364 0.215022
O O7 0.500000 0.270366 0.000000
O O8 0.417707 0.285330 0.968357
O O9 0.369026 0.500000 0.913559
O O10 0.377933 0.262734 0.753817
O O11 0.335026 0.244706 0.009958
O O12 0.650440 0.789206 0.743400
O O13 0.614023 0.775390 0.523222
O O14 0.601911 0.000000 0.688248
O O15 0.690006 0.000000 0.849530
O O16 0.631311 0.000000 0.356429
#
# Coordination Sequence:
#
# PCOD9186625 Si02
#       6
#     8   8   8   8   8   8
#     4  11  21  34  53  78 108 143 186 227 262 309
#     4   9  19  37  59  82 107 134 170 218 268 321
#     4  10  21  36  55  81 107 139 180 220 267 323
#     4   9  18  34  55  79 106 138 179 217 260 317
#     4  10  19  35  55  77 106 144 183 226 268 308
#     4  10  21  37  53  76 111 146 176 219 269 312
#
# _framework density 17.511679000000001
#
# number of rings (size 3 to 8) (size 9 to 14) (size 15 to 20)
#    0.000    2.167    1.667    1.500    0.000    4.333 
#    0.000    0.833    0.000    5.000    0.000    0.000 
#    0.000    0.000    0.000    0.000    0.000    0.000 
#
# Total GULP energy -133980.944240 kJ/mol
# GULP energy per Si atom -5582.539343 kJ/mol
# Density = 1.747182 g / cm^3
# Si number density = 17.511679 Si / 1000 Ang^3
#
#
#
# Elastic Constant Matrix: (Units=GPa)
#
#
# Indices 1 2 3 4 5 6 
#
# 1 89.7217 45.6824 60.3567 0.0000 -32.3927 0.0000
# 2 45.6824 42.6181 51.6125 0.0000 -8.8848 0.0000
# 3 60.3567 51.6125 156.5883 0.0000 -21.5965 0.0000
# 4 0.0000 0.0000 0.0000 35.2022 0.0000 -4.3185
# 5 -32.3927 -8.8848 -21.5965 0.0000 26.4083 0.0000
# 6 0.0000 0.0000 0.0000 -4.3185 0.0000 23.7093
#
#
#
# Elastic Compliance Matrix: (Units=1/GPa)
#
#
# Indices 1 2 3 4 5 6 
#
# 1 0.052165 -0.049094 0.002955 0.000000 0.049885 0.000000
# 2 -0.049094 0.085462 -0.015312 0.000000 -0.043989 0.000000
# 3 0.002955 -0.015312 0.011365 0.000000 0.007768 0.000000
# 4 0.000000 0.000000 0.000000 0.029057 0.000000 0.005293
# 5 0.049885 -0.043989 0.007768 0.000000 0.090609 0.000000
# 6 0.000000 0.000000 0.000000 0.005293 0.000000 0.043142
#
#
# Mechanical properties :
#
#
# Convention : Reuss Voigt Hill
#
# Bulk Modulus (GPa) = 38.33061 67.13682 52.73372
# Shear Modulus (GPa) = 11.27654 25.81570 18.54612
#
# Velocity S-wave (km/s) = 2.54036 3.84370 3.25787
# Velocity P-wave (km/s) = 5.52636 7.62366 6.65811
#
# Compressibility (1/GPa) = 0.02608881
#
# Stress axis : x y z
#
# Youngs Moduli (GPa) = 19.17012 11.70112 87.98558
#
# Poissons Ratio (x) = 0.57446 -0.26001
# Poissons Ratio (y) = 0.94114 1.34727
# Poissons Ratio (z) = -0.05665 0.17917
#
# Static dielectric constant tensor:
#      x y z
#    x 1.580760 0.000000 0.001860 
#    y 0.000000 1.582050 0.000000 
#    z 0.001860 0.000000 1.586500 
# 
# From -- ./inp_files/108711.got.cif
#   From: 2010.05.17/outbox.cif.g08.bks.cpg/sg12_55_cif.got.tgz:108711.got - 2010.06.03 13:09:07.
