data_PCOD9186314
_publ_section_title
;
Structure prediction by ZEFSAII (Michael W. Deem and Ramdas Pophale) SiO2 
 PCOD9186314
Probable space group: C 2/M
;
_chemical_formula_sum "Si O2"
_cell_formula_units_Z 56
_cell_length_a 10.658692
_cell_length_b 13.565171
_cell_length_c 25.133762
_cell_angle_alpha 90.000000
_cell_angle_beta 40.998984
_cell_angle_gamma 90.000000
_cell_volume 2384.079544
_symmetry_space_group_name_H-M "C 2/M"
_symmetry_group_IT_number 12
_symmetry_cell_setting 'monoclinic'
loop_
_space_group_symop_operation_xyz
x,y,z
-x,y,-z
-x,-y,-z
x,-y,z
1/2+x,1/2+y,z
1/2-x,1/2+y,-z
1/2-x,1/2-y,-z
1/2+x,1/2-y,z
loop_
_atom_site_type_symbol
_atom_site_label
_atom_site_fract_x
_atom_site_fract_y
_atom_site_fract_z
Si Si1 0.056298 0.113423 0.854608
Si Si2 0.374357 0.110710 0.289928
Si Si3 0.902042 0.890021 0.286389
Si Si4 0.198336 0.257308 0.604938
Si Si5 0.321193 0.820196 0.188109
Si Si6 0.579406 0.387796 0.550859
Si Si7 0.622627 0.884201 0.008615
O O1 0.075859 0.111827 0.784209
O O2 0.180151 0.207268 0.832068
O O3 0.090877 0.000000 0.862013
O O4 0.841949 0.147693 0.939569
O O5 0.446052 0.166522 0.320042
O O6 0.375415 0.165707 0.232975
O O7 0.148886 0.104466 0.377030
O O8 0.450126 0.000000 0.260179
O O9 0.115924 0.868313 0.240607
O O10 0.753194 0.810650 0.358641
O O11 0.844342 0.000000 0.320949
O O12 0.332798 0.322419 0.524378
O O13 0.125084 0.172697 0.589188
O O14 0.492070 0.872630 0.101718
O O15 0.655189 0.500000 0.525341
O O16 0.645094 0.000000 0.989169
O O17 0.500000 0.837593 0.000000
#
# Coordination Sequence:
#
# PCOD9186314 Si02
#       7
#     8   8   8   8   8   8   8
#     4  10  22  39  59  86 123 157 192 240 293 344
#     4  11  22  37  60  89 118 152 197 247 291 344
#     4  11  21  38  62  86 115 155 199 243 286 347
#     4  11  21  36  60  88 117 147 193 247 294 344
#     4  12  21  36  63  89 117 155 202 241 288 344
#     4  10  22  40  62  84 114 156 197 237 291 354
#     4  10  19  34  60  92 118 151 200 244 281 336
#
# _framework density 23.489149999999999
#
# number of rings (size 3 to 8) (size 9 to 14) (size 15 to 20)
#    0.000    1.286    4.286    3.000    0.000    1.143 
#    0.000    1.429    0.000   18.429    0.000    0.000 
#    0.000    0.000    0.000    0.000    0.000    0.000 
#
# Total GULP energy -156188.621091 kJ/mol
# GULP energy per Si atom -5578.165039 kJ/mol
# Density = 2.343569 g / cm^3
# Si number density = 23.489150 Si / 1000 Ang^3
#
#
#
# Elastic Constant Matrix: (Units=GPa)
#
#
# Indices 1 2 3 4 5 6 
#
# 1 18.9028 -6.4343 9.9703 -0.0001 -3.2573 0.0002
# 2 -6.4343 122.4054 -7.6907 -0.0001 -11.4445 0.0001
# 3 9.9703 -7.6907 101.2025 -0.0002 2.3597 0.0002
# 4 -0.0001 -0.0001 -0.0002 46.6274 0.0001 6.3723
# 5 -3.2573 -11.4445 2.3597 0.0001 34.5300 -0.0001
# 6 0.0002 0.0001 0.0002 6.3723 -0.0001 16.1127
#
#
#
# Elastic Compliance Matrix: (Units=1/GPa)
#
#
# Indices 1 2 3 4 5 6 
#
# 1 0.058228 0.003360 -0.005644 0.000000 0.006992 -0.000001
# 2 0.003360 0.008658 0.000253 0.000000 0.003169 0.000000
# 3 -0.005644 0.000253 0.010484 0.000000 -0.001165 0.000000
# 4 0.000000 0.000000 0.000000 0.022672 0.000000 -0.008966
# 5 0.006992 0.003169 -0.001165 0.000000 0.030750 0.000000
# 6 -0.000001 0.000000 0.000000 -0.008966 0.000000 0.065609
#
#
# Mechanical properties :
#
#
# Convention : Reuss Voigt Hill
#
# Bulk Modulus (GPa) = 13.64122 26.02237 19.83180
# Shear Modulus (GPa) = 22.23225 35.89839 29.06532
#
# Velocity S-wave (km/s) = 3.07985 3.91358 3.52148
# Velocity P-wave (km/s) = 4.29736 5.61463 4.99957
#
# Compressibility (1/GPa) = 0.07330724
#
# Stress axis : x y z
#
# Youngs Moduli (GPa) = 17.17396 115.49458 95.38676
#
# Poissons Ratio (x) = -0.38805 0.53838
# Poissons Ratio (y) = -0.05770 -0.02414
# Poissons Ratio (z) = 0.09693 -0.02923
#
# Static dielectric constant tensor:
#      x y z
#    x 1.959140 0.000000 -0.017840 
#    y 0.000000 1.992370 0.000000 
#    z -0.017840 0.000000 1.858010 
# 
# From -- ./inp_files/360778.got.cif
#   From: 2010.05.17/outbox.cif.g08.bks.cpg/sg12_181_cif.got.tgz:360778.got - 2010.06.03 13:09:07.
