data_PCOD9186331
_publ_section_title
;
Structure prediction by ZEFSAII (Michael W. Deem and Ramdas Pophale) SiO2 
 PCOD9186331
Probable space group: C 2/M
;
_chemical_formula_sum "Si O2"
_cell_formula_units_Z 64
_cell_length_a 23.143224
_cell_length_b 22.346444
_cell_length_c 16.748008
_cell_angle_alpha 90.000000
_cell_angle_beta 160.147997
_cell_angle_gamma 90.000000
_cell_volume 2941.389705
_symmetry_space_group_name_H-M "C 2/M"
_symmetry_group_IT_number 12
_symmetry_cell_setting 'monoclinic'
loop_
_space_group_symop_operation_xyz
x,y,z
-x,y,-z
-x,-y,-z
x,-y,z
1/2+x,1/2+y,z
1/2-x,1/2+y,-z
1/2-x,1/2-y,-z
1/2+x,1/2-y,z
loop_
_atom_site_type_symbol
_atom_site_label
_atom_site_fract_x
_atom_site_fract_y
_atom_site_fract_z
Si Si1 0.601105 0.686322 0.479460
Si Si2 0.393909 0.937228 0.716456
Si Si3 0.769292 0.314675 0.980975
Si Si4 0.805615 0.773617 0.658299
Si Si5 0.835680 0.070088 0.845719
Si Si6 0.973776 0.430327 0.292805
Si Si7 0.435436 0.379375 0.737891
Si Si8 0.419087 0.179096 0.001158
O O1 0.426706 0.675033 0.297692
O O2 0.663867 0.753756 0.537384
O O3 0.566889 0.656001 0.348565
O O4 0.756365 0.665055 0.735784
O O5 0.477217 0.935133 0.737102
O O6 0.191391 0.933923 0.441867
O O7 0.442824 0.000000 0.818954
O O8 0.455482 0.877475 0.839617
O O9 0.872291 0.309499 0.032536
O O10 0.750000 0.250000 0.000000
O O11 0.846275 0.372463 0.128799
O O12 0.750000 0.750000 0.500000
O O13 0.841601 0.841478 0.685785
O O14 0.980540 0.737669 0.896706
O O15 0.649831 0.083932 0.568341
O O16 0.831415 0.000000 0.859070
O O17 0.000000 0.077179 0.000000
O O18 0.884411 0.105099 0.989800
O O19 0.919118 0.500000 0.244222
#
# Coordination Sequence:
#
# PCOD9186331 Si02
#       8
#     8   8   8   8   8   8   8   8
#     4  11  24  40  59  90 128 167 207 265 320 381
#     4  10  19  35  62  90 123 162 204 254 310 372
#     4  11  24  41  67  91 124 168 223 271 316 387
#     4  10  20  36  60  86 123 162 197 258 322 374
#     4  10  19  34  60  95 128 161 211 267 321 390
#     4   9  20  39  62  90 128 171 211 263 333 393
#     4  11  21  35  60  92 130 159 204 259 321 381
#     4  11  22  42  63  88 127 166 209 260 320 387
#
# _framework density 21.758421999999999
#
# number of rings (size 3 to 8) (size 9 to 14) (size 15 to 20)
#    0.000    1.625    3.750    2.625    1.750    2.000 
#    0.000    5.625    0.000    4.500    0.000    0.000 
#    0.000    0.000    0.000    0.000    0.000    0.000 
#
# Total GULP energy -178322.757926 kJ/mol
# GULP energy per Si atom -5572.586185 kJ/mol
# Density = 2.170890 g / cm^3
# Si number density = 21.758422 Si / 1000 Ang^3
#
#
#
# Elastic Constant Matrix: (Units=GPa)
#
#
# Indices 1 2 3 4 5 6 
#
# 1 57.0880 30.4731 19.5396 0.0000 -5.4182 0.0000
# 2 30.4731 100.8597 39.6393 0.0000 -11.7452 0.0000
# 3 19.5396 39.6393 139.0048 0.0000 -18.0565 0.0000
# 4 0.0000 0.0000 0.0000 15.2434 0.0000 8.6697
# 5 -5.4182 -11.7452 -18.0565 0.0000 35.0381 0.0000
# 6 0.0000 0.0000 0.0000 8.6697 0.0000 9.8914
#
#
#
# Elastic Compliance Matrix: (Units=1/GPa)
#
#
# Indices 1 2 3 4 5 6 
#
# 1 0.021104 -0.005818 -0.001219 0.000000 0.000685 0.000000
# 2 -0.005818 0.012938 -0.002599 0.000000 0.002098 0.000000
# 3 -0.001219 -0.002599 0.008541 0.000000 0.003342 0.000000
# 4 0.000000 0.000000 0.000000 0.130812 0.000000 -0.114655
# 5 0.000685 0.002098 0.003342 0.000000 0.031072 0.000000
# 6 0.000000 0.000000 0.000000 -0.114655 0.000000 0.201592
#
#
# Mechanical properties :
#
#
# Convention : Reuss Voigt Hill
#
# Bulk Modulus (GPa) = 42.89578 52.91742 47.90660
# Shear Modulus (GPa) = 11.54468 25.85462 18.69965
#
# Velocity S-wave (km/s) = 2.30594 3.45085 2.93477
# Velocity P-wave (km/s) = 5.18143 6.34437 5.79216
#
# Compressibility (1/GPa) = 0.02331231
#
# Stress axis : x y z
#
# Youngs Moduli (GPa) = 47.38365 77.28985 117.08817
#
# Poissons Ratio (x) = 0.44964 0.14268
# Poissons Ratio (y) = 0.27566 0.30434
# Poissons Ratio (z) = 0.05774 0.20090
#
# Static dielectric constant tensor:
#      x y z
#    x 1.817440 0.000000 -0.001320 
#    y 0.000000 1.771580 0.000000 
#    z -0.001320 0.000000 1.849690 
# 
# From -- ./inp_files/290947.got.cif
#   From: 2010.05.17/outbox.cif.g08.bks.cpg/sg12_146_cif.got.tgz:290947.got - 2010.06.03 13:09:07.
