data_PCOD9186125
_publ_section_title
;
Structure prediction by ZEFSAII (Michael W. Deem and Ramdas Pophale) SiO2 
 PCOD9186125
Probable space group: C 2/M
;
_chemical_formula_sum "Si O2"
_cell_formula_units_Z 56
_cell_length_a 17.937501
_cell_length_b 16.030807
_cell_length_c 21.420351
_cell_angle_alpha 90.000000
_cell_angle_beta 149.535989
_cell_angle_gamma 90.000000
_cell_volume 3122.837169
_symmetry_space_group_name_H-M "C 2/M"
_symmetry_group_IT_number 12
_symmetry_cell_setting 'monoclinic'
loop_
_space_group_symop_operation_xyz
x,y,z
-x,y,-z
-x,-y,-z
x,-y,z
1/2+x,1/2+y,z
1/2-x,1/2+y,-z
1/2-x,1/2-y,-z
1/2+x,1/2-y,z
loop_
_atom_site_type_symbol
_atom_site_label
_atom_site_fract_x
_atom_site_fract_y
_atom_site_fract_z
Si Si1 0.678491 0.404565 0.962099
Si Si2 0.379697 0.675001 0.771473
Si Si3 0.226831 0.500000 0.663250
Si Si4 0.642087 0.401528 0.791835
Si Si5 0.011015 0.500000 0.398372
Si Si6 0.171553 0.736798 0.141297
Si Si7 0.384955 0.714186 0.635895
Si Si8 0.116935 0.357269 0.781022
O O1 0.620962 0.500000 0.923390
O O2 0.555328 0.338930 0.895197
O O3 0.706099 0.388782 0.908637
O O4 0.812546 0.398091 0.106600
O O5 0.315638 0.584074 0.739198
O O6 0.327471 0.740495 0.784944
O O7 0.332282 0.697689 0.667735
O O8 0.101065 0.500000 0.624664
O O9 0.165002 0.500000 0.547138
O O10 0.645384 0.500000 0.780386
O O11 0.737973 0.345036 0.814278
O O12 0.474550 0.366221 0.674639
O O13 0.973439 0.420715 0.327948
O O14 0.252480 0.813626 0.164380
O O15 0.000000 0.730260 0.000000
O O16 0.250000 0.750000 0.500000
O O17 0.509735 0.784641 0.725860
#
# Coordination Sequence:
#
# PCOD9186125 Si02
#       8
#     8   8   4   8   4   8   8   8
#     4  10  19  34  59  87 114 150 186 240 295 351
#     4  11  21  36  60  86 116 150 195 234 294 354
#     4  11  22  35  55  83 117 155 191 230 294 356
#     4   9  22  41  61  84 116 155 198 236 292 349
#     4  11  22  35  53  83 121 156 186 232 291 354
#     4  11  22  34  58  89 119 152 190 243 297 353
#     4  10  23  40  60  84 114 154 201 242 284 339
#     4  11  21  36  55  86 122 150 189 241 296 348
#
# _framework density 17.932411999999999
#
# number of rings (size 3 to 8) (size 9 to 14) (size 15 to 20)
#    0.000    1.571    4.286    0.857    3.000    2.000 
#    1.286    2.143    1.571    0.857    0.000    0.000 
#    0.000    0.000    0.000    0.000    0.000    0.000 
#
# Total GULP energy -156163.996466 kJ/mol
# GULP energy per Si atom -5577.285588 kJ/mol
# Density = 1.789160 g / cm^3
# Si number density = 17.932412 Si / 1000 Ang^3
#
#
#
# Elastic Constant Matrix: (Units=GPa)
#
#
# Indices 1 2 3 4 5 6 
#
# 1 95.9795 51.1869 11.8451 0.0004 -4.1176 0.0002
# 2 51.1869 103.9977 13.2317 0.0004 -7.6939 0.0002
# 3 11.8451 13.2317 49.9979 0.0008 -8.1321 0.0004
# 4 0.0004 0.0004 0.0008 25.8474 0.0003 -7.5461
# 5 -4.1176 -7.6939 -8.1321 0.0003 19.2595 0.0002
# 6 0.0002 0.0002 0.0004 -7.5461 0.0002 27.6564
#
#
#
# Elastic Compliance Matrix: (Units=1/GPa)
#
#
# Indices 1 2 3 4 5 6 
#
# 1 0.014248 -0.006833 -0.001627 0.000000 -0.000371 0.000000
# 2 -0.006833 0.013400 -0.001390 0.000000 0.003305 0.000000
# 3 -0.001627 -0.001390 0.022127 -0.000001 0.008440 -0.000001
# 4 0.000000 0.000000 -0.000001 0.042037 -0.000001 0.011470
# 5 -0.000371 0.003305 0.008440 -0.000001 0.056727 -0.000001
# 6 0.000000 0.000000 -0.000001 0.011470 -0.000001 0.039288
#
#
# Mechanical properties :
#
#
# Convention : Reuss Voigt Hill
#
# Bulk Modulus (GPa) = 33.25103 44.72249 38.98676
# Shear Modulus (GPa) = 22.98293 26.13341 24.55817
#
# Velocity S-wave (km/s) = 3.58389 3.82164 3.70467
# Velocity P-wave (km/s) = 5.97564 6.66835 6.33148
#
# Compressibility (1/GPa) = 0.03007426
#
# Stress axis : x y z
#
# Youngs Moduli (GPa) = 70.18512 74.62579 45.19385
#
# Poissons Ratio (x) = 0.50993 0.07355
# Poissons Ratio (y) = 0.47959 0.06281
# Poissons Ratio (z) = 0.11422 0.10372
#
# Static dielectric constant tensor:
#      x y z
#    x 1.607410 0.000000 0.002900 
#    y 0.000000 1.612270 0.000000 
#    z 0.002900 0.000000 1.624070 
# 
# From -- ./inp_files/316822.got.cif
#   From: 2010.05.17/outbox.cif.g08.bks.cpg/sg12_159_cif.got.tgz:316822.got - 2010.06.03 13:09:07.
