data_PCOD9186895
_publ_section_title
;
Structure prediction by ZEFSAII (Michael W. Deem and Ramdas Pophale) SiO2 
 PCOD9186895
Probable space group: C 2/M
;
_chemical_formula_sum "Si O2"
_cell_formula_units_Z 48
_cell_length_a 17.048555
_cell_length_b 18.443883
_cell_length_c 8.299815
_cell_angle_alpha 90.000000
_cell_angle_beta 95.527785
_cell_angle_gamma 90.000000
_cell_volume 2597.670084
_symmetry_space_group_name_H-M "C 2/M"
_symmetry_group_IT_number 12
_symmetry_cell_setting 'monoclinic'
loop_
_space_group_symop_operation_xyz
x,y,z
-x,y,-z
-x,-y,-z
x,-y,z
1/2+x,1/2+y,z
1/2-x,1/2+y,-z
1/2-x,1/2-y,-z
1/2+x,1/2-y,z
loop_
_atom_site_type_symbol
_atom_site_label
_atom_site_fract_x
_atom_site_fract_y
_atom_site_fract_z
Si Si1 0.588679 0.587054 0.056756
Si Si2 0.293371 0.206985 0.154051
Si Si3 0.248340 0.914281 0.929409
Si Si4 0.166939 0.835507 0.371144
Si Si5 0.201448 0.414117 0.420680
Si Si6 0.408438 0.208516 0.443647
O O1 0.589725 0.500000 0.078253
O O2 0.616094 0.626220 0.223955
O O3 0.500000 0.609121 0.000000
O O4 0.655436 0.604404 0.935262
O O5 0.233112 0.211702 0.291070
O O6 0.378194 0.219681 0.252528
O O7 0.250000 0.250000 0.000000
O O8 0.292257 0.125924 0.082761
O O9 0.284738 0.894885 0.764419
O O10 0.254850 0.000000 0.948260
O O11 0.215421 0.895593 0.478505
O O12 0.118421 0.781440 0.471228
O O13 0.183468 0.500000 0.430884
O O14 0.138164 0.361031 0.491461
O O15 0.500000 0.198038 0.500000
#
# Coordination Sequence:
#
# PCOD9186895 Si02
#       6
#     8   8   8   8   8   8
#     4   9  18  32  51  81 116 146 181 229 284 335
#     4  10  19  35  57  76 103 142 186 227 269 332
#     4   9  18  33  55  79 103 138 184 229 272 329
#     4  10  20  34  54  79 108 145 187 226 275 337
#     4  10  20  38  61  82 108 147 194 234 275 335
#     4  11  24  38  55  83 118 149 185 237 287 331
#
# _framework density 18.478097999999999
#
# number of rings (size 3 to 8) (size 9 to 14) (size 15 to 20)
#    0.000    2.167    0.000    4.500    0.000    8.333 
#    0.000    2.500    0.000    7.000    0.000    0.000 
#    0.000    0.000    0.000    0.000    0.000    0.000 
#
# Total GULP energy -133751.471856 kJ/mol
# GULP energy per Si atom -5572.977994 kJ/mol
# Density = 1.843604 g / cm^3
# Si number density = 18.478098 Si / 1000 Ang^3
#
#
#
# Elastic Constant Matrix: (Units=GPa)
#
#
# Indices 1 2 3 4 5 6 
#
# 1 111.2148 32.4918 49.2191 0.0000 31.6280 0.0000
# 2 32.4918 50.6056 25.4695 0.0000 3.6049 0.0000
# 3 49.2191 25.4695 81.7390 0.0000 13.0461 0.0000
# 4 0.0000 0.0000 0.0000 34.4437 0.0000 2.4316
# 5 31.6280 3.6049 13.0461 0.0000 25.8887 0.0000
# 6 0.0000 0.0000 0.0000 2.4316 0.0000 21.5572
#
#
#
# Elastic Compliance Matrix: (Units=1/GPa)
#
#
# Indices 1 2 3 4 5 6 
#
# 1 0.019776 -0.008166 -0.006187 0.000000 -0.019906 0.000000
# 2 -0.008166 0.026813 -0.004822 0.000000 0.008672 0.000000
# 3 -0.006187 -0.004822 0.017561 0.000000 -0.000620 0.000000
# 4 0.000000 0.000000 0.000000 0.029266 0.000000 -0.003301
# 5 -0.019906 0.008672 -0.000620 0.000000 0.062050 0.000000
# 6 0.000000 0.000000 0.000000 -0.003301 0.000000 0.046761
#
#
# Mechanical properties :
#
#
# Convention : Reuss Voigt Hill
#
# Bulk Modulus (GPa) = 38.75835 50.88001 44.81918
# Shear Modulus (GPa) = 20.06621 25.46986 22.76803
#
# Velocity S-wave (km/s) = 3.29894 3.71668 3.51403
# Velocity P-wave (km/s) = 5.96083 6.78332 6.38533
#
# Compressibility (1/GPa) = 0.02580090
#
# Stress axis : x y z
#
# Youngs Moduli (GPa) = 50.56591 37.29588 56.94508
#
# Poissons Ratio (x) = 0.30455 0.35230
# Poissons Ratio (y) = 0.41291 0.27458
# Poissons Ratio (z) = 0.31284 0.17983
#
# Static dielectric constant tensor:
#      x y z
#    x 1.649820 0.000000 0.000640 
#    y 0.000000 1.671740 0.000000 
#    z 0.000640 0.000000 1.653440 
# 
# From -- ./inp_files/61698.got.cif
#   From: 2010.05.17/outbox.cif.g08.bks.cpg/sg12_31_cif.got.tgz:61698.got - 2010.06.03 13:09:07.
