data_PCOD9186140
_publ_section_title
;
Structure prediction by ZEFSAII (Michael W. Deem and Ramdas Pophale) SiO2 
 PCOD9186140
Probable space group: C 2/M
;
_chemical_formula_sum "Si O2"
_cell_formula_units_Z 58
_cell_length_a 26.878369
_cell_length_b 12.534832
_cell_length_c 19.511810
_cell_angle_alpha 90.000000
_cell_angle_beta 26.935583
_cell_angle_gamma 90.000000
_cell_volume 2977.872714
_symmetry_space_group_name_H-M "C 2/M"
_symmetry_group_IT_number 12
_symmetry_cell_setting 'monoclinic'
loop_
_space_group_symop_operation_xyz
x,y,z
-x,y,-z
-x,-y,-z
x,-y,z
1/2+x,1/2+y,z
1/2-x,1/2+y,-z
1/2-x,1/2-y,-z
1/2+x,1/2-y,z
loop_
_atom_site_type_symbol
_atom_site_label
_atom_site_fract_x
_atom_site_fract_y
_atom_site_fract_z
Si Si1 0.778962 0.624371 0.833126
Si Si2 0.677832 0.878429 0.814412
Si Si3 0.903871 0.227764 0.571780
Si Si4 0.242460 0.617302 0.586249
Si Si5 0.968659 0.626645 0.695033
Si Si6 0.408017 0.213335 0.333033
Si Si7 0.558183 0.687232 0.039453
Si Si8 0.000000 0.000000 0.000000
O O1 0.790900 0.500000 0.803880
O O2 0.844917 0.688602 0.694619
O O3 0.842596 0.644375 0.826277
O O4 0.653014 0.654083 0.977221
O O5 0.806990 0.851181 0.668135
O O6 0.666720 0.869312 0.746093
O O7 0.653161 0.000000 0.865595
O O8 0.605411 0.790942 0.941901
O O9 0.000000 0.176167 0.500000
O O10 0.958401 0.298111 0.444458
O O11 0.293587 0.500000 0.528295
O O12 0.332382 0.709421 0.471391
O O13 0.170653 0.627378 0.605943
O O14 0.993168 0.500000 0.655286
O O15 0.999000 0.660716 0.734472
O O16 0.455001 0.281970 0.212520
O O17 0.533811 0.594084 0.015201
#
# Coordination Sequence:
#
# PCOD9186140 Si02
#       8
#     8   8   8   8   8   8   8   2
#     4   9  18  35  57  88 123 157 199 262 312 371
#     4  10  21  40  61  85 122 168 203 250 309 375
#     4   9  17  32  56  88 119 155 207 260 302 367
#     4  10  22  40  59  82 118 155 199 248 304 358
#     4  10  19  34  59  87 122 164 205 251 320 373
#     4  11  23  39  58  90 120 155 202 253 308 378
#     4  11  24  40  63  93 126 158 212 257 317 375
#     4  12  24  44  66  92 118 168 202 260 320 366
#
# _framework density 19.476991000000002
#
# number of rings (size 3 to 8) (size 9 to 14) (size 15 to 20)
#    0.000    1.931    2.069    1.655    0.966    3.586 
#    0.000    1.724    0.000    0.000    0.000    0.000 
#    0.000    0.000    0.000    0.000    0.000    0.000 
#
# Total GULP energy -161458.773465 kJ/mol
# GULP energy per Si atom -5567.543913 kJ/mol
# Density = 1.943266 g / cm^3
# Si number density = 19.476991 Si / 1000 Ang^3
#
#
#
# Elastic Constant Matrix: (Units=GPa)
#
#
# Indices 1 2 3 4 5 6 
#
# 1 102.1468 52.2631 9.3988 0.0000 -3.6657 0.0000
# 2 52.2631 78.9509 -1.2003 0.0000 3.3423 0.0000
# 3 9.3988 -1.2003 19.1900 0.0000 -3.8541 0.0000
# 4 0.0000 0.0000 0.0000 6.4476 0.0000 -0.3926
# 5 -3.6657 3.3423 -3.8541 0.0000 18.9284 0.0000
# 6 0.0000 0.0000 0.0000 -0.3926 0.0000 27.9663
#
#
#
# Elastic Compliance Matrix: (Units=1/GPa)
#
#
# Indices 1 2 3 4 5 6 
#
# 1 0.016312 -0.011067 -0.007981 0.000000 0.003488 0.000000
# 2 -0.011067 0.020272 0.005775 0.000000 -0.004547 0.000000
# 3 -0.007981 0.005775 0.058247 0.000000 0.009295 0.000000
# 4 0.000000 0.000000 0.000000 0.155228 0.000000 0.002179
# 5 0.003488 -0.004547 0.009295 0.000000 0.056202 0.000000
# 6 0.000000 0.000000 0.000000 0.002179 0.000000 0.035788
#
#
# Mechanical properties :
#
#
# Convention : Reuss Voigt Hill
#
# Bulk Modulus (GPa) = 14.64426 35.69010 25.16718
# Shear Modulus (GPa) = 12.77610 19.99020 16.38315
#
# Velocity S-wave (km/s) = 2.56395 3.20714 2.90341
# Velocity P-wave (km/s) = 4.03735 5.66378 4.91826
#
# Compressibility (1/GPa) = 0.06828613
#
# Stress axis : x y z
#
# Youngs Moduli (GPa) = 61.30601 49.32846 17.16821
#
# Poissons Ratio (x) = 0.54591 0.13701
# Poissons Ratio (y) = 0.67846 -0.09915
# Poissons Ratio (z) = 0.48926 -0.28487
#
# Static dielectric constant tensor:
#      x y z
#    x 1.734150 0.000000 -0.033570 
#    y 0.000000 1.650820 0.000000 
#    z -0.033570 0.000000 1.686050 
# 
# From -- ./inp_files/293260.got.cif
#   From: 2010.05.17/outbox.cif.g08.bks.cpg/sg12_147_cif.got.tgz:293260.got - 2010.06.03 13:09:07.
