data_PCOD9186908
_publ_section_title
;
Structure prediction by ZEFSAII (Michael W. Deem and Ramdas Pophale) SiO2 
 PCOD9186908
Probable space group: C 2/M
;
_chemical_formula_sum "Si O2"
_cell_formula_units_Z 64
_cell_length_a 15.154311
_cell_length_b 7.600656
_cell_length_c 30.813387
_cell_angle_alpha 90.000000
_cell_angle_beta 119.821390
_cell_angle_gamma 90.000000
_cell_volume 3079.187768
_symmetry_space_group_name_H-M "C 2/M"
_symmetry_group_IT_number 12
_symmetry_cell_setting 'monoclinic'
loop_
_space_group_symop_operation_xyz
x,y,z
-x,y,-z
-x,-y,-z
x,-y,z
1/2+x,1/2+y,z
1/2-x,1/2+y,-z
1/2-x,1/2-y,-z
1/2+x,1/2-y,z
loop_
_atom_site_type_symbol
_atom_site_label
_atom_site_fract_x
_atom_site_fract_y
_atom_site_fract_z
Si Si1 0.396919 0.208767 0.497445
Si Si2 0.941912 0.212224 0.118818
Si Si3 0.325991 0.795157 0.248463
Si Si4 0.610620 0.283953 0.229531
Si Si5 0.261473 0.713603 0.135580
Si Si6 0.947121 0.203415 0.689588
Si Si7 0.169223 0.786273 0.423011
Si Si8 0.039935 0.292777 0.055160
O O1 0.500000 0.279229 0.500000
O O2 0.286653 0.276748 0.454098
O O3 0.390310 0.234470 0.547718
O O4 0.396074 0.000000 0.488482
O O5 0.837080 0.266714 0.115568
O O6 0.033327 0.272814 0.172819
O O7 0.960559 0.273752 0.074731
O O8 0.944064 0.000000 0.118766
O O9 0.224676 0.726353 0.246805
O O10 0.305054 0.776736 0.192044
O O11 0.431971 0.709132 0.286949
O O12 0.335916 0.000000 0.261687
O O13 0.608049 0.500000 0.228085
O O14 0.576294 0.221486 0.268509
O O15 0.261667 0.500000 0.138167
O O16 0.147773 0.779034 0.098534
O O17 0.887403 0.278897 0.633955
O O18 0.914787 0.000000 0.684228
O O19 0.170699 0.000000 0.423279
O O20 0.058423 0.500000 0.052304
O O21 0.000000 0.217716 0.000000
#
# Coordination Sequence:
#
# PCOD9186908 Si02
#       8
#     8   8   8   8   8   8   8   8
#     4   9  18  34  57  82 108 142 183 223 267 314
#     4  10  19  35  57  78 101 138 181 213 257 318
#     4  11  21  33  53  81 106 134 178 225 264 305
#     4   9  18  33  53  76 104 138 174 215 261 315
#     4  10  20  36  57  76 103 142 175 209 264 326
#     4  10  20  37  55  75 110 149 180 212 264 326
#     4   9  19  34  54  80 109 144 181 221 266 314
#     4  10  22  38  55  80 111 138 170 220 273 314
#
# _framework density 20.784700999999998
#
# number of rings (size 3 to 8) (size 9 to 14) (size 15 to 20)
#    0.000    2.250    2.500    0.375    0.000    3.000 
#    0.000    3.750    0.000    0.000    0.000    0.000 
#    0.000    0.000    0.000    0.000    0.000    0.000 
#
# Total GULP energy -178639.327450 kJ/mol
# GULP energy per Si atom -5582.478983 kJ/mol
# Density = 2.073739 g / cm^3
# Si number density = 20.784701 Si / 1000 Ang^3
#
#
#
# Elastic Constant Matrix: (Units=GPa)
#
#
# Indices 1 2 3 4 5 6 
#
# 1 89.2611 1.0397 -8.1595 0.0000 -1.5208 0.0000
# 2 1.0397 37.1403 3.2101 0.0000 1.4788 0.0000
# 3 -8.1595 3.2101 67.8678 0.0000 -1.0263 0.0000
# 4 0.0000 0.0000 0.0000 1.5384 0.0000 -19.6813
# 5 -1.5208 1.4788 -1.0263 0.0000 18.1600 0.0000
# 6 0.0000 0.0000 0.0000 -19.6813 0.0000 -8.7477
#
#
#
# Elastic Compliance Matrix: (Units=1/GPa)
#
#
# Indices 1 2 3 4 5 6 
#
# 1 0.011355 -0.000482 0.001404 0.000000 0.001070 0.000000
# 2 -0.000482 0.027150 -0.001377 0.000000 -0.002329 0.000000
# 3 0.001404 -0.001377 0.014985 0.000000 0.001077 0.000000
# 4 0.000000 0.000000 0.000000 0.021825 0.000000 -0.049104
# 5 0.001070 -0.002329 0.001077 0.000000 0.055406 0.000000
# 6 0.000000 0.000000 0.000000 -0.049104 0.000000 -0.003838
#
#
# Mechanical properties :
#
#
# Convention : Reuss Voigt Hill
#
# Bulk Modulus (GPa) = 19.01855 20.71666 19.86761
# Shear Modulus (GPa) = 34.40685 15.40207 24.90446
#
# Velocity S-wave (km/s) = 4.07307 2.72514 3.46527
# Velocity P-wave (km/s) = 5.59374 4.45990 5.05869
#
# Compressibility (1/GPa) = 0.05258024
#
# Stress axis : x y z
#
# Youngs Moduli (GPa) = 88.06479 36.83213 66.73442
#
# Poissons Ratio (x) = 0.01775 -0.09371
# Poissons Ratio (y) = 0.04243 0.09192
# Poissons Ratio (z) = -0.12366 0.05073
#
# Static dielectric constant tensor:
#      x y z
#    x 1.727690 0.000000 0.008610 
#    y 0.000000 1.789270 0.000000 
#    z 0.008610 0.000000 1.718230 
# 
# From -- ./inp_files/359865.got.cif
#   From: 2010.05.17/outbox.cif.g08.bks.cpg/sg12_180_cif.got.tgz:359865.got - 2010.06.03 13:09:07.
