data_PCOD9186074
_publ_section_title
;
Structure prediction by ZEFSAII (Michael W. Deem and Ramdas Pophale) SiO2 
 PCOD9186074
Probable space group: C 2/M
;
_chemical_formula_sum "Si O2"
_cell_formula_units_Z 56
_cell_length_a 19.248873
_cell_length_b 18.194130
_cell_length_c 17.025989
_cell_angle_alpha 90.000000
_cell_angle_beta 31.564803
_cell_angle_gamma 90.000000
_cell_volume 3121.293423
_symmetry_space_group_name_H-M "C 2/M"
_symmetry_group_IT_number 12
_symmetry_cell_setting 'monoclinic'
loop_
_space_group_symop_operation_xyz
x,y,z
-x,y,-z
-x,-y,-z
x,-y,z
1/2+x,1/2+y,z
1/2-x,1/2+y,-z
1/2-x,1/2-y,-z
1/2+x,1/2-y,z
loop_
_atom_site_type_symbol
_atom_site_label
_atom_site_fract_x
_atom_site_fract_y
_atom_site_fract_z
Si Si1 0.456542 0.913959 0.261325
Si Si2 0.857099 0.916281 0.946846
Si Si3 0.274716 0.081876 0.093760
Si Si4 0.255996 0.191285 0.387434
Si Si5 0.537177 0.702896 0.726677
Si Si6 0.640217 0.297811 0.332118
Si Si7 0.109102 0.684458 0.224977
O O1 0.328641 0.885040 0.338479
O O2 0.488521 0.868216 0.310452
O O3 0.451353 0.000000 0.283926
O O4 0.581741 0.901281 0.082452
O O5 0.820423 0.921295 0.890114
O O6 0.990433 0.868598 0.818283
O O7 0.863064 0.000000 0.971548
O O8 0.738483 0.867037 0.096773
O O9 0.218573 0.143492 0.204273
O O10 0.280227 0.000000 0.124435
O O11 0.360796 0.249632 0.320889
O O12 0.118933 0.189700 0.567966
O O13 0.227301 0.212322 0.326106
O O14 0.408616 0.750440 0.823161
O O15 0.500000 0.326897 0.500000
O O16 0.609504 0.226282 0.307905
#
# Coordination Sequence:
#
# PCOD9186074 Si02
#       7
#     8   8   8   8   8   8   8
#     4   9  20  38  59  82 110 152 196 229 267 331
#     4  10  19  34  59  85 107 144 190 230 274 325
#     4   9  19  34  54  83 115 145 184 225 272 336
#     4  10  22  34  55  84 113 148 184 226 286 333
#     4  10  19  37  56  80 110 145 189 234 269 328
#     4  12  22  35  54  85 115 147 181 231 291 337
#     4  10  19  34  60  81 112 142 190 234 270 326
#
# _framework density 17.941279999999999
#
# number of rings (size 3 to 8) (size 9 to 14) (size 15 to 20)
#    0.000    2.000    2.857    1.714    4.000    2.000 
#    0.000    1.429    0.000    4.286    0.000    0.000 
#    0.000    0.000    0.000    0.000    0.000    0.000 
#
# Total GULP energy -155906.688898 kJ/mol
# GULP energy per Si atom -5568.096032 kJ/mol
# Density = 1.790045 g / cm^3
# Si number density = 17.941280 Si / 1000 Ang^3
#
#
#
# Elastic Constant Matrix: (Units=GPa)
#
#
# Indices 1 2 3 4 5 6 
#
# 1 79.5499 23.9618 19.3671 0.0004 8.7771 -0.0002
# 2 23.9618 98.6826 38.8043 -0.0001 -0.5135 0.0000
# 3 19.3671 38.8043 43.2782 0.0007 -8.3110 -0.0004
# 4 0.0004 -0.0001 0.0007 6.7668 -0.0007 -3.4708
# 5 8.7771 -0.5135 -8.3110 -0.0007 20.1653 0.0003
# 6 -0.0002 0.0000 -0.0004 -3.4708 0.0003 16.0491
#
#
#
# Elastic Compliance Matrix: (Units=1/GPa)
#
#
# Indices 1 2 3 4 5 6 
#
# 1 0.016022 -0.000504 -0.008753 -0.000001 -0.010594 0.000000
# 2 -0.000504 0.016330 -0.015523 0.000001 -0.005763 0.000000
# 3 -0.008753 -0.015523 0.045172 -0.000002 0.022032 0.000000
# 4 -0.000001 0.000001 -0.000002 0.166217 0.000005 0.035947
# 5 -0.010594 -0.005763 0.022032 0.000005 0.063135 0.000000
# 6 0.000000 0.000000 0.000000 0.035947 0.000000 0.070083
#
#
# Mechanical properties :
#
#
# Convention : Reuss Voigt Hill
#
# Bulk Modulus (GPa) = 35.75825 42.86413 39.31119
# Shear Modulus (GPa) = 11.47210 17.88808 14.68009
#
# Velocity S-wave (km/s) = 2.53143 3.16101 2.86357
# Velocity P-wave (km/s) = 5.34024 6.10458 5.73516
#
# Compressibility (1/GPa) = 0.02796557
#
# Stress axis : x y z
#
# Youngs Moduli (GPa) = 62.41298 61.23770 22.13747
#
# Poissons Ratio (x) = 0.03085 0.19376
# Poissons Ratio (y) = 0.03145 0.34364
# Poissons Ratio (z) = 0.54628 0.95058
#
# Static dielectric constant tensor:
#      x y z
#    x 1.619260 0.000000 -0.023700 
#    y 0.000000 1.672190 0.000000 
#    z -0.023700 0.000000 1.631650 
# 
# From -- ./inp_files/284969.got.cif
#   From: 2010.05.17/outbox.cif.g08.bks.cpg/sg12_143_cif.got.tgz:284969.got - 2010.06.03 13:09:07.
