data_PCOD9186400
_publ_section_title
;
Structure prediction by ZEFSAII (Michael W. Deem and Ramdas Pophale) SiO2 
 PCOD9186400
Probable space group: C 2/M
;
_chemical_formula_sum "Si O2"
_cell_formula_units_Z 52
_cell_length_a 14.325228
_cell_length_b 10.429371
_cell_length_c 23.253062
_cell_angle_alpha 90.000000
_cell_angle_beta 131.931448
_cell_angle_gamma 90.000000
_cell_volume 2584.523995
_symmetry_space_group_name_H-M "C 2/M"
_symmetry_group_IT_number 12
_symmetry_cell_setting 'monoclinic'
loop_
_space_group_symop_operation_xyz
x,y,z
-x,y,-z
-x,-y,-z
x,-y,z
1/2+x,1/2+y,z
1/2-x,1/2+y,-z
1/2-x,1/2-y,-z
1/2+x,1/2-y,z
loop_
_atom_site_type_symbol
_atom_site_label
_atom_site_fract_x
_atom_site_fract_y
_atom_site_fract_z
Si Si1 0.637985 0.347798 0.535879
Si Si2 0.023073 0.857203 0.374169
Si Si3 0.364079 0.788759 0.167146
Si Si4 0.714315 0.500000 0.890811
Si Si5 0.369002 0.276674 0.697623
Si Si6 0.339382 0.000000 0.065006
Si Si7 0.263692 0.235310 0.247413
Si Si8 0.867073 0.500000 0.841819
O O1 0.500000 0.305776 0.500000
O O2 0.647719 0.500000 0.547312
O O3 0.628767 0.322079 0.463834
O O4 0.750024 0.289128 0.618337
O O5 0.075191 0.860437 0.331148
O O6 0.904980 0.763011 0.327090
O O7 0.977641 0.000000 0.371017
O O8 0.354421 0.635285 0.151037
O O9 0.511895 0.814025 0.238767
O O10 0.318311 0.874651 0.095689
O O11 0.284624 0.819545 0.192055
O O12 0.830842 0.500000 0.894345
O O13 0.756439 0.500000 0.973913
O O14 0.317024 0.332941 0.736268
O O15 0.485177 0.000000 0.106658
O O16 0.197007 0.373369 0.211006
#
# Coordination Sequence:
#
# PCOD9186400 Si02
#       8
#     8   8   8   4   8   4   8   4
#     4  10  20  32  55  85 115 148 198 260 303 340
#     4  10  20  35  55  82 112 159 201 242 298 351
#     4  10  24  38  64  95 121 160 201 250 300 364
#     4  10  23  44  63  90 127 161 195 244 311 376
#     4  11  21  34  59  83 116 156 200 246 297 356
#     4  12  21  40  67  95 123 154 200 258 305 349
#     4  10  19  36  56  86 121 155 199 251 288 354
#     4  10  19  34  62  90 118 151 209 246 293 354
#
# _framework density 20.119758000000001
#
# number of rings (size 3 to 8) (size 9 to 14) (size 15 to 20)
#    0.000    1.692    3.846    1.154    5.385    0.000 
#    1.385    0.000    0.000    1.385    0.000    0.000 
#    0.000    0.000    0.000    0.000    0.000    0.000 
#
# Total GULP energy -144938.793885 kJ/mol
# GULP energy per Si atom -5574.568996 kJ/mol
# Density = 2.007396 g / cm^3
# Si number density = 20.119758 Si / 1000 Ang^3
#
#
#
# Elastic Constant Matrix: (Units=GPa)
#
#
# Indices 1 2 3 4 5 6 
#
# 1 120.6822 10.2245 35.3551 0.0000 -25.0087 0.0000
# 2 10.2245 33.5395 12.3458 0.0000 -10.6134 0.0000
# 3 35.3551 12.3458 111.6717 0.0000 -24.9485 0.0000
# 4 0.0000 0.0000 0.0000 13.4757 0.0000 -2.7345
# 5 -25.0087 -10.6134 -24.9485 0.0000 37.3512 0.0000
# 6 0.0000 0.0000 0.0000 -2.7345 0.0000 16.0821
#
#
#
# Elastic Compliance Matrix: (Units=1/GPa)
#
#
# Indices 1 2 3 4 5 6 
#
# 1 0.009987 -0.000689 -0.001922 0.000000 0.005207 0.000000
# 2 -0.000689 0.033124 -0.001697 0.000000 0.007817 0.000000
# 3 -0.001922 -0.001697 0.010997 0.000000 0.005576 0.000000
# 4 0.000000 0.000000 0.000000 0.076859 0.000000 0.013069
# 5 0.005207 0.007817 0.005576 0.000000 0.036205 0.000000
# 6 0.000000 0.000000 0.000000 0.013069 0.000000 0.064403
#
#
# Mechanical properties :
#
#
# Convention : Reuss Voigt Hill
#
# Bulk Modulus (GPa) = 21.98291 42.41605 32.19948
# Shear Modulus (GPa) = 19.58051 27.24633 23.41342
#
# Velocity S-wave (km/s) = 3.12300 3.68395 3.41501
# Velocity P-wave (km/s) = 4.89427 6.26282 5.62035
#
# Compressibility (1/GPa) = 0.04548988
#
# Stress axis : x y z
#
# Youngs Moduli (GPa) = 100.13220 30.18939 90.93568
#
# Poissons Ratio (x) = 0.02081 0.17481
# Poissons Ratio (y) = 0.06901 0.15436
# Poissons Ratio (z) = 0.19249 0.05124
#
# Static dielectric constant tensor:
#      x y z
#    x 1.751930 0.000000 -0.040240 
#    y 0.000000 1.704820 0.000000 
#    z -0.040240 0.000000 1.721340 
# 
# From -- ./inp_files/310066.got.cif
#   From: 2010.05.17/outbox.cif.g08.bks.cpg/sg12_156_cif.got.tgz:310066.got - 2010.06.03 13:09:07.
