data_PCOD9186304
_publ_section_title
;
Structure prediction by ZEFSAII (Michael W. Deem and Ramdas Pophale) SiO2 
 PCOD9186304
Probable space group: C 2/M
;
_chemical_formula_sum "Si O2"
_cell_formula_units_Z 56
_cell_length_a 20.582018
_cell_length_b 14.969622
_cell_length_c 16.946086
_cell_angle_alpha 90.000000
_cell_angle_beta 150.855451
_cell_angle_gamma 90.000000
_cell_volume 2542.788202
_symmetry_space_group_name_H-M "C 2/M"
_symmetry_group_IT_number 12
_symmetry_cell_setting 'monoclinic'
loop_
_space_group_symop_operation_xyz
x,y,z
-x,y,-z
-x,-y,-z
x,-y,z
1/2+x,1/2+y,z
1/2-x,1/2+y,-z
1/2-x,1/2-y,-z
1/2+x,1/2-y,z
loop_
_atom_site_type_symbol
_atom_site_label
_atom_site_fract_x
_atom_site_fract_y
_atom_site_fract_z
Si Si1 0.985411 0.399565 0.598973
Si Si2 0.891711 0.355906 0.104963
Si Si3 0.615701 0.355121 0.871748
Si Si4 0.777431 0.100424 0.842944
Si Si5 0.778093 0.785668 0.699119
Si Si6 0.130672 0.397711 0.257259
Si Si7 0.339710 0.599468 0.617178
O O1 0.933079 0.500000 0.526753
O O2 0.873879 0.323314 0.471333
O O3 0.039786 0.400292 0.746155
O O4 0.118547 0.385374 0.688505
O O5 0.894904 0.251155 0.129571
O O6 0.977791 0.378292 0.119683
O O7 0.735056 0.379598 0.939290
O O8 0.469761 0.391694 0.700590
O O9 0.657536 0.389909 0.002494
O O10 0.827984 0.170001 0.832613
O O11 0.800987 0.000000 0.839900
O O12 0.807484 0.680797 0.729837
O O13 0.845668 0.828263 0.692800
O O14 0.144702 0.500000 0.244540
O O15 0.212967 0.388796 0.426831
O O16 0.335324 0.500000 0.647435
#
# Coordination Sequence:
#
# PCOD9186304 Si02
#       7
#     8   8   8   8   8   8   8
#     4  10  19  34  60  91 119 151 193 239 289 349
#     4  10  19  37  59  82 115 156 196 232 280 336
#     4  10  21  36  57  86 122 154 185 232 286 349
#     4  10  22  37  56  87 124 159 189 225 290 366
#     4  12  21  35  57  84 120 153 193 237 287 344
#     4  11  23  39  61  85 112 152 201 247 290 335
#     4  11  21  34  56  89 118 145 183 238 297 343
#
# _framework density 22.023067999999999
#
# number of rings (size 3 to 8) (size 9 to 14) (size 15 to 20)
#    0.000    1.429    2.857    3.857    0.000    3.429 
#    0.000    1.429    0.000    4.286    0.000    4.000 
#    0.000    0.000    0.000    0.000    0.000    0.000 
#
# Total GULP energy -156528.045669 kJ/mol
# GULP energy per Si atom -5590.287345 kJ/mol
# Density = 2.197294 g / cm^3
# Si number density = 22.023068 Si / 1000 Ang^3
#
#
#
# Elastic Constant Matrix: (Units=GPa)
#
#
# Indices 1 2 3 4 5 6 
#
# 1 62.1364 52.4709 21.6060 -0.0001 25.8060 -0.0001
# 2 52.4709 160.8409 14.3981 -0.0001 9.2489 -0.0001
# 3 21.6060 14.3981 48.8189 -0.0002 31.8080 -0.0001
# 4 -0.0001 -0.0001 -0.0002 34.7090 -0.0001 -3.2751
# 5 25.8060 9.2489 31.8080 -0.0001 31.1357 -0.0001
# 6 -0.0001 -0.0001 -0.0001 -3.2751 -0.0001 24.8662
#
#
#
# Elastic Compliance Matrix: (Units=1/GPa)
#
#
# Indices 1 2 3 4 5 6 
#
# 1 0.038906 -0.011490 0.014822 0.000000 -0.043975 0.000000
# 2 -0.011490 0.009780 -0.006314 0.000000 0.013069 0.000000
# 3 0.014822 -0.006314 0.067493 0.000000 -0.079360 0.000000
# 4 0.000000 0.000000 0.000000 0.029173 0.000000 0.003842
# 5 -0.043975 0.013069 -0.079360 0.000000 0.145757 0.000000
# 6 0.000000 0.000000 0.000000 0.003842 0.000000 0.040721
#
#
# Mechanical properties :
#
#
# Convention : Reuss Voigt Hill
#
# Bulk Modulus (GPa) = 9.07321 49.86071 29.46696
# Shear Modulus (GPa) = 13.34998 30.36360 21.85679
#
# Velocity S-wave (km/s) = 2.46475 3.71714 3.15373
# Velocity P-wave (km/s) = 3.49697 6.41188 5.16435
#
# Compressibility (1/GPa) = 0.11021456
#
# Stress axis : x y z
#
# Youngs Moduli (GPa) = 25.70280 102.25428 14.81636
#
# Poissons Ratio (x) = 1.17495 -0.21961
# Poissons Ratio (y) = 0.29534 0.09355
# Poissons Ratio (z) = -0.38097 0.64561
#
# Static dielectric constant tensor:
#      x y z
#    x 1.813290 0.000000 0.032180 
#    y 0.000000 1.816980 0.000000 
#    z 0.032180 0.000000 1.838920 
# 
# From -- ./inp_files/284586.got.cif
#   From: 2010.05.17/outbox.cif.g08.bks.cpg/sg12_143_cif.got.tgz:284586.got - 2010.06.03 13:09:07.
