data_PCOD9186983
_publ_section_title
;
Structure prediction by ZEFSAII (Michael W. Deem and Ramdas Pophale) SiO2 
 PCOD9186983
Probable space group: C 2/M
;
_chemical_formula_sum "Si O2"
_cell_formula_units_Z 40
_cell_length_a 14.232332
_cell_length_b 15.495930
_cell_length_c 17.998876
_cell_angle_alpha 90.000000
_cell_angle_beta 154.381589
_cell_angle_gamma 90.000000
_cell_volume 1716.327610
_symmetry_space_group_name_H-M "C 2/M"
_symmetry_group_IT_number 12
_symmetry_cell_setting 'monoclinic'
loop_
_space_group_symop_operation_xyz
x,y,z
-x,y,-z
-x,-y,-z
x,-y,z
1/2+x,1/2+y,z
1/2-x,1/2+y,-z
1/2-x,1/2-y,-z
1/2+x,1/2-y,z
loop_
_atom_site_type_symbol
_atom_site_label
_atom_site_fract_x
_atom_site_fract_y
_atom_site_fract_z
Si Si1 0.607870 0.191802 0.844381
Si Si2 0.161504 0.899663 0.512561
Si Si3 0.810958 0.592731 0.448900
Si Si4 0.363266 0.750042 0.301427
Si Si5 0.517335 0.621018 0.097179
O O1 0.369127 0.155929 0.689186
O O2 0.615159 0.242740 0.771984
O O3 0.750000 0.250000 0.000000
O O4 0.769879 0.112805 0.946436
O O5 0.191037 0.899581 0.443071
O O6 0.948999 0.844378 0.382259
O O7 0.160821 0.000000 0.534962
O O8 0.931439 0.500000 0.537714
O O9 0.657089 0.590684 0.267312
O O10 0.968028 0.674400 0.555052
O O11 0.131259 0.784106 0.164476
O O12 0.500000 0.588411 0.000000
#
# Coordination Sequence:
#
# PCOD9186983 Si02
#       5
#     8   8   8   8   8
#     4  10  19  35  57  81 111 148 194 244 291 337
#     4  10  21  38  61  87 115 155 203 240 281 347
#     4  10  20  35  57  84 115 154 199 243 289 346
#     4  10  20  36  57  82 115 154 193 238 292 349
#     4  10  21  33  53  85 120 152 185 237 299 346
#
# _framework density 23.305574
#
# number of rings (size 3 to 8) (size 9 to 14) (size 15 to 20)
#    0.000    2.000    0.000    5.400    0.000    2.800 
#    0.000    5.000    0.000   15.000    0.000    0.000 
#    0.000    0.000    0.000    0.000    0.000    0.000 
#
# Total GULP energy -111456.191750 kJ/mol
# GULP energy per Si atom -5572.809587 kJ/mol
# Density = 2.325253 g / cm^3
# Si number density = 23.305574 Si / 1000 Ang^3
#
#
#
# Elastic Constant Matrix: (Units=GPa)
#
#
# Indices 1 2 3 4 5 6 
#
# 1 65.6453 26.3592 30.8933 -0.0009 -16.9916 0.0007
# 2 26.3592 134.7054 42.9659 -0.0152 2.7588 0.0064
# 3 30.8933 42.9659 123.0592 0.0067 -27.1788 0.0185
# 4 -0.0009 -0.0152 0.0067 1.6475 0.0012 -15.4511
# 5 -16.9916 2.7588 -27.1788 0.0012 65.0908 0.0032
# 6 0.0007 0.0064 0.0185 -15.4511 0.0032 -7.0094
#
#
#
# Elastic Compliance Matrix: (Units=1/GPa)
#
#
# Indices 1 2 3 4 5 6 
#
# 1 0.018701 -0.002822 -0.002870 -0.000003 0.003803 0.000000
# 2 -0.002822 0.008961 -0.002938 0.000004 -0.002343 -0.000010
# 3 -0.002870 -0.002938 0.010723 0.000008 0.003853 0.000009
# 4 -0.000003 0.000004 0.000008 0.028006 0.000005 -0.061734
# 5 0.003803 -0.002343 0.003853 0.000005 0.018064 0.000006
# 6 0.000000 -0.000010 0.000009 -0.061734 0.000006 -0.006583
#
#
# Mechanical properties :
#
#
# Convention : Reuss Voigt Hill
#
# Bulk Modulus (GPa) = 47.33328 58.20519 52.76924
# Shear Modulus (GPa) = 48.93623 26.82522 37.88073
#
# Velocity S-wave (km/s) = 4.58729 3.39635 4.03599
# Velocity P-wave (km/s) = 6.95784 6.35683 6.66412
#
# Compressibility (1/GPa) = 0.02112679
#
# Stress axis : x y z
#
# Youngs Moduli (GPa) = 53.47168 111.59671 93.25588
#
# Poissons Ratio (x) = 0.31494 0.26760
# Poissons Ratio (y) = 0.15090 0.27396
# Poissons Ratio (z) = 0.15344 0.32784
#
# Static dielectric constant tensor:
#      x y z
#    x 1.846870 -0.000010 0.142770 
#    y -0.000010 1.944340 0.000010 
#    z 0.142770 0.000010 1.630080 
# 
# From -- ./inp_files/316837.got.cif
#   From: 2010.05.17/outbox.cif.g08.bks.cpg/sg12_159_cif.got.tgz:316837.got - 2010.06.03 13:09:07.
