data_PCOD9186254
_publ_section_title
;
Structure prediction by ZEFSAII (Michael W. Deem and Ramdas Pophale) SiO2 
 PCOD9186254
Probable space group: C 2/M
;
_chemical_formula_sum "Si O2"
_cell_formula_units_Z 56
_cell_length_a 21.802273
_cell_length_b 9.435540
_cell_length_c 14.415155
_cell_angle_alpha 90.000000
_cell_angle_beta 95.095191
_cell_angle_gamma 90.000000
_cell_volume 2953.713350
_symmetry_space_group_name_H-M "C 2/M"
_symmetry_group_IT_number 12
_symmetry_cell_setting 'monoclinic'
loop_
_space_group_symop_operation_xyz
x,y,z
-x,y,-z
-x,-y,-z
x,-y,z
1/2+x,1/2+y,z
1/2-x,1/2+y,-z
1/2-x,1/2-y,-z
1/2+x,1/2-y,z
loop_
_atom_site_type_symbol
_atom_site_label
_atom_site_fract_x
_atom_site_fract_y
_atom_site_fract_z
Si Si1 0.616847 0.666108 0.188433
Si Si2 0.787362 0.163007 0.648121
Si Si3 0.331720 0.669282 0.346089
Si Si4 0.393997 0.164903 0.197904
Si Si5 0.973225 0.663927 0.689537
Si Si6 0.571074 0.332365 0.981257
Si Si7 0.907426 0.165173 0.532643
O O1 0.600148 0.500000 0.200991
O O2 0.682590 0.686318 0.246200
O O3 0.568430 0.760696 0.237863
O O4 0.611445 0.693420 0.078812
O O5 0.732483 0.270780 0.623823
O O6 0.845000 0.178508 0.586284
O O7 0.765428 0.000000 0.638232
O O8 0.329734 0.500000 0.336313
O O9 0.345293 0.747349 0.251607
O O10 0.385621 0.704307 0.427066
O O11 0.457446 0.171806 0.264901
O O12 0.407517 0.237973 0.101429
O O13 0.376765 0.000000 0.185476
O O14 0.955475 0.500000 0.678086
O O15 0.958389 0.743120 0.591564
O O16 0.574315 0.500000 0.957658
O O17 0.500000 0.302811 0.000000
O O18 0.925489 0.000000 0.536733
#
# Coordination Sequence:
#
# PCOD9186254 Si02
#       7
#     8   8   8   8   8   8   8
#     4   9  18  34  57  85 113 141 177 223 273 322
#     4   9  18  35  58  82 111 142 176 223 276 325
#     4  11  23  38  56  79 108 146 190 229 269 323
#     4  11  24  38  53  79 116 150 181 223 276 327
#     4  10  20  33  53  82 112 143 180 224 271 324
#     4  10  19  34  60  87 110 142 182 223 268 324
#     4   9  20  37  58  82 108 142 183 228 275 323
#
# _framework density 18.959185999999999
#
# number of rings (size 3 to 8) (size 9 to 14) (size 15 to 20)
#    0.000    2.143    1.429    2.571    0.000    6.571 
#    0.000    3.571    0.000    0.000    0.000    0.000 
#    0.000    0.000    0.000    0.000    0.000    0.000 
#
# Total GULP energy -156342.562089 kJ/mol
# GULP energy per Si atom -5583.662932 kJ/mol
# Density = 1.891603 g / cm^3
# Si number density = 18.959186 Si / 1000 Ang^3
#
#
#
# Elastic Constant Matrix: (Units=GPa)
#
#
# Indices 1 2 3 4 5 6 
#
# 1 24.1962 20.3182 8.8585 0.0000 1.5734 0.0000
# 2 20.3182 68.5666 49.8005 0.0000 3.7501 0.0000
# 3 8.8585 49.8005 107.0900 0.0000 3.4750 0.0000
# 4 0.0000 0.0000 0.0000 18.4630 0.0000 11.2925
# 5 1.5734 3.7501 3.4750 0.0000 22.0903 0.0000
# 6 0.0000 0.0000 0.0000 11.2925 0.0000 20.7703
#
#
#
# Elastic Compliance Matrix: (Units=1/GPa)
#
#
# Indices 1 2 3 4 5 6 
#
# 1 0.056586 -0.020123 0.004721 0.000000 -0.001357 0.000000
# 2 -0.020123 0.029280 -0.011897 0.000000 -0.001666 0.000000
# 3 0.004721 -0.011897 0.014499 0.000000 -0.000597 0.000000
# 4 0.000000 0.000000 0.000000 0.081147 0.000000 -0.044118
# 5 -0.001357 -0.001666 -0.000597 0.000000 0.045742 0.000000
# 6 0.000000 0.000000 0.000000 -0.044118 0.000000 0.072132
#
#
# Mechanical properties :
#
#
# Convention : Reuss Voigt Hill
#
# Bulk Modulus (GPa) = 21.84982 39.75636 30.80309
# Shear Modulus (GPa) = 13.54132 20.32310 16.93221
#
# Velocity S-wave (km/s) = 2.67542 3.27760 2.99170
# Velocity P-wave (km/s) = 4.59277 5.94462 5.31187
#
# Compressibility (1/GPa) = 0.04576697
#
# Stress axis : x y z
#
# Youngs Moduli (GPa) = 17.67217 34.15358 68.96794
#
# Poissons Ratio (x) = 0.68726 -0.32559
# Poissons Ratio (y) = 0.35561 0.82054
# Poissons Ratio (z) = -0.08343 0.40634
#
# Static dielectric constant tensor:
#      x y z
#    x 1.658280 0.000000 0.005140 
#    y 0.000000 1.633320 0.000000 
#    z 0.005140 0.000000 1.667190 
# 
# From -- ./inp_files/230887.got.cif
#   From: 2010.05.17/outbox.cif.g08.bks.cpg/sg12_116_cif.got.tgz:230887.got - 2010.06.03 13:09:07.
