data_PCOD9186351
_publ_section_title
;
Structure prediction by ZEFSAII (Michael W. Deem and Ramdas Pophale) SiO2 
 PCOD9186351
Probable space group: C 2/M
;
_chemical_formula_sum "Si O2"
_cell_formula_units_Z 56
_cell_length_a 5.329635
_cell_length_b 26.044938
_cell_length_c 20.611576
_cell_angle_alpha 90.000000
_cell_angle_beta 103.081937
_cell_angle_gamma 90.000000
_cell_volume 2786.840252
_symmetry_space_group_name_H-M "C 2/M"
_symmetry_group_IT_number 12
_symmetry_cell_setting 'monoclinic'
loop_
_space_group_symop_operation_xyz
x,y,z
-x,y,-z
-x,-y,-z
x,-y,z
1/2+x,1/2+y,z
1/2-x,1/2+y,-z
1/2-x,1/2-y,-z
1/2+x,1/2-y,z
loop_
_atom_site_type_symbol
_atom_site_label
_atom_site_fract_x
_atom_site_fract_y
_atom_site_fract_z
Si Si1 0.537853 0.425072 0.311106
Si Si2 0.395314 0.722296 0.588130
Si Si3 0.970350 0.555033 0.230781
Si Si4 0.430447 0.828006 0.184071
Si Si5 0.003474 0.808186 0.735892
Si Si6 0.775215 0.691614 0.028803
Si Si7 0.712420 0.604541 0.457535
O O1 0.250432 0.444759 0.281285
O O2 0.511930 0.365043 0.294640
O O3 0.641651 0.428781 0.390067
O O4 0.747435 0.444274 0.271958
O O5 0.654662 0.739450 0.567013
O O6 0.459064 0.725045 0.669129
O O7 0.311564 0.664941 0.563783
O O8 0.948607 0.500000 0.193318
O O9 0.944957 0.609419 0.191145
O O10 0.220633 0.807872 0.223445
O O11 0.346533 0.810397 0.108000
O O12 0.711975 0.805569 0.216920
O O13 0.500000 0.666581 0.000000
O O14 0.750000 0.750000 0.000000
O O15 0.000000 0.666531 0.000000
O O16 0.500000 0.595042 0.500000
O O17 0.000000 0.595184 0.500000
#
# Coordination Sequence:
#
# PCOD9186351 Si02
#       7
#     8   8   8   8   8   8   8
#     4   9  19  35  55  78 113 136 176 227 277 333
#     4  11  22  36  48  75 111 133 179 247 286 320
#     4  10  19  34  61  89 107 135 174 230 294 335
#     4  10  19  36  58  78 110 143 186 227 264 335
#     4   9  19  35  52  77 101 144 180 225 285 320
#     4  10  21  38  53  77 112 152 191 222 252 311
#     4  11  22  36  56  74  99 151 195 218 268 348
#
# _framework density 20.094442000000001
#
# number of rings (size 3 to 8) (size 9 to 14) (size 15 to 20)
#    0.000    2.000    0.000    3.857    0.000    6.286 
#   15.429    0.000    0.000    9.429    0.000    0.000 
#    0.000    0.000    0.000    0.000    0.000    0.000 
#
# Total GULP energy -156338.272156 kJ/mol
# GULP energy per Si atom -5583.509720 kJ/mol
# Density = 2.004871 g / cm^3
# Si number density = 20.094442 Si / 1000 Ang^3
#
#
#
# Elastic Constant Matrix: (Units=GPa)
#
#
# Indices 1 2 3 4 5 6 
#
# 1 161.9719 0.0039 44.8451 0.0000 27.2654 0.0000
# 2 0.0039 90.1250 16.1029 0.0000 6.2765 0.0000
# 3 44.8451 16.1029 138.3260 0.0000 15.1887 0.0000
# 4 0.0000 0.0000 0.0000 9.8752 0.0000 -7.2019
# 5 27.2654 6.2765 15.1887 0.0000 26.7338 0.0000
# 6 0.0000 0.0000 0.0000 -7.2019 0.0000 -39.8211
#
#
#
# Elastic Compliance Matrix: (Units=1/GPa)
#
#
# Indices 1 2 3 4 5 6 
#
# 1 0.007902 0.000835 -0.001869 0.000000 -0.007193 0.000000
# 2 0.000835 0.011525 -0.001303 0.000000 -0.002817 0.000000
# 3 -0.001869 -0.001303 0.008259 0.000000 -0.002480 0.000000
# 4 0.000000 0.000000 0.000000 0.089464 0.000000 -0.016180
# 5 -0.007193 -0.002817 -0.002480 0.000000 0.046813 0.000000
# 6 0.000000 0.000000 0.000000 -0.016180 0.000000 -0.022186
#
#
# Mechanical properties :
#
#
# Convention : Reuss Voigt Hill
#
# Bulk Modulus (GPa) = 43.45711 56.92519 50.19115
# Shear Modulus (GPa) = 32.44179 21.32232 26.88205
#
# Velocity S-wave (km/s) = 4.02240 3.26099 3.66154
# Velocity P-wave (km/s) = 6.57619 6.52450 6.55040
#
# Compressibility (1/GPa) = 0.02301119
#
# Stress axis : x y z
#
# Youngs Moduli (GPa) = 126.54519 86.77077 121.07555
#
# Poissons Ratio (x) = -0.07242 0.22632
# Poissons Ratio (y) = -0.10561 0.15775
# Poissons Ratio (z) = 0.23654 0.11305
#
# Static dielectric constant tensor:
#      x y z
#    x 1.710800 0.000000 0.004590 
#    y 0.000000 1.710450 0.000000 
#    z 0.004590 0.000000 1.698720 
# 
# From -- ./inp_files/254049.got.cif
#   From: 2010.05.17/outbox.cif.g08.bks.cpg/sg12_128_cif.got.tgz:254049.got - 2010.06.03 13:09:07.
