data_PCOD9186525
_publ_section_title
;
Structure prediction by ZEFSAII (Michael W. Deem and Ramdas Pophale) SiO2 
 PCOD9186525
Probable space group: C 2/M
;
_chemical_formula_sum "Si O2"
_cell_formula_units_Z 40
_cell_length_a 17.301110
_cell_length_b 18.182101
_cell_length_c 7.889847
_cell_angle_alpha 90.000000
_cell_angle_beta 45.068295
_cell_angle_gamma 90.000000
_cell_volume 1757.068397
_symmetry_space_group_name_H-M "C 2/M"
_symmetry_group_IT_number 12
_symmetry_cell_setting 'monoclinic'
loop_
_space_group_symop_operation_xyz
x,y,z
-x,y,-z
-x,-y,-z
x,-y,z
1/2+x,1/2+y,z
1/2-x,1/2+y,-z
1/2-x,1/2-y,-z
1/2+x,1/2-y,z
loop_
_atom_site_type_symbol
_atom_site_label
_atom_site_fract_x
_atom_site_fract_y
_atom_site_fract_z
Si Si1 0.014158 0.186712 0.777696
Si Si2 0.440648 0.142531 0.277125
Si Si3 0.252840 0.153949 0.332930
Si Si4 0.364879 0.916174 0.829838
Si Si5 0.775268 0.197528 0.116812
O O1 0.034583 0.273098 0.706792
O O2 0.123113 0.146712 0.549270
O O3 0.000000 0.178764 0.000000
O O4 0.894915 0.164584 0.896947
O O5 0.316769 0.130694 0.404266
O O6 0.510713 0.093651 0.298024
O O7 0.500000 0.134779 0.000000
O O8 0.280315 0.241383 0.258712
O O9 0.297213 0.109362 0.102668
O O10 0.319804 0.862579 0.751955
O O11 0.343324 0.000000 0.821200
O O12 0.750000 0.250000 0.000000
#
# Coordination Sequence:
#
# PCOD9186525 Si02
#       5
#     8   8   8   8   8
#     4  11  19  34  57  90 112 145 194 251 287 328
#     4   9  16  32  55  88 111 141 189 245 292 324
#     4  10  20  34  59  90 114 149 196 242 291 336
#     4  10  21  38  59  86 122 156 190 233 291 354
#     4  10  19  35  53  87 116 151 193 236 288 337
#
# _framework density 22.765191999999999
#
# number of rings (size 3 to 8) (size 9 to 14) (size 15 to 20)
#    0.000    2.000    8.000    0.600    0.000    6.800 
#    0.000    2.000    0.000    4.800    0.000    0.000 
#    0.000    0.000    0.000    0.000    0.000    0.000 
#
# Total GULP energy -111689.816298 kJ/mol
# GULP energy per Si atom -5584.490815 kJ/mol
# Density = 2.271338 g / cm^3
# Si number density = 22.765192 Si / 1000 Ang^3
#
#
#
# Elastic Constant Matrix: (Units=GPa)
#
#
# Indices 1 2 3 4 5 6 
#
# 1 146.9394 32.7041 34.8057 0.0000 -18.0405 0.0000
# 2 32.7041 85.4805 12.9792 0.0000 -4.1845 0.0000
# 3 34.8057 12.9792 104.9588 0.0000 -38.7318 0.0000
# 4 0.0000 0.0000 0.0000 16.8793 0.0000 -4.5629
# 5 -18.0405 -4.1845 -38.7318 0.0000 58.7621 0.0000
# 6 0.0000 0.0000 0.0000 -4.5629 0.0000 21.0334
#
#
#
# Elastic Compliance Matrix: (Units=1/GPa)
#
#
# Indices 1 2 3 4 5 6 
#
# 1 0.007992 -0.002713 -0.001956 0.000000 0.000971 0.000000
# 2 -0.002713 0.012845 -0.000870 0.000000 -0.000492 0.000000
# 3 -0.001956 -0.000870 0.013266 0.000000 0.008081 0.000000
# 4 0.000000 0.000000 0.000000 0.062935 0.000000 0.013653
# 5 0.000971 -0.000492 0.008081 0.000000 0.022608 0.000000
# 6 0.000000 0.000000 0.000000 0.013653 0.000000 0.050505
#
#
# Mechanical properties :
#
#
# Convention : Reuss Voigt Hill
#
# Bulk Modulus (GPa) = 43.43422 55.37298 49.40360
# Shear Modulus (GPa) = 26.46842 36.46092 31.46467
#
# Velocity S-wave (km/s) = 3.41349 4.00635 3.72175
# Velocity P-wave (km/s) = 5.88698 6.76590 6.34169
#
# Compressibility (1/GPa) = 0.02302332
#
# Stress axis : x y z
#
# Youngs Moduli (GPa) = 125.12509 77.85356 75.37967
#
# Poissons Ratio (x) = 0.21122 0.14748
# Poissons Ratio (y) = 0.33947 0.06559
# Poissons Ratio (z) = 0.24481 0.06775
#
# Static dielectric constant tensor:
#      x y z
#    x 1.912260 0.000000 0.022480 
#    y 0.000000 1.803810 0.000000 
#    z 0.022480 0.000000 1.894860 
# 
# From -- ./inp_files/77181.got.cif
#   From: 2010.05.17/outbox.cif.g08.bks.cpg/sg12_39_cif.got.tgz:77181.got - 2010.06.03 13:09:07.
