data_PCOD9186529
_publ_section_title
;
Structure prediction by ZEFSAII (Michael W. Deem and Ramdas Pophale) SiO2 
 PCOD9186529
Probable space group: C 2/M
;
_chemical_formula_sum "Si O2"
_cell_formula_units_Z 58
_cell_length_a 14.678959
_cell_length_b 7.452255
_cell_length_c 23.675853
_cell_angle_alpha 90.000000
_cell_angle_beta 88.829706
_cell_angle_gamma 90.000000
_cell_volume 2589.393176
_symmetry_space_group_name_H-M "C 2/M"
_symmetry_group_IT_number 12
_symmetry_cell_setting 'monoclinic'
loop_
_space_group_symop_operation_xyz
x,y,z
-x,y,-z
-x,-y,-z
x,-y,z
1/2+x,1/2+y,z
1/2-x,1/2+y,-z
1/2-x,1/2-y,-z
1/2+x,1/2-y,z
loop_
_atom_site_type_symbol
_atom_site_label
_atom_site_fract_x
_atom_site_fract_y
_atom_site_fract_z
Si Si1 0.768102 0.717506 0.624836
Si Si2 0.989754 0.796269 0.938353
Si Si3 0.286121 0.213176 0.936400
Si Si4 0.974032 0.286951 0.639649
Si Si5 0.383264 0.790136 0.458237
Si Si6 0.625022 0.285092 0.721722
Si Si7 0.865722 0.780679 0.150743
Si Si8 0.500000 0.500000 0.500000
O O1 0.769865 0.500000 0.625593
O O2 0.871343 0.780948 0.634048
O O3 0.716789 0.768293 0.567379
O O4 0.701086 0.781351 0.676244
O O5 0.883917 0.799066 0.927308
O O6 0.045733 0.720147 0.885473
O O7 0.026636 0.000000 0.944666
O O8 0.000000 0.708928 0.000000
O O9 0.217013 0.272681 0.888806
O O10 0.296836 0.000000 0.931308
O O11 0.250000 0.250000 0.000000
O O12 0.970440 0.500000 0.631163
O O13 0.048003 0.220802 0.592915
O O14 0.024559 0.253508 0.698278
O O15 0.419264 0.658142 0.505292
O O16 0.396805 0.000000 0.471457
O O17 0.634861 0.500000 0.722494
O O18 0.637654 0.216676 0.785006
O O19 0.866058 0.000000 0.154206
#
# Coordination Sequence:
#
# PCOD9186529 Si02
#       8
#     8   8   8   8   8   8   8   2
#     4   9  17  35  60  84 114 153 194 236 290 352
#     4  10  19  35  54  71 100 144 182 220 277 338
#     4  11  21  35  54  76 102 138 186 226 278 344
#     4   9  19  35  59  85 116 150 194 239 289 344
#     4  10  21  38  61  88 121 163 202 245 290 343
#     4   9  18  33  56  82 106 146 189 232 290 346
#     4   9  19  35  52  75 110 142 181 232 287 347
#     4  12  22  40  64  86 132 162 206 240 298 332
#
# _framework density 22.399069999999998
#
# number of rings (size 3 to 8) (size 9 to 14) (size 15 to 20)
#    0.000    2.345    2.069    0.621    0.966    1.931 
#    0.000    4.138    0.000    0.000    0.000    0.000 
#    0.000    0.000    0.000    0.000    0.000    0.000 
#
# Total GULP energy -161696.746235 kJ/mol
# GULP energy per Si atom -5575.749870 kJ/mol
# Density = 2.234809 g / cm^3
# Si number density = 22.399070 Si / 1000 Ang^3
#
#
#
# Elastic Constant Matrix: (Units=GPa)
#
#
# Indices 1 2 3 4 5 6 
#
# 1 149.4938 2.8310 55.9265 0.0000 25.9333 0.0000
# 2 2.8310 93.1243 -5.4954 0.0000 2.2613 0.0000
# 3 55.9265 -5.4954 126.9333 0.0000 18.7801 0.0000
# 4 0.0000 0.0000 0.0000 8.9913 0.0000 7.2032
# 5 25.9333 2.2613 18.7801 0.0000 32.5480 0.0000
# 6 0.0000 0.0000 0.0000 7.2032 0.0000 25.6880
#
#
#
# Elastic Compliance Matrix: (Units=1/GPa)
#
#
# Indices 1 2 3 4 5 6 
#
# 1 0.008753 -0.000324 -0.003107 0.000000 -0.005158 0.000000
# 2 -0.000324 0.010815 0.000748 0.000000 -0.000925 0.000000
# 3 -0.003107 0.000748 0.009754 0.000000 -0.003204 0.000000
# 4 0.000000 0.000000 0.000000 0.143442 0.000000 -0.040223
# 5 -0.005158 -0.000925 -0.003204 0.000000 0.036747 0.000000
# 6 0.000000 0.000000 0.000000 -0.040223 0.000000 0.050208
#
#
# Mechanical properties :
#
#
# Convention : Reuss Voigt Hill
#
# Bulk Modulus (GPa) = 41.74686 52.89728 47.32207
# Shear Modulus (GPa) = 18.31039 34.53143 26.42091
#
# Velocity S-wave (km/s) = 2.86223 3.93064 3.43819
# Velocity P-wave (km/s) = 5.44072 6.65335 6.07735
#
# Compressibility (1/GPa) = 0.02395390
#
# Stress axis : x y z
#
# Youngs Moduli (GPa) = 114.25078 92.46611 102.52615
#
# Poissons Ratio (x) = 0.02998 0.31857
# Poissons Ratio (y) = 0.03704 -0.07667
# Poissons Ratio (z) = 0.35500 -0.06915
#
# Static dielectric constant tensor:
#      x y z
#    x 1.819160 0.000000 -0.012210 
#    y 0.000000 1.864630 0.000000 
#    z -0.012210 0.000000 1.877630 
# 
# From -- ./inp_files/338141.got.cif
#   From: 2010.05.17/outbox.cif.g08.bks.cpg/sg12_170_cif.got.tgz:338141.got - 2010.06.03 13:09:07.
