data_PCOD9186647
_publ_section_title
;
Structure prediction by ZEFSAII (Michael W. Deem and Ramdas Pophale) SiO2 
 PCOD9186647
Probable space group: C 2/M
;
_chemical_formula_sum "Si O2"
_cell_formula_units_Z 56
_cell_length_a 23.940340
_cell_length_b 14.724619
_cell_length_c 23.804224
_cell_angle_alpha 90.000000
_cell_angle_beta 160.935249
_cell_angle_gamma 90.000000
_cell_volume 2740.899515
_symmetry_space_group_name_H-M "C 2/M"
_symmetry_group_IT_number 12
_symmetry_cell_setting 'monoclinic'
loop_
_space_group_symop_operation_xyz
x,y,z
-x,y,-z
-x,-y,-z
x,-y,z
1/2+x,1/2+y,z
1/2-x,1/2+y,-z
1/2-x,1/2-y,-z
1/2+x,1/2-y,z
loop_
_atom_site_type_symbol
_atom_site_label
_atom_site_fract_x
_atom_site_fract_y
_atom_site_fract_z
Si Si1 0.151204 0.098533 0.780162
Si Si2 0.326999 0.607415 0.066680
Si Si3 0.275476 0.274463 0.838925
Si Si4 0.645771 0.704225 0.217832
Si Si5 0.013448 0.290176 0.271254
Si Si6 0.709584 0.680101 0.548317
Si Si7 0.531925 0.902417 0.462989
O O1 0.204768 0.104820 0.896193
O O2 0.242807 0.175595 0.832064
O O3 0.945796 0.113149 0.585905
O O4 0.193262 0.000000 0.797636
O O5 0.363284 0.500000 0.085302
O O6 0.464451 0.692116 0.194508
O O7 0.156229 0.651741 0.878189
O O8 0.307999 0.274016 0.802951
O O9 0.103907 0.330011 0.687026
O O10 0.445044 0.315606 0.028376
O O11 0.700655 0.786174 0.309986
O O12 0.771040 0.624017 0.356025
O O13 0.140099 0.346638 0.351569
O O14 0.114663 0.260871 0.423229
O O15 0.500000 0.906079 0.500000
O O16 0.494922 0.000000 0.402775
#
# Coordination Sequence:
#
# PCOD9186647 Si02
#       7
#     8   8   8   8   8   8   8
#     4  10  20  35  59  86 117 155 195 238 286 347
#     4   9  18  35  58  83 112 148 189 236 292 350
#     4  10  20  36  58  83 117 154 194 238 288 339
#     4  10  20  35  58  81 115 156 190 238 292 341
#     4   9  19  34  57  80 107 148 189 236 289 343
#     4  10  19  35  55  78 112 148 192 238 286 339
#     4   9  18  34  57  81 108 144 189 236 286 344
#
# _framework density 20.431249000000001
#
# number of rings (size 3 to 8) (size 9 to 14) (size 15 to 20)
#    0.000    2.429    1.429    0.857    0.000    1.143 
#    0.000   10.000    0.000    0.000    0.000    0.000 
#    0.000    0.000    0.000    0.000    0.000    0.000 
#
# Total GULP energy -156052.302972 kJ/mol
# GULP energy per Si atom -5573.296535 kJ/mol
# Density = 2.038475 g / cm^3
# Si number density = 20.431249 Si / 1000 Ang^3
#
#
#
# Elastic Constant Matrix: (Units=GPa)
#
#
# Indices 1 2 3 4 5 6 
#
# 1 23.5051 -1.0020 17.7644 -0.0013 0.5099 0.0001
# 2 -1.0020 81.2103 15.6987 0.0002 4.7241 0.0023
# 3 17.7644 15.6987 118.3391 -0.0037 -1.9923 0.0020
# 4 -0.0013 0.0002 -0.0037 -0.8532 -0.0006 0.7238
# 5 0.5099 4.7241 -1.9923 -0.0006 29.6642 0.0015
# 6 0.0001 0.0023 0.0020 0.7238 0.0015 11.4723
#
#
#
# Elastic Compliance Matrix: (Units=1/GPa)
#
#
# Indices 1 2 3 4 5 6 
#
# 1 0.048402 0.002161 -0.007581 -0.000035 -0.001685 0.000003
# 2 0.002161 0.012870 -0.002069 0.000008 -0.002226 -0.000002
# 3 -0.007581 -0.002069 0.009882 -0.000033 0.001124 0.000001
# 4 -0.000035 0.000008 -0.000033 -1.112462 -0.000027 0.070185
# 5 -0.001685 -0.002226 0.001124 -0.000027 0.034170 -0.000003
# 6 0.000003 -0.000002 0.000001 0.070185 -0.000003 0.082739
#
#
# Mechanical properties :
#
#
# Convention : Reuss Voigt Hill
#
# Bulk Modulus (GPa) = 17.80154 31.99743 24.89949
# Shear Modulus (GPa) = -5.61358 20.76287 7.57464
#
# Velocity S-wave (km/s) = -1.65937 3.19130 1.92755
# Velocity P-wave (km/s) = 2.24955 5.41056 4.14335
#
# Compressibility (1/GPa) = 0.05617491
#
# Stress axis : x y z
#
# Youngs Moduli (GPa) = 20.66031 77.70122 101.19735
#
# Poissons Ratio (x) = -0.16789 0.76716
# Poissons Ratio (y) = -0.04464 0.20939
# Poissons Ratio (z) = 0.15662 0.16077
#
# Static dielectric constant tensor:
#      x y z
#    x 1.755370 0.000000 0.009280 
#    y 0.000000 1.736340 0.000000 
#    z 0.009280 0.000000 1.731600 
# 
# From -- ./inp_files/349805.got.cif
#   From: 2010.05.17/outbox.cif.g08.bks.cpg/sg12_175_cif.got.tgz:349805.got - 2010.06.03 13:09:07.
