data_PCOD9186584
_publ_section_title
;
Structure prediction by ZEFSAII (Michael W. Deem and Ramdas Pophale) SiO2 
 PCOD9186584
Probable space group: C 2/M
;
_chemical_formula_sum "Si O2"
_cell_formula_units_Z 46
_cell_length_a 5.417929
_cell_length_b 14.092911
_cell_length_c 29.366106
_cell_angle_alpha 90.000000
_cell_angle_beta 117.015013
_cell_angle_gamma 90.000000
_cell_volume 1997.575781
_symmetry_space_group_name_H-M "C 2/M"
_symmetry_group_IT_number 12
_symmetry_cell_setting 'monoclinic'
loop_
_space_group_symop_operation_xyz
x,y,z
-x,y,-z
-x,-y,-z
x,-y,z
1/2+x,1/2+y,z
1/2-x,1/2+y,-z
1/2-x,1/2-y,-z
1/2+x,1/2-y,z
loop_
_atom_site_type_symbol
_atom_site_label
_atom_site_fract_x
_atom_site_fract_y
_atom_site_fract_z
Si Si1 0.817372 0.116114 0.720061
Si Si2 0.827560 0.690258 0.109515
Si Si3 0.003331 0.345443 0.394514
Si Si4 0.000000 0.186170 0.000000
Si Si5 0.000000 0.000000 0.500000
Si Si6 0.961294 0.612517 0.778094
Si Si7 0.105621 0.133632 0.435599
O O1 0.661644 0.168636 0.665907
O O2 0.665992 0.142379 0.754548
O O3 0.140858 0.142481 0.747160
O O4 0.794202 0.000000 0.711784
O O5 0.606845 0.768938 0.109412
O O6 0.650317 0.636268 0.055385
O O7 0.919178 0.637493 0.162592
O O8 0.089029 0.247240 0.427008
O O9 0.794621 0.397646 0.410242
O O10 0.285459 0.397844 0.405767
O O11 0.750000 0.250000 0.000000
O O12 0.181248 0.915425 0.489017
O O13 0.951558 0.500000 0.773643
#
# Coordination Sequence:
#
# PCOD9186584 Si02
#       7
#     8   8   8   4   2   8   8
#     4  10  21  37  63  85 117 161 201 237 303 357
#     4  10  19  35  54  84 116 156 211 253 304 360
#     4  10  22  45  63  91 121 162 195 245 281 359
#     4   8  16  30  53  74 111 158 200 258 302 352
#     4  12  28  46  72 102 122 162 192 246 296 364
#     4  10  21  38  56  87 122 156 194 255 301 360
#     4  10  25  42  67  93 125 151 196 235 298 331
#
# _framework density 23.027913000000002
#
# number of rings (size 3 to 8) (size 9 to 14) (size 15 to 20)
#    0.000    2.087    0.000    2.087    2.435    4.174 
#   18.783    0.435    0.000    0.000    0.000   10.957 
#    0.000    0.000    0.000    0.000    0.000    0.000 
#
# Total GULP energy -128092.080665 kJ/mol
# GULP energy per Si atom -5569.220898 kJ/mol
# Density = 2.297550 g / cm^3
# Si number density = 23.027913 Si / 1000 Ang^3
#
#
#
# Elastic Constant Matrix: (Units=GPa)
#
#
# Indices 1 2 3 4 5 6 
#
# 1 160.6249 -1.7103 39.7910 -0.0001 11.1748 0.0000
# 2 -1.7103 118.5302 10.6038 0.0000 -0.7754 0.0000
# 3 39.7910 10.6038 123.9074 0.0000 -4.3968 0.0000
# 4 -0.0001 0.0000 0.0000 50.3887 0.0000 -16.9612
# 5 11.1748 -0.7754 -4.3968 0.0000 38.6013 0.0000
# 6 0.0000 0.0000 0.0000 -16.9612 0.0000 -11.6647
#
#
#
# Elastic Compliance Matrix: (Units=1/GPa)
#
#
# Indices 1 2 3 4 5 6 
#
# 1 0.006968 0.000295 -0.002344 0.000000 -0.002278 0.000000
# 2 0.000295 0.008515 -0.000824 0.000000 -0.000008 0.000000
# 3 -0.002344 -0.000824 0.008953 0.000000 0.001682 0.000000
# 4 0.000000 0.000000 0.000000 0.013324 0.000000 -0.019374
# 5 -0.002278 -0.000008 0.001682 0.000000 0.026757 0.000000
# 6 0.000000 0.000000 0.000000 -0.019374 0.000000 -0.057557
#
#
# Mechanical properties :
#
#
# Convention : Reuss Voigt Hill
#
# Bulk Modulus (GPa) = 53.50054 55.60352 54.55203
# Shear Modulus (GPa) = 264.06929 39.09027 151.57978
#
# Velocity S-wave (km/s) = 10.72019 4.12456 8.12202
# Velocity P-wave (km/s) = 13.28583 6.84699 10.56869
#
# Compressibility (1/GPa) = 0.01869140
#
# Stress axis : x y z
#
# Youngs Moduli (GPa) = 143.51449 117.44573 111.68956
#
# Poissons Ratio (x) = -0.03468 0.26177
# Poissons Ratio (y) = -0.04238 0.09201
# Poissons Ratio (z) = 0.33636 0.09675
#
# Static dielectric constant tensor:
#      x y z
#    x 1.895990 0.000000 -0.002730 
#    y 0.000000 1.813930 0.000000 
#    z -0.002730 0.000000 1.984580 
# 
# From -- ./inp_files/371500.got.cif
#   From: 2010.05.17/outbox.cif.g08.bks.cpg/sg12_186_cif.got.tgz:371500.got - 2010.06.03 13:09:07.
