data_PCOD9186495
_publ_section_title
;
Structure prediction by ZEFSAII (Michael W. Deem and Ramdas Pophale) SiO2 
 PCOD9186495
Probable space group: C 2/M
;
_chemical_formula_sum "Si O2"
_cell_formula_units_Z 48
_cell_length_a 8.674539
_cell_length_b 21.766551
_cell_length_c 11.150863
_cell_angle_alpha 90.000000
_cell_angle_beta 93.723295
_cell_angle_gamma 90.000000
_cell_volume 2101.003946
_symmetry_space_group_name_H-M "C 2/M"
_symmetry_group_IT_number 12
_symmetry_cell_setting 'monoclinic'
loop_
_space_group_symop_operation_xyz
x,y,z
-x,y,-z
-x,-y,-z
x,-y,z
1/2+x,1/2+y,z
1/2-x,1/2+y,-z
1/2-x,1/2-y,-z
1/2+x,1/2-y,z
loop_
_atom_site_type_symbol
_atom_site_label
_atom_site_fract_x
_atom_site_fract_y
_atom_site_fract_z
Si Si1 0.104814 0.426891 0.620228
Si Si2 0.418627 0.310374 0.371332
Si Si3 0.596090 0.842677 0.855406
Si Si4 0.843709 0.070543 0.936977
Si Si5 0.343311 0.244414 0.784984
Si Si6 0.055314 0.932318 0.336031
O O1 0.090463 0.500000 0.654144
O O2 0.072868 0.380429 0.728459
O O3 0.283177 0.417202 0.591670
O O4 0.000000 0.415339 0.500000
O O5 0.500000 0.292500 0.500000
O O6 0.527205 0.285831 0.270156
O O7 0.251877 0.285144 0.330224
O O8 0.427685 0.383094 0.357748
O O9 0.684678 0.892377 0.942615
O O10 0.434447 0.806990 0.866314
O O11 0.725665 0.789373 0.846538
O O12 0.887455 0.068564 0.798773
O O13 0.827030 0.000000 0.979643
O O14 0.000000 0.098602 0.000000
O O15 0.000742 0.000000 0.361766
#
# Coordination Sequence:
#
# PCOD9186495 Si02
#       6
#     8   8   8   8   8   8
#     4   9  17  29  50  72  98 135 173 215 267 305
#     4  11  21  34  51  74 104 148 184 214 253 307
#     4  10  19  35  53  75 108 136 176 221 259 311
#     4   9  17  34  63  86 100 130 175 221 269 316
#     4  10  22  34  50  72 109 143 182 214 256 303
#     4   9  18  34  51  75 108 135 169 219 264 315
#
# _framework density 22.846219999999999
#
# number of rings (size 3 to 8) (size 9 to 14) (size 15 to 20)
#    0.000    2.333    3.333    2.000    2.333    3.000 
#    0.000    2.500    0.000    0.000    0.000    3.500 
#    0.000    0.000    0.000    0.000    0.000    0.000 
#
# Total GULP energy -133960.232733 kJ/mol
# GULP energy per Si atom -5581.676364 kJ/mol
# Density = 2.279422 g / cm^3
# Si number density = 22.846220 Si / 1000 Ang^3
#
#
#
# Elastic Constant Matrix: (Units=GPa)
#
#
# Indices 1 2 3 4 5 6 
#
# 1 43.6595 37.5727 23.4316 0.0000 16.0363 0.0000
# 2 37.5727 100.0914 16.3731 0.0000 13.4043 0.0000
# 3 23.4316 16.3731 56.6837 0.0000 24.9945 0.0000
# 4 0.0000 0.0000 0.0000 20.2784 0.0000 15.1499
# 5 16.0363 13.4043 24.9945 0.0000 41.3268 0.0000
# 6 0.0000 0.0000 0.0000 15.1499 0.0000 24.2003
#
#
#
# Elastic Compliance Matrix: (Units=1/GPa)
#
#
# Indices 1 2 3 4 5 6 
#
# 1 0.042439 -0.013368 -0.011362 0.000000 -0.005260 0.000000
# 2 -0.013368 0.014838 0.001466 0.000000 -0.000512 0.000000
# 3 -0.011362 0.001466 0.027520 0.000000 -0.012710 0.000000
# 4 0.000000 0.000000 0.000000 0.092642 0.000000 -0.057996
# 5 -0.005260 -0.000512 -0.012710 0.000000 0.034092 0.000000
# 6 0.000000 0.000000 0.000000 -0.057996 0.000000 0.077628
#
#
# Mechanical properties :
#
#
# Convention : Reuss Voigt Hill
#
# Bulk Modulus (GPa) = 26.13189 39.46549 32.79869
# Shear Modulus (GPa) = 14.34955 25.36492 19.85724
#
# Velocity S-wave (km/s) = 2.50890 3.33565 2.95137
# Velocity P-wave (km/s) = 4.45598 5.66986 5.09917
#
# Compressibility (1/GPa) = 0.03826742
#
# Stress axis : x y z
#
# Youngs Moduli (GPa) = 23.56348 67.39615 36.33720
#
# Poissons Ratio (x) = 0.90093 0.41288
# Poissons Ratio (y) = 0.31499 -0.05326
# Poissons Ratio (z) = 0.26774 -0.09878
#
# Static dielectric constant tensor:
#      x y z
#    x 1.849580 0.000000 0.027680 
#    y 0.000000 1.893470 0.000000 
#    z 0.027680 0.000000 1.949440 
# 
# From -- ./inp_files/197192.got.cif
#   From: 2010.05.17/outbox.cif.g08.bks.cpg/sg12_99_cif.got.tgz:197192.got - 2010.06.03 13:09:07.
