data_PCOD9186243
_publ_section_title
;
Structure prediction by ZEFSAII (Michael W. Deem and Ramdas Pophale) SiO2 
 PCOD9186243
Probable space group: C 2/M
;
_chemical_formula_sum "Si O2"
_cell_formula_units_Z 60
_cell_length_a 21.159995
_cell_length_b 21.837299
_cell_length_c 8.770324
_cell_angle_alpha 90.000000
_cell_angle_beta 54.147838
_cell_angle_gamma 90.000000
_cell_volume 3284.730293
_symmetry_space_group_name_H-M "C 2/M"
_symmetry_group_IT_number 12
_symmetry_cell_setting 'monoclinic'
loop_
_space_group_symop_operation_xyz
x,y,z
-x,y,-z
-x,-y,-z
x,-y,z
1/2+x,1/2+y,z
1/2-x,1/2+y,-z
1/2-x,1/2-y,-z
1/2+x,1/2-y,z
loop_
_atom_site_type_symbol
_atom_site_label
_atom_site_fract_x
_atom_site_fract_y
_atom_site_fract_z
Si Si1 0.368581 0.821609 0.326285
Si Si2 0.026509 0.665468 0.289926
Si Si3 0.244327 0.346803 0.252172
Si Si4 0.847804 0.428828 0.855077
Si Si5 0.146118 0.927460 0.686351
Si Si6 0.000000 0.144771 0.000000
Si Si7 0.617990 0.735371 0.982657
Si Si8 0.718167 0.070497 0.720255
O O1 0.453610 0.829723 0.279016
O O2 0.308259 0.811371 0.549596
O O3 0.368586 0.769273 0.198605
O O4 0.339020 0.883163 0.285037
O O5 0.067774 0.599392 0.226605
O O6 0.000000 0.677570 0.500000
O O7 0.089748 0.714784 0.143287
O O8 0.188970 0.385978 0.221967
O O9 0.299061 0.394719 0.265957
O O10 0.303315 0.300364 0.087058
O O11 0.851601 0.500000 0.805120
O O12 0.795517 0.423519 0.080996
O O13 0.193902 0.917170 0.461901
O O14 0.140136 0.000000 0.720738
O O15 0.062417 0.896015 0.820400
O O16 0.048981 0.187297 0.045981
O O17 0.700587 0.000000 0.702573
#
# Coordination Sequence:
#
# PCOD9186243 Si02
#       8
#     8   8   8   8   8   4   8   8
#     4  11  20  40  62  83 120 151 193 246 285 343
#     4  12  24  41  57  86 121 155 190 240 299 344
#     4  10  22  38  60  89 112 155 196 236 296 342
#     4  11  23  41  60  86 120 155 196 241 291 350
#     4   9  18  35  59  87 114 145 192 247 293 345
#     4  10  19  34  60  86 111 150 194 238 298 336
#     4  11  22  40  59  83 118 156 195 240 283 349
#     4   9  20  37  60  86 113 153 199 238 289 346
#
# _framework density 18.266338999999999
#
# number of rings (size 3 to 8) (size 9 to 14) (size 15 to 20)
#    0.000    1.600    4.000    1.000    0.000    1.867 
#    2.400    1.333    0.000    0.000    0.000    6.533 
#    0.000    0.000    0.000    0.000    0.000    0.000 
#
# Total GULP energy -167459.137532 kJ/mol
# GULP energy per Si atom -5581.971251 kJ/mol
# Density = 1.822476 g / cm^3
# Si number density = 18.266339 Si / 1000 Ang^3
#
#
#
# Elastic Constant Matrix: (Units=GPa)
#
#
# Indices 1 2 3 4 5 6 
#
# 1 37.9850 25.2049 11.4460 0.0000 -12.4433 0.0000
# 2 25.2049 79.8437 47.3337 0.0000 -13.0889 0.0000
# 3 11.4460 47.3337 84.6258 0.0000 -4.1631 0.0000
# 4 0.0000 0.0000 0.0000 27.8733 0.0000 -9.2356
# 5 -12.4433 -13.0889 -4.1631 0.0000 22.0740 0.0000
# 6 0.0000 0.0000 0.0000 -9.2356 0.0000 24.4970
#
#
#
# Elastic Compliance Matrix: (Units=1/GPa)
#
#
# Indices 1 2 3 4 5 6 
#
# 1 0.037749 -0.010174 0.001348 0.000000 0.015501 0.000000
# 2 -0.010174 0.023543 -0.011494 0.000000 0.006057 0.000000
# 3 0.001348 -0.011494 0.017932 0.000000 -0.002674 0.000000
# 4 0.000000 0.000000 0.000000 0.040998 0.000000 0.015457
# 5 0.015501 0.006057 -0.002674 0.000000 0.057127 0.000000
# 6 0.000000 0.000000 0.000000 0.015457 0.000000 0.046649
#
#
# Mechanical properties :
#
#
# Convention : Reuss Voigt Hill
#
# Bulk Modulus (GPa) = 25.91863 41.15816 33.53839
# Shear Modulus (GPa) = 18.01791 22.78687 20.40239
#
# Velocity S-wave (km/s) = 3.14411 3.53580 3.34569
# Velocity P-wave (km/s) = 5.23456 6.26501 5.77282
#
# Compressibility (1/GPa) = 0.03858229
#
# Stress axis : x y z
#
# Youngs Moduli (GPa) = 26.49067 42.47464 55.76597
#
# Poissons Ratio (x) = 0.43216 -0.07516
# Poissons Ratio (y) = 0.26953 0.64100
# Poissons Ratio (z) = -0.03570 0.48822
#
# Static dielectric constant tensor:
#      x y z
#    x 1.603390 0.000000 -0.010640 
#    y 0.000000 1.623380 0.000000 
#    z -0.010640 0.000000 1.646800 
# 
# From -- ./inp_files/89835.got.cif
#   From: 2010.05.17/outbox.cif.g08.bks.cpg/sg12_45_cif.got.tgz:89835.got - 2010.06.03 13:09:07.
