data_PCOD9186036
_publ_section_title
;
Structure prediction by ZEFSAII (Michael W. Deem and Ramdas Pophale) SiO2 
 PCOD9186036
Probable space group: C 2/M
;
_chemical_formula_sum "Si O2"
_cell_formula_units_Z 28
_cell_length_a 5.210908
_cell_length_b 31.015588
_cell_length_c 9.300273
_cell_angle_alpha 90.000000
_cell_angle_beta 58.930156
_cell_angle_gamma 90.000000
_cell_volume 1287.467210
_symmetry_space_group_name_H-M "C 2/M"
_symmetry_group_IT_number 12
_symmetry_cell_setting 'monoclinic'
loop_
_space_group_symop_operation_xyz
x,y,z
-x,y,-z
-x,-y,-z
x,-y,z
1/2+x,1/2+y,z
1/2-x,1/2+y,-z
1/2-x,1/2-y,-z
1/2+x,1/2-y,z
loop_
_atom_site_type_symbol
_atom_site_label
_atom_site_fract_x
_atom_site_fract_y
_atom_site_fract_z
Si Si1 0.356424 0.000000 0.383630
Si Si2 0.908481 0.231302 0.308537
Si Si3 0.578477 0.913264 0.811913
Si Si4 0.215627 0.869799 0.682423
O O1 0.500000 0.000000 0.500000
O O2 0.443175 0.042596 0.270635
O O3 0.000000 0.000000 0.500000
O O4 0.750000 0.250000 0.500000
O O5 0.752605 0.257292 0.226753
O O6 0.847924 0.180939 0.313370
O O7 0.338058 0.881789 0.805014
O O8 0.917423 0.894412 0.716076
O O9 0.500000 0.920467 0.000000
O O10 0.500000 0.880783 0.500000
#
# Coordination Sequence:
#
# PCOD9186036 Si02
#       4
#     4   8   8   8
#     4  12  25  48  73 104 131 166 235 284 315 392
#     4  10  19  34  59 100 127 161 224 291 333 366
#     4  12  27  45  67  99 145 183 211 266 356 410
#     4  12  23  40  71 103 130 173 239 285 318 390
#
# _framework density 21.748128000000001
#
# number of rings (size 3 to 8) (size 9 to 14) (size 15 to 20)
#    0.000    0.571    2.857    8.143    4.000    0.000 
#    0.000    4.286    0.000   17.143    0.000    0.000 
#    0.000    0.000    0.000    0.000    0.000    0.000 
#
# Total GULP energy -78328.239150 kJ/mol
# GULP energy per Si atom -5594.874225 kJ/mol
# Density = 2.169863 g / cm^3
# Si number density = 21.748128 Si / 1000 Ang^3
#
#
#
# Elastic Constant Matrix: (Units=GPa)
#
#
# Indices 1 2 3 4 5 6 
#
# 1 215.2573 85.1982 50.8956 0.0000 30.3224 0.0000
# 2 85.1982 184.6649 67.5743 0.0000 21.6486 0.0000
# 3 50.8956 67.5743 95.9599 0.0000 26.3284 0.0000
# 4 0.0000 0.0000 0.0000 -3.1526 0.0000 15.5027
# 5 30.3224 21.6486 26.3284 0.0000 37.8011 0.0000
# 6 0.0000 0.0000 0.0000 15.5027 0.0000 40.6650
#
#
#
# Elastic Compliance Matrix: (Units=1/GPa)
#
#
# Indices 1 2 3 4 5 6 
#
# 1 0.006140 -0.002141 -0.000907 0.000000 -0.003067 0.000000
# 2 -0.002141 0.008059 -0.004629 0.000000 0.000326 0.000000
# 3 -0.000907 -0.004629 0.016361 0.000000 -0.008017 0.000000
# 4 0.000000 0.000000 0.000000 -0.110342 0.000000 0.042066
# 5 -0.003067 0.000326 -0.008017 0.000000 0.034311 0.000000
# 6 0.000000 0.000000 0.000000 0.042066 0.000000 0.008555
#
#
# Mechanical properties :
#
#
# Convention : Reuss Voigt Hill
#
# Bulk Modulus (GPa) = 65.76539 100.35758 83.06149
# Shear Modulus (GPa) = -303.13577 34.54362 -134.29607
#
# Velocity S-wave (km/s) = -11.81894 3.98973 -7.86668
# Velocity P-wave (km/s) = 12.48778 8.21398 6.65113
#
# Compressibility (1/GPa) = 0.01520557
#
# Stress axis : x y z
#
# Youngs Moduli (GPa) = 162.87861 124.09135 61.11991
#
# Poissons Ratio (x) = 0.26569 0.05544
# Poissons Ratio (y) = 0.34874 0.28291
# Poissons Ratio (z) = 0.14775 0.57438
#
# Static dielectric constant tensor:
#      x y z
#    x 1.842120 0.000000 0.018780 
#    y 0.000000 1.775000 0.000000 
#    z 0.018780 0.000000 1.769480 
# 
# From -- ./inp_files/34465.got.cif
#   From: 2010.05.17/outbox.cif.g08.bks.cpg/sg12_18_cif.got.tgz:34465.got - 2010.06.03 13:09:07.
