data_PCOD9186321
_publ_section_title
;
Structure prediction by ZEFSAII (Michael W. Deem and Ramdas Pophale) SiO2 
 PCOD9186321
Probable space group: C 2/M
;
_chemical_formula_sum "Si O2"
_cell_formula_units_Z 48
_cell_length_a 14.055860
_cell_length_b 14.241177
_cell_length_c 11.924079
_cell_angle_alpha 90.000000
_cell_angle_beta 57.914105
_cell_angle_gamma 90.000000
_cell_volume 2022.279227
_symmetry_space_group_name_H-M "C 2/M"
_symmetry_group_IT_number 12
_symmetry_cell_setting 'monoclinic'
loop_
_space_group_symop_operation_xyz
x,y,z
-x,y,-z
-x,-y,-z
x,-y,z
1/2+x,1/2+y,z
1/2-x,1/2+y,-z
1/2-x,1/2-y,-z
1/2+x,1/2-y,z
loop_
_atom_site_type_symbol
_atom_site_label
_atom_site_fract_x
_atom_site_fract_y
_atom_site_fract_z
Si Si1 0.739076 0.226702 0.179299
Si Si2 0.230411 0.342250 0.434930
Si Si3 0.106971 0.612224 0.849173
Si Si4 0.538952 0.598548 0.644470
Si Si5 0.908184 0.102774 0.959964
Si Si6 0.481934 0.191913 0.331924
O O1 0.758083 0.179571 0.289418
O O2 0.781801 0.334128 0.172531
O O3 0.614576 0.189700 0.231764
O O4 0.820345 0.183798 0.035283
O O5 0.250000 0.250000 0.500000
O O6 0.328432 0.407611 0.417501
O O7 0.100432 0.368024 0.535776
O O8 0.125812 0.500000 0.819802
O O9 0.070909 0.665924 0.756986
O O10 0.000000 0.622079 0.000000
O O11 0.499427 0.500000 0.618258
O O12 0.473363 0.607080 0.803137
O O13 0.524432 0.703159 0.608391
O O14 0.853189 0.000000 0.003919
O O15 0.000000 0.110416 0.000000
#
# Coordination Sequence:
#
# PCOD9186321 Si02
#       6
#     8   8   8   8   8   8
#     4  12  22  40  69  94 130 173 219 264 331 385
#     4  10  20  40  62  90 127 172 210 264 324 388
#     4  11  25  45  66  95 137 180 219 266 329 396
#     4  10  20  37  64  93 123 161 210 266 323 379
#     4  10  19  34  60  93 123 154 205 267 323 376
#     4  11  24  42  64  97 131 174 220 271 314 395
#
# _framework density 23.735593000000001
#
# number of rings (size 3 to 8) (size 9 to 14) (size 15 to 20)
#    0.000    1.333    5.000    2.000    0.000    4.667 
#    0.000    3.333    0.000    6.000    0.000    0.000 
#    0.000    0.000    0.000    0.000    0.000    0.000 
#
# Total GULP energy -133735.443170 kJ/mol
# GULP energy per Si atom -5572.310132 kJ/mol
# Density = 2.368157 g / cm^3
# Si number density = 23.735593 Si / 1000 Ang^3
#
#
#
# Elastic Constant Matrix: (Units=GPa)
#
#
# Indices 1 2 3 4 5 6 
#
# 1 64.2280 21.6400 36.3427 0.0000 -4.3902 0.0000
# 2 21.6400 103.8404 32.2117 0.0000 -0.8695 0.0000
# 3 36.3427 32.2117 113.6493 0.0000 -9.3348 0.0000
# 4 0.0000 0.0000 0.0000 52.9129 0.0000 -20.4758
# 5 -4.3902 -0.8695 -9.3348 0.0000 37.7656 0.0000
# 6 0.0000 0.0000 0.0000 -20.4758 0.0000 6.4307
#
#
#
# Elastic Compliance Matrix: (Units=1/GPa)
#
#
# Indices 1 2 3 4 5 6 
#
# 1 0.019540 -0.002355 -0.005511 0.000000 0.000855 0.000000
# 2 -0.002355 0.010852 -0.002373 0.000000 -0.000610 0.000000
# 3 -0.005511 -0.002373 0.011408 0.000000 0.002125 0.000000
# 4 0.000000 0.000000 0.000000 -0.081411 0.000000 -0.259217
# 5 0.000855 -0.000610 0.002125 0.000000 0.027090 0.000000
# 6 0.000000 0.000000 0.000000 -0.259217 0.000000 -0.669860
#
#
# Mechanical properties :
#
#
# Convention : Reuss Voigt Hill
#
# Bulk Modulus (GPa) = 46.89904 51.34518 49.12211
# Shear Modulus (GPa) = -7.63595 32.19008 12.27706
#
# Velocity S-wave (km/s) = -1.79557 3.68665 2.27676
# Velocity P-wave (km/s) = 3.93740 6.30880 5.25852
#
# Compressibility (1/GPa) = 0.02132240
#
# Stress axis : x y z
#
# Youngs Moduli (GPa) = 51.17800 92.14945 87.65669
#
# Poissons Ratio (x) = 0.21705 0.48303
# Poissons Ratio (y) = 0.12055 0.20798
# Poissons Ratio (z) = 0.28202 0.21864
#
# Static dielectric constant tensor:
#      x y z
#    x 1.981200 0.000000 -0.025020 
#    y 0.000000 1.952400 0.000000 
#    z -0.025020 0.000000 1.899830 
# 
# From -- ./inp_files/214663.got.cif
#   From: 2010.05.17/outbox.cif.g08.bks.cpg/sg12_108_cif.got.tgz:214663.got - 2010.06.03 13:09:07.
