data_PCOD9186723
_publ_section_title
;
Structure prediction by ZEFSAII (Michael W. Deem and Ramdas Pophale) SiO2 
 PCOD9186723
Probable space group: C 2/M
;
_chemical_formula_sum "Si O2"
_cell_formula_units_Z 52
_cell_length_a 18.484984
_cell_length_b 7.733775
_cell_length_c 23.058936
_cell_angle_alpha 90.000000
_cell_angle_beta 142.805662
_cell_angle_gamma 90.000000
_cell_volume 1992.786790
_symmetry_space_group_name_H-M "C 2/M"
_symmetry_group_IT_number 12
_symmetry_cell_setting 'monoclinic'
loop_
_space_group_symop_operation_xyz
x,y,z
-x,y,-z
-x,-y,-z
x,-y,z
1/2+x,1/2+y,z
1/2-x,1/2+y,-z
1/2-x,1/2-y,-z
1/2+x,1/2-y,z
loop_
_atom_site_type_symbol
_atom_site_label
_atom_site_fract_x
_atom_site_fract_y
_atom_site_fract_z
Si Si1 0.752598 0.705348 0.640252
Si Si2 0.353029 0.802564 0.128677
Si Si3 0.056826 0.189648 0.330179
Si Si4 0.590316 0.700709 0.961183
Si Si5 0.829181 0.500000 0.269797
Si Si6 0.833910 0.696516 0.823226
Si Si7 0.485264 0.703836 0.569023
O O1 0.763127 0.500000 0.638464
O O2 0.803284 0.743371 0.735990
O O3 0.613104 0.747796 0.542398
O O4 0.833560 0.790045 0.642932
O O5 0.447996 0.810275 0.241188
O O6 0.414538 0.715389 0.112377
O O7 0.329091 0.000000 0.095404
O O8 0.222846 0.726206 0.058516
O O9 0.089486 0.207190 0.417853
O O10 0.003139 0.000000 0.288404
O O11 0.580620 0.500000 0.970879
O O12 0.477343 0.793821 0.916990
O O13 0.734550 0.347317 0.187578
O O14 0.915929 0.345995 0.353467
O O15 0.794193 0.500000 0.809523
O O16 0.524828 0.500000 0.586878
#
# Coordination Sequence:
#
# PCOD9186723 Si02
#       7
#     8   8   8   8   4   8   8
#     4  10  22  39  61  90 127 159 201 264 323 367
#     4  10  20  32  57  89 128 161 195 252 318 378
#     4  11  22  36  61  91 125 162 204 256 312 377
#     4  10  19  35  55  90 127 162 199 248 319 379
#     4  12  26  43  68  85 126 174 220 256 305 369
#     4  11  23  39  63  93 125 162 207 262 312 365
#     4  10  25  44  60  88 123 167 218 257 302 366
#
# _framework density 26.094111000000002
#
# number of rings (size 3 to 8) (size 9 to 14) (size 15 to 20)
#    0.000    1.538    2.308    2.308    4.308    3.077 
#    0.000    2.308    0.000    1.846    0.000    3.231 
#    0.000    0.000    0.000    0.000    0.000    0.000 
#
# Total GULP energy -145081.899710 kJ/mol
# GULP energy per Si atom -5580.073066 kJ/mol
# Density = 2.603472 g / cm^3
# Si number density = 26.094111 Si / 1000 Ang^3
#
#
#
# Elastic Constant Matrix: (Units=GPa)
#
#
# Indices 1 2 3 4 5 6 
#
# 1 65.1003 44.4653 27.7940 0.0000 -3.1637 0.0000
# 2 44.4653 94.8557 23.8597 0.0000 15.2293 0.0000
# 3 27.7940 23.8597 115.9584 0.0000 16.5941 0.0000
# 4 0.0000 0.0000 0.0000 31.9021 0.0000 14.2811
# 5 -3.1637 15.2293 16.5941 0.0000 51.8114 0.0000
# 6 0.0000 0.0000 0.0000 14.2811 0.0000 -2.0957
#
#
#
# Elastic Compliance Matrix: (Units=1/GPa)
#
#
# Indices 1 2 3 4 5 6 
#
# 1 0.025891 -0.012022 -0.004679 0.000000 0.006613 0.000000
# 2 -0.012022 0.017060 0.000203 0.000000 -0.005814 0.000000
# 3 -0.004679 0.000203 0.010221 0.000000 -0.003619 0.000000
# 4 0.000000 0.000000 0.000000 0.007739 0.000000 0.052735
# 5 0.006613 -0.005814 -0.003619 0.000000 0.022573 0.000000
# 6 0.000000 0.000000 0.000000 0.052735 0.000000 -0.117804
#
#
# Mechanical properties :
#
#
# Convention : Reuss Voigt Hill
#
# Bulk Modulus (GPa) = 49.55888 52.01693 50.78790
# Shear Modulus (GPa) = 926.00917 28.30994 477.15955
#
# Velocity S-wave (km/s) = 18.85851 3.29738 13.53728
# Velocity P-wave (km/s) = 22.20866 5.87151 16.24345
#
# Compressibility (1/GPa) = 0.02017802
#
# Stress axis : x y z
#
# Youngs Moduli (GPa) = 38.62361 58.61657 97.83517
#
# Poissons Ratio (x) = 0.70467 0.45773
# Poissons Ratio (y) = 0.46432 -0.01988
# Poissons Ratio (z) = 0.18070 -0.01191
#
# Static dielectric constant tensor:
#      x y z
#    x 2.139720 0.000000 -0.010760 
#    y 0.000000 1.962480 0.000000 
#    z -0.010760 0.000000 2.021770 
# 
# From -- ./inp_files/380416.got.cif
#   From: 2010.05.17/outbox.cif.g08.bks.cpg/sg12_191_cif.got.tgz:380416.got - 2010.06.03 13:09:07.
