data_PCOD9186067
_publ_section_title
;
Structure prediction by ZEFSAII (Michael W. Deem and Ramdas Pophale) SiO2 
 PCOD9186067
Probable space group: C 2/M
;
_chemical_formula_sum "Si O2"
_cell_formula_units_Z 64
_cell_length_a 30.140945
_cell_length_b 14.174794
_cell_length_c 7.945915
_cell_angle_alpha 90.000000
_cell_angle_beta 64.534293
_cell_angle_gamma 90.000000
_cell_volume 3064.994305
_symmetry_space_group_name_H-M "C 2/M"
_symmetry_group_IT_number 12
_symmetry_cell_setting 'monoclinic'
loop_
_space_group_symop_operation_xyz
x,y,z
-x,y,-z
-x,-y,-z
x,-y,z
1/2+x,1/2+y,z
1/2-x,1/2+y,-z
1/2-x,1/2-y,-z
1/2+x,1/2-y,z
loop_
_atom_site_type_symbol
_atom_site_label
_atom_site_fract_x
_atom_site_fract_y
_atom_site_fract_z
Si Si1 0.976404 0.104661 0.221984
Si Si2 0.765324 0.397623 0.962675
Si Si3 0.309215 0.830964 0.551215
Si Si4 0.919306 0.731136 0.404460
Si Si5 0.010754 0.607617 0.279764
Si Si6 0.717601 0.787190 0.744777
Si Si7 0.933255 0.213307 0.770591
Si Si8 0.164764 0.888818 0.943884
O O1 0.930352 0.174226 0.283487
O O2 0.017743 0.152962 0.271524
O O3 0.963719 0.000000 0.302340
O O4 0.000000 0.099024 0.000000
O O5 0.773425 0.500000 0.024508
O O6 0.790983 0.392153 0.738236
O O7 0.787475 0.324267 0.057701
O O8 0.707198 0.386793 0.019612
O O9 0.366090 0.810925 0.471861
O O10 0.297718 0.858179 0.377481
O O11 0.274761 0.738742 0.630794
O O12 0.925789 0.765009 0.586624
O O13 0.961163 0.654981 0.289561
O O14 0.019504 0.500000 0.212231
O O15 0.054377 0.682558 0.173733
O O16 0.000000 0.606067 0.500000
O O17 0.687289 0.688868 0.778790
O O18 0.886865 0.155087 0.913755
O O19 0.160479 0.000000 0.900297
#
# Coordination Sequence:
#
# PCOD9186067 Si02
#       8
#     8   8   8   8   8   8   8   8
#     4  10  22  37  53  80 118 155 193 243 302 366
#     4  10  21  39  62  89 125 163 206 255 306 367
#     4  10  21  38  60  89 122 163 206 257 308 363
#     4  10  20  35  56  85 110 150 202 247 302 360
#     4   8  16  32  54  80 109 143 186 239 297 356
#     4  10  21  39  61  86 127 166 202 253 314 369
#     4  10  19  34  59  84 117 154 193 248 301 364
#     4  10  20  35  60  90 119 159 202 246 304 366
#
# _framework density 20.880952000000001
#
# number of rings (size 3 to 8) (size 9 to 14) (size 15 to 20)
#    0.000    2.250    0.000    4.500    1.750    2.500 
#    0.000    5.625    0.000    7.500    0.000    0.000 
#    0.000    0.000    0.000    0.000    0.000    0.000 
#
# Total GULP energy -178357.939994 kJ/mol
# GULP energy per Si atom -5573.685625 kJ/mol
# Density = 2.083343 g / cm^3
# Si number density = 20.880952 Si / 1000 Ang^3
#
#
#
# Elastic Constant Matrix: (Units=GPa)
#
#
# Indices 1 2 3 4 5 6 
#
# 1 72.5930 29.7575 24.7141 0.0000 -15.2069 0.0000
# 2 29.7575 138.8973 26.4293 0.0000 -14.7996 0.0000
# 3 24.7141 26.4293 54.8316 0.0000 -4.9019 0.0000
# 4 0.0000 0.0000 0.0000 16.9823 0.0000 -4.1445
# 5 -15.2069 -14.7996 -4.9019 0.0000 37.0016 0.0000
# 6 0.0000 0.0000 0.0000 -4.1445 0.0000 12.1354
#
#
#
# Elastic Compliance Matrix: (Units=1/GPa)
#
#
# Indices 1 2 3 4 5 6 
#
# 1 0.018065 -0.001989 -0.006670 0.000000 0.005745 0.000000
# 2 -0.001989 0.008421 -0.002969 0.000000 0.002157 0.000000
# 3 -0.006670 -0.002969 0.022592 0.000000 -0.000936 0.000000
# 4 0.000000 0.000000 0.000000 0.064239 0.000000 0.021939
# 5 0.005745 0.002157 -0.000936 0.000000 0.030126 0.000000
# 6 0.000000 0.000000 0.000000 0.021939 0.000000 0.089897
#
#
# Mechanical properties :
#
#
# Convention : Reuss Voigt Hill
#
# Bulk Modulus (GPa) = 38.72928 47.56932 43.14930
# Shear Modulus (GPa) = 18.85350 25.58526 22.21938
#
# Velocity S-wave (km/s) = 3.00810 3.50421 3.26559
# Velocity P-wave (km/s) = 5.53650 6.26126 5.91000
#
# Compressibility (1/GPa) = 0.02582026
#
# Stress axis : x y z
#
# Youngs Moduli (GPa) = 55.35541 118.75703 44.26408
#
# Poissons Ratio (x) = 0.23620 0.29525
# Poissons Ratio (y) = 0.11010 0.13144
# Poissons Ratio (z) = 0.36923 0.35264
#
# Static dielectric constant tensor:
#      x y z
#    x 1.745150 0.000000 0.023030 
#    y 0.000000 1.804570 0.000000 
#    z 0.023030 0.000000 1.788840 
# 
# From -- ./inp_files/111604.got.cif
#   From: 2010.05.17/outbox.cif.g08.bks.cpg/sg12_56_cif.got.tgz:111604.got - 2010.06.03 13:09:07.
