data_PCOD9186721
_publ_section_title
;
Structure prediction by ZEFSAII (Michael W. Deem and Ramdas Pophale) SiO2 
 PCOD9186721
Probable space group: C 2/M
;
_chemical_formula_sum "Si O2"
_cell_formula_units_Z 56
_cell_length_a 9.103800
_cell_length_b 23.714045
_cell_length_c 19.138789
_cell_angle_alpha 90.000000
_cell_angle_beta 43.111652
_cell_angle_gamma 90.000000
_cell_volume 2823.786879
_symmetry_space_group_name_H-M "C 2/M"
_symmetry_group_IT_number 12
_symmetry_cell_setting 'monoclinic'
loop_
_space_group_symop_operation_xyz
x,y,z
-x,y,-z
-x,-y,-z
x,-y,z
1/2+x,1/2+y,z
1/2-x,1/2+y,-z
1/2-x,1/2-y,-z
1/2+x,1/2-y,z
loop_
_atom_site_type_symbol
_atom_site_label
_atom_site_fract_x
_atom_site_fract_y
_atom_site_fract_z
Si Si1 0.950848 0.666823 0.192830
Si Si2 0.387800 0.843492 0.462947
Si Si3 0.040564 0.737524 0.686627
Si Si4 0.630769 0.607286 0.891319
Si Si5 0.958069 0.768803 0.095333
Si Si6 0.509935 0.365610 0.682020
Si Si7 0.775801 0.435785 0.696368
O O1 0.844666 0.699870 0.295157
O O2 0.142311 0.628382 0.154844
O O3 0.047685 0.716990 0.110246
O O4 0.748095 0.634382 0.230860
O O5 0.500000 0.834372 0.500000
O O6 0.406663 0.789049 0.406586
O O7 0.146164 0.864847 0.562681
O O8 0.524293 0.893031 0.379255
O O9 0.789368 0.731501 0.792928
O O10 0.076617 0.803245 0.686360
O O11 0.498022 0.664138 0.914076
O O12 0.676167 0.571164 0.807665
O O13 0.500000 0.580141 0.000000
O O14 0.000000 0.754334 0.000000
O O15 0.605831 0.413027 0.698597
O O16 0.836626 0.500000 0.661147
#
# Coordination Sequence:
#
# PCOD9186721 Si02
#       7
#     8   8   8   8   8   8   8
#     4  10  20  35  58  90 125 155 195 249 301 363
#     4  10  21  37  58  88 117 161 202 242 304 362
#     4  10  19  35  55  89 130 151 194 243 307 363
#     4  10  21  38  61  88 120 158 203 249 304 361
#     4   9  18  31  54  87 125 163 188 233 300 370
#     4  10  23  35  60  88 120 162 199 249 301 358
#     4  11  23  44  63  83 119 163 214 254 291 362
#
# _framework density 19.831524000000002
#
# number of rings (size 3 to 8) (size 9 to 14) (size 15 to 20)
#    0.000    2.000    2.857    1.286    6.000   10.857 
#    0.000    0.714    0.000    1.714    0.000    0.000 
#    0.000    0.000    0.000    0.000    0.000    0.000 
#
# Total GULP energy -156062.290215 kJ/mol
# GULP energy per Si atom -5573.653222 kJ/mol
# Density = 1.978639 g / cm^3
# Si number density = 19.831524 Si / 1000 Ang^3
#
#
#
# Elastic Constant Matrix: (Units=GPa)
#
#
# Indices 1 2 3 4 5 6 
#
# 1 44.1522 2.0895 11.5795 0.0000 -7.7707 0.0000
# 2 2.0895 22.2239 0.0974 0.0000 3.4823 0.0000
# 3 11.5795 0.0974 93.1330 0.0000 14.6160 0.0000
# 4 0.0000 0.0000 0.0000 10.7934 0.0000 1.5726
# 5 -7.7707 3.4823 14.6160 0.0000 34.5366 0.0000
# 6 0.0000 0.0000 0.0000 1.5726 0.0000 16.1005
#
#
#
# Elastic Compliance Matrix: (Units=1/GPa)
#
#
# Indices 1 2 3 4 5 6 
#
# 1 0.025368 -0.003609 -0.004395 0.000000 0.007932 0.000000
# 2 -0.003609 0.046278 0.001350 0.000000 -0.006049 0.000000
# 3 -0.004395 0.001350 0.012274 0.000000 -0.006319 0.000000
# 4 0.000000 0.000000 0.000000 0.093987 0.000000 -0.009180
# 5 0.007932 -0.006049 -0.006319 0.000000 0.034024 0.000000
# 6 0.000000 0.000000 0.000000 -0.009180 0.000000 0.063006
#
#
# Mechanical properties :
#
#
# Convention : Reuss Voigt Hill
#
# Bulk Modulus (GPa) = 14.16188 20.78242 17.47215
# Shear Modulus (GPa) = 16.03678 22.00228 19.01953
#
# Velocity S-wave (km/s) = 2.84676 3.33447 3.10022
# Velocity P-wave (km/s) = 4.23816 5.03261 4.65237
#
# Compressibility (1/GPa) = 0.07061208
#
# Stress axis : x y z
#
# Youngs Moduli (GPa) = 39.41921 21.60856 81.47210
#
# Poissons Ratio (x) = 0.07798 0.35808
# Poissons Ratio (y) = 0.14225 -0.10996
# Poissons Ratio (z) = 0.17325 -0.02916
#
# Static dielectric constant tensor:
#      x y z
#    x 1.771850 0.000000 -0.006180 
#    y 0.000000 1.700490 0.000000 
#    z -0.006180 0.000000 1.772760 
# 
# From -- ./inp_files/259151.got.cif
#   From: 2010.05.17/outbox.cif.g08.bks.cpg/sg12_130_cif.got.tgz:259151.got - 2010.06.03 13:09:07.
