data_PCOD9186904
_publ_section_title
;
Structure prediction by ZEFSAII (Michael W. Deem and Ramdas Pophale) SiO2 
 PCOD9186904
Probable space group: C 2/M
;
_chemical_formula_sum "Si O2"
_cell_formula_units_Z 64
_cell_length_a 20.133516
_cell_length_b 7.928793
_cell_length_c 19.754198
_cell_angle_alpha 90.000000
_cell_angle_beta 81.361348
_cell_angle_gamma 90.000000
_cell_volume 3117.676116
_symmetry_space_group_name_H-M "C 2/M"
_symmetry_group_IT_number 12
_symmetry_cell_setting 'monoclinic'
loop_
_space_group_symop_operation_xyz
x,y,z
-x,y,-z
-x,-y,-z
x,-y,z
1/2+x,1/2+y,z
1/2-x,1/2+y,-z
1/2-x,1/2-y,-z
1/2+x,1/2-y,z
loop_
_atom_site_type_symbol
_atom_site_label
_atom_site_fract_x
_atom_site_fract_y
_atom_site_fract_z
Si Si1 0.950968 0.203635 0.600900
Si Si2 0.306984 0.796055 0.132841
Si Si3 0.077486 0.297841 0.983712
Si Si4 0.250959 0.296999 0.279981
Si Si5 0.107125 0.805241 0.252761
Si Si6 0.096481 0.694046 0.529622
Si Si7 0.341481 0.704914 0.894024
Si Si8 0.779620 0.188029 0.424485
O O1 0.934535 0.268411 0.678398
O O2 0.898386 0.254908 0.550221
O O3 0.020698 0.278357 0.564924
O O4 0.953899 0.000000 0.600522
O O5 0.374143 0.735137 0.084548
O O6 0.302894 0.741041 0.211658
O O7 0.236504 0.740917 0.106692
O O8 0.306476 0.000000 0.130806
O O9 0.072419 0.500000 0.976825
O O10 0.121707 0.261435 0.043807
O O11 0.000000 0.233543 0.000000
O O12 0.240712 0.500000 0.281706
O O13 0.183208 0.204956 0.267805
O O14 0.267989 0.233069 0.352733
O O15 0.113820 0.732120 0.176680
O O16 0.085893 0.000000 0.249087
O O17 0.115678 0.500000 0.534229
O O18 0.141853 0.804767 0.571262
O O19 0.340697 0.500000 0.892511
O O20 0.750000 0.250000 0.500000
O O21 0.753990 0.000000 0.421282
#
# Coordination Sequence:
#
# PCOD9186904 Si02
#       8
#     8   8   8   8   8   8   8   8
#     4  10  19  35  57  77 105 144 181 225 278 326
#     4   9  19  37  59  80 110 148 185 228 275 335
#     4  10  21  37  56  82 115 147 180 224 279 333
#     4  10  21  35  55  83 110 138 181 231 272 320
#     4   9  19  35  56  81 109 141 176 219 272 327
#     4  11  22  35  52  77 107 141 185 230 272 329
#     4   9  18  34  56  83 109 140 185 225 267 325
#     4  11  23  38  55  79 110 144 184 230 280 331
#
# _framework density 20.528110999999999
#
# number of rings (size 3 to 8) (size 9 to 14) (size 15 to 20)
#    0.000    2.125    0.000    4.875    0.000    7.750 
#    2.250    0.000    0.000    0.000    0.000    0.000 
#    0.000    0.000    0.000    0.000    0.000    0.000 
#
# Total GULP energy -178357.767813 kJ/mol
# GULP energy per Si atom -5573.680244 kJ/mol
# Density = 2.048139 g / cm^3
# Si number density = 20.528111 Si / 1000 Ang^3
#
#
#
# Elastic Constant Matrix: (Units=GPa)
#
#
# Indices 1 2 3 4 5 6 
#
# 1 65.0275 -1.4675 50.9500 0.0000 -14.4368 0.0000
# 2 -1.4675 35.7048 2.3662 0.0000 -7.2630 0.0000
# 3 50.9500 2.3662 153.1810 0.0000 -17.6331 0.0000
# 4 0.0000 0.0000 0.0000 18.6514 0.0000 4.0353
# 5 -14.4368 -7.2630 -17.6331 0.0000 33.6494 0.0000
# 6 0.0000 0.0000 0.0000 4.0353 0.0000 13.7028
#
#
#
# Elastic Compliance Matrix: (Units=1/GPa)
#
#
# Indices 1 2 3 4 5 6 
#
# 1 0.022098 0.002687 -0.006634 0.000000 0.006585 0.000000
# 2 0.002687 0.029633 -0.000514 0.000000 0.007280 0.000000
# 3 -0.006634 -0.000514 0.008942 0.000000 0.001729 0.000000
# 4 0.000000 0.000000 0.000000 0.057264 0.000000 -0.016863
# 5 0.006585 0.007280 0.001729 0.000000 0.035020 0.000000
# 6 0.000000 0.000000 0.000000 -0.016863 0.000000 0.077944
#
#
# Mechanical properties :
#
#
# Convention : Reuss Voigt Hill
#
# Bulk Modulus (GPa) = 19.32264 39.73453 29.52858
# Shear Modulus (GPa) = 19.44984 26.67169 23.06077
#
# Velocity S-wave (km/s) = 3.08145 3.60846 3.35531
# Velocity P-wave (km/s) = 4.70038 6.06296 5.42462
#
# Compressibility (1/GPa) = 0.05175277
#
# Stress axis : x y z
#
# Youngs Moduli (GPa) = 45.25257 33.74640 111.83684
#
# Poissons Ratio (x) = -0.09069 0.74189
# Poissons Ratio (y) = -0.12161 0.05744
# Poissons Ratio (z) = 0.30019 0.01733
#
# Static dielectric constant tensor:
#      x y z
#    x 1.764040 0.000000 -0.020070 
#    y 0.000000 1.729570 0.000000 
#    z -0.020070 0.000000 1.797450 
# 
# From -- ./inp_files/281281.got.cif
#   From: 2010.05.17/outbox.cif.g08.bks.cpg/sg12_141_cif.got.tgz:281281.got - 2010.06.03 13:09:07.
