data_PCOD9186919
_publ_section_title
;
Structure prediction by ZEFSAII (Michael W. Deem and Ramdas Pophale) SiO2 
 PCOD9186919
Probable space group: C 2/M
;
_chemical_formula_sum "Si O2"
_cell_formula_units_Z 64
_cell_length_a 20.557951
_cell_length_b 9.204515
_cell_length_c 21.341222
_cell_angle_alpha 90.000000
_cell_angle_beta 130.666982
_cell_angle_gamma 90.000000
_cell_volume 3063.101083
_symmetry_space_group_name_H-M "C 2/M"
_symmetry_group_IT_number 12
_symmetry_cell_setting 'monoclinic'
loop_
_space_group_symop_operation_xyz
x,y,z
-x,y,-z
-x,-y,-z
x,-y,z
1/2+x,1/2+y,z
1/2-x,1/2+y,-z
1/2-x,1/2-y,-z
1/2+x,1/2-y,z
loop_
_atom_site_type_symbol
_atom_site_label
_atom_site_fract_x
_atom_site_fract_y
_atom_site_fract_z
Si Si1 0.751350 0.167637 0.166586
Si Si2 0.495882 0.326895 0.157967
Si Si3 0.492148 0.168915 0.405280
Si Si4 0.842009 0.671663 0.700321
Si Si5 0.593905 0.832843 0.786591
Si Si6 0.408704 0.666714 0.976435
Si Si7 0.340929 0.172085 0.555011
Si Si8 0.833785 0.831441 0.357463
O O1 0.811031 0.271337 0.162526
O O2 0.787887 0.174810 0.260235
O O3 0.757803 0.000000 0.150873
O O4 0.656333 0.227813 0.099090
O O5 0.505650 0.500000 0.163060
O O6 0.590011 0.255142 0.214296
O O7 0.454302 0.269893 0.195484
O O8 0.432046 0.286535 0.061570
O O9 0.448552 0.172857 0.308892
O O10 0.587578 0.228538 0.449307
O O11 0.423587 0.247000 0.407316
O O12 0.499868 0.000000 0.427833
O O13 0.842300 0.500000 0.716131
O O14 0.871092 0.685664 0.646345
O O15 0.743429 0.723246 0.646503
O O16 0.590997 0.000000 0.806005
O O17 0.375621 0.500000 0.955523
O O18 0.500000 0.664893 0.000000
O O19 0.250000 0.250000 0.500000
O O20 0.330101 0.000000 0.536243
O O21 0.852119 0.000000 0.383881
#
# Coordination Sequence:
#
# PCOD9186919 Si02
#       8
#     8   8   8   8   8   8   8   8
#     4  10  20  34  53  81 110 138 184 235 277 325
#     4  11  22  34  54  82 108 138 185 235 273 320
#     4   9  18  35  57  81 111 146 183 220 268 331
#     4  10  20  38  59  82 114 146 183 226 276 335
#     4  10  19  35  57  78 105 145 182 223 279 330
#     4  10  22  38  52  71 105 147 185 224 278 338
#     4  10  21  38  59  85 113 146 183 221 270 329
#     4   9  19  34  57  85 111 144 185 232 275 320
#
# _framework density 20.893858999999999
#
# number of rings (size 3 to 8) (size 9 to 14) (size 15 to 20)
#    0.000    2.125    1.250    1.875    0.000    4.250 
#    0.000    0.625    0.000    3.750    0.000    0.000 
#    0.000    0.000    0.000    0.000    0.000    0.000 
#
# Total GULP energy -178664.817988 kJ/mol
# GULP energy per Si atom -5583.275562 kJ/mol
# Density = 2.084630 g / cm^3
# Si number density = 20.893859 Si / 1000 Ang^3
#
#
#
# Elastic Constant Matrix: (Units=GPa)
#
#
# Indices 1 2 3 4 5 6 
#
# 1 124.1044 15.2206 11.5006 0.0000 19.7319 0.0000
# 2 15.2206 29.2834 25.0908 0.0000 13.3799 0.0000
# 3 11.5006 25.0908 57.3076 0.0000 16.2280 0.0000
# 4 0.0000 0.0000 0.0000 18.7853 0.0000 12.8604
# 5 19.7319 13.3799 16.2280 0.0000 36.2515 0.0000
# 6 0.0000 0.0000 0.0000 12.8604 0.0000 33.1983
#
#
#
# Elastic Compliance Matrix: (Units=1/GPa)
#
#
# Indices 1 2 3 4 5 6 
#
# 1 0.009057 -0.003675 0.000920 0.000000 -0.003985 0.000000
# 2 -0.003675 0.060128 -0.022755 0.000000 -0.010006 0.000000
# 3 0.000920 -0.022755 0.028619 0.000000 -0.004914 0.000000
# 4 0.000000 0.000000 0.000000 0.072446 0.000000 -0.028064
# 5 -0.003985 -0.010006 -0.004914 0.000000 0.035647 0.000000
# 6 0.000000 0.000000 0.000000 -0.028064 0.000000 0.040994
#
#
# Mechanical properties :
#
#
# Convention : Reuss Voigt Hill
#
# Bulk Modulus (GPa) = 21.37459 34.92438 28.14948
# Shear Modulus (GPa) = 15.94878 28.23924 22.09401
#
# Velocity S-wave (km/s) = 2.76583 3.68034 3.25536
# Velocity P-wave (km/s) = 4.52239 5.90011 5.25658
#
# Compressibility (1/GPa) = 0.04678452
#
# Stress axis : x y z
#
# Youngs Moduli (GPa) = 110.41443 16.63128 34.94177
#
# Poissons Ratio (x) = 0.06112 -0.03214
# Poissons Ratio (y) = 0.40574 0.79509
# Poissons Ratio (z) = -0.10157 0.37844
#
# Static dielectric constant tensor:
#      x y z
#    x 1.781370 0.000000 -0.005660 
#    y 0.000000 1.701590 0.000000 
#    z -0.005660 0.000000 1.779360 
# 
# From -- ./inp_files/281331.got.cif
#   From: 2010.05.17/outbox.cif.g08.bks.cpg/sg12_141_cif.got.tgz:281331.got - 2010.06.03 13:09:07.
