data_PCOD9186015
_publ_section_title
;
Structure prediction by ZEFSAII (Michael W. Deem and Ramdas Pophale) SiO2 
 PCOD9186015
Probable space group: C 2/M
;
_chemical_formula_sum "Si O2"
_cell_formula_units_Z 24
_cell_length_a 4.867107
_cell_length_b 25.604605
_cell_length_c 8.381352
_cell_angle_alpha 90.000000
_cell_angle_beta 57.963331
_cell_angle_gamma 90.000000
_cell_volume 885.420830
_symmetry_space_group_name_H-M "C 2/M"
_symmetry_group_IT_number 12
_symmetry_cell_setting 'monoclinic'
loop_
_space_group_symop_operation_xyz
x,y,z
-x,y,-z
-x,-y,-z
x,-y,z
1/2+x,1/2+y,z
1/2-x,1/2+y,-z
1/2-x,1/2-y,-z
1/2+x,1/2-y,z
loop_
_atom_site_type_symbol
_atom_site_label
_atom_site_fract_x
_atom_site_fract_y
_atom_site_fract_z
Si Si1 0.676198 0.558702 0.206617
Si Si2 0.066531 0.376525 0.301310
Si Si3 0.735977 0.280573 0.271749
O O1 0.542687 0.500000 0.251150
O O2 0.418860 0.598178 0.207924
O O3 0.815721 0.577665 0.333241
O O4 0.000000 0.558487 0.000000
O O5 0.000000 0.355884 0.500000
O O6 0.957416 0.331715 0.211572
O O7 0.500000 0.283136 0.500000
O O8 0.483076 0.267985 0.211909
#
# Coordination Sequence:
#
# PCOD9186015 Si02
#       3
#     8   8   8
#     4  11  25  44  63  85 122 170 206 241 307 380
#     4  12  23  38  65  97 122 152 206 264 301 342
#     4  10  19  34  58  90 126 159 194 242 302 364
#
# _framework density 27.105751000000001
#
# number of rings (size 3 to 8) (size 9 to 14) (size 15 to 20)
#    0.000    1.000    0.000   10.000    0.000    6.667 
#    0.000    0.000    0.000   20.000    0.000    0.000 
#    0.000    0.000    0.000    0.000    0.000    0.000 
#
# Total GULP energy -67212.403428 kJ/mol
# GULP energy per Si atom -5601.033619 kJ/mol
# Density = 2.704406 g / cm^3
# Si number density = 27.105751 Si / 1000 Ang^3
#
#
#
# Elastic Constant Matrix: (Units=GPa)
#
#
# Indices 1 2 3 4 5 6 
#
# 1 207.7458 70.5379 30.7330 0.0000 -41.7797 0.0000
# 2 70.5379 156.2966 12.7634 0.0000 -38.5020 0.0000
# 3 30.7330 12.7634 59.0352 0.0000 -10.0037 0.0000
# 4 0.0000 0.0000 0.0000 14.4948 0.0000 -37.2736
# 5 -41.7797 -38.5020 -10.0037 0.0000 42.6479 0.0000
# 6 0.0000 0.0000 0.0000 -37.2736 0.0000 31.8914
#
#
#
# Elastic Compliance Matrix: (Units=1/GPa)
#
#
# Indices 1 2 3 4 5 6 
#
# 1 0.006625 -0.001717 -0.002333 0.000000 0.004393 0.000000
# 2 -0.001717 0.008690 0.000062 0.000000 0.006177 0.000000
# 3 -0.002333 0.000062 0.018498 0.000000 0.002109 0.000000
# 4 0.000000 0.000000 0.000000 -0.034401 0.000000 -0.040206
# 5 0.004393 0.006177 0.002109 0.000000 0.033822 0.000000
# 6 0.000000 0.000000 0.000000 -0.040206 0.000000 -0.015635
#
#
# Mechanical properties :
#
#
# Convention : Reuss Voigt Hill
#
# Bulk Modulus (GPa) = 38.70670 72.34959 55.52814
# Shear Modulus (GPa) = 146.24687 38.40970 92.32829
#
# Velocity S-wave (km/s) = 7.35332 3.76843 5.84262
# Velocity P-wave (km/s) = 9.29548 6.75902 8.12682
#
# Compressibility (1/GPa) = 0.02583532
#
# Stress axis : x y z
#
# Youngs Moduli (GPa) = 150.93652 115.07770 54.06062
#
# Poissons Ratio (x) = 0.19764 0.12614
# Poissons Ratio (y) = 0.25922 -0.00336
# Poissons Ratio (z) = 0.35219 -0.00714
#
# Static dielectric constant tensor:
#      x y z
#    x 1.988510 0.000000 0.052570 
#    y 0.000000 2.147270 0.000000 
#    z 0.052570 0.000000 2.248490 
# 
# From -- ./inp_files/33533.got.cif
#   From: 2010.05.17/outbox.cif.g08.bks.cpg/sg12_17_cif.got.tgz:33533.got - 2010.06.03 13:09:07.
