data_PCOD9186573
_publ_section_title
;
Structure prediction by ZEFSAII (Michael W. Deem and Ramdas Pophale) SiO2 
 PCOD9186573
Probable space group: C 2/M
;
_chemical_formula_sum "Si O2"
_cell_formula_units_Z 40
_cell_length_a 5.413604
_cell_length_b 24.706189
_cell_length_c 18.957738
_cell_angle_alpha 90.000000
_cell_angle_beta 56.413218
_cell_angle_gamma 90.000000
_cell_volume 2112.269110
_symmetry_space_group_name_H-M "C 2/M"
_symmetry_group_IT_number 12
_symmetry_cell_setting 'monoclinic'
loop_
_space_group_symop_operation_xyz
x,y,z
-x,y,-z
-x,-y,-z
x,-y,z
1/2+x,1/2+y,z
1/2-x,1/2+y,-z
1/2-x,1/2-y,-z
1/2+x,1/2-y,z
loop_
_atom_site_type_symbol
_atom_site_label
_atom_site_fract_x
_atom_site_fract_y
_atom_site_fract_z
Si Si1 0.608460 0.729880 0.095071
Si Si2 0.811128 0.819516 0.336317
Si Si3 0.353917 0.379775 0.843322
Si Si4 0.267111 0.435552 0.099688
Si Si5 0.817133 0.199188 0.597522
O O1 0.257393 0.736570 0.135768
O O2 0.700700 0.668845 0.093438
O O3 0.750000 0.750000 0.000000
O O4 0.467775 0.833938 0.381775
O O5 0.792962 0.753485 0.344334
O O6 0.989133 0.847736 0.245588
O O7 0.970759 0.833418 0.384053
O O8 0.577455 0.418624 0.851079
O O9 0.047143 0.406638 0.866649
O O10 0.220159 0.500000 0.105759
O O11 0.500000 0.422139 0.000000
O O12 0.000000 0.217376 0.500000
#
# Coordination Sequence:
#
# PCOD9186573 Si02
#       5
#     8   8   8   8   8
#     4  10  23  35  51  79 115 160 189 215 280 354
#     4  10  20  31  52  84 114 155 194 228 285 323
#     4  12  24  38  62  87 120 147 201 256 296 359
#     4  11  26  46  65  82 106 153 211 271 317 348
#     4  10  19  35  54  80 128 169 196 221 257 344
#
# _framework density 18.936979000000001
#
# number of rings (size 3 to 8) (size 9 to 14) (size 15 to 20)
#    0.000    1.400    0.000    6.600   14.000    1.600 
#    0.000    0.000    0.000    0.000    0.000    0.000 
#    0.000   92.800    0.000    0.000    0.000    0.000 
#
# Total GULP energy -111513.980088 kJ/mol
# GULP energy per Si atom -5575.699004 kJ/mol
# Density = 1.889388 g / cm^3
# Si number density = 18.936979 Si / 1000 Ang^3
#
#
#
# Elastic Constant Matrix: (Units=GPa)
#
#
# Indices 1 2 3 4 5 6 
#
# 1 231.9036 50.0462 60.3414 0.0000 6.6111 0.0000
# 2 50.0462 72.6789 49.4242 0.0000 -4.6248 0.0000
# 3 60.3414 49.4242 120.9538 0.0000 -4.4111 0.0000
# 4 0.0000 0.0000 0.0000 -6.5828 0.0000 6.1545
# 5 6.6111 -4.6248 -4.4111 0.0000 25.9316 0.0000
# 6 0.0000 0.0000 0.0000 6.1545 0.0000 28.9340
#
#
#
# Elastic Compliance Matrix: (Units=1/GPa)
#
#
# Indices 1 2 3 4 5 6 
#
# 1 0.005392 -0.002723 -0.001655 0.000000 -0.002142 0.000000
# 2 -0.002723 0.020542 -0.006919 0.000000 0.003181 0.000000
# 3 -0.001655 -0.006919 0.011965 0.000000 0.001223 0.000000
# 4 0.000000 0.000000 0.000000 -0.126711 0.000000 0.026953
# 5 -0.002142 0.003181 0.001223 0.000000 0.039884 0.000000
# 6 0.000000 0.000000 0.000000 0.026953 0.000000 0.028828
#
#
# Mechanical properties :
#
#
# Convention : Reuss Voigt Hill
#
# Bulk Modulus (GPa) = 65.34415 82.79554 74.06985
# Shear Modulus (GPa) = 658.11350 27.37150 342.74250
#
# Velocity S-wave (km/s) = 18.66233 3.80597 13.46789
# Velocity P-wave (km/s) = 22.33737 7.94546 16.76437
#
# Compressibility (1/GPa) = 0.01530359
#
# Stress axis : x y z
#
# Youngs Moduli (GPa) = 185.47516 48.68013 83.57535
#
# Poissons Ratio (x) = 0.13258 0.13832
# Poissons Ratio (y) = 0.50513 0.57828
# Poissons Ratio (z) = 0.30696 0.33683
#
# Static dielectric constant tensor:
#      x y z
#    x 1.374540 0.000000 0.079920 
#    y 0.000000 1.639390 0.000000 
#    z 0.079920 0.000000 1.682150 
# 
# From -- ./inp_files/253110.got.cif
#   From: 2010.05.17/outbox.cif.g08.bks.cpg/sg12_127_cif.got.tgz:253110.got - 2010.06.03 13:09:07.
