data_PCOD9186854
_publ_section_title
;
Structure prediction by ZEFSAII (Michael W. Deem and Ramdas Pophale) SiO2 
 PCOD9186854
Probable space group: C 2/M
;
_chemical_formula_sum "Si O2"
_cell_formula_units_Z 48
_cell_length_a 16.214898
_cell_length_b 16.647627
_cell_length_c 19.439541
_cell_angle_alpha 90.000000
_cell_angle_beta 159.526254
_cell_angle_gamma 90.000000
_cell_volume 1835.461303
_symmetry_space_group_name_H-M "C 2/M"
_symmetry_group_IT_number 12
_symmetry_cell_setting 'monoclinic'
loop_
_space_group_symop_operation_xyz
x,y,z
-x,y,-z
-x,-y,-z
x,-y,z
1/2+x,1/2+y,z
1/2-x,1/2+y,-z
1/2-x,1/2-y,-z
1/2+x,1/2-y,z
loop_
_atom_site_type_symbol
_atom_site_label
_atom_site_fract_x
_atom_site_fract_y
_atom_site_fract_z
Si Si1 0.467514 0.336612 0.121467
Si Si2 0.859841 0.312068 0.529121
Si Si3 0.289403 0.406764 0.473166
Si Si4 0.706239 0.594331 0.719726
Si Si5 0.802923 0.589906 0.284477
Si Si6 0.905138 0.339246 0.067667
O O1 0.705842 0.301258 0.341010
O O2 0.554786 0.391235 0.128001
O O3 0.336501 0.253638 0.000322
O O4 0.321804 0.375860 0.070372
O O5 0.750000 0.250000 0.500000
O O6 0.787867 0.395261 0.509727
O O7 0.117828 0.335540 0.702316
O O8 0.285266 0.500000 0.449944
O O9 0.555787 0.375422 0.667527
O O10 0.099685 0.361417 0.278225
O O11 0.500000 0.604105 0.500000
O O12 0.752760 0.500000 0.763839
O O13 0.950108 0.631649 0.885522
O O14 0.799958 0.500000 0.251724
O O15 0.000000 0.586857 0.500000
#
# Coordination Sequence:
#
# PCOD9186854 Si02
#       6
#     8   8   8   8   8   8
#     4  10  22  36  57  84 112 151 194 235 288 340
#     4  11  21  36  59  85 111 151 190 241 288 340
#     4  10  20  35  58  85 114 146 188 238 289 344
#     4   8  16  30  53  81 106 141 184 225 275 338
#     4   9  20  37  57  82 113 151 195 235 280 348
#     4  10  19  35  56  83 115 147 190 240 279 345
#
# _framework density 26.151463
#
# number of rings (size 3 to 8) (size 9 to 14) (size 15 to 20)
#    0.000    2.333    1.667    2.000    2.333    4.000 
#    0.000    1.667    0.000    4.000    0.000    0.000 
#    0.000    0.000    0.000    0.000    0.000    0.000 
#
# Total GULP energy -133757.467297 kJ/mol
# GULP energy per Si atom -5573.227804 kJ/mol
# Density = 2.609194 g / cm^3
# Si number density = 26.151463 Si / 1000 Ang^3
#
#
#
# Elastic Constant Matrix: (Units=GPa)
#
#
# Indices 1 2 3 4 5 6 
#
# 1 103.2580 27.4681 21.0367 -0.0317 41.5214 -0.0067
# 2 27.4681 82.8599 6.1490 0.0124 7.6940 0.0000
# 3 21.0367 6.1490 97.0467 0.0768 23.0273 -0.0197
# 4 -0.0317 0.0124 0.0768 22.4120 -0.0232 8.9204
# 5 41.5214 7.6940 23.0273 -0.0232 56.9606 -0.0305
# 6 -0.0067 0.0000 -0.0197 8.9204 -0.0305 34.7977
#
#
#
# Elastic Compliance Matrix: (Units=1/GPa)
#
#
# Indices 1 2 3 4 5 6 
#
# 1 0.014922 -0.003965 -0.000586 0.000019 -0.010105 -0.000011
# 2 -0.003965 0.013291 -0.000268 -0.000012 0.001203 0.000003
# 3 -0.000586 -0.000268 0.011435 -0.000050 -0.004160 0.000016
# 4 0.000019 -0.000012 -0.000050 0.049689 0.000021 -0.012738
# 5 -0.010105 0.001203 -0.004160 0.000021 0.026441 0.000013
# 6 -0.000011 0.000003 0.000016 -0.012738 0.000013 0.032003
#
#
# Mechanical properties :
#
#
# Convention : Reuss Voigt Hill
#
# Bulk Modulus (GPa) = 33.32127 43.60801 38.46464
# Shear Modulus (GPa) = 29.86458 38.06811 33.96634
#
# Velocity S-wave (km/s) = 3.38299 3.81947 3.60784
# Velocity P-wave (km/s) = 5.29423 6.01353 5.66531
#
# Compressibility (1/GPa) = 0.03001086
#
# Stress axis : x y z
#
# Youngs Moduli (GPa) = 67.01582 75.23838 87.44810
#
# Poissons Ratio (x) = 0.29831 0.05122
# Poissons Ratio (y) = 0.26571 0.02345
# Poissons Ratio (z) = 0.03925 0.02018
#
# Static dielectric constant tensor:
#      x y z
#    x 2.129760 -0.000010 -0.030020 
#    y -0.000010 2.045070 -0.000060 
#    z -0.030020 -0.000060 2.156990 
# 
# From -- ./inp_files/344506.got.cif
#   From: 2010.05.17/outbox.cif.g08.bks.cpg/sg12_173_cif.got.tgz:344506.got - 2010.06.03 13:09:07.
