data_PCOD9186945
_publ_section_title
;
Structure prediction by ZEFSAII (Michael W. Deem and Ramdas Pophale) SiO2 
 PCOD9186945
Probable space group: C 2/M
;
_chemical_formula_sum "Si O2"
_cell_formula_units_Z 48
_cell_length_a 8.858452
_cell_length_b 17.245203
_cell_length_c 18.103201
_cell_angle_alpha 90.000000
_cell_angle_beta 45.683216
_cell_angle_gamma 90.000000
_cell_volume 1978.718175
_symmetry_space_group_name_H-M "C 2/M"
_symmetry_group_IT_number 12
_symmetry_cell_setting 'monoclinic'
loop_
_space_group_symop_operation_xyz
x,y,z
-x,y,-z
-x,-y,-z
x,-y,z
1/2+x,1/2+y,z
1/2-x,1/2+y,-z
1/2-x,1/2-y,-z
1/2+x,1/2-y,z
loop_
_atom_site_type_symbol
_atom_site_label
_atom_site_fract_x
_atom_site_fract_y
_atom_site_fract_z
Si Si1 0.689000 0.218908 0.171043
Si Si2 0.736925 0.247060 0.312138
Si Si3 0.704838 0.612251 0.132700
Si Si4 0.982541 0.087153 0.594155
Si Si5 0.625679 0.081668 0.080609
Si Si6 0.752763 0.586073 0.636311
O O1 0.815158 0.220275 0.203905
O O2 0.450436 0.232156 0.282839
O O3 0.747873 0.296617 0.109584
O O4 0.685852 0.147861 0.117319
O O5 0.623686 0.330438 0.347568
O O6 0.639807 0.167796 0.378084
O O7 0.479998 0.591930 0.245204
O O8 0.890866 0.587554 0.125508
O O9 0.731195 0.581428 0.041464
O O10 0.000000 0.090685 0.500000
O O11 0.197280 0.087038 0.568355
O O12 0.887559 0.000000 0.642637
O O13 0.645266 0.000000 0.113883
O O14 0.839678 0.500000 0.625483
#
# Coordination Sequence:
#
# PCOD9186945 Si02
#       6
#     8   8   8   8   8   8
#     4  11  21  38  56  85 117 154 196 236 292 341
#     4  11  21  39  62  87 117 156 191 237 296 346
#     4  10  19  35  57  79 114 159 198 238 291 344
#     4  10  21  39  65  92 116 150 194 236 284 352
#     4  11  21  33  55  85 114 149 204 251 282 331
#     4  10  20  37  59  83 118 157 195 235 293 355
#
# _framework density 24.258127000000002
#
# number of rings (size 3 to 8) (size 9 to 14) (size 15 to 20)
#    0.000    1.500    5.000    2.500    0.000    3.333 
#    0.000    0.000    0.000    5.500    0.000    0.000 
#    0.000    0.000    0.000    0.000    0.000    0.000 
#
# Total GULP energy -133864.151582 kJ/mol
# GULP energy per Si atom -5577.672983 kJ/mol
# Density = 2.420291 g / cm^3
# Si number density = 24.258127 Si / 1000 Ang^3
#
#
#
# Elastic Constant Matrix: (Units=GPa)
#
#
# Indices 1 2 3 4 5 6 
#
# 1 38.3262 46.0928 23.6767 0.0014 17.0534 0.0004
# 2 46.0928 269.6377 48.9582 0.0002 31.7893 -0.0001
# 3 23.6767 48.9582 92.8700 0.0017 12.7504 0.0006
# 4 0.0014 0.0002 0.0017 -17.9707 -0.0008 -29.0713
# 5 17.0534 31.7893 12.7504 -0.0008 38.9411 -0.0001
# 6 0.0004 -0.0001 0.0006 -29.0713 -0.0001 0.0132
#
#
#
# Elastic Compliance Matrix: (Units=1/GPa)
#
#
# Indices 1 2 3 4 5 6 
#
# 1 0.040711 -0.004361 -0.006409 0.000000 -0.012170 0.000002
# 2 -0.004361 0.004874 -0.001229 0.000000 -0.001667 0.000000
# 3 -0.006409 -0.001229 0.013116 0.000000 -0.000485 0.000000
# 4 0.000000 0.000000 0.000000 -0.000016 0.000000 -0.034388
# 5 -0.012170 -0.001667 -0.000485 0.000000 0.032529 -0.000001
# 6 0.000002 0.000000 0.000000 -0.034388 -0.000001 0.021258
#
#
# Mechanical properties :
#
#
# Convention : Reuss Voigt Hill
#
# Bulk Modulus (GPa) = 28.81594 70.92103 49.86849
# Shear Modulus (GPa) = 33.77556 23.00382 28.38969
#
# Velocity S-wave (km/s) = 3.73546 3.08278 3.42470
# Velocity P-wave (km/s) = 5.52354 6.47849 6.01998
#
# Compressibility (1/GPa) = 0.03470302
#
# Stress axis : x y z
#
# Youngs Moduli (GPa) = 24.56354 205.18292 76.24251
#
# Poissons Ratio (x) = 0.89474 0.48866
# Poissons Ratio (y) = 0.10711 0.09368
# Poissons Ratio (z) = 0.15744 0.25211
#
# Static dielectric constant tensor:
#      x y z
#    x 1.893940 0.000000 -0.065610 
#    y 0.000000 2.016510 0.000000 
#    z -0.065610 0.000000 1.954210 
# 
# From -- ./inp_files/256441.got.cif
#   From: 2010.05.17/outbox.cif.g08.bks.cpg/sg12_129_cif.got.tgz:256441.got - 2010.06.03 13:09:07.
