data_PCOD9186133
_publ_section_title
;
Structure prediction by ZEFSAII (Michael W. Deem and Ramdas Pophale) SiO2 
 PCOD9186133
Probable space group: C 2/M
;
_chemical_formula_sum "Si O2"
_cell_formula_units_Z 56
_cell_length_a 16.414431
_cell_length_b 31.962726
_cell_length_c 7.361717
_cell_angle_alpha 90.000000
_cell_angle_beta 142.494443
_cell_angle_gamma 90.000000
_cell_volume 2351.531380
_symmetry_space_group_name_H-M "C 2/M"
_symmetry_group_IT_number 12
_symmetry_cell_setting 'monoclinic'
loop_
_space_group_symop_operation_xyz
x,y,z
-x,y,-z
-x,-y,-z
x,-y,z
1/2+x,1/2+y,z
1/2-x,1/2+y,-z
1/2-x,1/2-y,-z
1/2+x,1/2-y,z
loop_
_atom_site_type_symbol
_atom_site_label
_atom_site_fract_x
_atom_site_fract_y
_atom_site_fract_z
Si Si1 0.362109 0.678839 0.868223
Si Si2 0.286181 0.586821 0.830622
Si Si3 0.232902 0.606490 0.164432
Si Si4 0.489903 0.047962 0.703622
Si Si5 0.718199 0.798529 0.277536
Si Si6 0.502502 0.744518 0.700420
Si Si7 0.544069 0.545488 0.365122
O O1 0.332948 0.630709 0.836879
O O2 0.240242 0.696556 0.533040
O O3 0.500000 0.684889 0.000000
O O4 0.398250 0.703673 0.115275
O O5 0.154296 0.567271 0.513109
O O6 0.258701 0.598133 0.995110
O O7 0.405646 0.554040 0.020951
O O8 0.221948 0.654980 0.197586
O O9 0.356198 0.583930 0.482462
O O10 0.101216 0.579562 0.972908
O O11 0.500000 0.047158 0.500000
O O12 0.506580 0.000000 0.792961
O O13 0.852683 0.773059 0.461360
O O14 0.583796 0.774770 0.980276
O O15 0.500000 0.765525 0.500000
O O16 0.500000 0.545128 0.500000
O O17 0.603449 0.500000 0.430178
#
# Coordination Sequence:
#
# PCOD9186133 Si02
#       7
#     8   8   8   8   8   8   8
#     4  10  22  40  61  87 123 160 199 245 301 361
#     4  10  19  34  59  87 117 155 200 245 290 348
#     4  10  20  35  57  87 119 153 196 244 298 355
#     4   9  18  33  56  88 122 154 196 250 297 342
#     4  11  24  41  61  87 120 156 196 244 304 365
#     4  11  23  41  64  89 117 150 197 251 302 359
#     4   9  16  28  52  84 115 150 194 241 285 332
#
# _framework density 23.814268999999999
#
# number of rings (size 3 to 8) (size 9 to 14) (size 15 to 20)
#    0.000    2.000    0.000    4.286    0.000    7.429 
#    0.000    2.143    0.000   10.286    0.000    0.000 
#    0.000    0.000    0.000    0.000    0.000    0.000 
#
# Total GULP energy -156546.027736 kJ/mol
# GULP energy per Si atom -5590.929562 kJ/mol
# Density = 2.376007 g / cm^3
# Si number density = 23.814269 Si / 1000 Ang^3
#
#
#
# Elastic Constant Matrix: (Units=GPa)
#
#
# Indices 1 2 3 4 5 6 
#
# 1 32.6590 34.1338 48.7565 0.0000 1.8802 0.0000
# 2 34.1338 182.4274 63.1047 0.0000 30.2422 0.0000
# 3 48.7565 63.1047 150.7956 0.0000 25.2090 0.0000
# 4 0.0000 0.0000 0.0000 34.5958 0.0000 11.7863
# 5 1.8802 30.2422 25.2090 0.0000 36.3809 0.0000
# 6 0.0000 0.0000 0.0000 11.7863 0.0000 18.8253
#
#
#
# Elastic Compliance Matrix: (Units=1/GPa)
#
#
# Indices 1 2 3 4 5 6 
#
# 1 0.073920 -0.009021 -0.023458 0.000000 0.019933 0.000000
# 2 -0.009021 0.008047 0.000667 0.000000 -0.006685 0.000000
# 3 -0.023458 0.000667 0.015638 0.000000 -0.010178 0.000000
# 4 0.000000 0.000000 0.000000 0.036742 0.000000 -0.023004
# 5 0.019933 -0.006685 -0.010178 0.000000 0.039067 0.000000
# 6 0.000000 0.000000 0.000000 -0.023004 0.000000 0.067523
#
#
# Mechanical properties :
#
#
# Convention : Reuss Voigt Hill
#
# Bulk Modulus (GPa) = 29.42745 73.09691 51.26218
# Shear Modulus (GPa) = 15.82837 32.61952 24.22395
#
# Velocity S-wave (km/s) = 2.58089 3.70502 3.19282
# Velocity P-wave (km/s) = 4.61143 7.00458 5.92998
#
# Compressibility (1/GPa) = 0.03398188
#
# Stress axis : x y z
#
# Youngs Moduli (GPa) = 13.52811 124.26739 63.94479
#
# Poissons Ratio (x) = 1.12104 1.49999
# Poissons Ratio (y) = 0.12204 -0.04264
# Poissons Ratio (z) = 0.31734 -0.08287
#
# Static dielectric constant tensor:
#      x y z
#    x 2.001400 0.000000 -0.060060 
#    y 0.000000 1.837520 0.000000 
#    z -0.060060 0.000000 1.890050 
# 
# From -- ./inp_files/91648.got.cif
#   From: 2010.05.17/outbox.cif.g08.bks.cpg/sg12_46_cif.got.tgz:91648.got - 2010.06.03 13:09:07.
