data_PCOD9186142
_publ_section_title
;
Structure prediction by ZEFSAII (Michael W. Deem and Ramdas Pophale) SiO2 
 PCOD9186142
Probable space group: C 2/M
;
_chemical_formula_sum "Si O2"
_cell_formula_units_Z 56
_cell_length_a 14.431176
_cell_length_b 13.887055
_cell_length_c 17.986151
_cell_angle_alpha 90.000000
_cell_angle_beta 133.460414
_cell_angle_gamma 90.000000
_cell_volume 2616.356183
_symmetry_space_group_name_H-M "C 2/M"
_symmetry_group_IT_number 12
_symmetry_cell_setting 'monoclinic'
loop_
_space_group_symop_operation_xyz
x,y,z
-x,y,-z
-x,-y,-z
x,-y,z
1/2+x,1/2+y,z
1/2-x,1/2+y,-z
1/2-x,1/2-y,-z
1/2+x,1/2-y,z
loop_
_atom_site_type_symbol
_atom_site_label
_atom_site_fract_x
_atom_site_fract_y
_atom_site_fract_z
Si Si1 0.061792 0.212504 0.198595
Si Si2 0.869223 0.708906 0.609861
Si Si3 0.463622 0.894047 0.066147
Si Si4 0.929634 0.814910 0.348497
Si Si5 0.793128 0.800222 0.122357
Si Si6 0.850620 0.113174 0.894101
Si Si7 0.832462 0.895838 0.437259
O O1 0.912709 0.191442 0.132730
O O2 0.112650 0.222585 0.309412
O O3 0.139228 0.142401 0.187463
O O4 0.053688 0.316889 0.155193
O O5 0.750000 0.750000 0.500000
O O6 0.808436 0.611716 0.606859
O O7 0.000055 0.715365 0.636621
O O8 0.319409 0.856898 0.980169
O O9 0.473077 0.000000 0.104993
O O10 0.500000 0.898105 0.000000
O O11 0.843713 0.841925 0.229993
O O12 0.852279 0.818324 0.382414
O O13 0.054712 0.878912 0.439961
O O14 0.738460 0.692912 0.113846
O O15 0.817771 0.000000 0.887330
O O16 0.000000 0.127331 0.000000
O O17 0.849551 0.000000 0.411808
#
# Coordination Sequence:
#
# PCOD9186142 Si02
#       7
#     8   8   8   8   8   8   8
#     4  11  21  40  62  85 119 158 199 241 299 357
#     4   9  20  37  58  85 116 153 190 238 294 347
#     4  11  23  37  56  87 122 153 194 242 295 357
#     4   9  19  34  56  83 115 150 190 237 289 348
#     4  11  21  39  61  84 119 159 195 244 297 353
#     4  11  23  40  61  86 118 157 201 246 293 350
#     4  10  19  34  59  88 114 148 198 244 292 348
#
# _framework density 21.403814000000001
#
# number of rings (size 3 to 8) (size 9 to 14) (size 15 to 20)
#    0.000    1.714    2.857    2.143    0.000    2.857 
#    0.000   10.000    0.000    0.000    0.000   13.000 
#    0.000    0.000    0.000    0.000    0.000    0.000 
#
# Total GULP energy -155946.291090 kJ/mol
# GULP energy per Si atom -5569.510396 kJ/mol
# Density = 2.135510 g / cm^3
# Si number density = 21.403814 Si / 1000 Ang^3
#
#
#
# Elastic Constant Matrix: (Units=GPa)
#
#
# Indices 1 2 3 4 5 6 
#
# 1 84.7701 20.5036 -11.7092 0.0000 4.7454 0.0000
# 2 20.5036 48.1282 -11.5659 0.0000 -6.7984 0.0000
# 3 -11.7092 -11.5659 89.3156 0.0000 -16.4596 0.0000
# 4 0.0000 0.0000 0.0000 1.3937 0.0000 -3.5623
# 5 4.7454 -6.7984 -16.4596 0.0000 29.7528 0.0000
# 6 0.0000 0.0000 0.0000 -3.5623 0.0000 2.7473
#
#
#
# Elastic Compliance Matrix: (Units=1/GPa)
#
#
# Indices 1 2 3 4 5 6 
#
# 1 0.013522 -0.006150 0.000356 0.000000 -0.003365 0.000000
# 2 -0.006150 0.025709 0.004216 0.000000 0.009188 0.000000
# 3 0.000356 0.004216 0.013313 0.000000 0.008272 0.000000
# 4 0.000000 0.000000 0.000000 -0.310048 0.000000 -0.402026
# 5 -0.003365 0.009188 0.008272 0.000000 0.040822 0.000000
# 6 0.000000 0.000000 0.000000 -0.402026 0.000000 -0.157292
#
#
# Mechanical properties :
#
#
# Convention : Reuss Voigt Hill
#
# Bulk Modulus (GPa) = 20.24790 24.07454 22.16122
# Shear Modulus (GPa) = -14.11014 21.77778 3.83382
#
# Velocity S-wave (km/s) = -2.57034 3.19324 1.33980
# Velocity P-wave (km/s) = 0.81952 4.98678 3.57348
#
# Compressibility (1/GPa) = 0.04938783
#
# Stress axis : x y z
#
# Youngs Moduli (GPa) = 73.95488 38.89689 75.11320
#
# Poissons Ratio (x) = 0.23923 -0.02675
# Poissons Ratio (y) = 0.45484 -0.31668
# Poissons Ratio (z) = -0.02634 -0.16399
#
# Static dielectric constant tensor:
#      x y z
#    x 1.880690 0.000000 0.004880 
#    y 0.000000 1.814920 0.000000 
#    z 0.004880 0.000000 1.804800 
# 
# From -- ./inp_files/270364.got.cif
#   From: 2010.05.17/outbox.cif.g08.bks.cpg/sg12_136_cif.got.tgz:270364.got - 2010.06.03 13:09:07.
