data_PCOD9186122
_publ_section_title
;
Structure prediction by ZEFSAII (Michael W. Deem and Ramdas Pophale) SiO2 
 PCOD9186122
Probable space group: C 2/M
;
_chemical_formula_sum "Si O2"
_cell_formula_units_Z 40
_cell_length_a 24.063703
_cell_length_b 13.122010
_cell_length_c 18.381049
_cell_angle_alpha 90.000000
_cell_angle_beta 20.149763
_cell_angle_gamma 90.000000
_cell_volume 1999.360327
_symmetry_space_group_name_H-M "C 2/M"
_symmetry_group_IT_number 12
_symmetry_cell_setting 'monoclinic'
loop_
_space_group_symop_operation_xyz
x,y,z
-x,y,-z
-x,-y,-z
x,-y,z
1/2+x,1/2+y,z
1/2-x,1/2+y,-z
1/2-x,1/2-y,-z
1/2+x,1/2-y,z
loop_
_atom_site_type_symbol
_atom_site_label
_atom_site_fract_x
_atom_site_fract_y
_atom_site_fract_z
Si Si1 0.379812 0.715630 0.963788
Si Si2 0.461132 0.120364 0.632988
Si Si3 0.952013 0.385753 0.143430
Si Si4 0.151428 0.747530 0.513285
Si Si5 0.931216 0.112470 0.160089
O O1 0.429816 0.810757 0.955518
O O2 0.497354 0.730806 0.751216
O O3 0.427866 0.619380 0.954847
O O4 0.200841 0.688117 0.159003
O O5 0.500000 0.117583 0.500000
O O6 0.595988 0.187115 0.509186
O O7 0.450294 0.000000 0.670835
O O8 0.960936 0.500000 0.162679
O O9 0.767544 0.345249 0.367178
O O10 0.000000 0.387906 0.000000
O O11 0.282984 0.667458 0.381807
O O12 0.879250 0.000000 0.204594
O O13 0.000000 0.159173 0.000000
#
# Coordination Sequence:
#
# PCOD9186122 Si02
#       5
#     8   8   8   8   8
#     4  11  22  36  56  84 116 147 184 233 284 335
#     4  11  23  40  61  83 111 147 186 235 294 348
#     4  10  21  38  59  81 110 152 193 225 264 323
#     4  11  22  36  56  84 116 147 184 233 284 335
#     4  10  19  34  59  87 114 148 191 237 284 335
#
# _framework density 20.006398000000001
#
# number of rings (size 3 to 8) (size 9 to 14) (size 15 to 20)
#    0.000    1.400    0.000    9.000    0.000    8.000 
#    0.000    1.000    0.000    3.600    0.000    0.000 
#    0.000    0.000    0.000    0.000    0.000    0.000 
#
# Total GULP energy -111348.700333 kJ/mol
# GULP energy per Si atom -5567.435017 kJ/mol
# Density = 1.996086 g / cm^3
# Si number density = 20.006398 Si / 1000 Ang^3
#
#
#
# Elastic Constant Matrix: (Units=GPa)
#
#
# Indices 1 2 3 4 5 6 
#
# 1 55.0389 12.9211 -0.9674 0.0000 -5.7354 0.0000
# 2 12.9211 132.6692 31.9876 -0.0001 -2.3234 -0.0001
# 3 -0.9674 31.9876 83.4396 -0.0001 -1.7282 -0.0002
# 4 0.0000 -0.0001 -0.0001 -254.9624 0.0000 -259.9520
# 5 -5.7354 -2.3234 -1.7282 0.0000 39.3139 0.0001
# 6 0.0000 -0.0001 -0.0002 -259.9520 0.0001 -234.1941
#
#
#
# Elastic Compliance Matrix: (Units=1/GPa)
#
#
# Indices 1 2 3 4 5 6 
#
# 1 0.018950 -0.002055 0.001063 0.000000 0.002690 0.000000
# 2 -0.002055 0.008533 -0.003294 0.000000 0.000060 0.000000
# 3 0.001063 -0.003294 0.013271 0.000000 0.000544 0.000000
# 4 0.000000 0.000000 0.000000 0.029779 0.000000 -0.033054
# 5 0.002690 0.000060 0.000544 0.000000 0.025856 0.000000
# 6 0.000000 0.000000 0.000000 -0.033054 0.000000 0.032420
#
#
# Mechanical properties :
#
#
# Convention : Reuss Voigt Hill
#
# Bulk Modulus (GPa) = 31.07199 39.89226 35.48212
# Shear Modulus (GPa) = 33.75908 -74.82142 -20.53117
#
# Velocity S-wave (km/s) = 4.11227 -6.12209 -3.20696
# Velocity P-wave (km/s) = 6.17353 5.47633 2.01522
#
# Compressibility (1/GPa) = 0.03218333
#
# Stress axis : x y z
#
# Youngs Moduli (GPa) = 52.76942 117.19381 75.35223
#
# Poissons Ratio (x) = 0.24082 -0.08011
# Poissons Ratio (y) = 0.10843 0.24819
# Poissons Ratio (z) = -0.05610 0.38601
#
# Static dielectric constant tensor:
#      x y z
#    x 1.697020 0.000000 -0.070310 
#    y 0.000000 1.776230 0.000000 
#    z -0.070310 0.000000 1.597880 
# 
# From -- ./inp_files/59116.got.cif
#   From: 2010.05.17/outbox.cif.g08.bks.cpg/sg12_30_cif.got.tgz:59116.got - 2010.06.03 13:09:07.
