data_PCOD9186680
_publ_section_title
;
Structure prediction by ZEFSAII (Michael W. Deem and Ramdas Pophale) SiO2 
 PCOD9186680
Probable space group: C 2/M
;
_chemical_formula_sum "Si O2"
_cell_formula_units_Z 56
_cell_length_a 12.897069
_cell_length_b 13.328877
_cell_length_c 17.282576
_cell_angle_alpha 90.000000
_cell_angle_beta 119.406710
_cell_angle_gamma 90.000000
_cell_volume 2588.148242
_symmetry_space_group_name_H-M "C 2/M"
_symmetry_group_IT_number 12
_symmetry_cell_setting 'monoclinic'
loop_
_space_group_symop_operation_xyz
x,y,z
-x,y,-z
-x,-y,-z
x,-y,z
1/2+x,1/2+y,z
1/2-x,1/2+y,-z
1/2-x,1/2-y,-z
1/2+x,1/2-y,z
loop_
_atom_site_type_symbol
_atom_site_label
_atom_site_fract_x
_atom_site_fract_y
_atom_site_fract_z
Si Si1 0.790430 0.320894 0.158243
Si Si2 0.763112 0.795353 0.702062
Si Si3 0.595928 0.380224 0.975990
Si Si4 0.383461 0.387063 0.192077
Si Si5 0.562875 0.114744 0.276847
Si Si6 0.512117 0.800504 0.420273
Si Si7 0.390850 0.611762 0.609826
O O1 0.724589 0.357436 0.212786
O O2 0.722275 0.345457 0.055143
O O3 0.791687 0.201326 0.172798
O O4 0.925583 0.360635 0.204326
O O5 0.848781 0.698623 0.725300
O O6 0.623408 0.770176 0.649314
O O7 0.790736 0.860422 0.635677
O O8 0.595202 0.500000 0.983221
O O9 0.500000 0.336104 0.000000
O O10 0.570830 0.360415 0.877396
O O11 0.334769 0.500000 0.173153
O O12 0.490649 0.384729 0.292454
O O13 0.562117 0.131255 0.369757
O O14 0.592795 0.000000 0.268336
O O15 0.500000 0.847058 0.500000
O O16 0.591338 0.699029 0.446489
O O17 0.376459 0.500000 0.572933
#
# Coordination Sequence:
#
# PCOD9186680 Si02
#       7
#     8   8   8   8   8   8   8
#     4  11  20  37  59  82 116 153 190 234 286 332
#     4  10  20  37  58  83 112 148 189 229 282 336
#     4  10  21  33  54  84 113 149 194 239 281 329
#     4  10  19  35  55  81 113 147 189 233 280 331
#     4  10  22  38  58  86 115 149 189 232 285 339
#     4  10  22  40  59  83 117 149 185 231 285 342
#     4  10  20  37  59  84 113 147 192 235 278 337
#
# _framework density 21.637093
#
# number of rings (size 3 to 8) (size 9 to 14) (size 15 to 20)
#    0.000    1.857    4.286    1.714    0.000    8.000 
#    0.000    1.429    0.000    0.429    0.000    0.000 
#    0.000    0.000    0.000    0.000    0.000    0.000 
#
# Total GULP energy -156222.369894 kJ/mol
# GULP energy per Si atom -5579.370353 kJ/mol
# Density = 2.158785 g / cm^3
# Si number density = 21.637093 Si / 1000 Ang^3
#
#
#
# Elastic Constant Matrix: (Units=GPa)
#
#
# Indices 1 2 3 4 5 6 
#
# 1 48.1037 -11.5045 -3.5407 0.0000 1.6809 0.0000
# 2 -11.5045 42.2276 -10.5500 0.0000 0.7720 0.0000
# 3 -3.5407 -10.5500 36.7979 0.0000 -9.0042 0.0000
# 4 0.0000 0.0000 0.0000 16.3106 0.0000 1.5218
# 5 1.6809 0.7720 -9.0042 0.0000 18.9904 0.0000
# 6 0.0000 0.0000 0.0000 1.5218 0.0000 14.0888
#
#
#
# Elastic Compliance Matrix: (Units=1/GPa)
#
#
# Indices 1 2 3 4 5 6 
#
# 1 0.022851 0.007283 0.004207 0.000000 -0.000324 0.000000
# 2 0.007283 0.027957 0.009367 0.000000 0.002660 0.000000
# 3 0.004207 0.009367 0.034030 0.000000 0.015382 0.000000
# 4 0.000000 0.000000 0.000000 0.061934 0.000000 -0.006690
# 5 -0.000324 0.002660 0.015382 0.000000 0.059872 0.000000
# 6 0.000000 0.000000 0.000000 -0.006690 0.000000 0.071701
#
#
# Mechanical properties :
#
#
# Convention : Reuss Voigt Hill
#
# Bulk Modulus (GPa) = 7.90192 8.43765 8.16979
# Shear Modulus (GPa) = 17.93309 20.05959 18.99634
#
# Velocity S-wave (km/s) = 2.88203 3.04812 2.96624
# Velocity P-wave (km/s) = 3.83859 4.03685 3.93897
#
# Compressibility (1/GPa) = 0.12655156
#
# Stress axis : x y z
#
# Youngs Moduli (GPa) = 43.76148 35.76948 29.38619
#
# Poissons Ratio (x) = -0.26050 -0.12364
# Poissons Ratio (y) = -0.31870 -0.27526
# Poissons Ratio (z) = -0.18413 -0.33505
#
# Static dielectric constant tensor:
#      x y z
#    x 1.814180 0.000000 -0.017780 
#    y 0.000000 1.790810 0.000000 
#    z -0.017780 0.000000 1.848630 
# 
# From -- ./inp_files/262848.got.cif
#   From: 2010.05.17/outbox.cif.g08.bks.cpg/sg12_132_cif.got.tgz:262848.got - 2010.06.03 13:09:07.
