data_PCOD9186518
_publ_section_title
;
Structure prediction by ZEFSAII (Michael W. Deem and Ramdas Pophale) SiO2 
 PCOD9186518
Probable space group: C 2/M
;
_chemical_formula_sum "Si O2"
_cell_formula_units_Z 64
_cell_length_a 23.160442
_cell_length_b 18.844102
_cell_length_c 22.819199
_cell_angle_alpha 90.000000
_cell_angle_beta 160.759283
_cell_angle_gamma 90.000000
_cell_volume 3281.918305
_symmetry_space_group_name_H-M "C 2/M"
_symmetry_group_IT_number 12
_symmetry_cell_setting 'monoclinic'
loop_
_space_group_symop_operation_xyz
x,y,z
-x,y,-z
-x,-y,-z
x,-y,z
1/2+x,1/2+y,z
1/2-x,1/2+y,-z
1/2-x,1/2-y,-z
1/2+x,1/2-y,z
loop_
_atom_site_type_symbol
_atom_site_label
_atom_site_fract_x
_atom_site_fract_y
_atom_site_fract_z
Si Si1 0.160392 0.731766 0.984640
Si Si2 0.102031 0.080225 0.396934
Si Si3 0.358241 0.709547 0.760954
Si Si4 0.774686 0.873988 0.015195
Si Si5 0.483764 0.710788 0.608242
Si Si6 0.333507 0.801799 0.305362
Si Si7 0.352828 0.921124 0.231712
Si Si8 0.763029 0.081975 0.598318
O O1 0.129898 0.659181 0.919983
O O2 0.025854 0.742688 0.908121
O O3 0.134093 0.800741 0.919299
O O4 0.363117 0.732549 0.199535
O O5 0.221450 0.103587 0.455517
O O6 0.084112 0.134852 0.433674
O O7 0.149763 0.000000 0.459768
O O8 0.910501 0.081476 0.182839
O O9 0.311088 0.708456 0.783884
O O10 0.374527 0.631440 0.748375
O O11 0.189559 0.741602 0.564517
O O12 0.711034 0.911689 0.896051
O O13 0.589643 0.729261 0.649721
O O14 0.500000 0.834002 0.500000
O O15 0.286518 0.857950 0.209773
O O16 0.563387 0.914823 0.428893
O O17 0.307330 0.000000 0.209633
O O18 0.821638 0.000000 0.656787
#
# Coordination Sequence:
#
# PCOD9186518 Si02
#       8
#     8   8   8   8   8   8   8   8
#     4  10  20  34  57  85 107 143 181 229 282 327
#     4  10  21  36  56  82 113 144 176 227 290 345
#     4  11  21  36  59  79 111 151 184 240 269 313
#     4  10  19  35  53  82 112 135 186 226 275 346
#     4  10  21  38  57  81 111 142 190 230 274 335
#     4  10  20  36  53  78 107 147 199 228 266 324
#     4  11  21  34  54  77 114 154 186 231 275 324
#     4  10  20  32  50  80 111 147 185 219 274 332
#
# _framework density 19.500791
#
# number of rings (size 3 to 8) (size 9 to 14) (size 15 to 20)
#    0.000    1.750    5.000    0.375    1.750    1.750 
#    0.000    0.000    0.000    4.125    0.000    3.500 
#    0.000    0.000    0.000    0.000    0.000    0.000 
#
# Total GULP energy -178322.091473 kJ/mol
# GULP energy per Si atom -5572.565359 kJ/mol
# Density = 1.945641 g / cm^3
# Si number density = 19.500791 Si / 1000 Ang^3
#
#
#
# Elastic Constant Matrix: (Units=GPa)
#
#
# Indices 1 2 3 4 5 6 
#
# 1 120.4465 52.9912 7.9286 0.0000 14.4468 -0.0019
# 2 52.9912 76.4802 3.4922 -0.0087 0.3732 -0.0011
# 3 7.9286 3.4922 45.5929 0.0157 -1.1764 0.0062
# 4 0.0000 -0.0087 0.0157 13.6038 0.0018 0.9586
# 5 14.4468 0.3732 -1.1764 0.0018 32.0824 -0.0037
# 6 -0.0019 -0.0011 0.0062 0.9586 -0.0037 21.6240
#
#
#
# Elastic Compliance Matrix: (Units=1/GPa)
#
#
# Indices 1 2 3 4 5 6 
#
# 1 0.013046 -0.008931 -0.001735 -0.000003 -0.005834 0.000000
# 2 -0.008931 0.019237 0.000178 0.000012 0.003805 0.000000
# 3 -0.001735 0.000178 0.022263 -0.000025 0.001596 -0.000005
# 4 -0.000003 0.000012 -0.000025 0.073739 -0.000004 -0.003269
# 5 -0.005834 0.003805 0.001596 -0.000004 0.033811 0.000005
# 6 0.000000 0.000000 -0.000005 -0.003269 0.000005 0.046390
#
#
# Mechanical properties :
#
#
# Convention : Reuss Voigt Hill
#
# Bulk Modulus (GPa) = 29.79026 41.26038 35.52532
# Shear Modulus (GPa) = 20.77685 25.33588 23.05637
#
# Velocity S-wave (km/s) = 3.26764 3.60838 3.44223
# Velocity P-wave (km/s) = 5.43565 6.21006 5.83571
#
# Compressibility (1/GPa) = 0.03356802
#
# Stress axis : x y z
#
# Youngs Moduli (GPa) = 76.65231 51.98322 44.91852
#
# Poissons Ratio (x) = 0.46429 0.07794
# Poissons Ratio (y) = 0.68462 -0.00799
# Poissons Ratio (z) = 0.13300 -0.00925
#
# Static dielectric constant tensor:
#      x y z
#    x 1.746290 -0.000010 0.009800 
#    y -0.000010 1.708340 -0.000010 
#    z 0.009800 -0.000010 1.734730 
# 
# From -- ./inp_files/350049.got.cif
#   From: 2010.05.17/outbox.cif.g08.bks.cpg/sg12_176_cif.got.tgz:350049.got - 2010.06.03 13:09:07.
