data_PCOD9186070
_publ_section_title
;
Structure prediction by ZEFSAII (Michael W. Deem and Ramdas Pophale) SiO2 
 PCOD9186070
Probable space group: C 2/M
;
_chemical_formula_sum "Si O2"
_cell_formula_units_Z 56
_cell_length_a 17.547134
_cell_length_b 16.194466
_cell_length_c 27.288130
_cell_angle_alpha 90.000000
_cell_angle_beta 160.855317
_cell_angle_gamma 90.000000
_cell_volume 2543.082810
_symmetry_space_group_name_H-M "C 2/M"
_symmetry_group_IT_number 12
_symmetry_cell_setting 'monoclinic'
loop_
_space_group_symop_operation_xyz
x,y,z
-x,y,-z
-x,-y,-z
x,-y,z
1/2+x,1/2+y,z
1/2-x,1/2+y,-z
1/2-x,1/2-y,-z
1/2+x,1/2-y,z
loop_
_atom_site_type_symbol
_atom_site_label
_atom_site_fract_x
_atom_site_fract_y
_atom_site_fract_z
Si Si1 0.002634 0.906642 0.431606
Si Si2 0.214327 0.401156 0.665613
Si Si3 0.480821 0.101242 0.830687
Si Si4 0.667039 0.599227 0.875199
Si Si5 0.450007 0.166227 0.334837
Si Si6 0.487807 0.351372 0.663466
Si Si7 0.528524 0.900643 0.753809
O O1 0.786856 0.869821 0.329907
O O2 0.931116 0.909716 0.331198
O O3 0.259645 0.868689 0.588147
O O4 0.036175 0.000000 0.469540
O O5 0.200566 0.500000 0.667001
O O6 0.446688 0.385123 0.776352
O O7 0.197199 0.354899 0.706864
O O8 0.000000 0.378789 0.500000
O O9 0.604025 0.124637 0.854348
O O10 0.476155 0.000000 0.828870
O O11 0.613917 0.128244 0.960056
O O12 0.681752 0.500000 0.876657
O O13 0.624065 0.639419 0.796592
O O14 0.479014 0.261996 0.340487
O O15 0.712552 0.132614 0.505038
O O16 0.358802 0.128537 0.228202
O O17 0.530203 0.000000 0.753170
#
# Coordination Sequence:
#
# PCOD9186070 Si02
#       7
#     8   8   8   8   8   8   8
#     4   9  17  31  55  81 106 139 182 226 266 318
#     4  10  19  34  59  85 106 137 185 232 271 317
#     4   9  18  33  53  81 110 140 178 221 269 321
#     4  10  20  35  58  83 111 144 182 227 273 323
#     4  10  20  35  53  80 110 140 180 228 276 320
#     4  10  20  34  51  80 111 141 178 224 277 328
#     4   9  17  32  56  80 106 140 182 225 267 321
#
# _framework density 22.020517999999999
#
# number of rings (size 3 to 8) (size 9 to 14) (size 15 to 20)
#    0.000    2.429    1.429    1.286    0.000    3.429 
#    2.571    3.571    3.143    3.429    0.000    0.000 
#    0.000    0.000    0.000    0.000    0.000    0.000 
#
# Total GULP energy -156239.478647 kJ/mol
# GULP energy per Si atom -5579.981380 kJ/mol
# Density = 2.197040 g / cm^3
# Si number density = 22.020518 Si / 1000 Ang^3
#
#
#
# Elastic Constant Matrix: (Units=GPa)
#
#
# Indices 1 2 3 4 5 6 
#
# 1 132.0501 26.6536 5.4298 -0.0190 -39.2563 0.0172
# 2 26.6536 22.0250 -1.9060 -0.0301 -3.4084 0.0300
# 3 5.4298 -1.9060 37.1608 -0.1508 -19.0104 0.0971
# 4 -0.0190 -0.0301 -0.1508 2.7039 0.0349 4.6893
# 5 -39.2563 -3.4084 -19.0104 0.0349 35.1232 -0.0061
# 6 0.0172 0.0300 0.0971 4.6893 -0.0061 4.4886
#
#
#
# Elastic Compliance Matrix: (Units=1/GPa)
#
#
# Indices 1 2 3 4 5 6 
#
# 1 0.017022 -0.016593 0.007701 -0.000302 0.021583 0.000223
# 2 -0.016593 0.063403 -0.000930 -0.001630 -0.012894 0.001346
# 3 0.007701 -0.000930 0.041584 -0.004299 0.031029 0.003610
# 4 -0.000302 -0.001630 -0.004299 -0.455059 -0.002287 0.475508
# 5 0.021583 -0.012894 0.031029 -0.002287 0.068140 0.001814
# 6 0.000223 0.001346 0.003610 0.475508 0.001814 -0.274068
#
#
# Mechanical properties :
#
#
# Convention : Reuss Voigt Hill
#
# Bulk Modulus (GPa) = 9.76896 27.95454 18.86175
# Shear Modulus (GPa) = -10.30476 19.20036 4.44780
#
# Velocity S-wave (km/s) = -2.16559 2.95605 1.42275
# Velocity P-wave (km/s) = 1.34429 4.93693 3.35903
#
# Compressibility (1/GPa) = 0.10236504
#
# Stress axis : x y z
#
# Youngs Moduli (GPa) = 58.74864 15.77207 24.04776
#
# Poissons Ratio (x) = 0.26171 -0.18520
# Poissons Ratio (y) = 0.97482 0.02237
# Poissons Ratio (z) = -0.45244 0.01467
#
# Static dielectric constant tensor:
#      x y z
#    x 1.818260 -0.000010 -0.009260 
#    y -0.000010 1.842720 -0.000030 
#    z -0.009260 -0.000030 1.840720 
# 
# From -- ./inp_files/364496.got.cif
#   From: 2010.05.17/outbox.cif.g08.bks.cpg/sg12_183_cif.got.tgz:364496.got - 2010.06.03 13:09:07.
