data_PCOD9186371
_publ_section_title
;
Structure prediction by ZEFSAII (Michael W. Deem and Ramdas Pophale) SiO2 
 PCOD9186371
Probable space group: C 2/M
;
_chemical_formula_sum "Si O2"
_cell_formula_units_Z 58
_cell_length_a 5.343296
_cell_length_b 27.541737
_cell_length_c 17.432405
_cell_angle_alpha 90.000000
_cell_angle_beta 70.360262
_cell_angle_gamma 90.000000
_cell_volume 2416.172203
_symmetry_space_group_name_H-M "C 2/M"
_symmetry_group_IT_number 12
_symmetry_cell_setting 'monoclinic'
loop_
_space_group_symop_operation_xyz
x,y,z
-x,y,-z
-x,-y,-z
x,-y,z
1/2+x,1/2+y,z
1/2-x,1/2+y,-z
1/2-x,1/2-y,-z
1/2+x,1/2-y,z
loop_
_atom_site_type_symbol
_atom_site_label
_atom_site_fract_x
_atom_site_fract_y
_atom_site_fract_z
Si Si1 0.816924 0.079019 0.950702
Si Si2 0.961482 0.273086 0.175917
Si Si3 0.524119 0.051912 0.589837
Si Si4 0.331894 0.733782 0.362294
Si Si5 0.000000 0.000000 0.500000
Si Si6 0.877357 0.128726 0.311958
Si Si7 0.698549 0.055012 0.791234
Si Si8 0.735629 0.132481 0.157776
O O1 0.811054 0.054892 0.866813
O O2 0.995278 0.126966 0.917282
O O3 0.500000 0.084652 0.000000
O O4 0.000000 0.055561 0.000000
O O5 0.244823 0.247650 0.141740
O O6 0.013993 0.329488 0.155506
O O7 0.873213 0.259794 0.273188
O O8 0.500000 0.052496 0.500000
O O9 0.378954 0.097441 0.638500
O O10 0.391721 0.000000 0.627364
O O11 0.835964 0.041840 0.565858
O O12 0.515858 0.762545 0.401886
O O13 0.415876 0.677263 0.356141
O O14 0.819784 0.149060 0.233178
O O15 0.118092 0.091022 0.277464
O O16 0.410246 0.080415 0.823393
O O17 0.686631 0.000000 0.764139
#
# Coordination Sequence:
#
# PCOD9186371 Si02
#       8
#     8   8   8   8   2   8   8   8
#     4  11  24  46  66  88 124 181 222 265 322 400
#     4  10  19  34  61  91 124 164 205 262 319 403
#     4   9  20  40  60  88 128 176 224 256 312 390
#     4  10  19  36  59  94 128 165 209 261 327 401
#     4   8  18  40  60  82 120 184 218 252 308 388
#     4  11  22  37  64  98 131 166 216 280 330 374
#     4  11  25  41  63  99 131 164 215 278 329 389
#     4  11  23  39  66  96 129 166 218 270 341 377
#
# _framework density 24.004912000000001
#
# number of rings (size 3 to 8) (size 9 to 14) (size 15 to 20)
#    0.414    1.241    4.138    2.069    1.931    4.414 
#    2.483    0.000    0.000    3.310    0.000    0.000 
#    0.000    0.000    0.000    0.000    0.000    0.000 
#
# Total GULP energy -161478.798323 kJ/mol
# GULP energy per Si atom -5568.234425 kJ/mol
# Density = 2.395028 g / cm^3
# Si number density = 24.004912 Si / 1000 Ang^3
#
#
#
# Elastic Constant Matrix: (Units=GPa)
#
#
# Indices 1 2 3 4 5 6 
#
# 1 127.3218 17.0497 21.8395 0.0000 -25.5296 0.0000
# 2 17.0497 123.5453 22.0538 0.0000 -31.1597 0.0000
# 3 21.8395 22.0538 60.6207 0.0000 -7.9271 0.0000
# 4 0.0000 0.0000 0.0000 -7.8320 0.0000 13.5479
# 5 -25.5296 -31.1597 -7.9271 0.0000 43.5529 0.0000
# 6 0.0000 0.0000 0.0000 13.5479 0.0000 11.8471
#
#
#
# Elastic Compliance Matrix: (Units=1/GPa)
#
#
# Indices 1 2 3 4 5 6 
#
# 1 0.009346 0.000577 -0.002875 0.000000 0.005368 0.000000
# 2 0.000577 0.010375 -0.003040 0.000000 0.007208 0.000000
# 3 -0.002875 -0.003040 0.018575 0.000000 -0.000479 0.000000
# 4 0.000000 0.000000 0.000000 -0.042873 0.000000 0.049028
# 5 0.005368 0.007208 -0.000479 0.000000 0.031177 0.000000
# 6 0.000000 0.000000 0.000000 0.049028 0.000000 0.028343
#
#
# Mechanical properties :
#
#
# Convention : Reuss Voigt Hill
#
# Bulk Modulus (GPa) = 36.20425 48.15266 42.17845
# Shear Modulus (GPa) = 66.82167 26.21660 46.51914
#
# Velocity S-wave (km/s) = 5.28177 3.30833 4.40694
# Velocity P-wave (km/s) = 7.23263 5.89037 6.59573
#
# Compressibility (1/GPa) = 0.02762107
#
# Stress axis : x y z
#
# Youngs Moduli (GPa) = 106.99295 96.38449 53.83553
#
# Poissons Ratio (x) = -0.05565 0.15479
# Poissons Ratio (y) = -0.06178 0.16366
# Poissons Ratio (z) = 0.30763 0.29300
#
# Static dielectric constant tensor:
#      x y z
#    x 2.035030 0.000000 -0.017750 
#    y 0.000000 1.906860 0.000000 
#    z -0.017750 0.000000 1.967770 
# 
# From -- ./inp_files/298364.got.cif
#   From: 2010.05.17/outbox.cif.g08.bks.cpg/sg12_150_cif.got.tgz:298364.got - 2010.06.03 13:09:07.
