data_PCOD9186879
_publ_section_title
;
Structure prediction by ZEFSAII (Michael W. Deem and Ramdas Pophale) SiO2 
 PCOD9186879
Probable space group: C 2/M
;
_chemical_formula_sum "Si O2"
_cell_formula_units_Z 52
_cell_length_a 11.633143
_cell_length_b 23.078999
_cell_length_c 11.768977
_cell_angle_alpha 90.000000
_cell_angle_beta 48.470343
_cell_angle_gamma 90.000000
_cell_volume 2365.428935
_symmetry_space_group_name_H-M "C 2/M"
_symmetry_group_IT_number 12
_symmetry_cell_setting 'monoclinic'
loop_
_space_group_symop_operation_xyz
x,y,z
-x,y,-z
-x,-y,-z
x,-y,z
1/2+x,1/2+y,z
1/2-x,1/2+y,-z
1/2-x,1/2-y,-z
1/2+x,1/2-y,z
loop_
_atom_site_type_symbol
_atom_site_label
_atom_site_fract_x
_atom_site_fract_y
_atom_site_fract_z
Si Si1 0.992860 0.433972 0.221420
Si Si2 0.045084 0.863651 0.648323
Si Si3 0.000000 0.788849 0.000000
Si Si4 0.256945 0.641916 0.703479
Si Si5 0.824476 0.650126 0.770395
Si Si6 0.708692 0.934025 0.412270
Si Si7 0.952795 0.738224 0.256825
O O1 0.024210 0.500000 0.173146
O O2 0.885491 0.401743 0.201029
O O3 0.890853 0.432117 0.406042
O O4 0.141809 0.396084 0.151685
O O5 0.131779 0.874636 0.473191
O O6 0.115658 0.914551 0.678096
O O7 0.863906 0.859234 0.743451
O O8 0.092611 0.800010 0.661622
O O9 0.152710 0.825784 0.878505
O O10 0.955011 0.751772 0.918888
O O11 0.188791 0.702723 0.704031
O O12 0.846022 0.613876 0.641097
O O13 0.949295 0.700363 0.717792
O O14 0.697787 0.000000 0.375822
#
# Coordination Sequence:
#
# PCOD9186879 Si02
#       7
#     8   8   4   8   8   8   8
#     4   9  19  37  61  86 116 153 196 240 289 347
#     4  10  19  35  56  88 125 150 192 236 298 342
#     4  12  24  40  57  84 113 158 202 238 294 346
#     4   9  20  34  56  89 119 155 191 238 289 349
#     4  11  22  37  57  85 114 149 194 243 290 345
#     4  10  20  37  61  89 120 154 192 240 294 348
#     4  11  22  39  58  82 115 157 199 241 289 348
#
# _framework density 21.983328
#
# number of rings (size 3 to 8) (size 9 to 14) (size 15 to 20)
#    0.000    1.846    1.538    2.769    0.000    1.846 
#    8.308    4.615    0.000    0.000    0.000    4.846 
#    0.000    0.000    0.000    0.000    0.000    0.000 
#
# Total GULP energy -145012.627951 kJ/mol
# GULP energy per Si atom -5577.408767 kJ/mol
# Density = 2.193329 g / cm^3
# Si number density = 21.983328 Si / 1000 Ang^3
#
#
#
# Elastic Constant Matrix: (Units=GPa)
#
#
# Indices 1 2 3 4 5 6 
#
# 1 128.4390 46.3371 18.2603 0.0000 -27.1957 0.0000
# 2 46.3371 93.9297 9.1320 0.0000 0.5341 0.0000
# 3 18.2603 9.1320 29.3211 0.0000 1.3163 0.0000
# 4 0.0000 0.0000 0.0000 -10.9292 0.0000 -23.4813
# 5 -27.1957 0.5341 1.3163 0.0000 19.0983 0.0000
# 6 0.0000 0.0000 0.0000 -23.4813 0.0000 -30.2694
#
#
#
# Elastic Compliance Matrix: (Units=1/GPa)
#
#
# Indices 1 2 3 4 5 6 
#
# 1 0.017380 -0.007791 -0.009547 0.000000 0.025625 0.000000
# 2 -0.007791 0.014472 0.000864 0.000000 -0.011559 0.000000
# 3 -0.009547 0.000864 0.040519 0.000000 -0.016412 0.000000
# 4 0.000000 0.000000 0.000000 0.137246 0.000000 -0.106467
# 5 0.025625 -0.011559 -0.016412 0.000000 0.090304 0.000000
# 6 0.000000 0.000000 0.000000 -0.106467 0.000000 0.049555
#
#
# Mechanical properties :
#
#
# Convention : Reuss Voigt Hill
#
# Bulk Modulus (GPa) = 25.36743 44.34986 34.85864
# Shear Modulus (GPa) = 12.64016 7.44395 10.04205
#
# Velocity S-wave (km/s) = 2.40049 1.84215 2.13961
# Velocity P-wave (km/s) = 4.38721 4.97422 4.68991
#
# Compressibility (1/GPa) = 0.03942063
#
# Stress axis : x y z
#
# Youngs Moduli (GPa) = 57.53809 69.10116 24.67990
#
# Poissons Ratio (x) = 0.53838 0.23563
# Poissons Ratio (y) = 0.44829 -0.02132
# Poissons Ratio (z) = 0.54934 -0.05970
#
# Static dielectric constant tensor:
#      x y z
#    x 1.901680 0.000000 0.002130 
#    y 0.000000 1.790440 0.000000 
#    z 0.002130 0.000000 1.848210 
# 
# From -- ./inp_files/207596.got.cif
#   From: 2010.05.17/outbox.cif.g08.bks.cpg/sg12_104_cif.got.tgz:207596.got - 2010.06.03 13:09:07.
