data_PCOD9186448
_publ_section_title
;
Structure prediction by ZEFSAII (Michael W. Deem and Ramdas Pophale) SiO2 
 PCOD9186448
Probable space group: C 2/M
;
_chemical_formula_sum "Si O2"
_cell_formula_units_Z 58
_cell_length_a 14.298751
_cell_length_b 17.477094
_cell_length_c 22.580036
_cell_angle_alpha 90.000000
_cell_angle_beta 148.031771
_cell_angle_gamma 90.000000
_cell_volume 2987.555849
_symmetry_space_group_name_H-M "C 2/M"
_symmetry_group_IT_number 12
_symmetry_cell_setting 'monoclinic'
loop_
_space_group_symop_operation_xyz
x,y,z
-x,y,-z
-x,-y,-z
x,-y,z
1/2+x,1/2+y,z
1/2-x,1/2+y,-z
1/2-x,1/2-y,-z
1/2+x,1/2-y,z
loop_
_atom_site_type_symbol
_atom_site_label
_atom_site_fract_x
_atom_site_fract_y
_atom_site_fract_z
Si Si1 0.000000 0.000000 0.500000
Si Si2 0.009153 0.672059 0.859165
Si Si3 0.653260 0.774827 0.535982
Si Si4 0.066920 0.353759 0.678069
Si Si5 0.683451 0.770933 0.132120
Si Si6 0.281151 0.585379 0.680870
Si Si7 0.174272 0.385303 0.352910
Si Si8 0.864150 0.838514 0.117410
O O1 0.148965 0.933938 0.561114
O O2 0.049708 0.758141 0.857701
O O3 0.869928 0.683240 0.837510
O O4 0.932625 0.619999 0.766136
O O5 0.194258 0.644355 0.985812
O O6 0.500000 0.755239 0.500000
O O7 0.562316 0.794450 0.425384
O O8 0.738542 0.851961 0.607955
O O9 0.778873 0.702639 0.606285
O O10 0.207163 0.303814 0.790732
O O11 0.167386 0.396000 0.678369
O O12 0.954328 0.406502 0.661796
O O13 0.794478 0.822014 0.146067
O O14 0.500000 0.750624 0.000000
O O15 0.243255 0.500000 0.640026
O O16 0.486330 0.598072 0.805725
#
# Coordination Sequence:
#
# PCOD9186448 Si02
#       8
#     2   8   8   8   8   8   8   8
#     4  12  32  44  60  84 132 176 212 264 312 394
#     4  10  19  36  67  89 128 163 214 255 308 378
#     4  10  20  39  64  86 118 162 208 258 310 369
#     4  11  22  35  66  92 122 163 205 263 318 372
#     4  10  19  34  65 103 122 158 221 263 306 378
#     4  11  23  40  60  95 131 164 209 265 320 379
#     4  12  23  45  61  88 125 166 216 257 320 379
#     4  10  19  36  62  99 122 169 205 260 309 374
#
# _framework density 19.413862999999999
#
# number of rings (size 3 to 8) (size 9 to 14) (size 15 to 20)
#    0.000    1.379    4.828    1.241    0.966    2.483 
#    1.241    0.000    0.000    2.483    0.000    0.000 
#    0.000    0.000    0.000    0.000    0.000    0.000 
#
# Total GULP energy -161658.689311 kJ/mol
# GULP energy per Si atom -5574.437562 kJ/mol
# Density = 1.936968 g / cm^3
# Si number density = 19.413863 Si / 1000 Ang^3
#
#
#
# Elastic Constant Matrix: (Units=GPa)
#
#
# Indices 1 2 3 4 5 6 
#
# 1 115.7853 25.6374 47.9733 -0.0001 1.4663 0.0000
# 2 25.6374 88.2074 30.3012 0.0001 7.3036 0.0000
# 3 47.9733 30.3012 72.7032 0.0011 6.2675 0.0003
# 4 -0.0001 0.0001 0.0011 15.8118 0.0001 6.3994
# 5 1.4663 7.3036 6.2675 0.0001 26.5100 0.0000
# 6 0.0000 0.0000 0.0003 6.3994 0.0000 2.3247
#
#
#
# Elastic Compliance Matrix: (Units=1/GPa)
#
#
# Indices 1 2 3 4 5 6 
#
# 1 0.011997 -0.000983 -0.007628 -0.000001 0.001411 0.000004
# 2 -0.000983 0.013462 -0.004743 0.000000 -0.002533 0.000002
# 3 -0.007628 -0.004743 0.021045 0.000003 -0.003247 -0.000011
# 4 -0.000001 0.000000 0.000003 -0.554119 0.000002 1.525396
# 5 0.001411 -0.002533 -0.003247 0.000002 0.039109 -0.000005
# 6 0.000004 0.000002 -0.000011 1.525396 -0.000005 -3.768986
#
#
# Mechanical properties :
#
#
# Convention : Reuss Voigt Hill
#
# Bulk Modulus (GPa) = 50.52008 53.83552 52.17780
# Shear Modulus (GPa) = -1.18929 20.44820 9.62946
#
# Velocity S-wave (km/s) = -0.78354 3.24895 2.22954
# Velocity P-wave (km/s) = 5.02599 6.47031 5.79333
#
# Compressibility (1/GPa) = 0.01979411
#
# Stress axis : x y z
#
# Youngs Moduli (GPa) = 83.35359 74.28353 47.51765
#
# Poissons Ratio (x) = 0.07305 0.36247
# Poissons Ratio (y) = 0.08197 0.22540
# Poissons Ratio (z) = 0.63583 0.35236
#
# Static dielectric constant tensor:
#      x y z
#    x 1.698990 0.000000 0.007870 
#    y 0.000000 1.655510 0.000000 
#    z 0.007870 0.000000 1.707550 
# 
# From -- ./inp_files/340669.got.cif
#   From: 2010.05.17/outbox.cif.g08.bks.cpg/sg12_171_cif.got.tgz:340669.got - 2010.06.03 13:09:07.
