data_PCOD9186437
_publ_section_title
;
Structure prediction by ZEFSAII (Michael W. Deem and Ramdas Pophale) SiO2 
 PCOD9186437
Probable space group: C 2/M
;
_chemical_formula_sum "Si O2"
_cell_formula_units_Z 64
_cell_length_a 9.021904
_cell_length_b 24.111393
_cell_length_c 14.152504
_cell_angle_alpha 90.000000
_cell_angle_beta 79.775489
_cell_angle_gamma 90.000000
_cell_volume 3029.714758
_symmetry_space_group_name_H-M "C 2/M"
_symmetry_group_IT_number 12
_symmetry_cell_setting 'monoclinic'
loop_
_space_group_symop_operation_xyz
x,y,z
-x,y,-z
-x,-y,-z
x,-y,z
1/2+x,1/2+y,z
1/2-x,1/2+y,-z
1/2-x,1/2-y,-z
1/2+x,1/2-y,z
loop_
_atom_site_type_symbol
_atom_site_label
_atom_site_fract_x
_atom_site_fract_y
_atom_site_fract_z
Si Si1 0.590445 0.133151 0.298433
Si Si2 0.801475 0.063957 0.141596
Si Si3 0.513845 0.676359 0.322623
Si Si4 0.754541 0.666421 0.519093
Si Si5 0.345353 0.220251 0.317220
Si Si6 0.897840 0.935832 0.783692
Si Si7 0.880150 0.559825 0.427607
Si Si8 0.666210 0.066885 0.957909
O O1 0.720117 0.108054 0.219065
O O2 0.651268 0.156762 0.393430
O O3 0.477852 0.179009 0.270764
O O4 0.481597 0.080812 0.330909
O O5 0.976079 0.062556 0.148462
O O6 0.745367 0.000000 0.163620
O O7 0.767189 0.079009 0.037910
O O8 0.414292 0.676173 0.428519
O O9 0.403357 0.719187 0.279440
O O10 0.676954 0.705265 0.305183
O O11 0.542954 0.612842 0.290563
O O12 0.827184 0.708416 0.434058
O O13 0.764029 0.607669 0.464676
O O14 0.743938 0.916446 0.851251
O O15 0.886947 0.000000 0.749476
O O16 0.811877 0.500000 0.421633
O O17 0.000000 0.557210 0.500000
O O18 0.657774 0.000000 0.951632
O O19 0.500000 0.088353 0.000000
#
# Coordination Sequence:
#
# PCOD9186437 Si02
#       8
#     8   8   8   8   8   8   8   8
#     4  10  19  35  57  90 119 158 209 261 308 367
#     4  10  19  34  63  94 128 165 204 251 307 381
#     4  12  24  41  62  90 121 166 211 272 312 369
#     4  10  20  37  56  83 119 157 213 262 315 358
#     4  11  25  39  60  84 120 163 216 267 307 366
#     4  10  22  40  64  97 131 162 203 256 321 383
#     4   8  15  27  48  77 115 155 195 241 298 366
#     4   9  19  36  61  96 132 164 199 249 312 380
#
# _framework density 21.124102000000001
#
# number of rings (size 3 to 8) (size 9 to 14) (size 15 to 20)
#    0.000    2.000    1.250    3.375    1.750    3.500 
#    0.000    2.500    0.000    4.500    0.000    0.000 
#    0.000    0.000    0.000    0.000    0.000    0.000 
#
# Total GULP energy -178278.766479 kJ/mol
# GULP energy per Si atom -5571.211452 kJ/mol
# Density = 2.107602 g / cm^3
# Si number density = 21.124102 Si / 1000 Ang^3
#
#
#
# Elastic Constant Matrix: (Units=GPa)
#
#
# Indices 1 2 3 4 5 6 
#
# 1 87.0792 23.8831 17.3812 0.0000 -7.5933 0.0000
# 2 23.8831 109.5034 24.5978 0.0000 -8.7407 0.0000
# 3 17.3812 24.5978 45.6893 0.0000 -10.1896 0.0000
# 4 0.0000 0.0000 0.0000 13.8956 0.0000 -5.3334
# 5 -7.5933 -8.7407 -10.1896 0.0000 31.2752 0.0000
# 6 0.0000 0.0000 0.0000 -5.3334 0.0000 23.3793
#
#
#
# Elastic Compliance Matrix: (Units=1/GPa)
#
#
# Indices 1 2 3 4 5 6 
#
# 1 0.012834 -0.001888 -0.003546 0.000000 0.001433 0.000000
# 2 -0.001888 0.010706 -0.004831 0.000000 0.000959 0.000000
# 3 -0.003546 -0.004831 0.027330 0.000000 0.006693 0.000000
# 4 0.000000 0.000000 0.000000 0.078871 0.000000 0.017992
# 5 0.001433 0.000959 0.006693 0.000000 0.034771 0.000000
# 6 0.000000 0.000000 0.000000 0.017992 0.000000 0.046877
#
#
# Mechanical properties :
#
#
# Convention : Reuss Voigt Hill
#
# Bulk Modulus (GPa) = 32.96187 41.55513 37.25850
# Shear Modulus (GPa) = 20.65824 25.47067 23.06445
#
# Velocity S-wave (km/s) = 3.13061 3.47618 3.30791
# Velocity P-wave (km/s) = 5.35774 5.98551 5.68031
#
# Compressibility (1/GPa) = 0.03033808
#
# Stress axis : x y z
#
# Youngs Moduli (GPa) = 77.91502 93.40697 36.59011
#
# Poissons Ratio (x) = 0.17638 0.12976
# Poissons Ratio (y) = 0.14712 0.17678
# Poissons Ratio (z) = 0.27632 0.45129
#
# Static dielectric constant tensor:
#      x y z
#    x 1.809270 0.000000 0.041570 
#    y 0.000000 1.797690 0.000000 
#    z 0.041570 0.000000 1.783190 
# 
# From -- ./inp_files/199795.got.cif
#   From: 2010.05.17/outbox.cif.g08.bks.cpg/sg12_100_cif.got.tgz:199795.got - 2010.06.03 13:09:07.
