data_PCOD9186938
_publ_section_title
;
Structure prediction by ZEFSAII (Michael W. Deem and Ramdas Pophale) SiO2 
 PCOD9186938
Probable space group: C 2/M
;
_chemical_formula_sum "Si O2"
_cell_formula_units_Z 64
_cell_length_a 19.650128
_cell_length_b 7.433283
_cell_length_c 31.311360
_cell_angle_alpha 90.000000
_cell_angle_beta 141.156477
_cell_angle_gamma 90.000000
_cell_volume 2868.474590
_symmetry_space_group_name_H-M "C 2/M"
_symmetry_group_IT_number 12
_symmetry_cell_setting 'monoclinic'
loop_
_space_group_symop_operation_xyz
x,y,z
-x,y,-z
-x,-y,-z
x,-y,z
1/2+x,1/2+y,z
1/2-x,1/2+y,-z
1/2-x,1/2-y,-z
1/2+x,1/2-y,z
loop_
_atom_site_type_symbol
_atom_site_label
_atom_site_fract_x
_atom_site_fract_y
_atom_site_fract_z
Si Si1 0.528365 0.717816 0.797230
Si Si2 0.972091 0.706721 0.298215
Si Si3 0.968984 0.219882 0.937144
Si Si4 0.879719 0.289194 0.438930
Si Si5 0.377556 0.714804 0.066390
Si Si6 0.243798 0.780149 0.213377
Si Si7 0.205498 0.780942 0.289757
Si Si8 0.715278 0.786530 0.434259
O O1 0.536349 0.500000 0.799427
O O2 0.563871 0.788893 0.768893
O O3 0.584380 0.780617 0.868307
O O4 0.403056 0.772158 0.739409
O O5 0.981007 0.500000 0.317232
O O6 0.866805 0.786979 0.269588
O O7 0.093014 0.784726 0.364395
O O8 0.051662 0.279271 0.939724
O O9 0.846536 0.275055 0.864996
O O10 0.971826 0.000000 0.938506
O O11 0.000000 0.278488 0.000000
O O12 0.893242 0.500000 0.435448
O O13 0.808680 0.212634 0.365682
O O14 0.806777 0.279742 0.445934
O O15 0.000000 0.211081 0.500000
O O16 0.395214 0.500000 0.075874
O O17 0.250000 0.750000 0.000000
O O18 0.200264 0.727174 0.238345
O O19 0.247995 0.000000 0.213606
O O20 0.206862 0.000000 0.290657
O O21 0.750000 0.750000 0.500000
O O22 0.711956 0.000000 0.426221
#
# Coordination Sequence:
#
# PCOD9186938 Si02
#       8
#     8   8   8   8   8   8   8   8
#     4  10  19  35  57  79 108 145 184 224 275 337
#     4  10  22  36  57  86 111 140 182 233 278 325
#     4   9  17  30  49  76 107 138 177 223 268 316
#     4  10  21  36  60  87 110 146 192 233 282 340
#     4  10  21  35  54  81 110 144 184 226 275 331
#     4   9  17  31  52  79 107 136 179 230 273 314
#     4   9  16  31  55  78 104 138 178 229 275 321
#     4  11  24  40  57  82 119 154 189 233 285 343
#
# _framework density 22.311510999999999
#
# number of rings (size 3 to 8) (size 9 to 14) (size 15 to 20)
#    0.000    2.250    2.500    0.375    3.500    1.250 
#    0.000    0.000    0.000    1.875    0.000    0.000 
#    0.000    0.000    0.000    0.000    0.000    0.000 
#
# Total GULP energy -178635.868457 kJ/mol
# GULP energy per Si atom -5582.370889 kJ/mol
# Density = 2.226073 g / cm^3
# Si number density = 22.311511 Si / 1000 Ang^3
#
#
#
# Elastic Constant Matrix: (Units=GPa)
#
#
# Indices 1 2 3 4 5 6 
#
# 1 46.4853 -17.6465 5.7101 0.0000 7.2540 0.0004
# 2 -17.6465 68.5260 -8.6816 0.0000 4.2064 0.0008
# 3 5.7101 -8.6816 128.8581 -0.0001 2.0699 0.0001
# 4 0.0000 0.0000 -0.0001 -0.4536 0.0000 -2.7920
# 5 7.2540 4.2064 2.0699 0.0000 43.4797 0.0000
# 6 0.0004 0.0008 0.0001 -2.7920 0.0000 11.7971
#
#
#
# Elastic Compliance Matrix: (Units=1/GPa)
#
#
# Indices 1 2 3 4 5 6 
#
# 1 0.024836 0.006614 -0.000579 0.000003 -0.004756 -0.000001
# 2 0.006614 0.016575 0.000868 0.000004 -0.002748 -0.000001
# 3 -0.000579 0.000868 0.007850 0.000000 -0.000361 0.000000
# 4 0.000003 0.000004 0.000000 -0.897365 -0.000001 -0.212380
# 5 -0.004756 -0.002748 -0.000361 -0.000001 0.024076 0.000000
# 6 -0.000001 -0.000001 0.000000 -0.212380 0.000000 0.034502
#
#
# Mechanical properties :
#
#
# Convention : Reuss Voigt Hill
#
# Bulk Modulus (GPa) = 15.85572 22.51484 19.18528
# Shear Modulus (GPa) = -6.39133 28.59715 11.10291
#
# Velocity S-wave (km/s) = -1.69435 3.58400 2.23319
# Velocity P-wave (km/s) = 1.81499 5.21917 3.90730
#
# Compressibility (1/GPa) = 0.06306871
#
# Stress axis : x y z
#
# Youngs Moduli (GPa) = 40.26368 60.33210 127.38241
#
# Poissons Ratio (x) = -0.39906 0.07370
# Poissons Ratio (y) = -0.26632 -0.11054
# Poissons Ratio (z) = 0.02329 -0.05235
#
# Static dielectric constant tensor:
#      x y z
#    x 1.787320 0.000000 0.013290 
#    y 0.000000 1.892200 0.000000 
#    z 0.013290 0.000000 1.823300 
# 
# From -- ./inp_files/378365.got.cif
#   From: 2010.05.17/outbox.cif.g08.bks.cpg/sg12_190_cif.got.tgz:378365.got - 2010.06.03 13:09:07.
