data_PCOD9186227
_publ_section_title
;
Structure prediction by ZEFSAII (Michael W. Deem and Ramdas Pophale) SiO2 
 PCOD9186227
Probable space group: C 2/M
;
_chemical_formula_sum "Si O2"
_cell_formula_units_Z 44
_cell_length_a 14.897541
_cell_length_b 18.687370
_cell_length_c 11.436996
_cell_angle_alpha 90.000000
_cell_angle_beta 51.908009
_cell_angle_gamma 90.000000
_cell_volume 2505.885426
_symmetry_space_group_name_H-M "C 2/M"
_symmetry_group_IT_number 12
_symmetry_cell_setting 'monoclinic'
loop_
_space_group_symop_operation_xyz
x,y,z
-x,y,-z
-x,-y,-z
x,-y,z
1/2+x,1/2+y,z
1/2-x,1/2+y,-z
1/2-x,1/2-y,-z
1/2+x,1/2-y,z
loop_
_atom_site_type_symbol
_atom_site_label
_atom_site_fract_x
_atom_site_fract_y
_atom_site_fract_z
Si Si1 0.669927 0.581893 0.094403
Si Si2 0.055455 0.867911 0.835083
Si Si3 0.211471 0.585504 0.234947
Si Si4 0.634288 0.713501 0.556728
Si Si5 0.500000 0.177942 0.500000
Si Si6 0.863029 0.082440 0.615772
O O1 0.705412 0.500000 0.079486
O O2 0.541179 0.582413 0.146205
O O3 0.669871 0.610057 0.227309
O O4 0.748832 0.611719 0.926827
O O5 0.177570 0.901702 0.771023
O O6 0.072427 0.808118 0.725249
O O7 0.000000 0.841754 0.000000
O O8 0.190324 0.500000 0.248619
O O9 0.101456 0.628680 0.366850
O O10 0.750000 0.750000 0.500000
O O11 0.557525 0.768407 0.546300
O O12 0.664375 0.641788 0.458848
O O13 0.000000 0.077995 0.500000
O O14 0.821324 0.000000 0.630328
#
# Coordination Sequence:
#
# PCOD9186227 Si02
#       6
#     8   8   8   8   4   8
#     4   9  17  33  58  88 114 141 189 249 288 325
#     4  10  19  35  56  84 111 147 190 240 293 331
#     4  10  21  36  57  84 116 154 193 233 283 342
#     4  12  23  40  55  83 120 151 189 233 281 341
#     4  12  23  40  57  80 118 162 192 228 283 350
#     4  10  19  34  60  84 106 141 185 236 288 331
#
# _framework density 17.558662999999999
#
# number of rings (size 3 to 8) (size 9 to 14) (size 15 to 20)
#    0.000    1.636    4.545    0.818    0.000    2.909 
#    3.273    2.727    0.000    0.000    0.000    3.818 
#    0.000    0.000    0.000    0.000    0.000    0.000 
#
# Total GULP energy -122514.426227 kJ/mol
# GULP energy per Si atom -5568.837556 kJ/mol
# Density = 1.751870 g / cm^3
# Si number density = 17.558663 Si / 1000 Ang^3
#
#
#
# Elastic Constant Matrix: (Units=GPa)
#
#
# Indices 1 2 3 4 5 6 
#
# 1 87.8548 55.4762 49.2328 0.0000 5.9657 0.0000
# 2 55.4762 98.3643 62.1190 0.0000 5.7304 0.0000
# 3 49.2328 62.1190 119.0298 0.0000 4.8650 0.0000
# 4 0.0000 0.0000 0.0000 18.1352 0.0000 2.6238
# 5 5.9657 5.7304 4.8650 0.0000 29.0074 0.0000
# 6 0.0000 0.0000 0.0000 2.6238 0.0000 -9.1286
#
#
#
# Elastic Compliance Matrix: (Units=1/GPa)
#
#
# Indices 1 2 3 4 5 6 
#
# 1 0.018580 -0.008312 -0.003280 0.000000 -0.001629 0.000000
# 2 -0.008312 0.018965 -0.006420 0.000000 -0.000960 0.000000
# 3 -0.003280 -0.006420 0.013119 0.000000 -0.000257 0.000000
# 4 0.000000 0.000000 0.000000 0.052940 0.000000 0.015216
# 5 -0.001629 -0.000960 -0.000257 0.000000 0.035042 0.000000
# 6 0.000000 0.000000 0.000000 0.015216 0.000000 -0.105172
#
#
# Mechanical properties :
#
#
# Convention : Reuss Voigt Hill
#
# Bulk Modulus (GPa) = 68.31332 70.98944 69.65138
# Shear Modulus (GPa) = 67.22388 16.83086 42.02737
#
# Velocity S-wave (km/s) = 6.19422 3.09940 4.89769
# Velocity P-wave (km/s) = 9.49464 7.30247 8.46977
#
# Compressibility (1/GPa) = 0.01463843
#
# Stress axis : x y z
#
# Youngs Moduli (GPa) = 53.82045 52.72998 76.22565
#
# Poissons Ratio (x) = 0.43832 0.25006
# Poissons Ratio (y) = 0.44738 0.48935
# Poissons Ratio (z) = 0.17656 0.33851
#
# Static dielectric constant tensor:
#      x y z
#    x 1.173370 0.000000 1.122180 
#    y 0.000000 1.555220 0.000000 
#    z 1.122180 0.000000 -1.231460 
# 
# From -- ./inp_files/145329.got.cif
#   From: 2010.05.17/outbox.cif.g08.bks.cpg/sg12_73_cif.got.tgz:145329.got - 2010.06.03 13:09:07.
