data_PCOD9186460
_publ_section_title
;
Structure prediction by ZEFSAII (Michael W. Deem and Ramdas Pophale) SiO2 
 PCOD9186460
Probable space group: C 2/M
;
_chemical_formula_sum "Si O2"
_cell_formula_units_Z 56
_cell_length_a 15.190527
_cell_length_b 29.221408
_cell_length_c 18.825211
_cell_angle_alpha 90.000000
_cell_angle_beta 156.313848
_cell_angle_gamma 90.000000
_cell_volume 3356.945300
_symmetry_space_group_name_H-M "C 2/M"
_symmetry_group_IT_number 12
_symmetry_cell_setting 'monoclinic'
loop_
_space_group_symop_operation_xyz
x,y,z
-x,y,-z
-x,-y,-z
x,-y,z
1/2+x,1/2+y,z
1/2-x,1/2+y,-z
1/2-x,1/2-y,-z
1/2+x,1/2-y,z
loop_
_atom_site_type_symbol
_atom_site_label
_atom_site_fract_x
_atom_site_fract_y
_atom_site_fract_z
Si Si1 0.046947 0.754103 0.904793
Si Si2 0.698181 0.314472 0.697608
Si Si3 0.050693 0.883333 0.704198
Si Si4 0.823565 0.194407 0.625473
Si Si5 0.695861 0.553056 0.587625
Si Si6 0.912956 0.264334 0.279489
Si Si7 0.917473 0.553277 0.020947
O O1 0.919308 0.705556 0.824210
O O2 0.881744 0.791185 0.748815
O O3 0.250000 0.750000 0.000000
O O4 0.174992 0.770611 0.069555
O O5 0.500000 0.329588 0.500000
O O6 0.703029 0.352991 0.762620
O O7 0.611651 0.269145 0.672464
O O8 0.203168 0.916532 0.861803
O O9 0.931643 0.849676 0.670612
O O10 0.882105 0.912895 0.531771
O O11 0.566730 0.194646 0.417700
O O12 0.941884 0.235977 0.670115
O O13 0.500000 0.551781 0.500000
O O14 0.726113 0.500000 0.585612
O O15 0.904602 0.568206 0.788924
O O16 0.872625 0.500000 0.001516
O O17 0.000000 0.555629 0.000000
#
# Coordination Sequence:
#
# PCOD9186460 Si02
#       7
#     8   8   8   8   8   8   8
#     4  10  20  34  48  64  90 129 157 207 261 293
#     4  11  21  34  50  69  95 127 176 214 243 292
#     4  11  22  32  49  75  96 123 172 215 241 279
#     4   9  19  33  46  67  93 122 153 209 250 284
#     4  10  19  35  50  66  96 131 161 201 250 290
#     4   9  18  34  48  61  90 124 160 199 254 289
#     4  10  20  33  48  66  94 127 161 199 245 293
#
# _framework density 16.681833000000001
#
# number of rings (size 3 to 8) (size 9 to 14) (size 15 to 20)
#    0.000    2.000    2.857    1.286    2.000    4.571 
#    0.000    0.000    0.000    0.000    0.000    0.000 
#    0.000    0.000    0.000   10.286    0.000   41.143 
#
# Total GULP energy -155892.868158 kJ/mol
# GULP energy per Si atom -5567.602434 kJ/mol
# Density = 1.664386 g / cm^3
# Si number density = 16.681833 Si / 1000 Ang^3
#
#
#
# Elastic Constant Matrix: (Units=GPa)
#
#
# Indices 1 2 3 4 5 6 
#
# 1 12.2318 6.2726 19.5041 -0.0003 0.8433 -0.0010
# 2 6.2726 65.1961 54.9998 0.0000 -6.7200 -0.0001
# 3 19.5041 54.9998 132.6408 -0.0020 -9.3505 -0.0010
# 4 -0.0003 0.0000 -0.0020 15.5367 0.0012 2.7764
# 5 0.8433 -6.7200 -9.3505 0.0012 15.8944 -0.0008
# 6 -0.0010 -0.0001 -0.0010 2.7764 -0.0008 15.1723
#
#
#
# Elastic Compliance Matrix: (Units=1/GPa)
#
#
# Indices 1 2 3 4 5 6 
#
# 1 0.111186 0.003721 -0.018985 0.000000 -0.015494 0.000005
# 2 0.003721 0.024014 -0.010227 -0.000002 0.003939 0.000000
# 3 -0.018985 -0.010227 0.014958 0.000001 0.005483 0.000000
# 4 0.000000 -0.000002 0.000001 0.066540 -0.000005 -0.012176
# 5 -0.015494 0.003939 0.005483 -0.000005 0.068628 0.000004
# 6 0.000005 0.000000 0.000000 -0.012176 0.000004 0.068138
#
#
# Mechanical properties :
#
#
# Convention : Reuss Voigt Hill
#
# Bulk Modulus (GPa) = 10.08301 41.29132 25.68717
# Shear Modulus (GPa) = 11.42850 17.94015 14.68432
#
# Velocity S-wave (km/s) = 2.62026 3.28293 2.97013
# Velocity P-wave (km/s) = 3.90022 6.25909 5.21478
#
# Compressibility (1/GPa) = 0.09917672
#
# Stress axis : x y z
#
# Youngs Moduli (GPa) = 8.99396 41.64280 66.85455
#
# Poissons Ratio (x) = -0.15496 1.26920
# Poissons Ratio (y) = -0.03347 0.68371
# Poissons Ratio (z) = 0.17075 0.42587
#
# Static dielectric constant tensor:
#      x y z
#    x 1.633320 0.000000 0.021180 
#    y 0.000000 1.562450 0.000000 
#    z 0.021180 0.000000 1.701760 
# 
# From -- ./inp_files/318529.got.cif
#   From: 2010.05.17/outbox.cif.g08.bks.cpg/sg12_160_cif.got.tgz:318529.got - 2010.06.03 13:09:07.
