data_PCOD9186835
_publ_section_title
;
Structure prediction by ZEFSAII (Michael W. Deem and Ramdas Pophale) SiO2 
 PCOD9186835
Probable space group: C 2/M
;
_chemical_formula_sum "Si O2"
_cell_formula_units_Z 40
_cell_length_a 14.089717
_cell_length_b 18.424242
_cell_length_c 12.049869
_cell_angle_alpha 90.000000
_cell_angle_beta 148.814840
_cell_angle_gamma 90.000000
_cell_volume 1619.723337
_symmetry_space_group_name_H-M "C 2/M"
_symmetry_group_IT_number 12
_symmetry_cell_setting 'monoclinic'
loop_
_space_group_symop_operation_xyz
x,y,z
-x,y,-z
-x,-y,-z
x,-y,z
1/2+x,1/2+y,z
1/2-x,1/2+y,-z
1/2-x,1/2-y,-z
1/2+x,1/2-y,z
loop_
_atom_site_type_symbol
_atom_site_label
_atom_site_fract_x
_atom_site_fract_y
_atom_site_fract_z
Si Si1 0.008250 0.862975 0.681191
Si Si2 0.054865 0.698640 0.686134
Si Si3 0.293582 0.920230 0.477328
Si Si4 0.787882 0.585727 0.793616
Si Si5 0.307244 0.579361 0.868535
O O1 0.912458 0.901790 0.689532
O O2 0.842391 0.873697 0.425014
O O3 0.054274 0.778454 0.735866
O O4 0.187226 0.900989 0.809795
O O5 0.236923 0.649201 0.863202
O O6 0.000000 0.709446 0.500000
O O7 0.917788 0.649531 0.623052
O O8 0.313804 0.924887 0.365250
O O9 0.344598 0.000000 0.573613
O O10 0.779211 0.500000 0.761292
O O11 0.000000 0.608717 0.000000
O O12 0.291835 0.500000 0.908328
O O13 0.500000 0.587285 0.000000
#
# Coordination Sequence:
#
# PCOD9186835 Si02
#       5
#     8   8   8   8   8
#     4  11  20  38  58  87 117 148 187 242 292 333
#     4  10  19  35  56  82 111 152 188 228 288 346
#     4  10  20  35  58  82 110 151 194 235 281 337
#     4  10  21  38  60  83 114 158 195 227 281 347
#     4   9  19  37  58  82 114 152 194 238 283 340
#
# _framework density 24.695577
#
# number of rings (size 3 to 8) (size 9 to 14) (size 15 to 20)
#    0.000    2.000    2.000    3.600    0.000    3.200 
#    3.600    1.000    0.000    0.000    0.000    0.000 
#    0.000    0.000    0.000    0.000    0.000    0.000 
#
# Total GULP energy -111714.937347 kJ/mol
# GULP energy per Si atom -5585.746867 kJ/mol
# Density = 2.463937 g / cm^3
# Si number density = 24.695577 Si / 1000 Ang^3
#
#
#
# Elastic Constant Matrix: (Units=GPa)
#
#
# Indices 1 2 3 4 5 6 
#
# 1 132.1218 55.1695 46.8730 0.0000 25.4814 0.0000
# 2 55.1695 192.2237 45.2437 0.0000 15.0150 0.0000
# 3 46.8730 45.2437 82.3019 0.0000 34.1653 0.0000
# 4 0.0000 0.0000 0.0000 12.7344 0.0000 4.1747
# 5 25.4814 15.0150 34.1653 0.0000 49.9997 0.0000
# 6 0.0000 0.0000 0.0000 4.1747 0.0000 22.8688
#
#
#
# Elastic Compliance Matrix: (Units=1/GPa)
#
#
# Indices 1 2 3 4 5 6 
#
# 1 0.010100 -0.001817 -0.003969 0.000000 -0.001890 0.000000
# 2 -0.001817 0.006316 -0.002840 0.000000 0.000970 0.000000
# 3 -0.003969 -0.002840 0.020630 0.000000 -0.011221 0.000000
# 4 0.000000 0.000000 0.000000 0.083526 0.000000 -0.015248
# 5 -0.001890 0.000970 -0.011221 0.000000 0.028340 0.000000
# 6 0.000000 0.000000 0.000000 -0.015248 0.000000 0.046511
#
#
# Mechanical properties :
#
#
# Convention : Reuss Voigt Hill
#
# Bulk Modulus (GPa) = 50.51860 77.91331 64.21595
# Shear Modulus (GPa) = 22.80256 34.41135 28.60696
#
# Velocity S-wave (km/s) = 3.04196 3.73691 3.40720
# Velocity P-wave (km/s) = 5.73053 7.08783 6.44501
#
# Compressibility (1/GPa) = 0.01979469
#
# Stress axis : x y z
#
# Youngs Moduli (GPa) = 99.01011 158.31581 48.47237
#
# Poissons Ratio (x) = 0.28766 0.19238
# Poissons Ratio (y) = 0.17990 0.13767
# Poissons Ratio (z) = 0.39296 0.44964
#
# Static dielectric constant tensor:
#      x y z
#    x 2.023150 0.000000 -0.148260 
#    y 0.000000 1.897630 0.000000 
#    z -0.148260 0.000000 2.131470 
# 
# From -- ./inp_files/216921.got.cif
#   From: 2010.05.17/outbox.cif.g08.bks.cpg/sg12_109_cif.got.tgz:216921.got - 2010.06.03 13:09:07.
