data_PCOD9186964
_publ_section_title
;
Structure prediction by ZEFSAII (Michael W. Deem and Ramdas Pophale) SiO2 
 PCOD9186964
Probable space group: C 2/M
;
_chemical_formula_sum "Si O2"
_cell_formula_units_Z 48
_cell_length_a 16.172586
_cell_length_b 7.626485
_cell_length_c 29.699720
_cell_angle_alpha 90.000000
_cell_angle_beta 143.904734
_cell_angle_gamma 90.000000
_cell_volume 2158.077742
_symmetry_space_group_name_H-M "C 2/M"
_symmetry_group_IT_number 12
_symmetry_cell_setting 'monoclinic'
loop_
_space_group_symop_operation_xyz
x,y,z
-x,y,-z
-x,-y,-z
x,-y,z
1/2+x,1/2+y,z
1/2-x,1/2+y,-z
1/2-x,1/2-y,-z
1/2+x,1/2-y,z
loop_
_atom_site_type_symbol
_atom_site_label
_atom_site_fract_x
_atom_site_fract_y
_atom_site_fract_z
Si Si1 0.096692 0.213857 0.000429
Si Si2 0.858698 0.214608 0.412685
Si Si3 0.363074 0.707830 0.311285
Si Si4 0.108963 0.701198 0.834860
Si Si5 0.064068 0.711125 0.323638
Si Si6 0.061289 0.204357 0.157608
O O1 0.253364 0.276985 0.080497
O O2 0.097513 0.000000 0.997676
O O3 0.000000 0.261437 0.000000
O O4 0.026974 0.275560 0.923384
O O5 0.859602 0.273763 0.361101
O O6 0.718519 0.272334 0.377234
O O7 0.000000 0.269991 0.500000
O O8 0.858117 0.000000 0.411979
O O9 0.345642 0.500000 0.305251
O O10 0.505031 0.746987 0.346746
O O11 0.227947 0.780314 0.225266
O O12 0.147276 0.500000 0.840881
O O13 0.047800 0.781264 0.762416
O O14 0.985196 0.703421 0.816966
O O15 0.066387 0.500000 0.320360
O O16 0.026999 0.000000 0.148185
#
# Coordination Sequence:
#
# PCOD9186964 Si02
#       6
#     8   8   8   8   8   8
#     4   9  18  32  51  76 108 147 193 237 279 332
#     4   9  19  38  62  86 115 151 189 230 284 348
#     4  11  22  38  60  87 116 152 192 236 286 339
#     4  10  19  35  57  80 111 152 194 234 283 338
#     4  10  20  37  61  87 115 153 192 231 284 343
#     4  11  21  34  55  82 112 150 193 238 284 333
#
# _framework density 22.242014999999999
#
# number of rings (size 3 to 8) (size 9 to 14) (size 15 to 20)
#    0.000    2.000    1.667    2.500    0.000    4.000 
#    0.000    0.833    0.000    7.000    0.000    0.000 
#    0.000    0.000    0.000    0.000    0.000    0.000 
#
# Total GULP energy -134096.752324 kJ/mol
# GULP energy per Si atom -5587.364680 kJ/mol
# Density = 2.219139 g / cm^3
# Si number density = 22.242015 Si / 1000 Ang^3
#
#
#
# Elastic Constant Matrix: (Units=GPa)
#
#
# Indices 1 2 3 4 5 6 
#
# 1 142.1027 -5.4801 48.7219 0.0000 18.3944 0.0002
# 2 -5.4801 50.1612 8.2807 0.0000 0.1804 -0.0001
# 3 48.7219 8.2807 124.2914 0.0000 23.2884 0.0002
# 4 0.0000 0.0000 0.0000 2.1216 0.0000 7.1600
# 5 18.3944 0.1804 23.2884 0.0000 19.4989 0.0000
# 6 0.0002 -0.0001 0.0002 7.1600 0.0000 -32.1606
#
#
#
# Elastic Compliance Matrix: (Units=1/GPa)
#
#
# Indices 1 2 3 4 5 6 
#
# 1 0.008615 0.001373 -0.002504 0.000000 -0.005150 0.000000
# 2 0.001373 0.020427 -0.002088 0.000000 0.001010 0.000000
# 3 -0.002504 -0.002088 0.011234 0.000000 -0.011036 0.000000
# 4 0.000000 0.000000 0.000000 0.269135 0.000000 0.059918
# 5 -0.005150 0.001010 -0.011036 0.000000 0.069314 0.000000
# 6 0.000000 0.000000 0.000000 0.059918 0.000000 -0.017754
#
#
# Mechanical properties :
#
#
# Convention : Reuss Voigt Hill
#
# Bulk Modulus (GPa) = 29.55265 46.62226 38.08746
# Shear Modulus (GPa) = 13.20348 15.56082 14.38215
#
# Velocity S-wave (km/s) = 2.43909 2.64789 2.54563
# Velocity P-wave (km/s) = 4.60955 5.50956 5.07953
#
# Compressibility (1/GPa) = 0.03383791
#
# Stress axis : x y z
#
# Youngs Moduli (GPa) = 116.07480 48.95513 89.01542
#
# Poissons Ratio (x) = -0.06722 0.22287
# Poissons Ratio (y) = -0.15938 0.18590
# Poissons Ratio (z) = 0.29062 0.10224
#
# Static dielectric constant tensor:
#      x y z
#    x 1.801760 0.000000 0.006300 
#    y 0.000000 1.841340 0.000000 
#    z 0.006300 0.000000 1.816710 
# 
# From -- ./inp_files/308594.got.cif
#   From: 2010.05.17/outbox.cif.g08.bks.cpg/sg12_155_cif.got.tgz:308594.got - 2010.06.03 13:09:07.
