data_PCOD9186804
_publ_section_title
;
Structure prediction by ZEFSAII (Michael W. Deem and Ramdas Pophale) SiO2 
 PCOD9186804
Probable space group: C 2/M
;
_chemical_formula_sum "Si O2"
_cell_formula_units_Z 64
_cell_length_a 26.794449
_cell_length_b 8.142208
_cell_length_c 16.397009
_cell_angle_alpha 90.000000
_cell_angle_beta 66.818895
_cell_angle_gamma 90.000000
_cell_volume 3288.459364
_symmetry_space_group_name_H-M "C 2/M"
_symmetry_group_IT_number 12
_symmetry_cell_setting 'monoclinic'
loop_
_space_group_symop_operation_xyz
x,y,z
-x,y,-z
-x,-y,-z
x,-y,z
1/2+x,1/2+y,z
1/2-x,1/2+y,-z
1/2-x,1/2-y,-z
1/2+x,1/2-y,z
loop_
_atom_site_type_symbol
_atom_site_label
_atom_site_fract_x
_atom_site_fract_y
_atom_site_fract_z
Si Si1 0.722337 0.196395 0.395219
Si Si2 0.455385 0.187837 0.084504
Si Si3 0.949440 0.299262 0.271451
Si Si4 0.926729 0.304229 0.794330
Si Si5 0.115583 0.813849 0.000765
Si Si6 0.330556 0.801687 0.400707
Si Si7 0.831736 0.804232 0.737953
Si Si8 0.766504 0.302868 0.078909
O O1 0.693081 0.256617 0.497154
O O2 0.785322 0.253289 0.362065
O O3 0.687503 0.251121 0.339529
O O4 0.722869 0.000000 0.395861
O O5 0.445839 0.256471 0.179468
O O6 0.473490 0.000000 0.088792
O O7 0.500000 0.274344 0.000000
O O8 0.406437 0.192132 0.053933
O O9 0.948194 0.500000 0.276964
O O10 0.892665 0.243789 0.348193
O O11 0.010357 0.250010 0.260418
O O12 0.927610 0.500000 0.804870
O O13 0.903278 0.232347 0.895070
O O14 0.886328 0.264101 0.745486
O O15 0.097984 0.000000 0.996643
O O16 0.179082 0.797922 0.945454
O O17 0.331762 0.000000 0.400608
O O18 0.781534 0.758832 0.828836
O O19 0.837291 0.000000 0.735095
O O20 0.775758 0.500000 0.077529
O O21 0.750000 0.250000 0.000000
#
# Coordination Sequence:
#
# PCOD9186804 Si02
#       8
#     8   8   8   8   8   8   8   8
#     4  10  21  38  62  90 118 149 187 234 290 347
#     4  10  19  35  56  80 110 150 197 236 279 335
#     4   9  19  36  60  86 112 149 195 239 285 336
#     4  11  21  38  61  83 112 153 197 240 283 336
#     4  12  24  36  51  78 117 155 191 236 288 339
#     4   9  19  39  64  89 117 149 188 236 288 343
#     4  11  24  40  59  85 115 151 193 237 290 344
#     4  11  23  38  57  80 110 151 195 240 283 334
#
# _framework density 19.462
#
# number of rings (size 3 to 8) (size 9 to 14) (size 15 to 20)
#    0.000    1.625    2.500    2.625    1.750    2.250 
#    0.000    1.875    0.000    3.750    0.000    0.000 
#    0.000    0.000    0.000    0.000    0.000    0.000 
#
# Total GULP energy -178332.670710 kJ/mol
# GULP energy per Si atom -5572.895960 kJ/mol
# Density = 1.941770 g / cm^3
# Si number density = 19.462000 Si / 1000 Ang^3
#
#
#
# Elastic Constant Matrix: (Units=GPa)
#
#
# Indices 1 2 3 4 5 6 
#
# 1 162.0486 18.5189 67.3246 0.0000 -6.3740 0.0000
# 2 18.5189 33.9110 13.9693 0.0000 -7.0752 0.0000
# 3 67.3246 13.9693 90.8761 0.0000 -0.8942 0.0000
# 4 0.0000 0.0000 0.0000 17.1381 0.0000 4.0565
# 5 -6.3740 -7.0752 -0.8942 0.0000 36.1085 0.0000
# 6 0.0000 0.0000 0.0000 4.0565 0.0000 31.9674
#
#
#
# Elastic Compliance Matrix: (Units=1/GPa)
#
#
# Indices 1 2 3 4 5 6 
#
# 1 0.009122 -0.002120 -0.006422 0.000000 0.001036 0.000000
# 2 -0.002120 0.033355 -0.003497 0.000000 0.006075 0.000000
# 3 -0.006422 -0.003497 0.016285 0.000000 -0.001416 0.000000
# 4 0.000000 0.000000 0.000000 0.060156 0.000000 -0.007633
# 5 0.001036 0.006075 -0.001416 0.000000 0.029032 0.000000
# 6 0.000000 0.000000 0.000000 -0.007633 0.000000 0.032250
#
#
# Mechanical properties :
#
#
# Convention : Reuss Voigt Hill
#
# Bulk Modulus (GPa) = 28.83144 54.05125 41.44135
# Shear Modulus (GPa) = 23.16529 29.51099 26.33814
#
# Velocity S-wave (km/s) = 3.45379 3.89824 3.68273
# Velocity P-wave (km/s) = 5.54538 6.93504 6.27877
#
# Compressibility (1/GPa) = 0.03468435
#
# Stress axis : x y z
#
# Youngs Moduli (GPa) = 109.62462 29.98086 61.40553
#
# Poissons Ratio (x) = 0.06356 0.39434
# Poissons Ratio (y) = 0.23241 0.21472
# Poissons Ratio (z) = 0.70400 0.10484
#
# Static dielectric constant tensor:
#      x y z
#    x 1.695890 0.000000 -0.009380 
#    y 0.000000 1.704840 0.000000 
#    z -0.009380 0.000000 1.669150 
# 
# From -- ./inp_files/243799.got.cif
#   From: 2010.05.17/outbox.cif.g08.bks.cpg/sg12_122_cif.got.tgz:243799.got - 2010.06.03 13:09:07.
