data_PCOD9186065
_publ_section_title
;
Structure prediction by ZEFSAII (Michael W. Deem and Ramdas Pophale) SiO2 
 PCOD9186065
Probable space group: C 2/M
;
_chemical_formula_sum "Si O2"
_cell_formula_units_Z 48
_cell_length_a 20.600810
_cell_length_b 7.799824
_cell_length_c 14.515878
_cell_angle_alpha 90.000000
_cell_angle_beta 92.500120
_cell_angle_gamma 90.000000
_cell_volume 2330.230169
_symmetry_space_group_name_H-M "C 2/M"
_symmetry_group_IT_number 12
_symmetry_cell_setting 'monoclinic'
loop_
_space_group_symop_operation_xyz
x,y,z
-x,y,-z
-x,-y,-z
x,-y,z
1/2+x,1/2+y,z
1/2-x,1/2+y,-z
1/2-x,1/2-y,-z
1/2+x,1/2-y,z
loop_
_atom_site_type_symbol
_atom_site_label
_atom_site_fract_x
_atom_site_fract_y
_atom_site_fract_z
Si Si1 0.266081 0.205110 0.264226
Si Si2 0.930934 0.709903 0.955065
Si Si3 0.554674 0.197039 0.436607
Si Si4 0.310297 0.206004 0.068063
Si Si5 0.318021 0.696112 0.459568
Si Si6 0.886781 0.707746 0.748831
O O1 0.294338 0.269613 0.169083
O O2 0.305973 0.283041 0.350777
O O3 0.189126 0.244087 0.265334
O O4 0.272996 0.000000 0.269865
O O5 0.930249 0.500000 0.953338
O O6 0.914395 0.765036 0.849642
O O7 0.874692 0.768737 0.021121
O O8 0.000000 0.763573 0.000000
O O9 0.500000 0.276852 0.500000
O O10 0.622217 0.198569 0.496543
O O11 0.572084 0.271279 0.336934
O O12 0.533762 0.000000 0.418284
O O13 0.315406 0.000000 0.074632
O O14 0.250000 0.250000 0.000000
O O15 0.331409 0.500000 0.484634
O O16 0.250000 0.750000 0.500000
O O17 0.888827 0.500000 0.747142
#
# Coordination Sequence:
#
# PCOD9186065 Si02
#       6
#     8   8   8   8   8   8
#     4  11  22  35  57  88 119 154 195 245 298 351
#     4   9  18  33  55  84 115 150 195 239 283 341
#     4  10  22  39  60  89 123 158 198 245 296 355
#     4  10  20  34  56  85 114 148 191 240 290 340
#     4  12  24  39  61  88 118 154 200 249 298 353
#     4  10  19  34  59  84 113 157 197 238 293 351
#
# _framework density 20.598822999999999
#
# number of rings (size 3 to 8) (size 9 to 14) (size 15 to 20)
#    0.000    1.667    3.333    2.000    0.000    2.333 
#    0.000    5.000    0.000    2.000    0.000    0.000 
#    0.000    0.000    0.000    0.000    0.000    0.000 
#
# Total GULP energy -134051.978821 kJ/mol
# GULP energy per Si atom -5585.499118 kJ/mol
# Density = 2.055194 g / cm^3
# Si number density = 20.598823 Si / 1000 Ang^3
#
#
#
# Elastic Constant Matrix: (Units=GPa)
#
#
# Indices 1 2 3 4 5 6 
#
# 1 124.5388 -9.1417 54.2941 0.0000 -27.8119 0.0000
# 2 -9.1417 42.2112 -3.0933 0.0000 -6.8062 0.0000
# 3 54.2941 -3.0933 165.2874 0.0000 -31.4556 0.0000
# 4 0.0000 0.0000 0.0000 13.9051 0.0000 4.5880
# 5 -27.8119 -6.8062 -31.4556 0.0000 40.3472 0.0000
# 6 0.0000 0.0000 0.0000 4.5880 0.0000 18.1595
#
#
#
# Elastic Compliance Matrix: (Units=1/GPa)
#
#
# Indices 1 2 3 4 5 6 
#
# 1 0.010601 0.003107 -0.002271 0.000000 0.006061 0.000000
# 2 0.003107 0.025564 0.000806 0.000000 0.007082 0.000000
# 3 -0.002271 0.000806 0.007678 0.000000 0.004557 0.000000
# 4 0.000000 0.000000 0.000000 0.078456 0.000000 -0.019822
# 5 0.006061 0.007082 0.004557 0.000000 0.033710 0.000000
# 6 0.000000 0.000000 0.000000 -0.019822 0.000000 0.060076
#
#
# Mechanical properties :
#
#
# Convention : Reuss Voigt Hill
#
# Bulk Modulus (GPa) = 21.21904 46.23950 33.72927
# Shear Modulus (GPa) = 21.88076 33.81426 27.84751
#
# Velocity S-wave (km/s) = 3.26273 4.05602 3.68081
# Velocity P-wave (km/s) = 4.95150 6.66569 5.87149
#
# Compressibility (1/GPa) = 0.04712749
#
# Stress axis : x y z
#
# Youngs Moduli (GPa) = 94.32875 39.11717 130.23853
#
# Poissons Ratio (x) = -0.12153 0.29572
# Poissons Ratio (y) = -0.29307 -0.10493
# Poissons Ratio (z) = 0.21419 -0.03152
#
# Static dielectric constant tensor:
#      x y z
#    x 1.652740 0.000000 -0.066940 
#    y 0.000000 1.765390 0.000000 
#    z -0.066940 0.000000 1.780660 
# 
# From -- ./inp_files/221684.got.cif
#   From: 2010.05.17/outbox.cif.g08.bks.cpg/sg12_111_cif.got.tgz:221684.got - 2010.06.03 13:09:07.
