data_PCOD9186683
_publ_section_title
;
Structure prediction by ZEFSAII (Michael W. Deem and Ramdas Pophale) SiO2 
 PCOD9186683
Probable space group: C 2/M
;
_chemical_formula_sum "Si O2"
_cell_formula_units_Z 58
_cell_length_a 26.337199
_cell_length_b 12.635567
_cell_length_c 9.320268
_cell_angle_alpha 90.000000
_cell_angle_beta 94.530280
_cell_angle_gamma 90.000000
_cell_volume 3091.959121
_symmetry_space_group_name_H-M "C 2/M"
_symmetry_group_IT_number 12
_symmetry_cell_setting 'monoclinic'
loop_
_space_group_symop_operation_xyz
x,y,z
-x,y,-z
-x,-y,-z
x,-y,z
1/2+x,1/2+y,z
1/2-x,1/2+y,-z
1/2-x,1/2-y,-z
1/2+x,1/2-y,z
loop_
_atom_site_type_symbol
_atom_site_label
_atom_site_fract_x
_atom_site_fract_y
_atom_site_fract_z
Si Si1 0.620297 0.615917 0.954782
Si Si2 0.961018 0.779927 0.868421
Si Si3 0.500000 0.500000 0.500000
Si Si4 0.608727 0.876587 0.625880
Si Si5 0.692405 0.209377 0.863997
Si Si6 0.950367 0.170677 0.319706
Si Si7 0.772794 0.620046 0.842227
Si Si8 0.380734 0.122360 0.709220
O O1 0.642836 0.500000 0.980194
O O2 0.660055 0.710736 0.958123
O O3 0.592689 0.625124 0.794913
O O4 0.576406 0.638258 0.060874
O O5 0.924464 0.694049 0.788434
O O6 0.997390 0.832568 0.759300
O O7 0.000000 0.737248 0.000000
O O8 0.458206 0.593406 0.452822
O O9 0.654981 0.847184 0.743635
O O10 0.564447 0.791355 0.648874
O O11 0.623359 0.860819 0.462675
O O12 0.594462 0.000000 0.643201
O O13 0.732903 0.287172 0.797611
O O14 0.717946 0.131098 0.984091
O O15 0.755513 0.500000 0.805182
O O16 0.826152 0.637875 0.772496
O O17 0.394917 0.000000 0.735444
#
# Coordination Sequence:
#
# PCOD9186683 Si02
#       8
#     8   8   2   8   8   8   8   8
#     4  10  19  35  55  81 113 148 192 240 290 341
#     4  10  21  36  55  84 113 151 198 240 289 341
#     4  12  20  36  52  80 116 156 200 236 292 344
#     4  10  22  41  61  85 120 157 196 242 294 347
#     4  10  20  36  61  89 113 152 191 239 291 352
#     4  10  22  34  56  82 113 154 195 241 284 343
#     4  10  20  36  60  88 117 147 190 238 292 349
#     4  10  21  38  58  84 118 154 190 239 291 344
#
# _framework density 18.758331999999999
#
# number of rings (size 3 to 8) (size 9 to 14) (size 15 to 20)
#    0.000    1.931    2.069    1.655    0.966    2.207 
#    0.000    1.724    0.000    0.000    0.000    0.000 
#    0.000    0.000    0.000    0.000    0.000    0.000 
#
# Total GULP energy -161434.607233 kJ/mol
# GULP energy per Si atom -5566.710594 kJ/mol
# Density = 1.871564 g / cm^3
# Si number density = 18.758332 Si / 1000 Ang^3
#
#
#
# Elastic Constant Matrix: (Units=GPa)
#
#
# Indices 1 2 3 4 5 6 
#
# 1 33.6616 8.9303 -1.3737 0.0000 0.9809 0.0000
# 2 8.9303 97.0405 22.0400 0.0000 8.8740 0.0000
# 3 -1.3737 22.0400 54.3555 0.0000 6.2861 0.0000
# 4 0.0000 0.0000 0.0000 -0.9463 0.0000 13.3739
# 5 0.9809 8.8740 6.2861 0.0000 21.1271 0.0000
# 6 0.0000 0.0000 0.0000 13.3739 0.0000 19.1086
#
#
#
# Elastic Compliance Matrix: (Units=1/GPa)
#
#
# Indices 1 2 3 4 5 6 
#
# 1 0.030680 -0.003253 0.002176 0.000000 -0.000705 0.000000
# 2 -0.003253 0.011954 -0.004522 0.000000 -0.003524 0.000000
# 3 0.002176 -0.004522 0.020793 0.000000 -0.004389 0.000000
# 4 0.000000 0.000000 0.000000 -0.097025 0.000000 0.067907
# 5 -0.000705 -0.003524 -0.004389 0.000000 0.050152 0.000000
# 6 0.000000 0.000000 0.000000 0.067907 0.000000 0.004805
#
#
# Mechanical properties :
#
#
# Convention : Reuss Voigt Hill
#
# Bulk Modulus (GPa) = 19.14626 27.13898 23.14262
# Shear Modulus (GPa) = 100.07016 18.22194 59.14605
#
# Velocity S-wave (km/s) = 7.31183 3.12012 5.62130
# Velocity P-wave (km/s) = 9.02844 5.24207 7.38214
#
# Compressibility (1/GPa) = 0.05222953
#
# Stress axis : x y z
#
# Youngs Moduli (GPa) = 32.59471 83.65698 48.09238
#
# Poissons Ratio (x) = 0.27214 -0.10465
# Poissons Ratio (y) = 0.10603 0.21745
# Poissons Ratio (z) = -0.07093 0.37826
#
# Static dielectric constant tensor:
#      x y z
#    x 1.653920 0.000000 -0.006010 
#    y 0.000000 1.694620 0.000000 
#    z -0.006010 0.000000 1.661790 
# 
# From -- ./inp_files/103208.got.cif
#   From: 2010.05.17/outbox.cif.g08.bks.cpg/sg12_52_cif.got.tgz:103208.got - 2010.06.03 13:09:07.
