data_PCOD9186719
_publ_section_title
;
Structure prediction by ZEFSAII (Michael W. Deem and Ramdas Pophale) SiO2 
 PCOD9186719
Probable space group: C 2/M
;
_chemical_formula_sum "Si O2"
_cell_formula_units_Z 60
_cell_length_a 23.125211
_cell_length_b 9.422209
_cell_length_c 22.442864
_cell_angle_alpha 90.000000
_cell_angle_beta 149.684645
_cell_angle_gamma 90.000000
_cell_volume 2468.316118
_symmetry_space_group_name_H-M "C 2/M"
_symmetry_group_IT_number 12
_symmetry_cell_setting 'monoclinic'
loop_
_space_group_symop_operation_xyz
x,y,z
-x,y,-z
-x,-y,-z
x,-y,z
1/2+x,1/2+y,z
1/2-x,1/2+y,-z
1/2-x,1/2-y,-z
1/2+x,1/2-y,z
loop_
_atom_site_type_symbol
_atom_site_label
_atom_site_fract_x
_atom_site_fract_y
_atom_site_fract_z
Si Si1 0.587793 0.165744 0.684459
Si Si2 0.687794 0.338827 0.363155
Si Si3 0.654668 0.775460 0.979950
Si Si4 0.628179 0.336928 0.540072
Si Si5 0.028312 0.835128 0.102828
Si Si6 0.790806 0.000000 0.047016
Si Si7 0.481481 0.844475 0.720502
Si Si8 0.217931 0.334274 0.202698
O O1 0.485603 0.243109 0.558208
O O2 0.546991 0.170855 0.716796
O O3 0.703970 0.249023 0.774491
O O4 0.599753 0.000000 0.678483
O O5 0.725006 0.500000 0.406612
O O6 0.791218 0.236531 0.437625
O O7 0.605232 0.340275 0.231723
O O8 0.609936 0.276470 0.346378
O O9 0.579965 0.758128 0.972620
O O10 0.572102 0.843274 0.855314
O O11 0.762483 0.876977 0.071740
O O12 0.684013 0.622236 0.980796
O O13 0.599714 0.500000 0.500054
O O14 0.700952 0.336723 0.665618
O O15 0.108102 0.757524 0.125666
O O16 0.000275 0.000000 0.064600
O O17 0.425685 0.000000 0.672147
O O18 0.193311 0.500000 0.166428
#
# Coordination Sequence:
#
# PCOD9186719 Si02
#       8
#     8   8   8   8   8   4   8   8
#     4  11  23  36  51  73 101 143 186 220 266 308
#     4   9  18  31  52  77 101 138 178 216 264 311
#     4  10  19  35  55  88 116 137 164 207 252 318
#     4  10  20  35  53  74 104 135 178 233 273 306
#     4   9  17  31  52  78 109 137 170 211 256 304
#     4  10  20  32  58  88 116 136 162 200 262 312
#     4  10  21  36  52  73 110 145 173 211 258 318
#     4  10  21  35  53  76 101 137 183 228 267 299
#
# _framework density 24.308071000000002
#
# number of rings (size 3 to 8) (size 9 to 14) (size 15 to 20)
#    0.000    2.133    1.333    2.000    1.867    6.400 
#    0.000    0.000    0.000    0.000    0.000    5.600 
#    0.000    0.000    0.000    0.000    0.000    0.000 
#
# Total GULP energy -167476.649822 kJ/mol
# GULP energy per Si atom -5582.554994 kJ/mol
# Density = 2.425275 g / cm^3
# Si number density = 24.308071 Si / 1000 Ang^3
#
#
#
# Elastic Constant Matrix: (Units=GPa)
#
#
# Indices 1 2 3 4 5 6 
#
# 1 147.5149 63.0792 -0.8470 0.0000 16.9908 0.0000
# 2 63.0792 200.0366 5.3420 0.0000 17.7062 0.0000
# 3 -0.8470 5.3420 64.7297 0.0000 -0.6003 0.0000
# 4 0.0000 0.0000 0.0000 121.2247 0.0000 16.0480
# 5 16.9908 17.7062 -0.6003 0.0000 40.1331 0.0000
# 6 0.0000 0.0000 0.0000 16.0480 0.0000 29.2286
#
#
#
# Elastic Compliance Matrix: (Units=1/GPa)
#
#
# Indices 1 2 3 4 5 6 
#
# 1 0.008053 -0.002337 0.000276 0.000000 -0.002374 0.000000
# 2 -0.002337 0.005893 -0.000532 0.000000 -0.001619 0.000000
# 3 0.000276 -0.000532 0.015500 0.000000 0.000350 0.000000
# 4 0.000000 0.000000 0.000000 0.008896 0.000000 -0.004884
# 5 -0.002374 -0.001619 0.000350 0.000000 0.026642 0.000000
# 6 0.000000 0.000000 0.000000 -0.004884 0.000000 0.036895
#
#
# Mechanical properties :
#
#
# Convention : Reuss Voigt Hill
#
# Bulk Modulus (GPa) = 41.21782 60.82552 51.02167
# Shear Modulus (GPa) = 43.42140 61.09774 52.25957
#
# Velocity S-wave (km/s) = 4.23104 5.01890 4.64172
# Velocity P-wave (km/s) = 6.39236 7.65917 7.05426
#
# Compressibility (1/GPa) = 0.02426135
#
# Stress axis : x y z
#
# Youngs Moduli (GPa) = 124.17352 169.68045 64.51777
#
# Poissons Ratio (x) = 0.39649 -0.01782
# Poissons Ratio (y) = 0.29016 0.03432
# Poissons Ratio (z) = -0.03430 0.09026
#
# Static dielectric constant tensor:
#      x y z
#    x 1.942030 0.000000 -0.044490 
#    y 0.000000 1.857950 0.000000 
#    z -0.044490 0.000000 2.050600 
# 
# From -- ./inp_files/365501.got.cif
#   From: 2010.05.17/outbox.cif.g08.bks.cpg/sg12_183_cif.got.tgz:365501.got - 2010.06.03 13:09:07.
