data_PCOD9186648
_publ_section_title
;
Structure prediction by ZEFSAII (Michael W. Deem and Ramdas Pophale) SiO2 
 PCOD9186648
Probable space group: C 2/M
;
_chemical_formula_sum "Si O2"
_cell_formula_units_Z 56
_cell_length_a 23.971181
_cell_length_b 9.064151
_cell_length_c 15.166882
_cell_angle_alpha 90.000000
_cell_angle_beta 61.489291
_cell_angle_gamma 90.000000
_cell_volume 2895.791526
_symmetry_space_group_name_H-M "C 2/M"
_symmetry_group_IT_number 12
_symmetry_cell_setting 'monoclinic'
loop_
_space_group_symop_operation_xyz
x,y,z
-x,y,-z
-x,-y,-z
x,-y,z
1/2+x,1/2+y,z
1/2-x,1/2+y,-z
1/2-x,1/2-y,-z
1/2+x,1/2-y,z
loop_
_atom_site_type_symbol
_atom_site_label
_atom_site_fract_x
_atom_site_fract_y
_atom_site_fract_z
Si Si1 0.252235 0.171862 0.777253
Si Si2 0.934432 0.323064 0.819714
Si Si3 0.121269 0.829955 0.301606
Si Si4 0.187900 0.825238 0.001904
Si Si5 0.290374 0.675002 0.390583
Si Si6 0.930811 0.662115 0.508762
Si Si7 0.924909 0.327643 0.303485
O O1 0.307143 0.280227 0.767982
O O2 0.195798 0.189575 0.890151
O O3 0.237571 0.201227 0.686255
O O4 0.272915 0.000000 0.769950
O O5 0.929855 0.500000 0.827274
O O6 0.921597 0.269272 0.729667
O O7 0.007108 0.281375 0.788506
O O8 0.877347 0.248846 0.916885
O O9 0.107095 0.788632 0.413130
O O10 0.110063 0.000000 0.291823
O O11 0.187789 0.000000 0.023531
O O12 0.250000 0.750000 0.000000
O O13 0.289835 0.500000 0.406624
O O14 0.250000 0.750000 0.500000
O O15 0.362244 0.734878 0.332045
O O16 0.901570 0.500000 0.548896
O O17 0.933631 0.679609 0.402657
O O18 0.000000 0.662720 0.500000
O O19 0.913907 0.500000 0.289055
#
# Coordination Sequence:
#
# PCOD9186648 Si02
#       7
#     8   8   8   8   8   8   8
#     4  10  23  42  62  84 120 165 203 243 307 374
#     4  11  22  39  60  86 123 162 198 244 308 372
#     4  12  23  33  54  89 122 153 197 252 303 356
#     4  11  22  38  62  92 123 160 206 254 307 366
#     4  11  24  43  66  91 121 163 207 253 303 361
#     4  10  19  35  55  78 114 159 197 233 297 372
#     4  10  22  40  62  86 118 163 205 250 307 363
#
# _framework density 19.338408999999999
#
# number of rings (size 3 to 8) (size 9 to 14) (size 15 to 20)
#    0.000    1.286    2.857    3.429    0.000    7.143 
#    0.000    0.714    0.000    4.286    0.000    0.000 
#    0.000    0.000    0.000    0.000    0.000    0.000 
#
# Total GULP energy -156325.677936 kJ/mol
# GULP energy per Si atom -5583.059926 kJ/mol
# Density = 1.929439 g / cm^3
# Si number density = 19.338409 Si / 1000 Ang^3
#
#
#
# Elastic Constant Matrix: (Units=GPa)
#
#
# Indices 1 2 3 4 5 6 
#
# 1 81.0469 45.0339 29.0050 0.0000 -23.8722 0.0000
# 2 45.0339 79.3367 48.2054 0.0000 -14.9859 0.0000
# 3 29.0050 48.2054 111.0247 0.0000 -22.8227 0.0000
# 4 0.0000 0.0000 0.0000 31.4806 0.0000 -4.5428
# 5 -23.8722 -14.9859 -22.8227 0.0000 33.8062 0.0000
# 6 0.0000 0.0000 0.0000 -4.5428 0.0000 25.4601
#
#
#
# Elastic Compliance Matrix: (Units=1/GPa)
#
#
# Indices 1 2 3 4 5 6 
#
# 1 0.021048 -0.010728 0.001436 0.000000 0.011077 0.000000
# 2 -0.010728 0.022853 -0.007657 0.000000 -0.002615 0.000000
# 3 0.001436 -0.007657 0.013315 0.000000 0.006609 0.000000
# 4 0.000000 0.000000 0.000000 0.032605 0.000000 0.005818
# 5 0.011077 -0.002615 0.006609 0.000000 0.040705 0.000000
# 6 0.000000 0.000000 0.000000 0.005818 0.000000 0.040315
#
#
# Mechanical properties :
#
#
# Convention : Reuss Voigt Hill
#
# Bulk Modulus (GPa) = 42.88491 57.32186 50.10338
# Shear Modulus (GPa) = 23.52808 28.09364 25.81086
#
# Velocity S-wave (km/s) = 3.49184 3.81561 3.65731
# Velocity P-wave (km/s) = 6.20334 7.00840 6.61812
#
# Compressibility (1/GPa) = 0.02331823
#
# Stress axis : x y z
#
# Youngs Moduli (GPa) = 47.50965 43.75864 75.10348
#
# Poissons Ratio (x) = 0.46944 -0.10786
# Poissons Ratio (y) = 0.50968 0.57508
# Poissons Ratio (z) = -0.06823 0.33506
#
# Static dielectric constant tensor:
#      x y z
#    x 1.675560 0.000000 -0.017940 
#    y 0.000000 1.666860 0.000000 
#    z -0.017940 0.000000 1.725840 
# 
# From -- ./inp_files/238405.got.cif
#   From: 2010.05.17/outbox.cif.g08.bks.cpg/sg12_120_cif.got.tgz:238405.got - 2010.06.03 13:09:07.
