data_PCOD9186590
_publ_section_title
;
Structure prediction by ZEFSAII (Michael W. Deem and Ramdas Pophale) SiO2 
 PCOD9186590
Probable space group: C 2/M
;
_chemical_formula_sum "Si O2"
_cell_formula_units_Z 56
_cell_length_a 19.245888
_cell_length_b 11.282736
_cell_length_c 13.596649
_cell_angle_alpha 90.000000
_cell_angle_beta 77.267428
_cell_angle_gamma 90.000000
_cell_volume 2879.858876
_symmetry_space_group_name_H-M "C 2/M"
_symmetry_group_IT_number 12
_symmetry_cell_setting 'monoclinic'
loop_
_space_group_symop_operation_xyz
x,y,z
-x,y,-z
-x,-y,-z
x,-y,z
1/2+x,1/2+y,z
1/2-x,1/2+y,-z
1/2-x,1/2-y,-z
1/2+x,1/2-y,z
loop_
_atom_site_type_symbol
_atom_site_label
_atom_site_fract_x
_atom_site_fract_y
_atom_site_fract_z
Si Si1 0.414038 0.637575 0.022263
Si Si2 0.312015 0.793424 0.356329
Si Si3 0.580779 0.268938 0.374617
Si Si4 0.836372 0.137066 0.836630
Si Si5 0.072186 0.864585 0.587770
Si Si6 0.813102 0.624427 0.573424
Si Si7 0.828160 0.637440 0.132970
O O1 0.397119 0.500000 0.061814
O O2 0.378693 0.752357 0.086136
O O3 0.500000 0.647638 0.000000
O O4 0.381860 0.645966 0.922098
O O5 0.367266 0.687744 0.362018
O O6 0.235292 0.731721 0.374946
O O7 0.313967 0.868628 0.455481
O O8 0.327411 0.860172 0.251740
O O9 0.624285 0.295227 0.262992
O O10 0.594366 0.354122 0.465675
O O11 0.497886 0.284804 0.379465
O O12 0.608554 0.145139 0.408563
O O13 0.752915 0.167870 0.876085
O O14 0.835788 0.000000 0.805552
O O15 0.054897 0.000000 0.615874
O O16 0.782574 0.500000 0.615837
O O17 0.844868 0.500000 0.095832
#
# Coordination Sequence:
#
# PCOD9186590 Si02
#       7
#     8   8   8   8   8   8   8
#     4  10  24  44  67  94 120 149 196 256 311 359
#     4  10  21  36  56  87 119 157 203 246 291 353
#     4  10  19  35  54  86 120 154 201 241 295 355
#     4  10  20  38  63  87 119 158 196 245 300 357
#     4  10  20  33  56  87 119 159 202 248 293 345
#     4  10  20  36  55  83 123 163 200 244 296 351
#     4  11  23  41  64  90 121 161 201 242 303 369
#
# _framework density 19.445398000000001
#
# number of rings (size 3 to 8) (size 9 to 14) (size 15 to 20)
#    0.000    1.857    1.429    3.000    2.000    1.429 
#    0.000    7.143    0.000    0.000    0.000    0.000 
#    0.000    0.000    0.000    0.000    0.000    0.000 
#
# Total GULP energy -155998.515854 kJ/mol
# GULP energy per Si atom -5571.375566 kJ/mol
# Density = 1.940114 g / cm^3
# Si number density = 19.445398 Si / 1000 Ang^3
#
#
#
# Elastic Constant Matrix: (Units=GPa)
#
#
# Indices 1 2 3 4 5 6 
#
# 1 108.0441 38.0464 20.3022 0.0000 -0.2771 0.0000
# 2 38.0464 101.4583 35.1510 0.0000 -18.6555 0.0000
# 3 20.3022 35.1510 53.2982 0.0000 -2.8021 0.0000
# 4 0.0000 0.0000 0.0000 4.1715 0.0000 -7.6479
# 5 -0.2771 -18.6555 -2.8021 0.0000 20.5971 0.0000
# 6 0.0000 0.0000 0.0000 -7.6479 0.0000 17.4799
#
#
#
# Elastic Compliance Matrix: (Units=1/GPa)
#
#
# Indices 1 2 3 4 5 6 
#
# 1 0.011069 -0.004345 -0.001561 0.000000 -0.003999 0.000000
# 2 -0.004345 0.017219 -0.008948 0.000000 0.014320 0.000000
# 3 -0.001561 -0.008948 0.025010 0.000000 -0.004723 0.000000
# 4 0.000000 0.000000 0.000000 1.211669 0.000000 0.530137
# 5 -0.003999 0.014320 -0.004723 0.000000 0.060824 0.000000
# 6 0.000000 0.000000 0.000000 0.530137 0.000000 0.289157
#
#
# Mechanical properties :
#
#
# Convention : Reuss Voigt Hill
#
# Bulk Modulus (GPa) = 42.39201 49.97774 46.18487
# Shear Modulus (GPa) = 3.02568 19.73643 11.38106
#
# Velocity S-wave (km/s) = 1.24875 3.18931 2.42189
# Velocity P-wave (km/s) = 4.89153 6.27054 5.62346
#
# Compressibility (1/GPa) = 0.02358935
#
# Stress axis : x y z
#
# Youngs Moduli (GPa) = 90.34543 58.07556 39.98406
#
# Poissons Ratio (x) = 0.25236 0.06240
# Poissons Ratio (y) = 0.39258 0.35778
# Poissons Ratio (z) = 0.14100 0.51967
#
# Static dielectric constant tensor:
#      x y z
#    x 1.690790 0.000000 -0.015220 
#    y 0.000000 1.684830 0.000000 
#    z -0.015220 0.000000 1.668690 
# 
# From -- ./inp_files/164848.got.cif
#   From: 2010.05.17/outbox.cif.g08.bks.cpg/sg12_83_cif.got.tgz:164848.got - 2010.06.03 13:09:07.
