data_PCOD9186446
_publ_section_title
;
Structure prediction by ZEFSAII (Michael W. Deem and Ramdas Pophale) SiO2 
 PCOD9186446
Probable space group: C 2/M
;
_chemical_formula_sum "Si O2"
_cell_formula_units_Z 44
_cell_length_a 12.292971
_cell_length_b 20.700129
_cell_length_c 11.925125
_cell_angle_alpha 90.000000
_cell_angle_beta 133.444718
_cell_angle_gamma 90.000000
_cell_volume 2203.191853
_symmetry_space_group_name_H-M "C 2/M"
_symmetry_group_IT_number 12
_symmetry_cell_setting 'monoclinic'
loop_
_space_group_symop_operation_xyz
x,y,z
-x,y,-z
-x,-y,-z
x,-y,z
1/2+x,1/2+y,z
1/2-x,1/2+y,-z
1/2-x,1/2-y,-z
1/2+x,1/2-y,z
loop_
_atom_site_type_symbol
_atom_site_label
_atom_site_fract_x
_atom_site_fract_y
_atom_site_fract_z
Si Si1 0.418980 0.572991 0.693069
Si Si2 0.653139 0.823899 0.551007
Si Si3 0.237842 0.694395 0.251595
Si Si4 0.000000 0.896775 0.500000
Si Si5 0.524196 0.202949 0.796332
Si Si6 0.170848 0.164628 0.937148
O O1 0.382722 0.500000 0.702829
O O2 0.278487 0.622171 0.610954
O O3 0.475050 0.570088 0.602619
O O4 0.561833 0.603793 0.859334
O O5 0.500000 0.850014 0.500000
O O6 0.724181 0.767013 0.678747
O O7 0.583831 0.791991 0.388096
O O8 0.358588 0.649592 0.395136
O O9 0.264445 0.680458 0.140740
O O10 0.077552 0.671763 0.180921
O O11 0.568489 0.272281 0.879306
O O12 0.679723 0.165991 0.882343
#
# Coordination Sequence:
#
# PCOD9186446 Si02
#       6
#     8   8   8   4   8   8
#     4  11  23  40  59  82 119 162 201 234 281 356
#     4  12  21  36  60  89 119 153 197 242 291 341
#     4  11  18  33  59  91 118 142 186 253 306 340
#     4  10  19  34  64  88 109 146 196 248 296 330
#     4  11  20  35  57  91 119 144 191 252 304 342
#     4  10  22  35  58  89 117 154 188 242 307 347
#
# _framework density 19.971025000000001
#
# number of rings (size 3 to 8) (size 9 to 14) (size 15 to 20)
#    0.000    1.091    6.364    2.455    0.000    0.364 
#    0.000    1.818    0.000    3.273    0.000    0.000 
#    0.000    0.000    0.000    0.000    0.000    0.000 
#
# Total GULP energy -122609.444496 kJ/mol
# GULP energy per Si atom -5573.156568 kJ/mol
# Density = 1.992557 g / cm^3
# Si number density = 19.971025 Si / 1000 Ang^3
#
#
#
# Elastic Constant Matrix: (Units=GPa)
#
#
# Indices 1 2 3 4 5 6 
#
# 1 65.2812 13.6666 18.7044 0.0000 28.5213 0.0000
# 2 13.6666 102.0214 35.1517 0.0000 17.5036 0.0000
# 3 18.7044 35.1517 106.5500 0.0000 25.8377 0.0000
# 4 0.0000 0.0000 0.0000 18.5840 0.0000 5.2836
# 5 28.5213 17.5036 25.8377 0.0000 35.0434 0.0000
# 6 0.0000 0.0000 0.0000 5.2836 0.0000 17.0684
#
#
#
# Elastic Compliance Matrix: (Units=1/GPa)
#
#
# Indices 1 2 3 4 5 6 
#
# 1 0.023806 -0.000003 0.000633 0.000000 -0.019841 0.000000
# 2 -0.000003 0.011413 -0.002902 0.000000 -0.003558 0.000000
# 3 0.000633 -0.002902 0.012183 0.000000 -0.008049 0.000000
# 4 0.000000 0.000000 0.000000 0.059003 0.000000 -0.018265
# 5 -0.019841 -0.003558 -0.008049 0.000000 0.052396 0.000000
# 6 0.000000 0.000000 0.000000 -0.018265 0.000000 0.064242
#
#
# Mechanical properties :
#
#
# Convention : Reuss Voigt Hill
#
# Bulk Modulus (GPa) = 23.33262 45.43310 34.38286
# Shear Modulus (GPa) = 20.67218 27.89450 24.28334
#
# Velocity S-wave (km/s) = 3.22080 3.74136 3.49080
# Velocity P-wave (km/s) = 5.05371 6.43915 5.78803
#
# Compressibility (1/GPa) = 0.04285845
#
# Stress axis : x y z
#
# Youngs Moduli (GPa) = 42.00638 87.62274 82.08062
#
# Poissons Ratio (x) = 0.00028 -0.05198
# Poissons Ratio (y) = 0.00013 0.23817
# Poissons Ratio (z) = -0.02660 0.25425
#
# Static dielectric constant tensor:
#      x y z
#    x 1.764170 0.000000 -0.057340 
#    y 0.000000 1.704790 0.000000 
#    z -0.057340 0.000000 1.758170 
# 
# From -- ./inp_files/207800.got.cif
#   From: 2010.05.17/outbox.cif.g08.bks.cpg/sg12_104_cif.got.tgz:207800.got - 2010.06.03 13:09:07.
