data_PCOD9186750
_publ_section_title
;
Structure prediction by ZEFSAII (Michael W. Deem and Ramdas Pophale) SiO2 
 PCOD9186750
Probable space group: C 2/M
;
_chemical_formula_sum "Si O2"
_cell_formula_units_Z 48
_cell_length_a 7.078704
_cell_length_b 14.910402
_cell_length_c 20.253071
_cell_angle_alpha 90.000000
_cell_angle_beta 104.727751
_cell_angle_gamma 90.000000
_cell_volume 2067.404518
_symmetry_space_group_name_H-M "C 2/M"
_symmetry_group_IT_number 12
_symmetry_cell_setting 'monoclinic'
loop_
_space_group_symop_operation_xyz
x,y,z
-x,y,-z
-x,-y,-z
x,-y,z
1/2+x,1/2+y,z
1/2-x,1/2+y,-z
1/2-x,1/2-y,-z
1/2+x,1/2-y,z
loop_
_atom_site_type_symbol
_atom_site_label
_atom_site_fract_x
_atom_site_fract_y
_atom_site_fract_z
Si Si1 0.216012 0.131471 0.865862
Si Si2 0.896548 0.599430 0.743889
Si Si3 0.717529 0.891435 0.515978
Si Si4 0.598385 0.608577 0.611560
Si Si5 0.729487 0.642610 0.010400
Si Si6 0.263580 0.659465 0.846466
O O1 0.293924 0.090839 0.805799
O O2 0.278040 0.235359 0.862743
O O3 0.979437 0.125511 0.847966
O O4 0.289507 0.102481 0.945202
O O5 0.942702 0.500000 0.721760
O O6 0.740310 0.643948 0.681090
O O7 0.102536 0.645886 0.776372
O O8 0.500000 0.854081 0.500000
O O9 0.801169 0.876993 0.450310
O O10 0.876432 0.857725 0.583160
O O11 0.707121 0.000000 0.523679
O O12 0.584594 0.500000 0.620447
O O13 0.810829 0.618674 0.089845
O O14 0.500000 0.624234 0.000000
O O15 0.750000 0.750000 0.000000
#
# Coordination Sequence:
#
# PCOD9186750 Si02
#       6
#     8   8   8   8   8   8
#     4  10  19  35  56  77 103 139 185 227 267 319
#     4  11  23  35  51  81 118 146 171 216 279 330
#     4   8  13  25  48  71  95 133 177 212 249 301
#     4   8  16  29  43  70 108 136 166 213 259 308
#     4   8  16  28  50  77  95 126 182 235 263 302
#     4  10  19  35  56  77 103 139 185 227 267 319
#
# _framework density 23.217517000000001
#
# number of rings (size 3 to 8) (size 9 to 14) (size 15 to 20)
#    0.000    2.833    1.667    1.000    2.333    2.000 
#    0.000    5.000    0.000    3.000    0.000    4.667 
#    0.000    0.000    0.000    0.000    0.000    0.000 
#
# Total GULP energy -133872.376764 kJ/mol
# GULP energy per Si atom -5578.015699 kJ/mol
# Density = 2.316467 g / cm^3
# Si number density = 23.217517 Si / 1000 Ang^3
#
#
#
# Elastic Constant Matrix: (Units=GPa)
#
#
# Indices 1 2 3 4 5 6 
#
# 1 74.7289 -9.9817 14.4741 0.0000 31.1885 0.0000
# 2 -9.9817 37.7114 0.0153 0.0000 2.7313 0.0000
# 3 14.4741 0.0153 141.4226 0.0000 47.0243 0.0000
# 4 0.0000 0.0000 0.0000 14.4932 0.0000 5.3303
# 5 31.1885 2.7313 47.0243 0.0000 33.6059 0.0000
# 6 0.0000 0.0000 0.0000 5.3303 0.0000 -0.7902
#
#
#
# Elastic Compliance Matrix: (Units=1/GPa)
#
#
# Indices 1 2 3 4 5 6 
#
# 1 0.034141 0.012801 0.013813 0.000000 -0.052053 0.000000
# 2 0.012801 0.031611 0.006529 0.000000 -0.023585 0.000000
# 3 0.013813 0.006529 0.018880 0.000000 -0.039768 0.000000
# 4 0.000000 0.000000 0.000000 0.019823 0.000000 0.133709
# 5 -0.052053 -0.023585 -0.039768 0.000000 0.135629 0.000000
# 6 0.000000 0.000000 0.000000 0.133709 0.000000 -0.363558
#
#
# Mechanical properties :
#
#
# Convention : Reuss Voigt Hill
#
# Bulk Modulus (GPa) = 6.62618 29.20871 17.91745
# Shear Modulus (GPa) = -35.85428 26.08545 -4.88442
#
# Velocity S-wave (km/s) = -3.93399 3.35554 -1.45201
# Velocity P-wave (km/s) = 4.21603 5.25553 2.21875
#
# Compressibility (1/GPa) = 0.15091650
#
# Stress axis : x y z
#
# Youngs Moduli (GPa) = 29.29028 31.63455 52.96659
#
# Poissons Ratio (x) = -0.40496 -0.73161
# Poissons Ratio (y) = -0.37495 -0.34580
# Poissons Ratio (z) = -0.40458 -0.20653
#
# Static dielectric constant tensor:
#      x y z
#    x 1.888670 0.000000 0.039600 
#    y 0.000000 1.924370 0.000000 
#    z 0.039600 0.000000 1.905300 
# 
# From -- ./inp_files/300931.got.cif
#   From: 2010.05.17/outbox.cif.g08.bks.cpg/sg12_151_cif.got.tgz:300931.got - 2010.06.03 13:09:07.
