data_PCOD9186340
_publ_section_title
;
Structure prediction by ZEFSAII (Michael W. Deem and Ramdas Pophale) SiO2 
 PCOD9186340
Probable space group: C 2/M
;
_chemical_formula_sum "Si O2"
_cell_formula_units_Z 64
_cell_length_a 19.998224
_cell_length_b 23.340714
_cell_length_c 16.619695
_cell_angle_alpha 90.000000
_cell_angle_beta 158.845661
_cell_angle_gamma 90.000000
_cell_volume 2799.581914
_symmetry_space_group_name_H-M "C 2/M"
_symmetry_group_IT_number 12
_symmetry_cell_setting 'monoclinic'
loop_
_space_group_symop_operation_xyz
x,y,z
-x,y,-z
-x,-y,-z
x,-y,z
1/2+x,1/2+y,z
1/2-x,1/2+y,-z
1/2-x,1/2-y,-z
1/2+x,1/2-y,z
loop_
_atom_site_type_symbol
_atom_site_label
_atom_site_fract_x
_atom_site_fract_y
_atom_site_fract_z
Si Si1 0.926309 0.140438 0.590237
Si Si2 0.914369 0.733329 0.623256
Si Si3 0.406684 0.432765 0.716287
Si Si4 0.834897 0.637598 0.023125
Si Si5 0.671767 0.063283 0.846393
Si Si6 0.222191 0.807925 0.243475
Si Si7 0.205071 0.565215 0.663988
Si Si8 0.802344 0.315930 0.815571
O O1 0.987174 0.204614 0.681167
O O2 0.831650 0.108147 0.559409
O O3 0.813323 0.150239 0.381716
O O4 0.124981 0.113673 0.797053
O O5 0.750000 0.750000 0.500000
O O6 0.821037 0.703616 0.440744
O O7 0.076699 0.696911 0.845278
O O8 0.381865 0.500000 0.667364
O O9 0.322127 0.426951 0.710820
O O10 0.627676 0.417653 0.962541
O O11 0.926039 0.595482 0.189411
O O12 0.843652 0.645611 0.938517
O O13 0.511784 0.061142 0.600787
O O14 0.708109 0.000000 0.917170
O O15 0.274202 0.871559 0.273548
O O16 0.273153 0.748952 0.251759
O O17 0.000000 0.810259 0.000000
O O18 0.261486 0.500000 0.757425
O O19 0.000000 0.303981 0.000000
#
# Coordination Sequence:
#
# PCOD9186340 Si02
#       8
#     8   8   8   8   8   8   8   8
#     4  10  21  34  54  82 111 146 187 233 287 339
#     4  11  20  33  56  80 107 146 191 235 281 338
#     4   9  19  35  57  87 116 144 187 239 287 337
#     4  11  20  36  57  80 111 148 191 234 281 340
#     4   9  19  35  58  88 116 143 186 240 284 334
#     4  10  20  35  53  79 114 146 187 230 287 338
#     4  10  19  34  61  85 111 150 191 237 285 340
#     4  10  22  36  54  76 113 154 181 231 285 338
#
# _framework density 22.860557
#
# number of rings (size 3 to 8) (size 9 to 14) (size 15 to 20)
#    0.000    2.000    1.250    3.750    1.750    0.250 
#    0.000    0.625    8.250    3.750    0.000    3.500 
#    0.000    0.000    0.000    0.000    0.000    0.000 
#
# Total GULP energy -178257.777145 kJ/mol
# GULP energy per Si atom -5570.555536 kJ/mol
# Density = 2.280853 g / cm^3
# Si number density = 22.860557 Si / 1000 Ang^3
#
#
#
# Elastic Constant Matrix: (Units=GPa)
#
#
# Indices 1 2 3 4 5 6 
#
# 1 82.9103 40.9403 9.5106 0.0000 -8.5101 0.0001
# 2 40.9403 94.1081 5.2525 0.0000 -15.4620 0.0000
# 3 9.5106 5.2525 74.9622 0.0001 -4.3466 0.0003
# 4 0.0000 0.0000 0.0001 26.7599 0.0000 6.2647
# 5 -8.5101 -15.4620 -4.3466 0.0000 34.0620 0.0001
# 6 0.0001 0.0000 0.0003 6.2647 0.0001 19.1796
#
#
#
# Elastic Compliance Matrix: (Units=1/GPa)
#
#
# Indices 1 2 3 4 5 6 
#
# 1 0.015544 -0.006562 -0.001471 0.000000 0.000717 0.000000
# 2 -0.006562 0.014272 0.000114 0.000000 0.004854 0.000000
# 3 -0.001471 0.000114 0.013601 0.000000 0.001420 0.000000
# 4 0.000000 0.000000 0.000000 0.040464 0.000000 -0.013217
# 5 0.000717 0.004854 0.001420 0.000000 0.031922 0.000000
# 6 0.000000 0.000000 0.000000 -0.013217 0.000000 0.056456
#
#
# Mechanical properties :
#
#
# Convention : Reuss Voigt Hill
#
# Bulk Modulus (GPa) = 36.25957 40.37637 38.31797
# Shear Modulus (GPa) = 25.34353 29.08543 27.21448
#
# Velocity S-wave (km/s) = 3.33320 3.57080 3.45404
# Velocity P-wave (km/s) = 5.54159 5.89077 5.71885
#
# Compressibility (1/GPa) = 0.02757893
#
# Stress axis : x y z
#
# Youngs Moduli (GPa) = 64.33387 70.06737 73.52403
#
# Poissons Ratio (x) = 0.45980 0.10813
# Poissons Ratio (y) = 0.42218 -0.00838
# Poissons Ratio (z) = 0.09462 -0.00799
#
# Static dielectric constant tensor:
#      x y z
#    x 1.895420 0.000000 0.105810 
#    y 0.000000 2.030720 0.000000 
#    z 0.105810 0.000000 2.073990 
# 
# From -- ./inp_files/286474.got.cif
#   From: 2010.05.17/outbox.cif.g08.bks.cpg/sg12_144_cif.got.tgz:286474.got - 2010.06.03 13:09:07.
