data_PCOD9186466
_publ_section_title
;
Structure prediction by ZEFSAII (Michael W. Deem and Ramdas Pophale) SiO2 
 PCOD9186466
Probable space group: C 2/M
;
_chemical_formula_sum "Si O2"
_cell_formula_units_Z 56
_cell_length_a 24.204998
_cell_length_b 8.958146
_cell_length_c 21.048584
_cell_angle_alpha 90.000000
_cell_angle_beta 55.106832
_cell_angle_gamma 90.000000
_cell_volume 3743.488268
_symmetry_space_group_name_H-M "C 2/M"
_symmetry_group_IT_number 12
_symmetry_cell_setting 'monoclinic'
loop_
_space_group_symop_operation_xyz
x,y,z
-x,y,-z
-x,-y,-z
x,-y,z
1/2+x,1/2+y,z
1/2-x,1/2+y,-z
1/2-x,1/2-y,-z
1/2+x,1/2-y,z
loop_
_atom_site_type_symbol
_atom_site_label
_atom_site_fract_x
_atom_site_fract_y
_atom_site_fract_z
Si Si1 0.184832 0.680592 0.855424
Si Si2 0.040658 0.678863 0.147756
Si Si3 0.544770 0.678863 0.908362
Si Si4 0.957931 0.678111 0.589766
Si Si5 0.668407 0.323903 0.282384
Si Si6 0.810576 0.320839 0.999262
Si Si7 0.952075 0.175296 0.722661
O O1 0.178489 0.500000 0.856394
O O2 0.119103 0.755833 0.869588
O O3 0.254818 0.723051 0.775356
O O4 0.190459 0.722445 0.925959
O O5 0.034802 0.500000 0.149596
O O6 0.029425 0.739087 0.226018
O O7 0.990532 0.751252 0.129935
O O8 0.116815 0.720513 0.077205
O O9 0.546749 0.500000 0.901981
O O10 0.500000 0.718079 0.000000
O O11 0.960024 0.500000 0.595572
O O12 0.880195 0.733293 0.638502
O O13 0.984005 0.756290 0.637346
O O14 0.000000 0.720621 0.500000
O O15 0.665854 0.500000 0.299707
O O16 0.627968 0.307899 0.241791
O O17 0.804463 0.500000 0.000309
O O18 0.750000 0.250000 0.000000
O O19 0.966383 0.000000 0.718897
#
# Coordination Sequence:
#
# PCOD9186466 Si02
#       7
#     8   8   8   8   8   8   8
#     4  10  19  35  51  68  95 130 171 211 251 293
#     4  11  21  34  51  70  94 131 171 211 252 294
#     4  11  23  36  50  69  92 129 176 220 257 291
#     4   9  17  30  50  77 107 134 161 195 239 297
#     4   8  17  30  49  74 102 132 161 200 246 293
#     4  10  21  32  47  69  95 128 166 204 250 296
#     4   9  18  32  50  73 104 132 160 201 243 294
#
# _framework density 14.959308999999999
#
# number of rings (size 3 to 8) (size 9 to 14) (size 15 to 20)
#    0.857    1.429    1.429    2.143    0.000    5.143 
#    0.000    0.000    0.000    0.000    0.000    1.000 
#    0.000    0.000    0.000    0.000    0.000    0.000 
#
# Total GULP energy -155934.556156 kJ/mol
# GULP energy per Si atom -5569.091291 kJ/mol
# Density = 1.492526 g / cm^3
# Si number density = 14.959309 Si / 1000 Ang^3
#
#
#
# Elastic Constant Matrix: (Units=GPa)
#
#
# Indices 1 2 3 4 5 6 
#
# 1 120.3107 46.0817 64.4420 0.0000 1.5334 -0.0004
# 2 46.0817 46.2126 46.9424 -0.0008 0.6262 -0.0002
# 3 64.4420 46.9424 121.1045 0.0000 1.8927 0.0001
# 4 0.0000 -0.0008 0.0000 18.9621 0.0000 0.9974
# 5 1.5334 0.6262 1.8927 0.0000 10.1427 0.0000
# 6 -0.0004 -0.0002 0.0001 0.9974 0.0000 27.7991
#
#
#
# Elastic Compliance Matrix: (Units=1/GPa)
#
#
# Indices 1 2 3 4 5 6 
#
# 1 0.014268 -0.010750 -0.003412 0.000000 -0.000857 0.000000
# 2 -0.010750 0.043794 -0.011271 0.000002 0.001025 0.000000
# 3 -0.003412 -0.011271 0.014465 0.000000 -0.001488 0.000000
# 4 0.000000 0.000002 0.000000 0.052837 0.000000 -0.001896
# 5 -0.000857 0.001025 -0.001488 0.000000 0.098937 0.000000
# 6 0.000000 0.000000 0.000000 -0.001896 0.000000 0.036040
#
#
# Mechanical properties :
#
#
# Convention : Reuss Voigt Hill
#
# Bulk Modulus (GPa) = 46.16643 66.95113 56.55878
# Shear Modulus (GPa) = 15.70223 20.05822 17.88022
#
# Velocity S-wave (km/s) = 3.24336 3.66574 3.46100
# Velocity P-wave (km/s) = 6.70479 7.92272 7.33906
#
# Compressibility (1/GPa) = 0.02166076
#
# Stress axis : x y z
#
# Youngs Moduli (GPa) = 70.08844 22.83423 69.13253
#
# Poissons Ratio (x) = 0.24547 0.23587
# Poissons Ratio (y) = 0.75345 0.77920
# Poissons Ratio (z) = 0.23913 0.25737
#
# Static dielectric constant tensor:
#      x y z
#    x 1.473470 0.000000 -0.005870 
#    y 0.000000 1.498440 0.000000 
#    z -0.005870 0.000000 1.488100 
# 
# From -- ./inp_files/319038.got.cif
#   From: 2010.05.17/outbox.cif.g08.bks.cpg/sg12_160_cif.got.tgz:319038.got - 2010.06.03 13:09:07.
