data_PCOD9186921
_publ_section_title
;
Structure prediction by ZEFSAII (Michael W. Deem and Ramdas Pophale) SiO2 
 PCOD9186921
Probable space group: C 2/M
;
_chemical_formula_sum "Si O2"
_cell_formula_units_Z 64
_cell_length_a 20.476900
_cell_length_b 9.337578
_cell_length_c 21.107848
_cell_angle_alpha 90.000000
_cell_angle_beta 50.167037
_cell_angle_gamma 90.000000
_cell_volume 3099.243053
_symmetry_space_group_name_H-M "C 2/M"
_symmetry_group_IT_number 12
_symmetry_cell_setting 'monoclinic'
loop_
_space_group_symop_operation_xyz
x,y,z
-x,y,-z
-x,-y,-z
x,-y,z
1/2+x,1/2+y,z
1/2-x,1/2+y,-z
1/2-x,1/2-y,-z
1/2+x,1/2-y,z
loop_
_atom_site_type_symbol
_atom_site_label
_atom_site_fract_x
_atom_site_fract_y
_atom_site_fract_z
Si Si1 0.413439 0.336265 0.285644
Si Si2 0.161457 0.831937 0.200717
Si Si3 0.163429 0.333079 0.855198
Si Si4 0.338750 0.331259 0.945977
Si Si5 0.236388 0.335362 0.667154
Si Si6 0.493430 0.333779 0.095006
Si Si7 0.422067 0.338524 0.500235
Si Si8 0.503596 0.169335 0.339396
O O1 0.419578 0.500000 0.304498
O O2 0.317961 0.278745 0.338052
O O3 0.451873 0.331508 0.191128
O O4 0.461782 0.229028 0.301444
O O5 0.259860 0.784608 0.146607
O O6 0.132646 0.822227 0.145469
O O7 0.096738 0.742407 0.283450
O O8 0.158460 0.000000 0.220985
O O9 0.144467 0.500000 0.879763
O O10 0.208324 0.323283 0.757889
O O11 0.075084 0.246982 0.906159
O O12 0.326244 0.500000 0.967275
O O13 0.411536 0.276107 0.948979
O O14 0.250000 0.250000 0.000000
O O15 0.215331 0.500000 0.661524
O O16 0.335236 0.312765 0.592065
O O17 0.500073 0.500000 0.072124
O O18 0.500000 0.336002 0.500000
O O19 0.417003 0.500000 0.475755
O O20 0.443964 0.226119 0.432513
O O21 0.511358 0.000000 0.334717
#
# Coordination Sequence:
#
# PCOD9186921 Si02
#       8
#     8   8   8   8   8   8   8   8
#     4  10  19  35  57  78 105 146 187 227 279 336
#     4  10  20  39  61  83 114 149 190 232 278 339
#     4   9  18  33  59  87 110 144 188 235 276 325
#     4  10  21  38  60  86 115 149 186 228 278 335
#     4   9  18  33  53  81 110 138 184 236 280 327
#     4   9  18  35  57  82 114 149 184 226 278 334
#     4  10  21  38  57  75 105 150 190 229 283 341
#     4  12  24  35  54  83 112 142 185 239 285 330
#
# _framework density 20.650205
#
# number of rings (size 3 to 8) (size 9 to 14) (size 15 to 20)
#    0.000    2.125    1.250    2.250    0.000    5.250 
#    0.000    3.125    0.000    3.750    0.000    0.000 
#    0.000    0.000    0.000    0.000    0.000    0.000 
#
# Total GULP energy -178668.893358 kJ/mol
# GULP energy per Si atom -5583.402917 kJ/mol
# Density = 2.060320 g / cm^3
# Si number density = 20.650205 Si / 1000 Ang^3
#
#
#
# Elastic Constant Matrix: (Units=GPa)
#
#
# Indices 1 2 3 4 5 6 
#
# 1 127.0045 33.1978 22.6987 0.0000 -27.4805 0.0000
# 2 33.1978 65.8724 31.0284 0.0000 -12.7489 0.0000
# 3 22.6987 31.0284 69.6336 0.0000 -22.3070 0.0000
# 4 0.0000 0.0000 0.0000 18.6999 0.0000 -10.8402
# 5 -27.4805 -12.7489 -22.3070 0.0000 39.7281 0.0000
# 6 0.0000 0.0000 0.0000 -10.8402 0.0000 25.3023
#
#
#
# Elastic Compliance Matrix: (Units=1/GPa)
#
#
# Indices 1 2 3 4 5 6 
#
# 1 0.010175 -0.004192 0.000457 0.000000 0.005950 0.000000
# 2 -0.004192 0.021030 -0.008257 0.000000 -0.000787 0.000000
# 3 0.000457 -0.008257 0.020904 0.000000 0.009404 0.000000
# 4 0.000000 0.000000 0.000000 0.071146 0.000000 0.030481
# 5 0.005950 -0.000787 0.009404 0.000000 0.034314 0.000000
# 6 0.000000 0.000000 0.000000 0.030481 0.000000 0.052581
#
#
# Mechanical properties :
#
#
# Convention : Reuss Voigt Hill
#
# Bulk Modulus (GPa) = 35.55417 48.48448 42.01933
# Shear Modulus (GPa) = 20.53321 28.45176 24.49248
#
# Velocity S-wave (km/s) = 3.15673 3.71589 3.44767
# Velocity P-wave (km/s) = 5.52642 6.47614 6.02004
#
# Compressibility (1/GPa) = 0.02812609
#
# Stress axis : x y z
#
# Youngs Moduli (GPa) = 98.27910 47.55045 47.83887
#
# Poissons Ratio (x) = 0.19932 -0.02186
# Poissons Ratio (y) = 0.41196 0.39499
# Poissons Ratio (z) = -0.04491 0.39261
#
# Static dielectric constant tensor:
#      x y z
#    x 1.758190 0.000000 0.002720 
#    y 0.000000 1.699960 0.000000 
#    z 0.002720 0.000000 1.759690 
# 
# From -- ./inp_files/345993.got.cif
#   From: 2010.05.17/outbox.cif.g08.bks.cpg/sg12_173_cif.got.tgz:345993.got - 2010.06.03 13:09:07.
