data_PCOD9186826
_publ_section_title
;
Structure prediction by ZEFSAII (Michael W. Deem and Ramdas Pophale) SiO2 
 PCOD9186826
Probable space group: C 2/M
;
_chemical_formula_sum "Si O2"
_cell_formula_units_Z 64
_cell_length_a 19.261194
_cell_length_b 15.134792
_cell_length_c 16.938520
_cell_angle_alpha 90.000000
_cell_angle_beta 139.229652
_cell_angle_gamma 90.000000
_cell_volume 3224.537463
_symmetry_space_group_name_H-M "C 2/M"
_symmetry_group_IT_number 12
_symmetry_cell_setting 'monoclinic'
loop_
_space_group_symop_operation_xyz
x,y,z
-x,y,-z
-x,-y,-z
x,-y,z
1/2+x,1/2+y,z
1/2-x,1/2+y,-z
1/2-x,1/2-y,-z
1/2+x,1/2-y,z
loop_
_atom_site_type_symbol
_atom_site_label
_atom_site_fract_x
_atom_site_fract_y
_atom_site_fract_z
Si Si1 0.294516 0.705519 0.379660
Si Si2 0.981533 0.896267 0.077574
Si Si3 0.217648 0.103068 0.792807
Si Si4 0.392553 0.893714 0.077276
Si Si5 0.603553 0.147769 0.624574
Si Si6 0.503633 0.693511 0.641977
Si Si7 0.074724 0.742201 0.255559
Si Si8 0.258238 0.101786 0.109990
O O1 0.265899 0.658884 0.272539
O O2 0.329631 0.805279 0.386806
O O3 0.399356 0.659758 0.506058
O O4 0.195338 0.709492 0.352334
O O5 0.058738 0.829086 0.188071
O O6 0.992756 0.000000 0.111216
O O7 0.860972 0.862277 0.989564
O O8 0.000000 0.893445 0.000000
O O9 0.103018 0.127394 0.731926
O O10 0.219512 0.000000 0.775181
O O11 0.310200 0.121307 0.935389
O O12 0.498112 0.836272 0.159653
O O13 0.333731 0.861172 0.106853
O O14 0.414013 0.000000 0.100893
O O15 0.500000 0.099243 0.500000
O O16 0.550814 0.227095 0.629873
O O17 0.683135 0.104207 0.755267
O O18 0.462559 0.729889 0.689554
O O19 0.243781 0.000000 0.074910
#
# Coordination Sequence:
#
# PCOD9186826 Si02
#       8
#     8   8   8   8   8   8   8   8
#     4  10  23  38  57  87 120 155 202 251 305 364
#     4  10  23  38  56  87 121 152 196 251 305 366
#     4  10  22  41  63  90 122 158 208 263 313 369
#     4  10  23  38  58  92 125 157 204 250 299 371
#     4   9  18  35  55  80 111 147 199 249 290 353
#     4  10  21  38  60  86 115 155 206 255 296 366
#     4  12  23  37  64  86 124 168 201 245 319 368
#     4  10  19  35  56  81 115 150 194 249 296 351
#
# _framework density 19.847808000000001
#
# number of rings (size 3 to 8) (size 9 to 14) (size 15 to 20)
#    0.000    1.875    1.250    3.000    5.250    4.250 
#    0.000    1.250    0.000    3.000    0.000    0.000 
#    0.000    0.000    0.000    0.000    0.000    0.000 
#
# Total GULP energy -178555.522628 kJ/mol
# GULP energy per Si atom -5579.860082 kJ/mol
# Density = 1.980263 g / cm^3
# Si number density = 19.847808 Si / 1000 Ang^3
#
#
#
# Elastic Constant Matrix: (Units=GPa)
#
#
# Indices 1 2 3 4 5 6 
#
# 1 57.3588 5.8123 -6.9698 0.0000 10.4712 0.0000
# 2 5.8123 42.4861 6.9687 0.0000 3.4890 0.0000
# 3 -6.9698 6.9687 49.1768 0.0000 0.6767 0.0000
# 4 0.0000 0.0000 0.0000 -1.0448 0.0000 -12.2298
# 5 10.4712 3.4890 0.6767 0.0000 29.1445 0.0000
# 6 0.0000 0.0000 0.0000 -12.2298 0.0000 12.7329
#
#
#
# Elastic Compliance Matrix: (Units=1/GPa)
#
#
# Indices 1 2 3 4 5 6 
#
# 1 0.019311 -0.002617 0.003200 0.000000 -0.006699 0.000000
# 2 -0.002617 0.024683 -0.003842 0.000000 -0.001926 0.000000
# 3 0.003200 -0.003842 0.021349 0.000000 -0.001185 0.000000
# 4 0.000000 0.000000 0.000000 -0.078177 0.000000 -0.075089
# 5 -0.006699 -0.001926 -0.001185 0.000000 0.036977 0.000000
# 6 0.000000 0.000000 0.000000 -0.075089 0.000000 0.006415
#
#
# Mechanical properties :
#
#
# Convention : Reuss Voigt Hill
#
# Bulk Modulus (GPa) = 16.99931 17.84936 17.42434
# Shear Modulus (GPa) = 88.20824 17.71389 52.96106
#
# Velocity S-wave (km/s) = 6.67374 2.99069 5.17122
# Velocity P-wave (km/s) = 8.24430 4.57584 6.66734
#
# Compressibility (1/GPa) = 0.05882591
#
# Stress axis : x y z
#
# Youngs Moduli (GPa) = 51.78379 40.51301 46.84040
#
# Poissons Ratio (x) = 0.10601 -0.14989
# Poissons Ratio (y) = 0.13550 0.17997
# Poissons Ratio (z) = -0.16570 0.15566
#
# Static dielectric constant tensor:
#      x y z
#    x 1.703870 0.000000 0.007740 
#    y 0.000000 1.696990 0.000000 
#    z 0.007740 0.000000 1.718400 
# 
# From -- ./inp_files/226905.got.cif
#   From: 2010.05.17/outbox.cif.g08.bks.cpg/sg12_114_cif.got.tgz:226905.got - 2010.06.03 13:09:07.
