data_PCOD9186258
_publ_section_title
;
Structure prediction by ZEFSAII (Michael W. Deem and Ramdas Pophale) SiO2 
 PCOD9186258
Probable space group: C 2/M
;
_chemical_formula_sum "Si O2"
_cell_formula_units_Z 56
_cell_length_a 18.789347
_cell_length_b 24.755765
_cell_length_c 6.176187
_cell_angle_alpha 90.000000
_cell_angle_beta 60.633213
_cell_angle_gamma 90.000000
_cell_volume 2503.657889
_symmetry_space_group_name_H-M "C 2/M"
_symmetry_group_IT_number 12
_symmetry_cell_setting 'monoclinic'
loop_
_space_group_symop_operation_xyz
x,y,z
-x,y,-z
-x,-y,-z
x,-y,z
1/2+x,1/2+y,z
1/2-x,1/2+y,-z
1/2-x,1/2-y,-z
1/2+x,1/2-y,z
loop_
_atom_site_type_symbol
_atom_site_label
_atom_site_fract_x
_atom_site_fract_y
_atom_site_fract_z
Si Si1 0.814398 0.059395 0.937743
Si Si2 0.223220 0.392001 0.696210
Si Si3 0.050453 0.761642 0.124583
Si Si4 0.630406 0.834307 0.219876
Si Si5 0.138695 0.440127 0.437630
Si Si6 0.473706 0.618449 0.786491
Si Si7 0.223621 0.799782 0.686180
O O1 0.785962 0.071990 0.737392
O O2 0.878045 0.103434 0.921942
O O3 0.851723 0.000000 0.903381
O O4 0.729077 0.059783 0.193571
O O5 0.159903 0.427560 0.653858
O O6 0.274984 0.352345 0.467602
O O7 0.169763 0.355763 0.938456
O O8 0.070088 0.714603 0.262653
O O9 0.006081 0.817570 0.253500
O O10 0.138291 0.783129 0.915000
O O11 0.000000 0.737551 0.000000
O O12 0.597437 0.887348 0.394481
O O13 0.706185 0.811029 0.243661
O O14 0.102948 0.500000 0.459393
O O15 0.500000 0.597393 0.500000
O O16 0.500000 0.601967 0.000000
O O17 0.250000 0.750000 0.500000
#
# Coordination Sequence:
#
# PCOD9186258 Si02
#       7
#     8   8   8   8   8   8   8
#     4  10  22  38  60  86 117 159 215 271 319 376
#     4  10  19  34  60  87 119 152 206 257 324 379
#     4  11  24  40  59  94 127 169 213 267 322 388
#     4  10  21  37  59  90 120 163 206 255 316 391
#     4   9  19  36  60  90 118 150 201 266 327 381
#     4  11  27  44  61  87 127 178 221 265 324 388
#     4  11  22  36  63  89 124 166 211 258 323 392
#
# _framework density 22.367273000000001
#
# number of rings (size 3 to 8) (size 9 to 14) (size 15 to 20)
#    0.000    1.714    1.429    3.429    8.000    1.143 
#    0.000    0.000    0.000    0.429    0.000    1.000 
#    0.000    0.000    0.000    0.000    0.000    0.000 
#
# Total GULP energy -156223.709379 kJ/mol
# GULP energy per Si atom -5579.418192 kJ/mol
# Density = 2.231636 g / cm^3
# Si number density = 22.367273 Si / 1000 Ang^3
#
#
#
# Elastic Constant Matrix: (Units=GPa)
#
#
# Indices 1 2 3 4 5 6 
#
# 1 89.6024 32.7492 32.8423 0.0000 22.3695 0.0000
# 2 32.7492 109.1629 10.7823 0.0000 13.0926 0.0000
# 3 32.8423 10.7823 90.0336 0.0000 21.6740 0.0000
# 4 0.0000 0.0000 0.0000 6.6472 0.0000 -4.5136
# 5 22.3695 13.0926 21.6740 0.0000 27.4082 0.0000
# 6 0.0000 0.0000 0.0000 -4.5136 0.0000 8.9388
#
#
#
# Elastic Compliance Matrix: (Units=1/GPa)
#
#
# Indices 1 2 3 4 5 6 
#
# 1 0.015747 -0.003363 -0.003254 0.000000 -0.008673 0.000000
# 2 -0.003363 0.010436 0.000638 0.000000 -0.002745 0.000000
# 3 -0.003254 0.000638 0.014391 0.000000 -0.009029 0.000000
# 4 0.000000 0.000000 0.000000 0.228933 0.000000 0.115598
# 5 -0.008673 -0.002745 -0.009029 0.000000 0.052016 0.000000
# 6 0.000000 0.000000 0.000000 0.115598 0.000000 0.170243
#
#
# Mechanical properties :
#
#
# Convention : Reuss Voigt Hill
#
# Bulk Modulus (GPa) = 34.94465 49.06071 42.00268
# Shear Modulus (GPa) = 9.74162 22.76051 16.25106
#
# Velocity S-wave (km/s) = 2.08920 3.19341 2.69839
# Velocity P-wave (km/s) = 4.63430 5.96481 5.34115
#
# Compressibility (1/GPa) = 0.02861669
#
# Stress axis : x y z
#
# Youngs Moduli (GPa) = 63.50301 95.82546 69.48729
#
# Poissons Ratio (x) = 0.32223 0.22609
# Poissons Ratio (y) = 0.21354 -0.04431
# Poissons Ratio (z) = 0.20662 -0.06110
#
# Static dielectric constant tensor:
#      x y z
#    x 1.948470 0.000000 0.033210 
#    y 0.000000 1.854570 0.000000 
#    z 0.033210 0.000000 1.886620 
# 
# From -- ./inp_files/17654.got.cif
#   From: 2010.05.17/outbox.cif.g08.bks.cpg/sg12_9_cif.got.tgz:17654.got - 2010.06.03 13:09:07.
