data_PCOD9186837
_publ_section_title
;
Structure prediction by ZEFSAII (Michael W. Deem and Ramdas Pophale) SiO2 
 PCOD9186837
Probable space group: C 2/M
;
_chemical_formula_sum "Si O2"
_cell_formula_units_Z 40
_cell_length_a 24.929476
_cell_length_b 12.039802
_cell_length_c 6.807534
_cell_angle_alpha 90.000000
_cell_angle_beta 54.302786
_cell_angle_gamma 90.000000
_cell_volume 1659.350722
_symmetry_space_group_name_H-M "C 2/M"
_symmetry_group_IT_number 12
_symmetry_cell_setting 'monoclinic'
loop_
_space_group_symop_operation_xyz
x,y,z
-x,y,-z
-x,-y,-z
x,-y,z
1/2+x,1/2+y,z
1/2-x,1/2+y,-z
1/2-x,1/2-y,-z
1/2+x,1/2-y,z
loop_
_atom_site_type_symbol
_atom_site_label
_atom_site_fract_x
_atom_site_fract_y
_atom_site_fract_z
Si Si1 0.650826 0.374984 0.880332
Si Si2 0.893334 0.126022 0.568010
Si Si3 0.256794 0.289083 0.759838
Si Si4 0.500000 0.214906 0.500000
Si Si5 0.326517 0.000000 0.207591
Si Si6 0.065233 0.674199 0.984194
O O1 0.656698 0.500000 0.793393
O O2 0.720792 0.310870 0.719024
O O3 0.633348 0.381057 0.150233
O O4 0.591178 0.300470 0.926506
O O5 0.833635 0.180227 0.573515
O O6 0.955828 0.206668 0.454061
O O7 0.909972 0.000000 0.472412
O O8 0.216240 0.401186 0.809873
O O9 0.250000 0.250000 0.000000
O O10 0.547415 0.148454 0.251892
O O11 0.374877 0.903973 0.201897
O O12 0.000000 0.654862 0.000000
#
# Coordination Sequence:
#
# PCOD9186837 Si02
#       6
#     8   8   8   4   4   8
#     4   8  16  29  48  78 111 143 188 234 270 329
#     4   9  15  28  49  77 113 148 181 229 281 329
#     4   9  16  27  50  81 109 146 190 230 277 327
#     4  10  21  35  52  88 118 140 190 228 272 350
#     4  10  19  35  56  82 113 148 193 233 272 338
#     4  10  21  37  58  83 113 153 184 230 285 328
#
# _framework density 24.105815
#
# number of rings (size 3 to 8) (size 9 to 14) (size 15 to 20)
#    0.000    2.800    1.000    1.800    1.400    1.600 
#    0.000    0.000    0.000    4.800    5.200    0.000 
#    0.000    0.000    0.000    0.000    0.000    0.000 
#
# Total GULP energy -111345.250256 kJ/mol
# GULP energy per Si atom -5567.262513 kJ/mol
# Density = 2.405095 g / cm^3
# Si number density = 24.105815 Si / 1000 Ang^3
#
#
#
# Elastic Constant Matrix: (Units=GPa)
#
#
# Indices 1 2 3 4 5 6 
#
# 1 190.0321 55.3569 -13.0465 0.0000 -18.5187 0.0000
# 2 55.3569 156.2133 -5.9392 0.0000 -6.9115 0.0000
# 3 -13.0465 -5.9392 62.6444 0.0000 9.6018 0.0000
# 4 0.0000 0.0000 0.0000 15.9346 0.0000 -6.1264
# 5 -18.5187 -6.9115 9.6018 0.0000 29.4673 0.0000
# 6 0.0000 0.0000 0.0000 -6.1264 0.0000 20.2820
#
#
#
# Elastic Compliance Matrix: (Units=1/GPa)
#
#
# Indices 1 2 3 4 5 6 
#
# 1 0.006211 -0.002035 0.000606 0.000000 0.003229 0.000000
# 2 -0.002035 0.007145 0.000203 0.000000 0.000331 0.000000
# 3 0.000606 0.000203 0.016886 0.000000 -0.005074 0.000000
# 4 0.000000 0.000000 0.000000 0.071002 0.000000 0.021447
# 5 0.003229 0.000331 -0.005074 0.000000 0.037696 0.000000
# 6 0.000000 0.000000 0.000000 0.021447 0.000000 0.055783
#
#
# Mechanical properties :
#
#
# Convention : Reuss Voigt Hill
#
# Bulk Modulus (GPa) = 35.98487 53.51467 44.74977
# Shear Modulus (GPa) = 24.22004 37.97135 31.09570
#
# Velocity S-wave (km/s) = 3.17320 3.97318 3.59551
# Velocity P-wave (km/s) = 5.32784 6.57999 5.98674
#
# Compressibility (1/GPa) = 0.02778945
#
# Stress axis : x y z
#
# Youngs Moduli (GPa) = 160.99514 139.95674 59.21978
#
# Poissons Ratio (x) = 0.28484 -0.03587
# Poissons Ratio (y) = 0.32766 -0.01201
# Poissons Ratio (z) = -0.09752 -0.02839
#
# Static dielectric constant tensor:
#      x y z
#    x 1.899650 0.000000 0.031390 
#    y 0.000000 1.875470 0.000000 
#    z 0.031390 0.000000 2.080250 
# 
# From -- ./inp_files/94155.got.cif
#   From: 2010.05.17/outbox.cif.g08.bks.cpg/sg12_48_cif.got.tgz:94155.got - 2010.06.03 13:09:07.
