data_PCOD9186496
_publ_section_title
;
Structure prediction by ZEFSAII (Michael W. Deem and Ramdas Pophale) SiO2 
 PCOD9186496
Probable space group: C 2/M
;
_chemical_formula_sum "Si O2"
_cell_formula_units_Z 48
_cell_length_a 22.288927
_cell_length_b 16.428194
_cell_length_c 6.817417
_cell_angle_alpha 90.000000
_cell_angle_beta 118.857404
_cell_angle_gamma 90.000000
_cell_volume 2186.328801
_symmetry_space_group_name_H-M "C 2/M"
_symmetry_group_IT_number 12
_symmetry_cell_setting 'monoclinic'
loop_
_space_group_symop_operation_xyz
x,y,z
-x,y,-z
-x,-y,-z
x,-y,z
1/2+x,1/2+y,z
1/2-x,1/2+y,-z
1/2-x,1/2-y,-z
1/2+x,1/2-y,z
loop_
_atom_site_type_symbol
_atom_site_label
_atom_site_fract_x
_atom_site_fract_y
_atom_site_fract_z
Si Si1 0.675160 0.000000 0.256351
Si Si2 0.204222 0.674697 0.280978
Si Si3 0.420511 0.409376 0.816490
Si Si4 0.000000 0.357837 0.500000
Si Si5 0.925896 0.500000 0.176489
Si Si6 0.291110 0.000000 0.230394
Si Si7 0.707378 0.344328 0.186397
Si Si8 0.435793 0.235847 0.742567
O O1 0.702526 0.917380 0.204226
O O2 0.689100 0.000000 0.507096
O O3 0.595055 0.000000 0.082151
O O4 0.261057 0.666978 0.542709
O O5 0.211282 0.748671 0.137898
O O6 0.130720 0.693667 0.266922
O O7 0.397564 0.500000 0.715883
O O8 0.369610 0.378812 0.908825
O O9 0.419063 0.330944 0.674983
O O10 0.500000 0.416041 0.000000
O O11 0.035760 0.418415 0.708078
O O12 0.048096 0.304375 0.439289
O O13 0.859559 0.500000 0.213020
O O14 0.248830 0.084472 0.145089
O O15 0.500000 0.232039 0.000000
#
# Coordination Sequence:
#
# PCOD9186496 Si02
#       8
#     4   8   8   4   4   4   8   8
#     4  10  19  35  53  75 111 145 182 232 274 327
#     4   9  18  31  53  81 107 147 193 227 276 334
#     4   9  17  31  55  87 112 143 186 234 281 338
#     4  11  22  36  53  80 112 148 185 234 276 331
#     4  11  24  36  54  81 111 144 192 230 279 338
#     4  10  19  35  58  78 108 147 182 232 288 330
#     4   9  16  30  54  83 107 143 189 231 279 333
#     4  10  20  35  56  82 115 150 191 230 279 334
#
# _framework density 21.954611
#
# number of rings (size 3 to 8) (size 9 to 14) (size 15 to 20)
#    0.000    2.333    0.833    3.000    0.000    0.667 
#    0.000    4.167    0.000   28.000    0.000    0.000 
#    0.000    0.000    0.000    0.000    0.000    0.000 
#
# Total GULP energy -133668.169203 kJ/mol
# GULP energy per Si atom -5569.507050 kJ/mol
# Density = 2.190464 g / cm^3
# Si number density = 21.954611 Si / 1000 Ang^3
#
#
#
# Elastic Constant Matrix: (Units=GPa)
#
#
# Indices 1 2 3 4 5 6 
#
# 1 73.5756 32.0056 7.8387 0.0000 4.7665 0.0000
# 2 32.0056 217.2172 -5.1589 0.0000 -9.1487 0.0000
# 3 7.8387 -5.1589 34.9253 0.0000 3.0684 0.0000
# 4 0.0000 0.0000 0.0000 29.1323 0.0000 2.7004
# 5 4.7665 -9.1487 3.0684 0.0000 27.8719 0.0000
# 6 0.0000 0.0000 0.0000 2.7004 0.0000 -4.0048
#
#
#
# Elastic Compliance Matrix: (Units=1/GPa)
#
#
# Indices 1 2 3 4 5 6 
#
# 1 0.015230 -0.002455 -0.003515 0.000000 -0.003023 0.000000
# 2 -0.002455 0.005075 0.001128 0.000000 0.001961 0.000000
# 3 -0.003515 0.001128 0.029791 0.000000 -0.002308 0.000000
# 4 0.000000 0.000000 0.000000 0.032307 0.000000 0.021784
# 5 -0.003023 0.001961 -0.002308 0.000000 0.037293 0.000000
# 6 0.000000 0.000000 0.000000 0.021784 0.000000 -0.235014
#
#
# Mechanical properties :
#
#
# Convention : Reuss Voigt Hill
#
# Bulk Modulus (GPa) = 24.74517 43.89876 34.32196
# Shear Modulus (GPa) = -54.25097 30.00207 -12.12445
#
# Velocity S-wave (km/s) = -4.97636 3.70070 -2.35255
# Velocity P-wave (km/s) = 4.66083 6.18861 2.87885
#
# Compressibility (1/GPa) = 0.04041193
#
# Stress axis : x y z
#
# Youngs Moduli (GPa) = 65.66131 197.05247 33.56729
#
# Poissons Ratio (x) = 0.48373 0.11799
# Poissons Ratio (y) = 0.16119 -0.03787
# Poissons Ratio (z) = 0.23081 -0.22233
#
# Static dielectric constant tensor:
#      x y z
#    x 1.782630 0.000000 0.058200 
#    y 0.000000 1.944110 0.000000 
#    z 0.058200 0.000000 1.848860 
# 
# From -- ./inp_files/87471.got.cif
#   From: 2010.05.17/outbox.cif.g08.bks.cpg/sg12_44_cif.got.tgz:87471.got - 2010.06.03 13:09:07.
