data_PCOD9186666
_publ_section_title
;
Structure prediction by ZEFSAII (Michael W. Deem and Ramdas Pophale) SiO2 
 PCOD9186666
Probable space group: C 2/M
;
_chemical_formula_sum "Si O2"
_cell_formula_units_Z 58
_cell_length_a 5.586058
_cell_length_b 29.736376
_cell_length_c 19.032091
_cell_angle_alpha 90.000000
_cell_angle_beta 57.729254
_cell_angle_gamma 90.000000
_cell_volume 2673.076237
_symmetry_space_group_name_H-M "C 2/M"
_symmetry_group_IT_number 12
_symmetry_cell_setting 'monoclinic'
loop_
_space_group_symop_operation_xyz
x,y,z
-x,y,-z
-x,-y,-z
x,-y,z
1/2+x,1/2+y,z
1/2-x,1/2+y,-z
1/2-x,1/2-y,-z
1/2+x,1/2-y,z
loop_
_atom_site_type_symbol
_atom_site_label
_atom_site_fract_x
_atom_site_fract_y
_atom_site_fract_z
Si Si1 0.342647 0.050045 0.289161
Si Si2 0.255352 0.367022 0.235028
Si Si3 0.634999 0.767542 0.300803
Si Si4 0.185455 0.946469 0.536220
Si Si5 0.590707 0.767698 0.887970
Si Si6 0.203421 0.648053 0.080057
Si Si7 0.000000 0.500000 0.000000
Si Si8 0.814752 0.572290 0.133816
O O1 0.532074 0.092417 0.283699
O O2 0.348681 0.049167 0.204217
O O3 0.021665 0.057676 0.364983
O O4 0.431959 0.000000 0.302018
O O5 0.208292 0.321301 0.287522
O O6 0.212600 0.348601 0.162543
O O7 0.555646 0.392991 0.185662
O O8 0.301923 0.756195 0.339365
O O9 0.757424 0.744853 0.209439
O O10 0.500000 0.927770 0.500000
O O11 0.000000 0.928239 0.500000
O O12 0.223107 0.000000 0.516170
O O13 0.778561 0.749914 0.920940
O O14 0.546619 0.819929 0.905952
O O15 0.107906 0.598569 0.076880
O O16 0.500000 0.659390 0.000000
O O17 0.804431 0.538511 0.071184
#
# Coordination Sequence:
#
# PCOD9186666 Si02
#       8
#     8   8   8   8   8   8   2   8
#     4  10  23  40  61  94 130 170 214 262 319 383
#     4  11  23  38  61  84 118 165 210 269 322 384
#     4  10  19  36  60  85 119 155 198 265 329 393
#     4   9  19  37  64  97 133 167 201 251 320 397
#     4  10  19  35  55  80 109 142 186 254 328 401
#     4  11  23  38  53  77 108 150 205 272 330 385
#     4  12  24  44  62  80 108 180 232 292 318 356
#     4  11  24  41  58  82 114 166 226 278 318 366
#
# _framework density 21.697846999999999
#
# number of rings (size 3 to 8) (size 9 to 14) (size 15 to 20)
#    0.000    1.655    3.448    2.483    4.828    0.552 
#    0.000    1.724    0.000    0.000    0.000    0.000 
#    0.000    3.310    0.000    0.000    0.000    0.000 
#
# Total GULP energy -161460.347128 kJ/mol
# GULP energy per Si atom -5567.598177 kJ/mol
# Density = 2.164846 g / cm^3
# Si number density = 21.697847 Si / 1000 Ang^3
#
#
#
# Elastic Constant Matrix: (Units=GPa)
#
#
# Indices 1 2 3 4 5 6 
#
# 1 113.4602 25.9423 12.3335 0.0000 -15.6938 0.0000
# 2 25.9423 101.0858 30.3343 0.0000 -12.7387 0.0000
# 3 12.3335 30.3343 36.9875 0.0000 -11.5134 0.0000
# 4 0.0000 0.0000 0.0000 -1.7228 0.0000 -12.5631
# 5 -15.6938 -12.7387 -11.5134 0.0000 19.9163 0.0000
# 6 0.0000 0.0000 0.0000 -12.5631 0.0000 -9.6911
#
#
#
# Elastic Compliance Matrix: (Units=1/GPa)
#
#
# Indices 1 2 3 4 5 6 
#
# 1 0.010167 -0.001808 0.000276 0.000000 0.007015 0.000000
# 2 -0.001808 0.013559 -0.010074 0.000000 0.001424 0.000000
# 3 0.000276 -0.010074 0.040568 0.000000 0.017226 0.000000
# 4 0.000000 0.000000 0.000000 0.068666 0.000000 -0.089015
# 5 0.007015 0.001424 0.017226 0.000000 0.066607 0.000000
# 6 0.000000 0.000000 0.000000 -0.089015 0.000000 0.012206
#
#
# Mechanical properties :
#
#
# Convention : Reuss Voigt Hill
#
# Bulk Modulus (GPa) = 24.34114 43.19486 33.76800
# Shear Modulus (GPa) = 20.10619 13.89538 17.00078
#
# Velocity S-wave (km/s) = 3.04739 2.53337 2.80219
# Velocity P-wave (km/s) = 4.86052 5.33928 5.10552
#
# Compressibility (1/GPa) = 0.04108272
#
# Stress axis : x y z
#
# Youngs Moduli (GPa) = 98.35374 73.75112 24.64999
#
# Poissons Ratio (x) = 0.13336 -0.00681
# Poissons Ratio (y) = 0.17784 0.24832
# Poissons Ratio (z) = -0.02717 0.74296
#
# Static dielectric constant tensor:
#      x y z
#    x 1.887300 0.000000 -0.020250 
#    y 0.000000 1.870420 0.000000 
#    z -0.020250 0.000000 1.805330 
# 
# From -- ./inp_files/298367.got.cif
#   From: 2010.05.17/outbox.cif.g08.bks.cpg/sg12_150_cif.got.tgz:298367.got - 2010.06.03 13:09:07.
