data_PCOD9186105
_publ_section_title
;
Structure prediction by ZEFSAII (Michael W. Deem and Ramdas Pophale) SiO2 
 PCOD9186105
Probable space group: C 2/M
;
_chemical_formula_sum "Si O2"
_cell_formula_units_Z 58
_cell_length_a 19.818494
_cell_length_b 20.413469
_cell_length_c 8.255592
_cell_angle_alpha 90.000000
_cell_angle_beta 123.823988
_cell_angle_gamma 90.000000
_cell_volume 2774.641098
_symmetry_space_group_name_H-M "C 2/M"
_symmetry_group_IT_number 12
_symmetry_cell_setting 'monoclinic'
loop_
_space_group_symop_operation_xyz
x,y,z
-x,y,-z
-x,-y,-z
x,-y,z
1/2+x,1/2+y,z
1/2-x,1/2+y,-z
1/2-x,1/2-y,-z
1/2+x,1/2-y,z
loop_
_atom_site_type_symbol
_atom_site_label
_atom_site_fract_x
_atom_site_fract_y
_atom_site_fract_z
Si Si1 0.372377 0.876299 0.128264
Si Si2 0.968686 0.230074 0.731327
Si Si3 0.446548 0.883352 0.715381
Si Si4 0.880611 0.229889 0.263502
Si Si5 0.000000 0.500000 0.000000
Si Si6 0.710108 0.925969 0.692835
Si Si7 0.765358 0.314634 0.748006
Si Si8 0.825542 0.826659 0.711341
O O1 0.466323 0.897085 0.256181
O O2 0.365162 0.805604 0.204369
O O3 0.317129 0.924420 0.156759
O O4 0.336928 0.861490 0.903248
O O5 0.958099 0.305985 0.774285
O O6 0.925105 0.228303 0.497114
O O7 0.918736 0.184268 0.785232
O O8 0.059929 0.210007 0.804155
O O9 0.365967 0.891324 0.500571
O O10 0.445414 0.941401 0.842913
O O11 0.799071 0.190542 0.190764
O O12 0.792064 0.885436 0.773482
O O13 0.718146 0.000000 0.646054
O O14 0.796622 0.241427 0.753245
O O15 0.721915 0.335033 0.524156
#
# Coordination Sequence:
#
# PCOD9186105 Si02
#       8
#     8   8   8   8   2   8   8   8
#     4  11  22  34  57  81 113 152 198 234 285 355
#     4   9  18  35  59  82 114 150 193 238 305 352
#     4  11  23  38  54  79 121 163 199 237 288 352
#     4   9  16  32  56  85 112 142 180 238 300 361
#     4  12  28  36  50  84 124 164 202 240 280 356
#     4  12  24  40  57  77 118 167 205 238 295 357
#     4  10  19  34  59  86 117 142 189 250 306 342
#     4  10  21  37  57  86 115 152 190 254 301 347
#
# _framework density 20.903604999999999
#
# number of rings (size 3 to 8) (size 9 to 14) (size 15 to 20)
#    0.000    1.655    3.448    2.483    4.828    0.552 
#    0.000    0.690    0.000    0.000    0.000    9.655 
#    0.000    0.000    0.000    0.000    0.000    0.000 
#
# Total GULP energy -161639.551611 kJ/mol
# GULP energy per Si atom -5573.777642 kJ/mol
# Density = 2.085603 g / cm^3
# Si number density = 20.903605 Si / 1000 Ang^3
#
#
#
# Elastic Constant Matrix: (Units=GPa)
#
#
# Indices 1 2 3 4 5 6 
#
# 1 156.5655 67.7978 18.8599 0.0000 -3.2882 0.0000
# 2 67.7978 65.9272 6.2651 0.0000 -6.5328 0.0000
# 3 18.8599 6.2651 68.8563 0.0000 -1.1258 0.0000
# 4 0.0000 0.0000 0.0000 16.9934 0.0000 5.6417
# 5 -3.2882 -6.5328 -1.1258 0.0000 14.4243 0.0000
# 6 0.0000 0.0000 0.0000 5.6417 0.0000 4.0218
#
#
#
# Elastic Compliance Matrix: (Units=1/GPa)
#
#
# Indices 1 2 3 4 5 6 
#
# 1 0.011950 -0.012383 -0.002196 0.000000 -0.003056 0.000000
# 2 -0.012383 0.028835 0.000937 0.000000 0.010310 0.000000
# 3 -0.002196 0.000937 0.015057 0.000000 0.001099 0.000000
# 4 0.000000 0.000000 0.000000 0.110140 0.000000 -0.154501
# 5 -0.003056 0.010310 0.001099 0.000000 0.073386 0.000000
# 6 0.000000 0.000000 0.000000 -0.154501 0.000000 0.465376
#
#
# Mechanical properties :
#
#
# Convention : Reuss Voigt Hill
#
# Bulk Modulus (GPa) = 35.01775 53.02161 44.01968
# Shear Modulus (GPa) = 6.74266 20.31633 13.52949
#
# Velocity S-wave (km/s) = 1.79794 3.12092 2.54684
# Velocity P-wave (km/s) = 4.59331 6.19732 5.45460
#
# Compressibility (1/GPa) = 0.02855695
#
# Stress axis : x y z
#
# Youngs Moduli (GPa) = 83.68475 34.68017 66.41294
#
# Poissons Ratio (x) = 0.42944 0.14586
# Poissons Ratio (y) = 1.03625 -0.06220
# Poissons Ratio (z) = 0.18380 -0.03248
#
# Static dielectric constant tensor:
#      x y z
#    x 1.836160 0.000000 -0.028870 
#    y 0.000000 1.680870 0.000000 
#    z -0.028870 0.000000 1.850410 
# 
# From -- ./inp_files/77575.got.cif
#   From: 2010.05.17/outbox.cif.g08.bks.cpg/sg12_39_cif.got.tgz:77575.got - 2010.06.03 13:09:07.
