data_PCOD9186452
_publ_section_title
;
Structure prediction by ZEFSAII (Michael W. Deem and Ramdas Pophale) SiO2 
 PCOD9186452
Probable space group: C 2/M
;
_chemical_formula_sum "Si O2"
_cell_formula_units_Z 60
_cell_length_a 8.508401
_cell_length_b 22.229823
_cell_length_c 19.832295
_cell_angle_alpha 90.000000
_cell_angle_beta 48.802721
_cell_angle_gamma 90.000000
_cell_volume 2822.489765
_symmetry_space_group_name_H-M "C 2/M"
_symmetry_group_IT_number 12
_symmetry_cell_setting 'monoclinic'
loop_
_space_group_symop_operation_xyz
x,y,z
-x,y,-z
-x,-y,-z
x,-y,z
1/2+x,1/2+y,z
1/2-x,1/2+y,-z
1/2-x,1/2-y,-z
1/2+x,1/2-y,z
loop_
_atom_site_type_symbol
_atom_site_label
_atom_site_fract_x
_atom_site_fract_y
_atom_site_fract_z
Si Si1 0.775156 0.688087 0.801926
Si Si2 0.664011 0.699586 0.137685
Si Si3 0.717734 0.791884 0.609247
Si Si4 0.933997 0.000000 0.836422
Si Si5 0.627771 0.398590 0.260146
Si Si6 0.585686 0.930973 0.172148
Si Si7 0.702884 0.093067 0.985085
Si Si8 0.871374 0.829729 0.431191
O O1 0.581566 0.700201 0.808342
O O2 0.755110 0.733678 0.870861
O O3 0.800401 0.619158 0.816139
O O4 0.992441 0.703456 0.705002
O O5 0.694018 0.660314 0.197440
O O6 0.762415 0.661764 0.048167
O O7 0.747859 0.836235 0.536370
O O8 0.741170 0.723930 0.576386
O O9 0.901079 0.805973 0.609243
O O10 0.933717 0.052232 0.777408
O O11 0.890113 0.052537 0.905827
O O12 0.434872 0.383169 0.363659
O O13 0.835023 0.419531 0.241591
O O14 0.627171 0.000000 0.180285
O O15 0.657498 0.918935 0.075213
O O16 0.500000 0.071211 0.000000
#
# Coordination Sequence:
#
# PCOD9186452 Si02
#       8
#     8   8   8   4   8   8   8   8
#     4  12  24  43  60  90 129 163 207 254 321 370
#     4  11  25  39  64  93 123 165 203 267 312 370
#     4  10  20  35  58  86 125 153 198 257 306 369
#     4  10  19  34  66  90 120 154 209 258 292 368
#     4  11  19  37  63  94 117 160 207 249 314 368
#     4  12  23  41  67  89 124 170 208 257 309 374
#     4  11  20  39  63  93 118 158 211 260 304 362
#     4  10  20  34  59  92 117 155 203 251 309 370
#
# _framework density 21.257828
#
# number of rings (size 3 to 8) (size 9 to 14) (size 15 to 20)
#    0.000    1.067    6.667    1.800    0.000    1.067 
#    4.800    0.667    1.467    1.600    0.000    3.733 
#    0.000    0.000    0.000    0.000    0.000    0.000 
#
# Total GULP energy -167202.171408 kJ/mol
# GULP energy per Si atom -5573.405714 kJ/mol
# Density = 2.120944 g / cm^3
# Si number density = 21.257828 Si / 1000 Ang^3
#
#
#
# Elastic Constant Matrix: (Units=GPa)
#
#
# Indices 1 2 3 4 5 6 
#
# 1 41.6408 8.8491 -5.7753 0.0000 -7.6160 0.0000
# 2 8.8491 112.8198 24.5940 0.0000 -2.5944 0.0000
# 3 -5.7753 24.5940 53.0721 0.0000 1.6300 0.0000
# 4 0.0000 0.0000 0.0000 9.9203 0.0000 5.8669
# 5 -7.6160 -2.5944 1.6300 0.0000 18.1453 0.0000
# 6 0.0000 0.0000 0.0000 5.8669 0.0000 25.4068
#
#
#
# Elastic Compliance Matrix: (Units=1/GPa)
#
#
# Indices 1 2 3 4 5 6 
#
# 1 0.027076 -0.002726 0.003883 0.000000 0.010626 0.000000
# 2 -0.002726 0.010195 -0.005045 0.000000 0.000767 0.000000
# 3 0.003883 -0.005045 0.021634 0.000000 -0.001035 0.000000
# 4 0.000000 0.000000 0.000000 0.116747 0.000000 -0.026959
# 5 0.010626 0.000767 -0.001035 0.000000 0.059773 0.000000
# 6 0.000000 0.000000 0.000000 -0.026959 0.000000 0.045585
#
#
# Mechanical properties :
#
#
# Convention : Reuss Voigt Hill
#
# Bulk Modulus (GPa) = 19.55758 29.20757 24.38257
# Shear Modulus (GPa) = 16.34902 22.68548 19.51725
#
# Velocity S-wave (km/s) = 2.77624 3.27028 3.03334
# Velocity P-wave (km/s) = 4.41552 5.29426 4.87473
#
# Compressibility (1/GPa) = 0.05113108
#
# Stress axis : x y z
#
# Youngs Moduli (GPa) = 36.93272 98.08919 46.22290
#
# Poissons Ratio (x) = 0.26738 -0.17950
# Poissons Ratio (y) = 0.10068 0.23317
# Poissons Ratio (z) = -0.14342 0.49481
#
# Static dielectric constant tensor:
#      x y z
#    x 1.807640 0.000000 -0.033770 
#    y 0.000000 1.790660 0.000000 
#    z -0.033770 0.000000 1.811310 
# 
# From -- ./inp_files/301885.got.cif
#   From: 2010.05.17/outbox.cif.g08.bks.cpg/sg12_151_cif.got.tgz:301885.got - 2010.06.03 13:09:07.
