data_PCOD9186236
_publ_section_title
;
Structure prediction by ZEFSAII (Michael W. Deem and Ramdas Pophale) SiO2 
 PCOD9186236
Probable space group: C 2/M
;
_chemical_formula_sum "Si O2"
_cell_formula_units_Z 40
_cell_length_a 21.227639
_cell_length_b 15.083008
_cell_length_c 13.117312
_cell_angle_alpha 90.000000
_cell_angle_beta 156.386291
_cell_angle_gamma 90.000000
_cell_volume 1682.329480
_symmetry_space_group_name_H-M "C 2/M"
_symmetry_group_IT_number 12
_symmetry_cell_setting 'monoclinic'
loop_
_space_group_symop_operation_xyz
x,y,z
-x,y,-z
-x,-y,-z
x,-y,z
1/2+x,1/2+y,z
1/2-x,1/2+y,-z
1/2-x,1/2-y,-z
1/2+x,1/2-y,z
loop_
_atom_site_type_symbol
_atom_site_label
_atom_site_fract_x
_atom_site_fract_y
_atom_site_fract_z
Si Si1 0.055663 0.347089 0.465598
Si Si2 0.644885 0.101335 0.277548
Si Si3 0.176366 0.103713 0.263861
Si Si4 0.595743 0.355770 0.496311
Si Si5 0.268618 0.351189 0.074335
O O1 0.223562 0.389973 0.691657
O O2 0.076364 0.249060 0.450630
O O3 0.000000 0.340737 0.500000
O O4 0.904111 0.391906 0.189695
O O5 0.710556 0.141819 0.479650
O O6 0.792732 0.101937 0.420936
O O7 0.594676 0.000000 0.226730
O O8 0.500000 0.143261 0.000000
O O9 0.158111 0.000000 0.263057
O O10 0.000000 0.141560 0.000000
O O11 0.417970 0.391822 0.237242
O O12 0.677023 0.356866 0.728107
O O13 0.250000 0.250000 0.000000
#
# Coordination Sequence:
#
# PCOD9186236 Si02
#       5
#     8   8   8   8   8
#     4  11  21  35  61  85 116 151 189 241 292 348
#     4  10  22  40  59  81 118 158 196 244 292 344
#     4  10  24  42  58  83 119 156 198 245 292 345
#     4  10  19  34  60  85 113 152 190 239 291 348
#     4   9  17  34  52  85 118 146 177 238 290 341
#
# _framework density 23.776554999999998
#
# number of rings (size 3 to 8) (size 9 to 14) (size 15 to 20)
#    0.000    2.000    4.000    1.200    2.800    2.000 
#    0.000    3.000    0.000    0.000    0.000    0.000 
#    0.000    0.000    0.000    0.000    0.000    0.000 
#
# Total GULP energy -111533.567495 kJ/mol
# GULP energy per Si atom -5576.678375 kJ/mol
# Density = 2.372244 g / cm^3
# Si number density = 23.776555 Si / 1000 Ang^3
#
#
#
# Elastic Constant Matrix: (Units=GPa)
#
#
# Indices 1 2 3 4 5 6 
#
# 1 117.9745 8.2311 46.8437 0.0000 19.6458 0.0000
# 2 8.2311 47.5683 17.9570 0.0000 -6.1271 0.0000
# 3 46.8437 17.9570 163.8336 0.0000 25.2917 0.0000
# 4 0.0000 0.0000 0.0000 3.1852 0.0000 18.8740
# 5 19.6458 -6.1271 25.2917 0.0000 36.2452 0.0000
# 6 0.0000 0.0000 0.0000 18.8740 0.0000 20.9959
#
#
#
# Elastic Compliance Matrix: (Units=1/GPa)
#
#
# Indices 1 2 3 4 5 6 
#
# 1 0.010118 -0.001527 -0.002061 0.000000 -0.004304 0.000000
# 2 -0.001527 0.023405 -0.003213 0.000000 0.007026 0.000000
# 3 -0.002061 -0.003213 0.007797 0.000000 -0.004866 0.000000
# 4 0.000000 0.000000 0.000000 -0.072562 0.000000 0.065229
# 5 -0.004304 0.007026 -0.004866 0.000000 0.034506 0.000000
# 6 0.000000 0.000000 0.000000 0.065229 0.000000 -0.011008
#
#
# Mechanical properties :
#
#
# Convention : Reuss Voigt Hill
#
# Bulk Modulus (GPa) = 36.08009 52.82666 44.45338
# Shear Modulus (GPa) = 331.17240 29.17490 180.17365
#
# Velocity S-wave (km/s) = 11.81472 3.50672 8.71449
# Velocity P-wave (km/s) = 14.18889 6.21790 10.95415
#
# Compressibility (1/GPa) = 0.02771612
#
# Stress axis : x y z
#
# Youngs Moduli (GPa) = 98.83249 42.72646 128.26220
#
# Poissons Ratio (x) = 0.06525 0.26437
# Poissons Ratio (y) = 0.15093 0.41215
# Poissons Ratio (z) = 0.20371 0.13729
#
# Static dielectric constant tensor:
#      x y z
#    x 1.907940 0.000000 -0.015470 
#    y 0.000000 1.922090 0.000000 
#    z -0.015470 0.000000 1.994550 
# 
# From -- ./inp_files/48716.got.cif
#   From: 2010.05.17/outbox.cif.g08.bks.cpg/sg12_25_cif.got.tgz:48716.got - 2010.06.03 13:09:07.
