data_PCOD9186498
_publ_section_title
;
Structure prediction by ZEFSAII (Michael W. Deem and Ramdas Pophale) SiO2 
 PCOD9186498
Probable space group: C 2/M
;
_chemical_formula_sum "Si O2"
_cell_formula_units_Z 44
_cell_length_a 16.825104
_cell_length_b 15.693312
_cell_length_c 16.055021
_cell_angle_alpha 90.000000
_cell_angle_beta 25.818841
_cell_angle_gamma 90.000000
_cell_volume 1846.283813
_symmetry_space_group_name_H-M "C 2/M"
_symmetry_group_IT_number 12
_symmetry_cell_setting 'monoclinic'
loop_
_space_group_symop_operation_xyz
x,y,z
-x,y,-z
-x,-y,-z
x,-y,z
1/2+x,1/2+y,z
1/2-x,1/2+y,-z
1/2-x,1/2-y,-z
1/2+x,1/2-y,z
loop_
_atom_site_type_symbol
_atom_site_label
_atom_site_fract_x
_atom_site_fract_y
_atom_site_fract_z
Si Si1 0.792262 0.591923 0.757033
Si Si2 0.557335 0.648069 0.127117
Si Si3 0.634136 0.860051 0.548675
Si Si4 0.111671 0.353563 0.064580
Si Si5 0.500000 0.870310 0.000000
Si Si6 0.824228 0.762781 0.620511
O O1 0.782024 0.500000 0.725555
O O2 0.786196 0.671647 0.701124
O O3 0.980470 0.598577 0.633012
O O4 0.631166 0.602105 0.975197
O O5 0.349084 0.621601 0.340641
O O6 0.591182 0.749614 0.076296
O O7 0.697064 0.629000 0.069927
O O8 0.550239 0.875452 0.718250
O O9 0.632507 0.761370 0.515771
O O10 0.101825 0.402814 0.986403
O O11 0.344668 0.818945 0.195954
O O12 0.000000 0.799461 0.500000
#
# Coordination Sequence:
#
# PCOD9186498 Si02
#       6
#     8   8   8   8   4   8
#     4  10  21  36  52  78 114 151 187 217 252 314
#     4  10  19  35  53  76 104 143 184 223 269 316
#     4  10  20  34  52  75 104 146 186 221 268 313
#     4  10  21  32  55  76 106 142 180 226 272 324
#     4  12  20  34  51  78 109 142 178 218 270 322
#     4  10  20  31  48  74 107 144 184 214 253 312
#
# _framework density 23.831655000000001
#
# number of rings (size 3 to 8) (size 9 to 14) (size 15 to 20)
#    0.000    1.818    3.636    0.545    2.545    4.000 
#    0.000    3.182    0.000    0.000    0.000   10.182 
#    0.000   11.636    0.000    0.000    0.000    0.000 
#
# Total GULP energy -122810.013738 kJ/mol
# GULP energy per Si atom -5582.273352 kJ/mol
# Density = 2.377741 g / cm^3
# Si number density = 23.831655 Si / 1000 Ang^3
#
#
#
# Elastic Constant Matrix: (Units=GPa)
#
#
# Indices 1 2 3 4 5 6 
#
# 1 132.7732 -13.4351 40.0784 -0.0030 4.8871 -0.0035
# 2 -13.4351 48.7516 -6.9359 -0.0109 -2.5721 -0.0015
# 3 40.0784 -6.9359 144.4081 -0.0088 -22.4753 -0.0033
# 4 -0.0030 -0.0109 -0.0088 3.0246 0.0038 4.6861
# 5 4.8871 -2.5721 -22.4753 0.0038 48.7763 -0.0004
# 6 -0.0035 -0.0015 -0.0033 4.6861 -0.0004 -7.6574
#
#
#
# Elastic Compliance Matrix: (Units=1/GPa)
#
#
# Indices 1 2 3 4 5 6 
#
# 1 0.008578 0.001892 -0.002594 0.000008 -0.001955 0.000002
# 2 0.001892 0.021197 0.000687 0.000045 0.001245 0.000022
# 3 -0.002594 0.000687 0.008321 0.000012 0.004130 0.000005
# 4 0.000008 0.000045 0.000012 0.169712 -0.000005 0.103858
# 5 -0.001955 0.001245 0.004130 -0.000005 0.022666 -0.000005
# 6 0.000002 0.000022 0.000005 0.103858 -0.000005 -0.067034
#
#
# Mechanical properties :
#
#
# Convention : Reuss Voigt Hill
#
# Bulk Modulus (GPa) = 26.27134 40.59421 33.43278
# Shear Modulus (GPa) = 28.38339 29.24373 28.81356
#
# Velocity S-wave (km/s) = 3.45482 3.50679 3.48091
# Velocity P-wave (km/s) = 5.19250 5.78511 5.49680
#
# Compressibility (1/GPa) = 0.03806429
#
# Stress axis : x y z
#
# Youngs Moduli (GPa) = 116.57620 47.17679 120.18410
#
# Poissons Ratio (x) = -0.08925 0.31177
# Poissons Ratio (y) = -0.22053 -0.08254
# Poissons Ratio (z) = 0.30242 -0.03240
#
# Static dielectric constant tensor:
#      x y z
#    x 2.028740 -0.000010 -0.017240 
#    y -0.000010 1.943260 0.000000 
#    z -0.017240 0.000000 1.914040 
# 
# From -- ./inp_files/218198.got.cif
#   From: 2010.05.17/outbox.cif.g08.bks.cpg/sg12_110_cif.got.tgz:218198.got - 2010.06.03 13:09:07.
