data_PCOD9186640
_publ_section_title
;
Structure prediction by ZEFSAII (Michael W. Deem and Ramdas Pophale) SiO2 
 PCOD9186640
Probable space group: C 2/M
;
_chemical_formula_sum "Si O2"
_cell_formula_units_Z 48
_cell_length_a 7.503808
_cell_length_b 29.190338
_cell_length_c 17.289823
_cell_angle_alpha 90.000000
_cell_angle_beta 143.249247
_cell_angle_gamma 90.000000
_cell_volume 2265.979034
_symmetry_space_group_name_H-M "C 2/M"
_symmetry_group_IT_number 12
_symmetry_cell_setting 'monoclinic'
loop_
_space_group_symop_operation_xyz
x,y,z
-x,y,-z
-x,-y,-z
x,-y,z
1/2+x,1/2+y,z
1/2-x,1/2+y,-z
1/2-x,1/2-y,-z
1/2+x,1/2-y,z
loop_
_atom_site_type_symbol
_atom_site_label
_atom_site_fract_x
_atom_site_fract_y
_atom_site_fract_z
Si Si1 0.673048 0.144577 0.216799
Si Si2 0.983835 0.449240 0.636559
Si Si3 0.753971 0.196969 0.525239
Si Si4 0.639043 0.854475 0.727792
Si Si5 0.661701 0.697060 0.973209
Si Si6 0.899532 0.949096 0.336180
O O1 0.467283 0.140048 0.221422
O O2 0.803721 0.093819 0.251413
O O3 0.937519 0.179124 0.332556
O O4 0.458463 0.166337 0.078532
O O5 0.118758 0.500000 0.676433
O O6 0.738246 0.443647 0.483775
O O7 0.796215 0.448583 0.652202
O O8 0.192017 0.404949 0.711919
O O9 0.500000 0.189832 0.500000
O O10 0.750000 0.250000 0.500000
O O11 0.642182 0.167281 0.414049
O O12 0.923642 0.821082 0.827615
O O13 0.500000 0.692666 0.000000
O O14 0.750000 0.750000 0.000000
O O15 0.863978 0.000000 0.290049
#
# Coordination Sequence:
#
# PCOD9186640 Si02
#       6
#     8   8   8   8   8   8
#     4  10  19  35  55  78 107 139 175 217 260 310
#     4   8  13  24  48  79 106 135 169 207 257 310
#     4  12  24  36  53  78 103 133 176 223 269 314
#     4  10  19  35  55  78 107 139 175 217 260 310
#     4  10  22  36  53  75 103 141 180 216 265 316
#     4   8  13  24  48  79 106 135 169 207 257 310
#
# _framework density 21.182897000000001
#
# number of rings (size 3 to 8) (size 9 to 14) (size 15 to 20)
#    0.000    2.333    1.667    3.500    0.000    4.000 
#    0.000    0.833    0.000    7.000    0.000    0.000 
#    0.000    4.000    0.000    0.000    0.000    0.000 
#
# Total GULP energy -133989.622440 kJ/mol
# GULP energy per Si atom -5582.900935 kJ/mol
# Density = 2.113468 g / cm^3
# Si number density = 21.182897 Si / 1000 Ang^3
#
#
#
# Elastic Constant Matrix: (Units=GPa)
#
#
# Indices 1 2 3 4 5 6 
#
# 1 39.7711 5.9693 8.5607 0.0000 5.8291 0.0000
# 2 5.9693 181.6047 56.4515 0.0000 14.3509 0.0000
# 3 8.5607 56.4515 98.4154 0.0001 15.7619 0.0001
# 4 0.0000 0.0000 0.0001 21.8157 0.0000 -3.8947
# 5 5.8291 14.3509 15.7619 0.0000 17.3736 0.0000
# 6 0.0000 0.0000 0.0001 -3.8947 0.0000 -1.6636
#
#
#
# Elastic Compliance Matrix: (Units=1/GPa)
#
#
# Indices 1 2 3 4 5 6 
#
# 1 0.026535 0.000096 -0.001082 0.000000 -0.008001 0.000000
# 2 0.000096 0.006788 -0.003509 0.000000 -0.002456 0.000000
# 3 -0.001082 -0.003509 0.013742 0.000000 -0.009206 0.000001
# 4 0.000000 0.000000 0.000000 0.032327 0.000000 -0.075682
# 5 -0.008001 -0.002456 -0.009206 0.000000 0.070624 0.000000
# 6 0.000000 0.000000 0.000001 -0.075682 0.000000 -0.423927
#
#
# Mechanical properties :
#
#
# Convention : Reuss Voigt Hill
#
# Bulk Modulus (GPa) = 26.26293 51.30602 38.78447
# Shear Modulus (GPa) = -19.82317 24.09246 2.13465
#
# Velocity S-wave (km/s) = -3.06242 3.37613 1.00494
# Velocity P-wave (km/s) = 0.28189 6.28257 4.43798
#
# Compressibility (1/GPa) = 0.03807649
#
# Stress axis : x y z
#
# Youngs Moduli (GPa) = 37.68615 147.31764 72.76900
#
# Poissons Ratio (x) = -0.01420 0.07874
# Poissons Ratio (y) = -0.00363 0.25532
# Poissons Ratio (z) = 0.04078 0.51689
#
# Static dielectric constant tensor:
#      x y z
#    x 1.702500 0.000000 0.106110 
#    y 0.000000 1.782850 0.000000 
#    z 0.106110 0.000000 1.673180 
# 
# From -- ./inp_files/302906.got.cif
#   From: 2010.05.17/outbox.cif.g08.bks.cpg/sg12_152_cif.got.tgz:302906.got - 2010.06.03 13:09:07.
