data_PCOD9186572
_publ_section_title
;
Structure prediction by ZEFSAII (Michael W. Deem and Ramdas Pophale) SiO2 
 PCOD9186572
Probable space group: C 2/M
;
_chemical_formula_sum "Si O2"
_cell_formula_units_Z 56
_cell_length_a 13.962477
_cell_length_b 23.858050
_cell_length_c 9.241513
_cell_angle_alpha 90.000000
_cell_angle_beta 65.390929
_cell_angle_gamma 90.000000
_cell_volume 2798.889048
_symmetry_space_group_name_H-M "C 2/M"
_symmetry_group_IT_number 12
_symmetry_cell_setting 'monoclinic'
loop_
_space_group_symop_operation_xyz
x,y,z
-x,y,-z
-x,-y,-z
x,-y,z
1/2+x,1/2+y,z
1/2-x,1/2+y,-z
1/2-x,1/2-y,-z
1/2+x,1/2-y,z
loop_
_atom_site_type_symbol
_atom_site_label
_atom_site_fract_x
_atom_site_fract_y
_atom_site_fract_z
Si Si1 0.281362 0.868319 0.850630
Si Si2 0.916958 0.740535 0.765309
Si Si3 0.150971 0.882629 0.655232
Si Si4 0.426100 0.367397 0.839787
Si Si5 0.611370 0.066847 0.983475
Si Si6 0.817387 0.934289 0.667289
Si Si7 0.869713 0.761313 0.460663
O O1 0.334487 0.808088 0.856627
O O2 0.248352 0.872967 0.703415
O O3 0.172157 0.882807 0.998649
O O4 0.361626 0.911333 0.873599
O O5 0.917535 0.799275 0.849821
O O6 0.887626 0.755600 0.618997
O O7 0.041216 0.724403 0.676957
O O8 0.178597 0.923878 0.506901
O O9 0.117717 0.824867 0.597917
O O10 0.040004 0.892877 0.806989
O O11 0.398792 0.394056 0.700155
O O12 0.704238 0.080690 0.810480
O O13 0.605937 0.000000 0.991429
O O14 0.500000 0.090003 0.000000
O O15 0.838860 0.000000 0.684034
O O16 0.750000 0.750000 0.500000
#
# Coordination Sequence:
#
# PCOD9186572 Si02
#       7
#     8   8   8   8   8   8   8
#     4  11  22  37  58  90 115 150 198 249 291 352
#     4  10  20  35  56  83 115 158 199 231 284 360
#     4  11  21  35  58  85 119 152 189 246 301 341
#     4  10  21  38  56  81 121 160 192 236 298 350
#     4   9  21  44  64  81 115 157 195 242 302 352
#     4  10  21  38  62  86 111 154 205 239 279 362
#     4  10  19  35  54  80 119 157 185 235 298 340
#
# _framework density 20.007940000000001
#
# number of rings (size 3 to 8) (size 9 to 14) (size 15 to 20)
#    0.000    1.857    2.857    1.286    0.000    2.857 
#    0.000    1.429    0.000    6.857    0.000    0.000 
#    0.000    0.000    0.000    0.000    0.000    0.000 
#
# Total GULP energy -155894.417540 kJ/mol
# GULP energy per Si atom -5567.657769 kJ/mol
# Density = 1.996240 g / cm^3
# Si number density = 20.007940 Si / 1000 Ang^3
#
#
#
# Elastic Constant Matrix: (Units=GPa)
#
#
# Indices 1 2 3 4 5 6 
#
# 1 140.4691 24.8386 21.0390 0.0000 0.1315 0.0000
# 2 24.8386 29.1412 11.6305 0.0000 -4.0880 0.0000
# 3 21.0390 11.6305 42.0402 0.0000 5.1265 0.0000
# 4 0.0000 0.0000 0.0000 24.5520 0.0000 -0.6428
# 5 0.1315 -4.0880 5.1265 0.0000 20.5820 0.0000
# 6 0.0000 0.0000 0.0000 -0.6428 0.0000 20.5873
#
#
#
# Elastic Compliance Matrix: (Units=1/GPa)
#
#
# Indices 1 2 3 4 5 6 
#
# 1 0.008632 -0.006489 -0.002435 0.000000 -0.000738 0.000000
# 2 -0.006489 0.045855 -0.010885 0.000000 0.011860 0.000000
# 3 -0.002435 -0.010885 0.029164 0.000000 -0.009410 0.000000
# 4 0.000000 0.000000 0.000000 0.040763 0.000000 0.001273
# 5 -0.000738 0.011860 -0.009410 0.000000 0.053290 0.000000
# 6 0.000000 0.000000 0.000000 0.001273 0.000000 0.048613
#
#
# Mechanical properties :
#
#
# Convention : Reuss Voigt Hill
#
# Bulk Modulus (GPa) = 22.70986 36.29629 29.50307
# Shear Modulus (GPa) = 17.81823 23.42044 20.61933
#
# Velocity S-wave (km/s) = 2.98746 3.42505 3.21371
# Velocity P-wave (km/s) = 4.82441 5.81564 5.34306
#
# Compressibility (1/GPa) = 0.04403374
#
# Stress axis : x y z
#
# Youngs Moduli (GPa) = 115.85089 21.80807 34.28898
#
# Poissons Ratio (x) = 0.14152 0.08348
# Poissons Ratio (y) = 0.75177 0.37322
# Poissons Ratio (z) = 0.28205 0.23737
#
# Static dielectric constant tensor:
#      x y z
#    x 1.775030 0.000000 -0.029890 
#    y 0.000000 1.740740 0.000000 
#    z -0.029890 0.000000 1.750680 
# 
# From -- ./inp_files/65313.got.cif
#   From: 2010.05.17/outbox.cif.g08.bks.cpg/sg12_33_cif.got.tgz:65313.got - 2010.06.03 13:09:07.
