data_PCOD9186418
_publ_section_title
;
Structure prediction by ZEFSAII (Michael W. Deem and Ramdas Pophale) SiO2 
 PCOD9186418
Probable space group: C 2/M
;
_chemical_formula_sum "Si O2"
_cell_formula_units_Z 44
_cell_length_a 7.940786
_cell_length_b 18.084243
_cell_length_c 16.315909
_cell_angle_alpha 90.000000
_cell_angle_beta 55.271998
_cell_angle_gamma 90.000000
_cell_volume 1925.643852
_symmetry_space_group_name_H-M "C 2/M"
_symmetry_group_IT_number 12
_symmetry_cell_setting 'monoclinic'
loop_
_space_group_symop_operation_xyz
x,y,z
-x,y,-z
-x,-y,-z
x,-y,z
1/2+x,1/2+y,z
1/2-x,1/2+y,-z
1/2-x,1/2-y,-z
1/2+x,1/2-y,z
loop_
_atom_site_type_symbol
_atom_site_label
_atom_site_fract_x
_atom_site_fract_y
_atom_site_fract_z
Si Si1 0.970794 0.000000 0.645579
Si Si2 0.990648 0.321480 0.125940
Si Si3 0.291160 0.350301 0.646465
Si Si4 0.813489 0.077990 0.264526
Si Si5 0.499068 0.201312 0.403349
Si Si6 0.849000 0.154684 0.920476
O O1 0.870768 0.067048 0.620039
O O2 0.064955 0.062592 0.684494
O O3 0.038532 0.234070 0.107021
O O4 0.900910 0.345708 0.237384
O O5 0.815463 0.340584 0.108224
O O6 0.206895 0.357453 0.039190
O O7 0.442443 0.285280 0.634412
O O8 0.211120 0.322458 0.580748
O O9 0.668443 0.146898 0.318375
O O10 0.982315 0.095038 0.149201
O O11 0.701493 0.000000 0.278087
O O12 0.500000 0.189441 0.500000
#
# Coordination Sequence:
#
# PCOD9186418 Si02
#       6
#     4   8   8   8   8   8
#     4  10  24  42  70  98 134 174 216 274 346 386
#     4  10  19  34  62  94 127 169 223 257 324 390
#     4  12  23  45  67  98 135 170 224 279 331 396
#     4  10  22  44  65  91 140 173 218 270 336 381
#     4  12  27  46  72  95 128 180 230 277 338 401
#     4  10  19  35  60  96 125 176 212 267 317 397
#
# _framework density 22.849499000000002
#
# number of rings (size 3 to 8) (size 9 to 14) (size 15 to 20)
#    0.545    0.727    3.636    2.727    1.273    0.364 
#    1.636    3.182    0.000    1.091    0.000    0.000 
#    0.000    0.000    0.000    0.000    0.000    0.000 
#
# Total GULP energy -122522.935207 kJ/mol
# GULP energy per Si atom -5569.224328 kJ/mol
# Density = 2.279749 g / cm^3
# Si number density = 22.849499 Si / 1000 Ang^3
#
#
#
# Elastic Constant Matrix: (Units=GPa)
#
#
# Indices 1 2 3 4 5 6 
#
# 1 52.8856 38.3636 6.6236 0.0000 8.3100 0.0000
# 2 38.3636 179.8008 28.3264 0.0000 -16.8183 0.0000
# 3 6.6236 28.3264 109.0861 0.0000 -12.1859 0.0000
# 4 0.0000 0.0000 0.0000 8.1721 0.0000 12.8646
# 5 8.3100 -16.8183 -12.1859 0.0000 28.2955 0.0000
# 6 0.0000 0.0000 0.0000 12.8646 0.0000 13.8454
#
#
#
# Elastic Compliance Matrix: (Units=1/GPa)
#
#
# Indices 1 2 3 4 5 6 
#
# 1 0.025528 -0.006359 -0.001217 0.000000 -0.011801 0.000000
# 2 -0.006359 0.007625 -0.000923 0.000000 0.006002 0.000000
# 3 -0.001217 -0.000923 0.009937 0.000000 0.004088 0.000000
# 4 0.000000 0.000000 0.000000 -0.264470 0.000000 0.245735
# 5 -0.011801 0.006002 0.004088 0.000000 0.044135 0.000000
# 6 0.000000 0.000000 0.000000 0.245735 0.000000 -0.156101
#
#
# Mechanical properties :
#
#
# Convention : Reuss Voigt Hill
#
# Bulk Modulus (GPa) = 38.32582 54.26664 46.29623
# Shear Modulus (GPa) = -16.25234 27.95986 5.85376
#
# Velocity S-wave (km/s) = -2.66987 3.50187 1.60232
# Velocity P-wave (km/s) = 2.70283 6.33656 4.87120
#
# Compressibility (1/GPa) = 0.02609207
#
# Stress axis : x y z
#
# Youngs Moduli (GPa) = 39.17212 131.13984 100.62920
#
# Poissons Ratio (x) = 0.83392 0.12247
# Poissons Ratio (y) = 0.24910 0.09293
# Poissons Ratio (z) = 0.04768 0.12111
#
# Static dielectric constant tensor:
#      x y z
#    x 1.874100 0.000000 -0.005270 
#    y 0.000000 1.825130 0.000000 
#    z -0.005270 0.000000 1.895540 
# 
# From -- ./inp_files/256852.got.cif
#   From: 2010.05.17/outbox.cif.g08.bks.cpg/sg12_129_cif.got.tgz:256852.got - 2010.06.03 13:09:07.
