data_PCOD9186158
_publ_section_title
;
Structure prediction by ZEFSAII (Michael W. Deem and Ramdas Pophale) SiO2 
 PCOD9186158
Probable space group: C 2/M
;
_chemical_formula_sum "Si O2"
_cell_formula_units_Z 64
_cell_length_a 29.444570
_cell_length_b 8.274460
_cell_length_c 18.616562
_cell_angle_alpha 90.000000
_cell_angle_beta 136.609887
_cell_angle_gamma 90.000000
_cell_volume 3115.854360
_symmetry_space_group_name_H-M "C 2/M"
_symmetry_group_IT_number 12
_symmetry_cell_setting 'monoclinic'
loop_
_space_group_symop_operation_xyz
x,y,z
-x,y,-z
-x,-y,-z
x,-y,z
1/2+x,1/2+y,z
1/2-x,1/2+y,-z
1/2-x,1/2-y,-z
1/2+x,1/2-y,z
loop_
_atom_site_type_symbol
_atom_site_label
_atom_site_fract_x
_atom_site_fract_y
_atom_site_fract_z
Si Si1 0.433469 0.696011 0.619753
Si Si2 0.315566 0.695000 0.762089
Si Si3 0.789431 0.192779 0.252880
Si Si4 0.822561 0.195315 0.606623
Si Si5 0.069485 0.692894 0.547018
Si Si6 0.054962 0.802635 0.007146
Si Si7 0.559230 0.305121 0.851061
Si Si8 0.709001 0.806698 0.021174
O O1 0.432070 0.500000 0.617122
O O2 0.377545 0.750395 0.612491
O O3 0.423333 0.755254 0.527536
O O4 0.504953 0.750564 0.731659
O O5 0.315356 0.500000 0.761457
O O6 0.246121 0.751863 0.714534
O O7 0.331695 0.749485 0.699727
O O8 0.373443 0.750339 0.882465
O O9 0.865040 0.248514 0.336671
O O10 0.745198 0.254823 0.135284
O O11 0.788704 0.000000 0.250477
O O12 0.750000 0.250000 0.500000
O O13 0.825410 0.000000 0.610385
O O14 0.068295 0.500000 0.549187
O O15 0.000000 0.754807 0.500000
O O16 0.054933 0.000000 0.007250
O O17 0.040084 0.750577 0.909387
O O18 0.000000 0.748906 0.000000
O O19 0.557639 0.500000 0.848409
O O20 0.634216 0.252375 0.926679
O O21 0.708598 0.000000 0.024075
O O22 0.750000 0.750000 0.000000
#
# Coordination Sequence:
#
# PCOD9186158 Si02
#       8
#     8   8   8   8   8   8   8   8
#     4  10  22  40  62  91 127 162 202 251 302 361
#     4  10  19  34  59  88 120 158 200 246 294 350
#     4  11  24  42  64  91 123 158 200 251 305 361
#     4  10  21  36  56  86 120 158 203 250 299 353
#     4  11  26  45  65  90 118 155 203 254 308 364
#     4   9  16  29  54  87 120 157 200 241 284 342
#     4  10  20  37  62  92 125 162 202 245 298 356
#     4  11  25  42  63  91 123 160 202 250 305 362
#
# _framework density 20.540111
#
# number of rings (size 3 to 8) (size 9 to 14) (size 15 to 20)
#    0.000    1.750    1.250    2.625    1.750    9.000 
#    0.000    0.000    0.000    3.000    0.000    0.000 
#    0.000    0.000    0.000    0.000    0.000    0.000 
#
# Total GULP energy -178804.903550 kJ/mol
# GULP energy per Si atom -5587.653236 kJ/mol
# Density = 2.049336 g / cm^3
# Si number density = 20.540111 Si / 1000 Ang^3
#
#
#
# Elastic Constant Matrix: (Units=GPa)
#
#
# Indices 1 2 3 4 5 6 
#
# 1 128.0117 6.2028 33.5400 0.0000 12.6135 0.0000
# 2 6.2028 11.9551 8.7279 0.0000 0.1521 0.0000
# 3 33.5400 8.7279 108.3616 0.0000 13.0398 0.0000
# 4 0.0000 0.0000 0.0000 26.0289 0.0000 3.2862
# 5 12.6135 0.1521 13.0398 0.0000 38.7172 0.0000
# 6 0.0000 0.0000 0.0000 3.2862 0.0000 15.9471
#
#
#
# Elastic Compliance Matrix: (Units=1/GPa)
#
#
# Indices 1 2 3 4 5 6 
#
# 1 0.008739 -0.002886 -0.002221 0.000000 -0.002088 0.000000
# 2 -0.002886 0.089997 -0.006697 0.000000 0.002842 0.000000
# 3 -0.002221 -0.006697 0.010803 0.000000 -0.002888 0.000000
# 4 0.000000 0.000000 0.000000 0.039445 0.000000 -0.008128
# 5 -0.002088 0.002842 -0.002888 0.000000 0.027470 0.000000
# 6 0.000000 0.000000 0.000000 -0.008128 0.000000 0.064383
#
#
# Mechanical properties :
#
#
# Convention : Reuss Voigt Hill
#
# Bulk Modulus (GPa) = 11.63744 38.36330 25.00037
# Shear Modulus (GPa) = 17.05963 29.46248 23.26106
#
# Velocity S-wave (km/s) = 2.88506 3.79144 3.36887
# Velocity P-wave (km/s) = 4.09586 6.15504 5.22784
#
# Compressibility (1/GPa) = 0.08592953
#
# Stress axis : x y z
#
# Youngs Moduli (GPa) = 114.42512 11.11149 92.56751
#
# Poissons Ratio (x) = 0.03207 0.20562
# Poissons Ratio (y) = 0.33024 0.61997
# Poissons Ratio (z) = 0.25417 0.07442
#
# Static dielectric constant tensor:
#      x y z
#    x 1.706590 0.000000 0.002630 
#    y 0.000000 1.723140 0.000000 
#    z 0.002630 0.000000 1.736040 
# 
# From -- ./inp_files/295704.got.cif
#   From: 2010.05.17/outbox.cif.g08.bks.cpg/sg12_148_cif.got.tgz:295704.got - 2010.06.03 13:09:07.
