data_PCOD9186033
_publ_section_title
;
Structure prediction by ZEFSAII (Michael W. Deem and Ramdas Pophale) SiO2 
 PCOD9186033
Probable space group: C 2/M
;
_chemical_formula_sum "Si O2"
_cell_formula_units_Z 50
_cell_length_a 11.331929
_cell_length_b 24.045151
_cell_length_c 15.389937
_cell_angle_alpha 90.000000
_cell_angle_beta 151.328651
_cell_angle_gamma 90.000000
_cell_volume 2011.938474
_symmetry_space_group_name_H-M "C 2/M"
_symmetry_group_IT_number 12
_symmetry_cell_setting 'monoclinic'
loop_
_space_group_symop_operation_xyz
x,y,z
-x,y,-z
-x,-y,-z
x,-y,z
1/2+x,1/2+y,z
1/2-x,1/2+y,-z
1/2-x,1/2-y,-z
1/2+x,1/2-y,z
loop_
_atom_site_type_symbol
_atom_site_label
_atom_site_fract_x
_atom_site_fract_y
_atom_site_fract_z
Si Si1 0.833699 0.116254 0.710534
Si Si2 0.751651 0.000000 0.112411
Si Si3 0.368449 0.299196 0.328738
Si Si4 0.208418 0.314250 0.791759
Si Si5 0.389134 0.412612 0.567323
Si Si6 0.994527 0.000000 0.892645
Si Si7 0.830252 0.315141 0.046967
Si Si8 0.000000 0.000000 0.500000
O O1 0.722378 0.100597 0.544094
O O2 0.867036 0.057311 0.780828
O O3 0.703250 0.156870 0.694997
O O4 0.098536 0.147821 0.866974
O O5 0.898264 0.948087 0.246532
O O6 0.764802 0.000000 0.016463
O O7 0.500000 0.000000 0.000000
O O8 0.500000 0.277419 0.500000
O O9 0.389206 0.248314 0.276626
O O10 0.514075 0.353762 0.399449
O O11 0.082483 0.314938 0.156659
O O12 0.102977 0.338578 0.813133
O O13 0.500000 0.312151 0.000000
O O14 0.345569 0.451104 0.455282
O O15 0.000000 0.000000 0.000000
O O16 0.750000 0.250000 0.000000
#
# Coordination Sequence:
#
# PCOD9186033 Si02
#       8
#     8   4   8   8   8   4   8   2
#     4  10  21  38  65  97 124 168 215 273 324 389
#     4   9  21  35  56  92 119 158 210 276 324 384
#     4  12  25  38  60  97 126 176 220 266 327 393
#     4  10  21  40  63  91 133 175 212 265 329 387
#     4  10  22  38  62  86 127 166 219 264 333 386
#     4  10  19  34  58  94 128 156 209 270 328 383
#     4  11  21  39  64  94 134 173 213 271 328 384
#     4  10  20  48  58  88 126 182 210 272 340 382
#
# _framework density 24.851655000000001
#
# number of rings (size 3 to 8) (size 9 to 14) (size 15 to 20)
#    0.000    1.600    4.000    2.880    4.480    0.640 
#    0.000    0.000    0.000    0.000    0.000    1.680 
#    0.000    0.000    0.000    0.000    0.000    0.000 
#
# Total GULP energy -139321.307747 kJ/mol
# GULP energy per Si atom -5572.852310 kJ/mol
# Density = 2.479509 g / cm^3
# Si number density = 24.851655 Si / 1000 Ang^3
#
#
#
# Elastic Constant Matrix: (Units=GPa)
#
#
# Indices 1 2 3 4 5 6 
#
# 1 74.3408 8.4830 27.4419 -0.0011 -18.7515 0.0004
# 2 8.4830 141.2164 4.0526 -0.0009 2.1092 0.0004
# 3 27.4419 4.0526 60.4593 0.0013 -3.4454 -0.0007
# 4 -0.0011 -0.0009 0.0013 23.4893 0.0012 -19.3653
# 5 -18.7515 2.1092 -3.4454 0.0012 48.6988 0.0001
# 6 0.0004 0.0004 -0.0007 -19.3653 0.0001 26.4591
#
#
#
# Elastic Compliance Matrix: (Units=1/GPa)
#
#
# Indices 1 2 3 4 5 6 
#
# 1 0.018051 -0.000958 -0.007762 0.000001 0.006443 0.000001
# 2 -0.000958 0.007151 -0.000084 0.000000 -0.000684 0.000000
# 3 -0.007762 -0.000084 0.019979 -0.000002 -0.001572 -0.000001
# 4 0.000001 0.000000 -0.000002 0.107343 -0.000002 0.078564
# 5 0.006443 -0.000684 -0.001572 -0.000002 0.022934 -0.000002
# 6 0.000001 0.000000 -0.000001 0.078564 -0.000002 0.095295
#
#
# Mechanical properties :
#
#
# Convention : Reuss Voigt Hill
#
# Bulk Modulus (GPa) = 36.26454 39.55239 37.90847
# Shear Modulus (GPa) = 16.80381 35.46539 26.13460
#
# Velocity S-wave (km/s) = 2.60314 3.78177 3.24639
# Velocity P-wave (km/s) = 4.86407 5.91769 5.41656
#
# Compressibility (1/GPa) = 0.02757515
#
# Stress axis : x y z
#
# Youngs Moduli (GPa) = 55.39798 139.83099 50.05220
#
# Poissons Ratio (x) = 0.13394 0.38850
# Poissons Ratio (y) = 0.05306 0.00419
# Poissons Ratio (z) = 0.42999 0.01169
#
# Static dielectric constant tensor:
#      x y z
#    x 2.038930 0.000000 0.105320 
#    y 0.000000 1.988450 -0.000010 
#    z 0.105320 -0.000010 1.663540 
# 
# From -- ./inp_files/208706.got.cif
#   From: 2010.05.17/outbox.cif.g08.bks.cpg/sg12_105_cif.got.tgz:208706.got - 2010.06.03 13:09:07.
