data_PCOD9186024
_publ_section_title
;
Structure prediction by ZEFSAII (Michael W. Deem and Ramdas Pophale) SiO2 
 PCOD9186024
Probable space group: C 2/M
;
_chemical_formula_sum "Si O2"
_cell_formula_units_Z 38
_cell_length_a 26.450496
_cell_length_b 7.739273
_cell_length_c 9.888763
_cell_angle_alpha 90.000000
_cell_angle_beta 78.244199
_cell_angle_gamma 90.000000
_cell_volume 1981.844932
_symmetry_space_group_name_H-M "C 2/M"
_symmetry_group_IT_number 12
_symmetry_cell_setting 'monoclinic'
loop_
_space_group_symop_operation_xyz
x,y,z
-x,y,-z
-x,-y,-z
x,-y,z
1/2+x,1/2+y,z
1/2-x,1/2+y,-z
1/2-x,1/2-y,-z
1/2+x,1/2-y,z
loop_
_atom_site_type_symbol
_atom_site_label
_atom_site_fract_x
_atom_site_fract_y
_atom_site_fract_z
Si Si1 0.160864 0.193447 0.578398
Si Si2 0.296956 0.301030 0.144928
Si Si3 0.184627 0.800426 0.265670
Si Si4 0.415942 0.000000 0.324049
Si Si5 0.602646 0.000000 0.259733
Si Si6 0.623022 0.000000 0.956315
Si Si7 0.500000 0.000000 0.500000
O O1 0.192850 0.207654 0.698631
O O2 0.192679 0.216422 0.423579
O O3 0.116124 0.333254 0.610406
O O4 0.138568 0.000000 0.585884
O O5 0.304834 0.500000 0.097925
O O6 0.237424 0.247114 0.160663
O O7 0.338332 0.165749 0.064343
O O8 0.139099 0.667455 0.259908
O O9 0.171299 0.000000 0.245692
O O10 0.410075 0.000000 0.163787
O O11 0.470646 0.000000 0.366584
O O12 0.556667 0.000000 0.391633
O O13 0.588590 0.000000 0.108898
#
# Coordination Sequence:
#
# PCOD9186024 Si02
#       7
#     8   8   8   4   4   4   2
#     4   9  18  32  57  90 125 159 199 248 297 360
#     4  10  19  34  58  91 129 170 196 235 298 369
#     4  11  20  35  57  92 127 167 203 245 294 364
#     4  10  20  41  65  88 121 150 210 254 308 357
#     4  12  26  43  61  88 125 158 215 257 300 353
#     4  10  24  41  60  92 128 167 191 244 309 379
#     4  12  24  46  74  88 108 160 208 276 312 340
#
# _framework density 19.174054000000002
#
# number of rings (size 3 to 8) (size 9 to 14) (size 15 to 20)
#    0.000    1.684    4.211    0.632    0.000    2.105 
#    0.000    2.105    0.000    0.000    0.000    7.368 
#    0.000    0.000    0.000    0.000    0.000    0.000 
#
# Total GULP energy -105819.630401 kJ/mol
# GULP energy per Si atom -5569.454232 kJ/mol
# Density = 1.913041 g / cm^3
# Si number density = 19.174054 Si / 1000 Ang^3
#
#
#
# Elastic Constant Matrix: (Units=GPa)
#
#
# Indices 1 2 3 4 5 6 
#
# 1 102.6714 45.4966 25.3906 0.0000 -2.9556 0.0000
# 2 45.4966 114.7233 25.8019 0.0000 -1.6832 0.0000
# 3 25.3906 25.8019 137.0023 0.0000 1.1479 0.0000
# 4 0.0000 0.0000 0.0000 -22.5418 0.0000 -6.3118
# 5 -2.9556 -1.6832 1.1479 0.0000 14.8410 0.0000
# 6 0.0000 0.0000 0.0000 -6.3118 0.0000 -4.4254
#
#
#
# Elastic Compliance Matrix: (Units=1/GPa)
#
#
# Indices 1 2 3 4 5 6 
#
# 1 0.012126 -0.004459 -0.001424 0.000000 0.002019 0.000000
# 2 -0.004459 0.010762 -0.001204 0.000000 0.000426 0.000000
# 3 -0.001424 -0.001204 0.007798 0.000000 -0.001023 0.000000
# 4 0.000000 0.000000 0.000000 -0.073857 0.000000 0.105339
# 5 0.002019 0.000426 -0.001023 0.000000 0.067910 0.000000
# 6 0.000000 0.000000 0.000000 0.105339 0.000000 -0.376205
#
#
# Mechanical properties :
#
#
# Convention : Reuss Voigt Hill
#
# Bulk Modulus (GPa) = 60.56319 60.86391 60.71355
# Shear Modulus (GPa) = -15.06994 14.75527 -0.15734
#
# Velocity S-wave (km/s) = -2.80653 2.77707 -0.28677
# Velocity P-wave (km/s) = 4.59918 6.48804 5.62348
#
# Compressibility (1/GPa) = 0.01651168
#
# Stress axis : x y z
#
# Youngs Moduli (GPa) = 82.46675 92.91976 128.23019
#
# Poissons Ratio (x) = 0.41432 0.18266
# Poissons Ratio (y) = 0.36771 0.15439
# Poissons Ratio (z) = 0.11747 0.11188
#
# Static dielectric constant tensor:
#      x y z
#    x 1.630560 0.000000 0.065210 
#    y 0.000000 1.653620 0.000000 
#    z 0.065210 0.000000 1.710190 
# 
# From -- ./inp_files/162456.got.cif
#   From: 2010.05.17/outbox.cif.g08.bks.cpg/sg12_82_cif.got.tgz:162456.got - 2010.06.03 13:09:07.
