data_PCOD9186896
_publ_section_title
;
Structure prediction by ZEFSAII (Michael W. Deem and Ramdas Pophale) SiO2 
 PCOD9186896
Probable space group: C 2/M
;
_chemical_formula_sum "Si O2"
_cell_formula_units_Z 64
_cell_length_a 22.942939
_cell_length_b 21.754016
_cell_length_c 9.645406
_cell_angle_alpha 90.000000
_cell_angle_beta 49.805112
_cell_angle_gamma 90.000000
_cell_volume 3677.216031
_symmetry_space_group_name_H-M "C 2/M"
_symmetry_group_IT_number 12
_symmetry_cell_setting 'monoclinic'
loop_
_space_group_symop_operation_xyz
x,y,z
-x,y,-z
-x,-y,-z
x,-y,z
1/2+x,1/2+y,z
1/2-x,1/2+y,-z
1/2-x,1/2-y,-z
1/2+x,1/2-y,z
loop_
_atom_site_type_symbol
_atom_site_label
_atom_site_fract_x
_atom_site_fract_y
_atom_site_fract_z
Si Si1 0.083565 0.430306 0.804774
Si Si2 0.358473 0.799956 0.344735
Si Si3 0.255012 0.069061 0.333263
Si Si4 0.856631 0.071565 0.255138
Si Si5 0.947685 0.176960 0.277946
Si Si6 0.654717 0.658051 0.303552
Si Si7 0.238126 0.246733 0.751206
Si Si8 0.877175 0.146877 0.960786
O O1 0.089628 0.500000 0.730555
O O2 0.100029 0.365668 0.701361
O O3 0.153821 0.428478 0.805721
O O4 0.000000 0.426734 0.000000
O O5 0.415746 0.741593 0.268193
O O6 0.294839 0.788599 0.559525
O O7 0.311988 0.792078 0.271055
O O8 0.223217 0.080797 0.538861
O O9 0.209521 0.110711 0.298090
O O10 0.231802 0.000000 0.336356
O O11 0.911996 0.120274 0.246011
O O12 0.878612 0.000000 0.236998
O O13 0.856851 0.090768 0.094462
O O14 0.915134 0.170633 0.484261
O O15 0.037809 0.170324 0.137854
O O16 0.707607 0.718602 0.223983
O O17 0.630247 0.635535 0.191128
O O18 0.181232 0.200278 0.909555
#
# Coordination Sequence:
#
# PCOD9186896 Si02
#       8
#     8   8   8   8   8   8   8   8
#     4  10  20  31  52  87 115 136 175 233 286 329
#     4  10  19  35  57  76 108 140 185 228 276 330
#     4   9  18  36  56  74 106 148 183 221 273 327
#     4  10  21  36  55  79 108 145 191 233 268 316
#     4  10  22  36  54  80 109 146 181 227 279 327
#     4  10  21  37  52  76 112 145 177 220 274 336
#     4  10  20  34  54  78 102 140 186 226 266 322
#     4  12  22  33  54  81 110 140 180 228 277 327
#
# _framework density 17.404471000000001
#
# number of rings (size 3 to 8) (size 9 to 14) (size 15 to 20)
#    0.000    1.875    2.500    1.875    1.750    1.500 
#    0.000    0.000    0.000    3.750    0.000    2.625 
#    0.000   22.000    0.000    0.000    0.000    0.000 
#
# Total GULP energy -178288.820185 kJ/mol
# GULP energy per Si atom -5571.525631 kJ/mol
# Density = 1.736486 g / cm^3
# Si number density = 17.404471 Si / 1000 Ang^3
#
#
#
# Elastic Constant Matrix: (Units=GPa)
#
#
# Indices 1 2 3 4 5 6 
#
# 1 53.0769 29.0691 37.7993 0.0000 -6.3700 0.0000
# 2 29.0691 126.3796 38.1737 0.0000 -5.7731 0.0000
# 3 37.7993 38.1737 70.8661 0.0000 -5.0812 0.0000
# 4 0.0000 0.0000 0.0000 23.4219 0.0000 -1.8817
# 5 -6.3700 -5.7731 -5.0812 0.0000 36.0591 0.0000
# 6 0.0000 0.0000 0.0000 -1.8817 0.0000 12.6477
#
#
#
# Elastic Compliance Matrix: (Units=1/GPa)
#
#
# Indices 1 2 3 4 5 6 
#
# 1 0.031375 -0.002496 -0.015176 0.000000 0.003005 0.000000
# 2 -0.002496 0.009672 -0.003838 0.000000 0.000567 0.000000
# 3 -0.015176 -0.003838 0.024282 0.000000 0.000126 0.000000
# 4 0.000000 0.000000 0.000000 0.043211 0.000000 0.006429
# 5 0.003005 0.000567 0.000126 0.000000 0.028372 0.000000
# 6 0.000000 0.000000 0.000000 0.006429 0.000000 0.080022
#
#
# Mechanical properties :
#
#
# Convention : Reuss Voigt Hill
#
# Bulk Modulus (GPa) = 44.82152 51.15630 47.98891
# Shear Modulus (GPa) = 18.69925 24.11112 21.40519
#
# Velocity S-wave (km/s) = 3.28135 3.72605 3.51075
# Velocity P-wave (km/s) = 6.33760 6.92587 6.63826
#
# Compressibility (1/GPa) = 0.02231071
#
# Stress axis : x y z
#
# Youngs Moduli (GPa) = 31.87211 103.39167 41.18238
#
# Poissons Ratio (x) = 0.25803 0.62496
# Poissons Ratio (y) = 0.07954 0.15807
# Poissons Ratio (z) = 0.48368 0.39684
#
# Static dielectric constant tensor:
#      x y z
#    x 1.574320 0.000000 -0.001040 
#    y 0.000000 1.639600 0.000000 
#    z -0.001040 0.000000 1.604980 
# 
# From -- ./inp_files/99071.got.cif
#   From: 2010.05.17/outbox.cif.g08.bks.cpg/sg12_50_cif.got.tgz:99071.got - 2010.06.03 13:09:07.
