data_PCOD9186630
_publ_section_title
;
Structure prediction by ZEFSAII (Michael W. Deem and Ramdas Pophale) SiO2 
 PCOD9186630
Probable space group: C 2/M
;
_chemical_formula_sum "Si O2"
_cell_formula_units_Z 48
_cell_length_a 16.390579
_cell_length_b 14.684593
_cell_length_c 10.114981
_cell_angle_alpha 90.000000
_cell_angle_beta 84.065241
_cell_angle_gamma 90.000000
_cell_volume 2421.515878
_symmetry_space_group_name_H-M "C 2/M"
_symmetry_group_IT_number 12
_symmetry_cell_setting 'monoclinic'
loop_
_space_group_symop_operation_xyz
x,y,z
-x,y,-z
-x,-y,-z
x,-y,z
1/2+x,1/2+y,z
1/2-x,1/2+y,-z
1/2-x,1/2-y,-z
1/2+x,1/2-y,z
loop_
_atom_site_type_symbol
_atom_site_label
_atom_site_fract_x
_atom_site_fract_y
_atom_site_fract_z
Si Si1 0.145221 0.399331 0.100922
Si Si2 0.576769 0.103427 0.584657
Si Si3 0.590026 0.289281 0.021315
Si Si4 0.765942 0.397621 0.630417
Si Si5 0.164030 0.259387 0.730962
Si Si6 0.720877 0.396858 0.158069
O O1 0.105674 0.500000 0.107499
O O2 0.190979 0.387653 0.232894
O O3 0.088549 0.313043 0.081249
O O4 0.213910 0.398482 0.974329
O O5 0.500000 0.115881 0.500000
O O6 0.660140 0.109929 0.485438
O O7 0.587774 0.182008 0.690277
O O8 0.571469 0.000000 0.640566
O O9 0.641074 0.282738 0.876557
O O10 0.500000 0.321657 0.000000
O O11 0.638589 0.353146 0.114227
O O12 0.731814 0.500000 0.628080
O O13 0.697240 0.320511 0.632402
O O14 0.237695 0.330901 0.742566
O O15 0.710409 0.500000 0.207130
#
# Coordination Sequence:
#
# PCOD9186630 Si02
#       6
#     8   8   8   8   8   8
#     4   9  17  33  54  75 102 138 179 219 262 318
#     4  10  23  38  55  84 113 138 174 226 281 319
#     4  11  22  33  51  82 114 141 176 222 274 319
#     4  10  19  35  59  79 104 144 184 221 261 318
#     4  11  20  37  59  79 106 147 186 220 261 322
#     4  10  19  35  55  77 108 143 183 222 261 319
#
# _framework density 19.822293999999999
#
# number of rings (size 3 to 8) (size 9 to 14) (size 15 to 20)
#    0.000    1.833    3.333    2.000    2.333    1.333 
#    0.000    0.000    0.000    0.500    0.000    0.000 
#    0.000    0.000    0.000    0.000    0.000    0.000 
#
# Total GULP energy -134034.361009 kJ/mol
# GULP energy per Si atom -5584.765042 kJ/mol
# Density = 1.977718 g / cm^3
# Si number density = 19.822294 Si / 1000 Ang^3
#
#
#
# Elastic Constant Matrix: (Units=GPa)
#
#
# Indices 1 2 3 4 5 6 
#
# 1 80.3474 45.6008 1.4738 0.0000 15.1845 0.0000
# 2 45.6008 101.2504 14.4845 0.0000 4.6002 0.0000
# 3 1.4738 14.4845 20.3014 0.0000 1.8694 0.0000
# 4 0.0000 0.0000 0.0000 12.3200 0.0000 4.5829
# 5 15.1845 4.6002 1.8694 0.0000 21.1718 0.0000
# 6 0.0000 0.0000 0.0000 4.5829 0.0000 22.8500
#
#
#
# Elastic Compliance Matrix: (Units=1/GPa)
#
#
# Indices 1 2 3 4 5 6 
#
# 1 0.020100 -0.009384 0.006428 0.000000 -0.012945 0.000000
# 2 -0.009384 0.015442 -0.010734 0.000000 0.004323 0.000000
# 3 0.006428 -0.010734 0.057124 0.000000 -0.007322 0.000000
# 4 0.000000 0.000000 0.000000 0.087713 0.000000 -0.017592
# 5 -0.012945 0.004323 -0.007322 0.000000 0.056224 0.000000
# 6 0.000000 0.000000 0.000000 -0.017592 0.000000 0.047292
#
#
# Mechanical properties :
#
#
# Convention : Reuss Voigt Hill
#
# Bulk Modulus (GPa) = 15.31732 36.11306 25.71519
# Shear Modulus (GPa) = 15.01329 20.62436 17.81883
#
# Velocity S-wave (km/s) = 2.75507 3.22912 3.00147
# Velocity P-wave (km/s) = 4.22665 5.67106 5.00128
#
# Compressibility (1/GPa) = 0.06528559
#
# Stress axis : x y z
#
# Youngs Moduli (GPa) = 49.75028 64.75778 17.50578
#
# Poissons Ratio (x) = 0.60770 -0.11253
# Poissons Ratio (y) = 0.46687 0.18791
# Poissons Ratio (z) = -0.31980 0.69514
#
# Static dielectric constant tensor:
#      x y z
#    x 1.670290 0.000000 -0.009280 
#    y 0.000000 1.721470 0.000000 
#    z -0.009280 0.000000 1.713350 
# 
# From -- ./inp_files/104933.got.cif
#   From: 2010.05.17/outbox.cif.g08.bks.cpg/sg12_53_cif.got.tgz:104933.got - 2010.06.03 13:09:07.
