data_PCOD9186478
_publ_section_title
;
Structure prediction by ZEFSAII (Michael W. Deem and Ramdas Pophale) SiO2 
 PCOD9186478
Probable space group: C 2/M
;
_chemical_formula_sum "Si O2"
_cell_formula_units_Z 48
_cell_length_a 23.946041
_cell_length_b 26.318434
_cell_length_c 13.179636
_cell_angle_alpha 90.000000
_cell_angle_beta 18.142303
_cell_angle_gamma 90.000000
_cell_volume 2586.338093
_symmetry_space_group_name_H-M "C 2/M"
_symmetry_group_IT_number 12
_symmetry_cell_setting 'monoclinic'
loop_
_space_group_symop_operation_xyz
x,y,z
-x,y,-z
-x,-y,-z
x,-y,z
1/2+x,1/2+y,z
1/2-x,1/2+y,-z
1/2-x,1/2-y,-z
1/2+x,1/2-y,z
loop_
_atom_site_type_symbol
_atom_site_label
_atom_site_fract_x
_atom_site_fract_y
_atom_site_fract_z
Si Si1 0.960581 0.392627 0.823113
Si Si2 0.712989 0.178737 0.710776
Si Si3 0.265451 0.500000 0.503409
Si Si4 0.399011 0.000000 0.001746
Si Si5 0.804706 0.887150 0.364599
Si Si6 0.980677 0.693291 0.415192
Si Si7 0.092721 0.233118 0.048629
O O1 0.163863 0.391230 0.516228
O O2 0.958346 0.362950 0.721739
O O3 0.897728 0.450122 0.936459
O O4 0.837491 0.361586 0.115233
O O5 0.703081 0.148321 0.622239
O O6 0.916673 0.199081 0.359230
O O7 0.598624 0.228640 0.941560
O O8 0.340983 0.444291 0.344682
O O9 0.079746 0.500000 0.759376
O O10 0.246003 0.500000 0.658301
O O11 0.000000 0.865349 0.000000
O O12 0.000000 0.703550 0.500000
O O13 0.089880 0.731574 0.154136
O O14 0.774970 0.701561 0.736631
#
# Coordination Sequence:
#
# PCOD9186478 Si02
#       7
#     8   8   4   4   8   8   8
#     4  10  20  34  53  76 102 137 170 206 255 303
#     4  10  19  35  52  73 104 137 168 206 250 304
#     4   9  17  30  52  76 101 135 168 203 246 295
#     4   9  16  32  53  74 102 132 168 206 246 304
#     4  11  20  32  51  78 109 134 167 207 248 302
#     4  10  19  35  55  77 101 132 172 216 255 293
#     4   9  20  35  53  76 102 133 176 209 251 299
#
# _framework density 18.559059000000001
#
# number of rings (size 3 to 8) (size 9 to 14) (size 15 to 20)
#    0.000    2.167    1.667    2.250    0.000    0.000 
#    0.000   21.250    0.000    0.000    0.000    1.167 
#    0.000    0.000    0.000    0.000    0.000    0.000 
#
# Total GULP energy -133751.572188 kJ/mol
# GULP energy per Si atom -5572.982174 kJ/mol
# Density = 1.851682 g / cm^3
# Si number density = 18.559059 Si / 1000 Ang^3
#
#
#
# Elastic Constant Matrix: (Units=GPa)
#
#
# Indices 1 2 3 4 5 6 
#
# 1 33.3443 18.6179 0.1758 -0.0036 17.7874 0.0034
# 2 18.6179 103.1792 29.4772 0.0007 3.3744 0.0021
# 3 0.1758 29.4772 87.7802 -0.0079 6.3838 0.0227
# 4 -0.0036 0.0007 -0.0079 18.5959 0.0237 2.3284
# 5 17.7874 3.3744 6.3838 0.0237 21.2556 -0.0058
# 6 0.0034 0.0021 0.0227 2.3284 -0.0058 11.1748
#
#
#
# Elastic Compliance Matrix: (Units=1/GPa)
#
#
# Indices 1 2 3 4 5 6 
#
# 1 0.067295 -0.012640 0.008239 0.000100 -0.056783 -0.000085
# 2 -0.012640 0.013103 -0.005104 -0.000021 0.010030 0.000021
# 3 0.008239 -0.005104 0.013834 0.000026 -0.010240 -0.000040
# 4 0.000100 -0.000021 0.000026 0.055216 -0.000153 -0.011505
# 5 -0.056783 0.010030 -0.010240 -0.000153 0.096047 0.000118
# 6 -0.000085 0.000021 -0.000040 -0.011505 0.000118 0.091884
#
#
# Mechanical properties :
#
#
# Convention : Reuss Voigt Hill
#
# Bulk Modulus (GPa) = 13.29386 35.64947 24.47167
# Shear Modulus (GPa) = 13.10744 21.94078 17.52411
#
# Velocity S-wave (km/s) = 2.66043 3.44206 3.07617
# Velocity P-wave (km/s) = 4.07624 5.92009 5.08248
#
# Compressibility (1/GPa) = 0.07522270
#
# Stress axis : x y z
#
# Youngs Moduli (GPa) = 14.86001 76.31975 72.28424
#
# Poissons Ratio (x) = 0.96465 -0.59557
# Poissons Ratio (y) = 0.18783 0.36895
# Poissons Ratio (z) = -0.12244 0.38955
#
# Static dielectric constant tensor:
#      x y z
#    x 1.604920 -0.000010 0.003970 
#    y -0.000010 1.664710 0.000030 
#    z 0.003970 0.000030 1.651790 
# 
# From -- ./inp_files/124869.got.cif
#   From: 2010.05.17/outbox.cif.g08.bks.cpg/sg12_63_cif.got.tgz:124869.got - 2010.06.03 13:09:07.
