data_PCOD9186388
_publ_section_title
;
Structure prediction by ZEFSAII (Michael W. Deem and Ramdas Pophale) SiO2 
 PCOD9186388
Probable space group: C 2/M
;
_chemical_formula_sum "Si O2"
_cell_formula_units_Z 36
_cell_length_a 21.244361
_cell_length_b 7.864320
_cell_length_c 14.596693
_cell_angle_alpha 90.000000
_cell_angle_beta 143.474105
_cell_angle_gamma 90.000000
_cell_volume 1451.483334
_symmetry_space_group_name_H-M "C 2/M"
_symmetry_group_IT_number 12
_symmetry_cell_setting 'monoclinic'
loop_
_space_group_symop_operation_xyz
x,y,z
-x,y,-z
-x,-y,-z
x,-y,z
1/2+x,1/2+y,z
1/2-x,1/2+y,-z
1/2-x,1/2-y,-z
1/2+x,1/2-y,z
loop_
_atom_site_type_symbol
_atom_site_label
_atom_site_fract_x
_atom_site_fract_y
_atom_site_fract_z
Si Si1 0.214818 0.681228 0.615891
Si Si2 0.238495 0.000000 0.139492
Si Si3 0.127462 0.692695 0.915895
Si Si4 0.995404 0.193838 0.391914
Si Si5 0.557531 0.797388 0.158809
O O1 0.176593 0.500000 0.532387
O O2 0.115063 0.802785 0.494647
O O3 0.324080 0.729321 0.695961
O O4 0.242189 0.645034 0.754932
O O5 0.204418 0.152240 0.027680
O O6 0.159938 0.500000 0.979730
O O7 0.081385 0.696257 0.759638
O O8 0.022819 0.738726 0.853808
O O9 0.000000 0.264582 0.500000
O O10 0.956918 0.000000 0.350213
O O11 0.566693 0.000000 0.159668
O O12 0.500000 0.727893 0.000000
#
# Coordination Sequence:
#
# PCOD9186388 Si02
#       5
#     8   4   8   8   8
#     4  10  22  37  64  95 132 172 215 261 333 381
#     4  10  22  41  66 102 134 172 222 271 318 406
#     4  11  23  40  69  99 133 178 220 265 331 391
#     4  11  25  46  70  91 128 177 225 279 335 389
#     4  10  19  34  61  95 135 171 213 264 324 390
#
# _framework density 24.802216000000001
#
# number of rings (size 3 to 8) (size 9 to 14) (size 15 to 20)
#    0.667    0.889    3.333    1.333    1.556    4.889 
#    0.000    1.111    0.000    0.000    0.000    0.000 
#    0.000    0.000    0.000    0.000    0.000    0.000 
#
# Total GULP energy -100230.688480 kJ/mol
# GULP energy per Si atom -5568.371582 kJ/mol
# Density = 2.474577 g / cm^3
# Si number density = 24.802216 Si / 1000 Ang^3
#
#
#
# Elastic Constant Matrix: (Units=GPa)
#
#
# Indices 1 2 3 4 5 6 
#
# 1 99.2769 23.7873 43.0745 0.0000 24.5798 0.0000
# 2 23.7873 103.5829 48.7651 0.0000 5.1396 0.0000
# 3 43.0745 48.7651 88.1299 0.0000 4.0362 0.0000
# 4 0.0000 0.0000 0.0000 22.0935 0.0000 2.3455
# 5 24.5798 5.1396 4.0362 0.0000 43.3118 0.0000
# 6 0.0000 0.0000 0.0000 2.3455 0.0000 27.6241
#
#
#
# Elastic Compliance Matrix: (Units=1/GPa)
#
#
# Indices 1 2 3 4 5 6 
#
# 1 0.015074 0.000310 -0.007176 0.000000 -0.007922 0.000000
# 2 0.000310 0.013095 -0.007349 0.000000 -0.001045 0.000000
# 3 -0.007176 -0.007349 0.018775 0.000000 0.003195 0.000000
# 4 0.000000 0.000000 0.000000 0.045674 0.000000 -0.003878
# 5 -0.007922 -0.001045 0.003195 0.000000 0.027411 0.000000
# 6 0.000000 0.000000 0.000000 -0.003878 0.000000 0.036530
#
#
# Mechanical properties :
#
#
# Convention : Reuss Voigt Hill
#
# Bulk Modulus (GPa) = 54.01927 58.02709 56.02318
# Shear Modulus (GPa) = 26.15627 30.29673 28.22650
#
# Velocity S-wave (km/s) = 3.25097 3.49884 3.37718
# Velocity P-wave (km/s) = 5.99325 6.30628 6.15176
#
# Compressibility (1/GPa) = 0.01851191
#
# Stress axis : x y z
#
# Youngs Moduli (GPa) = 66.34088 76.36657 53.26356
#
# Poissons Ratio (x) = -0.02366 0.38222
# Poissons Ratio (y) = -0.02056 0.39145
# Poissons Ratio (z) = 0.47607 0.56124
#
# Static dielectric constant tensor:
#      x y z
#    x 2.061870 0.000000 -0.012280 
#    y 0.000000 1.890860 0.000000 
#    z -0.012280 0.000000 1.932050 
# 
# From -- ./inp_files/236947.got.cif
#   From: 2010.05.17/outbox.cif.g08.bks.cpg/sg12_119_cif.got.tgz:236947.got - 2010.06.03 13:09:07.
