data_PCOD9186499
_publ_section_title
;
Structure prediction by ZEFSAII (Michael W. Deem and Ramdas Pophale) SiO2 
 PCOD9186499
Probable space group: C 2/M
;
_chemical_formula_sum "Si O2"
_cell_formula_units_Z 48
_cell_length_a 22.014642
_cell_length_b 13.146753
_cell_length_c 14.764824
_cell_angle_alpha 90.000000
_cell_angle_beta 144.899705
_cell_angle_gamma 90.000000
_cell_volume 2457.159783
_symmetry_space_group_name_H-M "C 2/M"
_symmetry_group_IT_number 12
_symmetry_cell_setting 'monoclinic'
loop_
_space_group_symop_operation_xyz
x,y,z
-x,y,-z
-x,-y,-z
x,-y,z
1/2+x,1/2+y,z
1/2-x,1/2+y,-z
1/2-x,1/2-y,-z
1/2+x,1/2-y,z
loop_
_atom_site_type_symbol
_atom_site_label
_atom_site_fract_x
_atom_site_fract_y
_atom_site_fract_z
Si Si1 0.613508 0.830442 0.603516
Si Si2 0.632192 0.168465 0.941462
Si Si3 0.721087 0.388390 0.048687
Si Si4 0.606555 0.829049 0.380322
Si Si5 0.191384 0.889882 0.484998
Si Si6 0.698206 0.387818 0.707620
O O1 0.500000 0.866055 0.500000
O O2 0.708895 0.880454 0.774973
O O3 0.620708 0.845698 0.505008
O O4 0.625283 0.709336 0.639435
O O5 0.696340 0.126895 0.933098
O O6 0.510597 0.138295 0.789805
O O7 0.644381 0.291351 0.952183
O O8 0.695068 0.129799 0.105731
O O9 0.671782 0.500000 0.980946
O O10 0.701130 0.879958 0.440678
O O11 0.620283 0.708092 0.378731
O O12 0.217651 0.884989 0.623930
O O13 0.141731 0.000000 0.406251
O O14 0.655094 0.500000 0.678317
#
# Coordination Sequence:
#
# PCOD9186499 Si02
#       6
#     8   8   8   8   8   8
#     4  10  19  35  53  76 108 139 174 215 263 312
#     4  10  20  35  53  77 109 139 173 217 263 310
#     4  10  21  35  51  76 110 144 175 209 257 319
#     4  10  20  36  56  78 106 138 174 220 263 306
#     4   9  20  37  56  78 103 136 179 220 260 308
#     4   9  19  35  54  77 106 137 174 218 262 313
#
# _framework density 19.534749000000001
#
# number of rings (size 3 to 8) (size 9 to 14) (size 15 to 20)
#    0.000    2.333    1.667    0.500    0.000    4.000 
#    0.000    1.667    0.000    0.000    0.000    9.333 
#    0.000    0.000    0.000    0.000    0.000    0.000 
#
# Total GULP energy -133931.758201 kJ/mol
# GULP energy per Si atom -5580.489925 kJ/mol
# Density = 1.949029 g / cm^3
# Si number density = 19.534749 Si / 1000 Ang^3
#
#
#
# Elastic Constant Matrix: (Units=GPa)
#
#
# Indices 1 2 3 4 5 6 
#
# 1 31.3533 -0.5879 -1.7822 0.0000 9.9687 0.0000
# 2 -0.5879 96.9018 -13.6323 0.0000 -11.7228 0.0000
# 3 -1.7822 -13.6323 52.0227 0.0000 3.2116 0.0000
# 4 0.0000 0.0000 0.0000 3.3590 0.0000 -9.6814
# 5 9.9687 -11.7228 3.2116 0.0000 11.8900 0.0000
# 6 0.0000 0.0000 0.0000 -9.6814 0.0000 10.9746
#
#
#
# Elastic Compliance Matrix: (Units=1/GPa)
#
#
# Indices 1 2 3 4 5 6 
#
# 1 0.045933 -0.004596 0.003078 0.000000 -0.043873 0.000000
# 2 -0.004596 0.012479 0.002151 0.000000 0.015576 0.000000
# 3 0.003078 0.002151 0.020258 0.000000 -0.005931 0.000000
# 4 0.000000 0.000000 0.000000 -0.192995 0.000000 -0.170252
# 5 -0.043873 0.015576 -0.005931 0.000000 0.137847 0.000000
# 6 0.000000 0.000000 0.000000 -0.170252 0.000000 -0.059070
#
#
# Mechanical properties :
#
#
# Convention : Reuss Voigt Hill
#
# Bulk Modulus (GPa) = 12.51022 16.47475 14.49248
# Shear Modulus (GPa) = -491.67200 18.33006 -236.67097
#
# Velocity S-wave (km/s) = -15.88198 3.06654 -11.01893
# Velocity P-wave (km/s) = 18.16311 4.58150 12.42796
#
# Compressibility (1/GPa) = 0.07993468
#
# Stress axis : x y z
#
# Youngs Moduli (GPa) = 21.77101 80.13642 49.36400
#
# Poissons Ratio (x) = 0.36830 -0.15193
# Poissons Ratio (y) = 0.10006 -0.10618
# Poissons Ratio (z) = -0.06701 -0.17237
#
# Static dielectric constant tensor:
#      x y z
#    x 1.634330 0.000000 -0.021930 
#    y 0.000000 1.759990 0.000000 
#    z -0.021930 0.000000 1.633470 
# 
# From -- ./inp_files/233354.got.cif
#   From: 2010.05.17/outbox.cif.g08.bks.cpg/sg12_117_cif.got.tgz:233354.got - 2010.06.03 13:09:07.
