data_PCOD9186714
_publ_section_title
;
Structure prediction by ZEFSAII (Michael W. Deem and Ramdas Pophale) SiO2 
 PCOD9186714
Probable space group: C 2/M
;
_chemical_formula_sum "Si O2"
_cell_formula_units_Z 64
_cell_length_a 31.297881
_cell_length_b 15.776262
_cell_length_c 11.267246
_cell_angle_alpha 90.000000
_cell_angle_beta 35.035548
_cell_angle_gamma 90.000000
_cell_volume 3193.836518
_symmetry_space_group_name_H-M "C 2/M"
_symmetry_group_IT_number 12
_symmetry_cell_setting 'monoclinic'
loop_
_space_group_symop_operation_xyz
x,y,z
-x,y,-z
-x,-y,-z
x,-y,z
1/2+x,1/2+y,z
1/2-x,1/2+y,-z
1/2-x,1/2-y,-z
1/2+x,1/2-y,z
loop_
_atom_site_type_symbol
_atom_site_label
_atom_site_fract_x
_atom_site_fract_y
_atom_site_fract_z
Si Si1 0.230866 0.163589 0.973055
Si Si2 0.541454 0.743951 0.087960
Si Si3 0.079811 0.230308 0.271204
Si Si4 0.877499 0.408410 0.709755
Si Si5 0.718004 0.165542 0.416037
Si Si6 0.826666 0.835399 0.368010
Si Si7 0.552411 0.410032 0.764060
Si Si8 0.938734 0.403073 0.300415
O O1 0.287816 0.097035 0.900325
O O2 0.252329 0.163233 0.785215
O O3 0.250000 0.250000 0.000000
O O4 0.141926 0.164363 0.174808
O O5 0.577550 0.740655 0.135145
O O6 0.475273 0.673894 0.238709
O O7 0.503874 0.833535 0.140813
O O8 0.604862 0.713288 0.853029
O O9 0.096617 0.324827 0.281542
O O10 0.000000 0.204155 0.500000
O O11 0.898740 0.500000 0.713221
O O12 0.912973 0.402073 0.497425
O O13 0.773666 0.126138 0.387206
O O14 0.714811 0.263568 0.462619
O O15 0.635463 0.125647 0.601749
O O16 0.865214 0.898637 0.371890
O O17 0.543534 0.500000 0.720126
O O18 0.500000 0.413628 0.000000
O O19 0.959346 0.500000 0.224388
#
# Coordination Sequence:
#
# PCOD9186714 Si02
#       8
#     8   8   8   8   8   8   8   8
#     4   9  19  35  56  81 109 149 190 231 284 340
#     4  11  20  36  55  85 118 152 191 239 293 344
#     4  11  20  33  57  86 111 149 191 238 289 348
#     4   9  19  35  56  85 115 150 197 239 279 343
#     4  10  19  35  55  86 110 151 194 240 281 346
#     4  10  20  34  60  80 113 149 196 242 288 338
#     4   9  19  35  56  80 106 145 196 242 285 336
#     4  10  20  34  56  87 121 157 192 235 289 350
#
# _framework density 20.038595999999998
#
# number of rings (size 3 to 8) (size 9 to 14) (size 15 to 20)
#    0.000    2.125    3.750    0.000    0.000    1.250 
#    0.000    1.875    0.000    8.250    0.000    0.000 
#    0.000    0.000    0.000    0.000    0.000    0.000 
#
# Total GULP energy -178376.673048 kJ/mol
# GULP energy per Si atom -5574.271033 kJ/mol
# Density = 1.999299 g / cm^3
# Si number density = 20.038596 Si / 1000 Ang^3
#
#
#
# Elastic Constant Matrix: (Units=GPa)
#
#
# Indices 1 2 3 4 5 6 
#
# 1 68.1861 6.8848 -3.0912 0.0000 -13.0742 0.0000
# 2 6.8848 65.1071 -2.8108 0.0000 1.0072 0.0000
# 3 -3.0912 -2.8108 48.9247 0.0000 -18.7220 0.0000
# 4 0.0000 0.0000 0.0000 9.1311 0.0000 0.6696
# 5 -13.0742 1.0072 -18.7220 0.0000 27.6945 0.0000
# 6 0.0000 0.0000 0.0000 0.6696 0.0000 12.5165
#
#
#
# Elastic Compliance Matrix: (Units=1/GPa)
#
#
# Indices 1 2 3 4 5 6 
#
# 1 0.017419 -0.001786 0.005625 0.000000 0.012091 0.000000
# 2 -0.001786 0.015581 0.000327 0.000000 -0.001189 0.000000
# 3 0.005625 0.000327 0.029442 0.000000 0.022547 0.000000
# 4 0.000000 0.000000 0.000000 0.109947 0.000000 -0.005882
# 5 0.012091 -0.001189 0.022547 0.000000 0.057101 0.000000
# 6 0.000000 0.000000 0.000000 -0.005882 0.000000 0.080210
#
#
# Mechanical properties :
#
#
# Convention : Reuss Voigt Hill
#
# Bulk Modulus (GPa) = 14.12949 20.46484 17.29717
# Shear Modulus (GPa) = 15.38654 21.95074 18.66864
#
# Velocity S-wave (km/s) = 2.77401 3.31331 3.05558
# Velocity P-wave (km/s) = 4.16252 4.98721 4.59341
#
# Compressibility (1/GPa) = 0.07077394
#
# Stress axis : x y z
#
# Youngs Moduli (GPa) = 57.40707 64.18186 33.96541
#
# Poissons Ratio (x) = 0.11465 -0.19105
# Poissons Ratio (y) = 0.10254 -0.01112
# Poissons Ratio (z) = -0.32290 -0.02102
#
# Static dielectric constant tensor:
#      x y z
#    x 1.749830 0.000000 -0.010500 
#    y 0.000000 1.712580 0.000000 
#    z -0.010500 0.000000 1.766880 
# 
# From -- ./inp_files/189428.got.cif
#   From: 2010.05.17/outbox.cif.g08.bks.cpg/sg12_95_cif.got.tgz:189428.got - 2010.06.03 13:09:07.
