data_PCOD9186424
_publ_section_title
;
Structure prediction by ZEFSAII (Michael W. Deem and Ramdas Pophale) SiO2 
 PCOD9186424
Probable space group: C 2/M
;
_chemical_formula_sum "Si O2"
_cell_formula_units_Z 64
_cell_length_a 28.053409
_cell_length_b 13.076393
_cell_length_c 21.027074
_cell_angle_alpha 90.000000
_cell_angle_beta 157.680616
_cell_angle_gamma 90.000000
_cell_volume 2929.355861
_symmetry_space_group_name_H-M "C 2/M"
_symmetry_group_IT_number 12
_symmetry_cell_setting 'monoclinic'
loop_
_space_group_symop_operation_xyz
x,y,z
-x,y,-z
-x,-y,-z
x,-y,z
1/2+x,1/2+y,z
1/2-x,1/2+y,-z
1/2-x,1/2-y,-z
1/2+x,1/2-y,z
loop_
_atom_site_type_symbol
_atom_site_label
_atom_site_fract_x
_atom_site_fract_y
_atom_site_fract_z
Si Si1 0.117198 0.116282 0.597652
Si Si2 0.295806 0.617425 0.751265
Si Si3 0.746632 0.625075 0.058301
Si Si4 0.382553 0.235417 0.746934
Si Si5 0.541279 0.382018 0.714145
Si Si6 0.159356 0.885490 0.422746
Si Si7 0.009883 0.378388 0.438492
Si Si8 0.340803 0.258824 0.924993
O O1 0.048646 0.163599 0.450961
O O2 0.227774 0.185155 0.762984
O O3 0.000000 0.108259 0.500000
O O4 0.163965 0.000000 0.642431
O O5 0.322929 0.500000 0.767472
O O6 0.351616 0.698979 0.771243
O O7 0.347022 0.645917 0.883926
O O8 0.145920 0.630856 0.574584
O O9 0.730082 0.500000 0.046547
O O10 0.893517 0.650104 0.249517
O O11 0.683225 0.691030 0.036265
O O12 0.679122 0.649781 0.907978
O O13 0.281989 0.146035 0.614024
O O14 0.359842 0.310536 0.659408
O O15 0.526627 0.202458 0.919176
O O16 0.556526 0.500000 0.711231
O O17 0.458331 0.379800 0.675395
O O18 0.172222 0.000000 0.414318
O O19 0.992713 0.500000 0.425200
O O20 0.000000 0.337730 0.500000
#
# Coordination Sequence:
#
# PCOD9186424 Si02
#       8
#     8   8   8   8   8   8   8   8
#     4  10  24  45  67  92 127 173 224 275 323 374
#     4  11  23  37  58  92 136 172 204 260 331 390
#     4  10  19  34  62  97 125 159 208 258 315 392
#     4  11  24  39  59  94 127 163 218 265 323 385
#     4   9  18  38  65  88 117 164 214 259 312 380
#     4  10  21  41  64  84 122 170 214 264 320 385
#     4   9  17  32  54  86 128 169 204 244 309 391
#     4  12  23  37  63  95 127 166 212 267 322 387
#
# _framework density 21.847807
#
# number of rings (size 3 to 8) (size 9 to 14) (size 15 to 20)
#    0.000    1.750    2.500    1.875    1.750    2.500 
#    0.000    3.125    0.000    8.250    0.000    0.000 
#    0.000    0.000    0.000    0.000    0.000    0.000 
#
# Total GULP energy -178717.561856 kJ/mol
# GULP energy per Si atom -5584.923808 kJ/mol
# Density = 2.179808 g / cm^3
# Si number density = 21.847807 Si / 1000 Ang^3
#
#
#
# Elastic Constant Matrix: (Units=GPa)
#
#
# Indices 1 2 3 4 5 6 
#
# 1 42.3756 -7.1730 7.8154 0.0000 -5.7371 0.0000
# 2 -7.1730 67.6321 30.9318 0.0000 -5.8329 0.0000
# 3 7.8154 30.9318 144.4221 0.0000 6.5688 0.0000
# 4 0.0000 0.0000 0.0000 25.2655 0.0000 -12.2596
# 5 -5.7371 -5.8329 6.5688 0.0000 39.5439 0.0000
# 6 0.0000 0.0000 0.0000 -12.2596 0.0000 1.4115
#
#
#
# Elastic Compliance Matrix: (Units=1/GPa)
#
#
# Indices 1 2 3 4 5 6 
#
# 1 0.025419 0.004247 -0.002500 0.000000 0.004730 0.000000
# 2 0.004247 0.017468 -0.004148 0.000000 0.003882 0.000000
# 3 -0.002500 -0.004148 0.008053 0.000000 -0.002312 0.000000
# 4 0.000000 0.000000 0.000000 -0.012313 0.000000 -0.106944
# 5 0.004730 0.003882 -0.002312 0.000000 0.026931 0.000000
# 6 0.000000 0.000000 0.000000 -0.106944 0.000000 -0.220399
#
#
# Mechanical properties :
#
#
# Convention : Reuss Voigt Hill
#
# Bulk Modulus (GPa) = 21.67379 35.28646 28.48013
# Shear Modulus (GPa) = -37.13064 28.10122 -4.51471
#
# Velocity S-wave (km/s) = -4.12699 3.59029 -1.43907
# Velocity P-wave (km/s) = 3.57316 5.77694 3.20979
#
# Compressibility (1/GPa) = 0.04613867
#
# Stress axis : x y z
#
# Youngs Moduli (GPa) = 39.34075 57.24732 124.17806
#
# Poissons Ratio (x) = -0.24315 0.31049
# Poissons Ratio (y) = -0.16709 0.51505
# Poissons Ratio (z) = 0.09837 0.23744
#
# Static dielectric constant tensor:
#      x y z
#    x 1.791720 0.000000 -0.010120 
#    y 0.000000 1.839810 0.000000 
#    z -0.010120 0.000000 1.835940 
# 
# From -- ./inp_files/330421.got.cif
#   From: 2010.05.17/outbox.cif.g08.bks.cpg/sg12_166_cif.got.tgz:330421.got - 2010.06.03 13:09:07.
