data_PCOD9186223
_publ_section_title
;
Structure prediction by ZEFSAII (Michael W. Deem and Ramdas Pophale) SiO2 
 PCOD9186223
Probable space group: C 2/M
;
_chemical_formula_sum "Si O2"
_cell_formula_units_Z 56
_cell_length_a 5.810591
_cell_length_b 27.674561
_cell_length_c 24.916860
_cell_angle_alpha 90.000000
_cell_angle_beta 46.132458
_cell_angle_gamma 90.000000
_cell_volume 2888.655661
_symmetry_space_group_name_H-M "C 2/M"
_symmetry_group_IT_number 12
_symmetry_cell_setting 'monoclinic'
loop_
_space_group_symop_operation_xyz
x,y,z
-x,y,-z
-x,-y,-z
x,-y,z
1/2+x,1/2+y,z
1/2-x,1/2+y,-z
1/2-x,1/2-y,-z
1/2+x,1/2-y,z
loop_
_atom_site_type_symbol
_atom_site_label
_atom_site_fract_x
_atom_site_fract_y
_atom_site_fract_z
Si Si1 0.799422 0.913321 0.921875
Si Si2 0.084711 0.816997 0.926429
Si Si3 0.734348 0.224458 0.589358
Si Si4 0.775543 0.623888 0.184421
Si Si5 0.531396 0.055380 0.228432
Si Si6 0.931252 0.644196 0.705083
Si Si7 0.112522 0.728383 0.212918
O O1 0.711282 0.901088 0.875533
O O2 0.874133 0.863034 0.941296
O O3 0.132327 0.940840 0.858768
O O4 0.500000 0.937143 0.000000
O O5 0.441086 0.838215 0.866534
O O6 0.105254 0.776792 0.877100
O O7 0.000000 0.801948 0.000000
O O8 0.422872 0.248906 0.609337
O O9 0.633866 0.171494 0.627393
O O10 0.000000 0.221282 0.500000
O O11 0.441715 0.650036 0.246852
O O12 0.799472 0.582700 0.225143
O O13 0.533033 0.088740 0.281709
O O14 0.457982 0.000000 0.251112
O O15 0.985599 0.675412 0.750022
O O16 0.299039 0.750083 0.234643
#
# Coordination Sequence:
#
# PCOD9186223 Si02
#       7
#     8   8   8   8   8   8   8
#     4  10  19  34  60  77 109 156 207 271 340 388
#     4  11  21  35  55  76 114 158 210 266 321 373
#     4  10  23  42  69 108 144 172 208 252 303 373
#     4  10  19  36  57  82 112 160 206 259 322 377
#     4  10  23  38  58  90 118 153 215 271 324 387
#     4  11  22  39  66  87 126 167 202 255 320 373
#     4  12  25  37  57  87 117 156 211 252 302 374
#
# _framework density 19.386178999999998
#
# number of rings (size 3 to 8) (size 9 to 14) (size 15 to 20)
#    0.000    1.429    5.714    1.714    2.000    3.143 
#    0.000    0.714    0.000    0.429    0.000    1.000 
#    0.000    0.000    0.000    0.000    0.000    0.000 
#
# Total GULP energy -156040.483325 kJ/mol
# GULP energy per Si atom -5572.874404 kJ/mol
# Density = 1.934206 g / cm^3
# Si number density = 19.386179 Si / 1000 Ang^3
#
#
#
# Elastic Constant Matrix: (Units=GPa)
#
#
# Indices 1 2 3 4 5 6 
#
# 1 108.8269 44.0254 35.6832 0.0000 2.9484 0.0000
# 2 44.0254 93.2618 30.1768 0.0000 -3.4100 0.0000
# 3 35.6832 30.1768 78.5495 0.0000 7.9094 0.0000
# 4 0.0000 0.0000 0.0000 16.4830 0.0000 9.7008
# 5 2.9484 -3.4100 7.9094 0.0000 24.2474 0.0000
# 6 0.0000 0.0000 0.0000 9.7008 0.0000 5.8367
#
#
#
# Elastic Compliance Matrix: (Units=1/GPa)
#
#
# Indices 1 2 3 4 5 6 
#
# 1 0.012311 -0.004644 -0.003714 0.000000 -0.000939 0.000000
# 2 -0.004644 0.014268 -0.003754 0.000000 0.003796 0.000000
# 3 -0.003714 -0.003754 0.016407 0.000000 -0.005428 0.000000
# 4 0.000000 0.000000 0.000000 2.777084 0.000000 -4.615576
# 5 -0.000939 0.003796 -0.005428 0.000000 0.043660 0.000000
# 6 0.000000 0.000000 0.000000 -4.615576 0.000000 7.842519
#
#
# Mechanical properties :
#
#
# Convention : Reuss Voigt Hill
#
# Bulk Modulus (GPa) = 53.29964 55.60100 54.45032
# Shear Modulus (GPa) = 0.46569 20.69693 10.58131
#
# Velocity S-wave (km/s) = 0.49065 3.27098 2.33881
# Velocity P-wave (km/s) = 5.27961 6.55810 5.95328
#
# Compressibility (1/GPa) = 0.01876185
#
# Stress axis : x y z
#
# Youngs Moduli (GPa) = 81.22942 70.08542 60.95050
#
# Poissons Ratio (x) = 0.32548 0.22636
# Poissons Ratio (y) = 0.37724 0.22881
# Poissons Ratio (z) = 0.30168 0.26310
#
# Static dielectric constant tensor:
#      x y z
#    x 1.760050 0.000000 -0.009000 
#    y 0.000000 1.711240 0.000000 
#    z -0.009000 0.000000 1.647230 
# 
# From -- ./inp_files/298271.got.cif
#   From: 2010.05.17/outbox.cif.g08.bks.cpg/sg12_150_cif.got.tgz:298271.got - 2010.06.03 13:09:07.
