data_PCOD9186090
_publ_section_title
;
Structure prediction by ZEFSAII (Michael W. Deem and Ramdas Pophale) SiO2 
 PCOD9186090
Probable space group: C 2/M
;
_chemical_formula_sum "Si O2"
_cell_formula_units_Z 36
_cell_length_a 14.906176
_cell_length_b 10.207908
_cell_length_c 10.630737
_cell_angle_alpha 90.000000
_cell_angle_beta 65.340506
_cell_angle_gamma 90.000000
_cell_volume 1470.064173
_symmetry_space_group_name_H-M "C 2/M"
_symmetry_group_IT_number 12
_symmetry_cell_setting 'monoclinic'
loop_
_space_group_symop_operation_xyz
x,y,z
-x,y,-z
-x,-y,-z
x,-y,z
1/2+x,1/2+y,z
1/2-x,1/2+y,-z
1/2-x,1/2-y,-z
1/2+x,1/2-y,z
loop_
_atom_site_type_symbol
_atom_site_label
_atom_site_fract_x
_atom_site_fract_y
_atom_site_fract_z
Si Si1 0.520381 0.264410 0.653293
Si Si2 0.844961 0.000000 0.324915
Si Si3 0.090426 0.256050 0.028008
Si Si4 0.644824 0.500000 0.980667
Si Si5 0.166152 0.500000 0.828067
Si Si6 0.624353 0.000000 0.555539
Si Si7 0.101169 0.000000 0.283772
O O1 0.605414 0.367638 0.647357
O O2 0.441761 0.365294 0.637282
O O3 0.567790 0.136585 0.563213
O O4 0.457369 0.211219 0.810537
O O5 0.859587 0.000000 0.167119
O O6 0.729541 0.000000 0.425709
O O7 0.178273 0.149203 0.984054
O O8 0.122631 0.376578 0.926321
O O9 0.000000 0.190681 0.000000
O O10 0.573516 0.500000 0.149344
O O11 0.141191 0.500000 0.696388
O O12 0.283075 0.500000 0.772828
#
# Coordination Sequence:
#
# PCOD9186090 Si02
#       7
#     8   4   8   4   4   4   4
#     4  10  21  37  58  88 116 156 191 245 295 339
#     4  11  20  35  58  90 118 152 204 241 275 345
#     4  11  18  33  61  87 117 145 192 249 292 335
#     4  10  19  34  59  85 116 150 189 234 292 343
#     4  12  23  37  57  96 121 148 187 249 299 348
#     4  12  22  35  63  91 114 150 210 244 271 340
#     4   9  24  40  60  83 125 154 185 239 316 349
#
# _framework density 24.488727000000001
#
# number of rings (size 3 to 8) (size 9 to 14) (size 15 to 20)
#    0.000    1.333    4.444    2.667    0.000    3.556 
#    0.000    3.333    0.000    2.667    0.000    9.333 
#    0.000    0.000    0.000    0.000    0.000    0.000 
#
# Total GULP energy -100405.206280 kJ/mol
# GULP energy per Si atom -5578.067016 kJ/mol
# Density = 2.443299 g / cm^3
# Si number density = 24.488727 Si / 1000 Ang^3
#
#
#
# Elastic Constant Matrix: (Units=GPa)
#
#
# Indices 1 2 3 4 5 6 
#
# 1 95.1417 58.9515 54.8010 0.0000 -15.1354 0.0000
# 2 58.9515 215.8528 69.3895 0.0000 -28.2850 0.0000
# 3 54.8010 69.3895 134.6825 0.0000 -17.1683 0.0000
# 4 0.0000 0.0000 0.0000 28.8940 0.0000 -14.0230
# 5 -15.1354 -28.2850 -17.1683 0.0000 33.2650 0.0000
# 6 0.0000 0.0000 0.0000 -14.0230 0.0000 13.3296
#
#
#
# Elastic Compliance Matrix: (Units=1/GPa)
#
#
# Indices 1 2 3 4 5 6 
#
# 1 0.014970 -0.002284 -0.004596 0.000000 0.002497 0.000000
# 2 -0.002284 0.006303 -0.001892 0.000000 0.003344 0.000000
# 3 -0.004596 -0.001892 0.010488 0.000000 0.001713 0.000000
# 4 0.000000 0.000000 0.000000 0.070714 0.000000 0.074393
# 5 0.002497 0.003344 0.001713 0.000000 0.034925 0.000000
# 6 0.000000 0.000000 0.000000 0.074393 0.000000 0.153285
#
#
# Mechanical properties :
#
#
# Convention : Reuss Voigt Hill
#
# Bulk Modulus (GPa) = 70.33544 90.21789 80.27667
# Shear Modulus (GPa) = 15.97604 32.60004 24.28804
#
# Velocity S-wave (km/s) = 2.55695 3.65256 3.15271
# Velocity P-wave (km/s) = 6.12383 7.39654 6.79007
#
# Compressibility (1/GPa) = 0.01421758
#
# Stress axis : x y z
#
# Youngs Moduli (GPa) = 66.79816 158.65935 95.34592
#
# Poissons Ratio (x) = 0.36234 0.43825
# Poissons Ratio (y) = 0.15255 0.18037
# Poissons Ratio (z) = 0.30703 0.30015
#
# Static dielectric constant tensor:
#      x y z
#    x 2.047900 0.000000 0.057520 
#    y 0.000000 1.969460 0.000000 
#    z 0.057520 0.000000 1.904550 
# 
# From -- ./inp_files/153272.got.cif
#   From: 2010.05.17/outbox.cif.g08.bks.cpg/sg12_77_cif.got.tgz:153272.got - 2010.06.03 13:09:07.
