data_PCOD9186441
_publ_section_title
;
Structure prediction by ZEFSAII (Michael W. Deem and Ramdas Pophale) SiO2 
 PCOD9186441
Probable space group: C 2/M
;
_chemical_formula_sum "Si O2"
_cell_formula_units_Z 40
_cell_length_a 13.709854
_cell_length_b 14.099277
_cell_length_c 18.035453
_cell_angle_alpha 90.000000
_cell_angle_beta 33.020588
_cell_angle_gamma 90.000000
_cell_volume 1899.790452
_symmetry_space_group_name_H-M "C 2/M"
_symmetry_group_IT_number 12
_symmetry_cell_setting 'monoclinic'
loop_
_space_group_symop_operation_xyz
x,y,z
-x,y,-z
-x,-y,-z
x,-y,z
1/2+x,1/2+y,z
1/2-x,1/2+y,-z
1/2-x,1/2-y,-z
1/2+x,1/2-y,z
loop_
_atom_site_type_symbol
_atom_site_label
_atom_site_fract_x
_atom_site_fract_y
_atom_site_fract_z
Si Si1 0.815321 0.892684 0.151023
Si Si2 0.298110 0.746278 0.654421
Si Si3 0.044873 0.199997 0.188554
Si Si4 0.309257 0.101667 0.930789
Si Si5 0.793015 0.387360 0.158004
O O1 0.728261 0.829235 0.268434
O O2 0.692867 0.899999 0.156307
O O3 0.850962 0.000000 0.153287
O O4 0.000000 0.851159 0.000000
O O5 0.500000 0.736148 0.500000
O O6 0.240002 0.653167 0.738508
O O7 0.166363 0.781744 0.672152
O O8 0.097268 0.298808 0.113869
O O9 0.159747 0.172124 0.187946
O O10 0.110484 0.117916 0.090388
O O11 0.378164 0.000000 0.915232
O O12 0.753702 0.500000 0.178135
O O13 0.000000 0.374428 0.000000
#
# Coordination Sequence:
#
# PCOD9186441 Si02
#       5
#     8   8   8   8   8
#     4  10  19  37  63  90 123 159 209 269 321 370
#     4  12  26  42  63  92 138 177 215 258 322 388
#     4  11  22  38  66  95 130 168 216 265 324 387
#     4  10  19  34  63  96 121 155 210 274 327 372
#     4  11  24  45  71  99 128 165 219 277 328 383
#
# _framework density 21.054955
#
# number of rings (size 3 to 8) (size 9 to 14) (size 15 to 20)
#    0.000    1.200    4.000    3.600    0.000    4.800 
#    0.000    0.000    0.000    0.000    0.000    0.000 
#    0.000    0.000    0.000    0.000    0.000    0.000 
#
# Total GULP energy -111427.829802 kJ/mol
# GULP energy per Si atom -5571.391490 kJ/mol
# Density = 2.100703 g / cm^3
# Si number density = 21.054955 Si / 1000 Ang^3
#
#
#
# Elastic Constant Matrix: (Units=GPa)
#
#
# Indices 1 2 3 4 5 6 
#
# 1 100.8212 21.5016 30.5173 -0.0004 -14.8300 0.0001
# 2 21.5016 145.7104 34.5996 0.0027 -3.0579 -0.0004
# 3 30.5173 34.5996 115.0951 0.0053 -20.4478 -0.0002
# 4 -0.0004 0.0027 0.0053 9.2572 -0.0004 -5.4659
# 5 -14.8300 -3.0579 -20.4478 -0.0004 27.2655 -0.0004
# 6 0.0001 -0.0004 -0.0002 -5.4659 -0.0004 10.6345
#
#
#
# Elastic Compliance Matrix: (Units=1/GPa)
#
#
# Indices 1 2 3 4 5 6 
#
# 1 0.011413 -0.001147 -0.001847 0.000003 0.004693 0.000002
# 2 -0.001147 0.007528 -0.002215 -0.000001 -0.001441 -0.000001
# 3 -0.001847 -0.002215 0.011100 -0.000007 0.007072 -0.000003
# 4 0.000003 -0.000001 -0.000007 0.155089 -0.000001 0.079711
# 5 0.004693 -0.001441 0.007072 -0.000001 0.044371 0.000001
# 6 0.000002 -0.000001 -0.000003 0.079711 0.000001 0.135002
#
#
# Mechanical properties :
#
#
# Convention : Reuss Voigt Hill
#
# Bulk Modulus (GPa) = 50.96160 59.42929 55.19545
# Shear Modulus (GPa) = 13.10746 27.76533 20.43639
#
# Velocity S-wave (km/s) = 2.49777 3.63534 3.11886
# Velocity P-wave (km/s) = 5.70746 6.77555 6.26431
#
# Compressibility (1/GPa) = 0.01962262
#
# Stress axis : x y z
#
# Youngs Moduli (GPa) = 87.62167 132.83979 90.08621
#
# Poissons Ratio (x) = 0.15236 0.16643
# Poissons Ratio (y) = 0.10049 0.19953
# Poissons Ratio (z) = 0.16188 0.29422
#
# Static dielectric constant tensor:
#      x y z
#    x 1.940410 0.000000 -0.049770 
#    y 0.000000 1.802330 0.000000 
#    z -0.049770 0.000000 1.734050 
# 
# From -- ./inp_files/59192.got.cif
#   From: 2010.05.17/outbox.cif.g08.bks.cpg/sg12_30_cif.got.tgz:59192.got - 2010.06.03 13:09:07.
