data_PCOD9186856
_publ_section_title
;
Structure prediction by ZEFSAII (Michael W. Deem and Ramdas Pophale) SiO2 
 PCOD9186856
Probable space group: C 2/M
;
_chemical_formula_sum "Si O2"
_cell_formula_units_Z 40
_cell_length_a 22.861071
_cell_length_b 10.810745
_cell_length_c 7.825514
_cell_angle_alpha 90.000000
_cell_angle_beta 107.507559
_cell_angle_gamma 90.000000
_cell_volume 1844.448360
_symmetry_space_group_name_H-M "C 2/M"
_symmetry_group_IT_number 12
_symmetry_cell_setting 'monoclinic'
loop_
_space_group_symop_operation_xyz
x,y,z
-x,y,-z
-x,-y,-z
x,-y,z
1/2+x,1/2+y,z
1/2-x,1/2+y,-z
1/2-x,1/2-y,-z
1/2+x,1/2-y,z
loop_
_atom_site_type_symbol
_atom_site_label
_atom_site_fract_x
_atom_site_fract_y
_atom_site_fract_z
Si Si1 0.609556 0.637795 0.289871
Si Si2 0.253673 0.317500 0.219787
Si Si3 0.148390 0.201361 0.950585
Si Si4 0.687266 0.864477 0.503619
Si Si5 0.476358 0.355457 0.287398
O O1 0.619354 0.500000 0.375141
O O2 0.641741 0.751128 0.417180
O O3 0.536610 0.660211 0.225255
O O4 0.633900 0.636953 0.118097
O O5 0.309664 0.364321 0.155279
O O6 0.275384 0.179763 0.298105
O O7 0.234214 0.371655 0.384688
O O8 0.192679 0.312357 0.051940
O O9 0.082234 0.225910 0.811026
O O10 0.659033 0.000000 0.500044
O O11 0.500000 0.334759 0.500000
O O12 0.456784 0.500000 0.256166
#
# Coordination Sequence:
#
# PCOD9186856 Si02
#       5
#     8   8   8   8   8
#     4  10  21  37  59  88 119 152 191 237 289 342
#     4   9  21  36  55  83 116 153 191 234 287 343
#     4  10  19  35  56  83 117 152 189 237 290 341
#     4  10  21  38  60  86 117 154 195 236 284 345
#     4  10  20  33  55  85 113 146 192 242 288 336
#
# _framework density 21.686699000000001
#
# number of rings (size 3 to 8) (size 9 to 14) (size 15 to 20)
#    0.000    2.200    0.000    2.400    0.000   11.200 
#    0.000    8.000    0.000   15.000    0.000    0.000 
#    0.000    0.000    0.000    0.000    0.000    0.000 
#
# Total GULP energy -111485.685840 kJ/mol
# GULP energy per Si atom -5574.284292 kJ/mol
# Density = 2.163734 g / cm^3
# Si number density = 21.686699 Si / 1000 Ang^3
#
#
#
# Elastic Constant Matrix: (Units=GPa)
#
#
# Indices 1 2 3 4 5 6 
#
# 1 161.6322 33.2009 47.7240 0.0000 6.7762 0.0000
# 2 33.2009 106.0796 31.8645 0.0000 15.8844 0.0000
# 3 47.7240 31.8645 101.6439 0.0000 10.4429 0.0000
# 4 0.0000 0.0000 0.0000 -1.4923 0.0000 7.3155
# 5 6.7762 15.8844 10.4429 0.0000 46.1090 0.0000
# 6 0.0000 0.0000 0.0000 7.3155 0.0000 3.6876
#
#
#
# Elastic Compliance Matrix: (Units=1/GPa)
#
#
# Indices 1 2 3 4 5 6 
#
# 1 0.007366 -0.001410 -0.003026 0.000000 0.000088 0.000000
# 2 -0.001410 0.011074 -0.002497 0.000000 -0.003042 0.000000
# 3 -0.003026 -0.002497 0.012191 0.000000 -0.001456 0.000000
# 4 0.000000 0.000000 0.000000 -0.062482 0.000000 0.123951
# 5 0.000088 -0.003042 -0.001456 0.000000 0.023053 0.000000
# 6 0.000000 0.000000 0.000000 0.123951 0.000000 0.025286
#
#
# Mechanical properties :
#
#
# Convention : Reuss Voigt Hill
#
# Bulk Modulus (GPa) = 59.64415 66.10382 62.87399
# Shear Modulus (GPa) = 139.11488 26.76529 82.94009
#
# Velocity S-wave (km/s) = 8.01791 3.51690 6.19094
# Velocity P-wave (km/s) = 10.64322 6.85849 8.95313
#
# Compressibility (1/GPa) = 0.01676610
#
# Stress axis : x y z
#
# Youngs Moduli (GPa) = 135.75623 90.30383 82.02580
#
# Poissons Ratio (x) = 0.12731 0.24818
# Poissons Ratio (y) = 0.19140 0.20482
# Poissons Ratio (z) = 0.41075 0.22549
#
# Static dielectric constant tensor:
#      x y z
#    x 1.821700 0.000000 -0.016210 
#    y 0.000000 1.851700 0.000000 
#    z -0.016210 0.000000 1.840280 
# 
# From -- ./inp_files/83730.got.cif
#   From: 2010.05.17/outbox.cif.g08.bks.cpg/sg12_42_cif.got.tgz:83730.got - 2010.06.03 13:09:07.
