data_PCOD9186758
_publ_section_title
;
Structure prediction by ZEFSAII (Michael W. Deem and Ramdas Pophale) SiO2 
 PCOD9186758
Probable space group: C 2/M
;
_chemical_formula_sum "Si O2"
_cell_formula_units_Z 64
_cell_length_a 28.332811
_cell_length_b 7.514462
_cell_length_c 13.223753
_cell_angle_alpha 90.000000
_cell_angle_beta 90.015022
_cell_angle_gamma 90.000000
_cell_volume 2815.414033
_symmetry_space_group_name_H-M "C 2/M"
_symmetry_group_IT_number 12
_symmetry_cell_setting 'monoclinic'
loop_
_space_group_symop_operation_xyz
x,y,z
-x,y,-z
-x,-y,-z
x,-y,z
1/2+x,1/2+y,z
1/2-x,1/2+y,-z
1/2-x,1/2-y,-z
1/2+x,1/2-y,z
loop_
_atom_site_type_symbol
_atom_site_label
_atom_site_fract_x
_atom_site_fract_y
_atom_site_fract_z
Si Si1 0.543324 0.712588 0.726527
Si Si2 0.201678 0.795093 0.845726
Si Si3 0.463429 0.210371 0.583456
Si Si4 0.450277 0.282708 0.044209
Si Si5 0.297425 0.792486 0.755109
Si Si6 0.144139 0.281042 0.435138
Si Si7 0.357629 0.795468 0.342995
Si Si8 0.148420 0.783576 0.043922
O O1 0.546880 0.500000 0.723941
O O2 0.491820 0.763926 0.687374
O O3 0.553033 0.775211 0.839868
O O4 0.585485 0.786018 0.657583
O O5 0.248597 0.712462 0.797072
O O6 0.162357 0.794561 0.757600
O O7 0.213428 0.000000 0.870123
O O8 0.181252 0.720259 0.950324
O O9 0.500000 0.286454 0.500000
O O10 0.410022 0.278760 0.583614
O O11 0.459543 0.000000 0.563595
O O12 0.450216 0.500000 0.044531
O O13 0.500000 0.224020 0.000000
O O14 0.404727 0.226688 0.981411
O O15 0.321452 0.718964 0.653943
O O16 0.333374 0.780279 0.848522
O O17 0.287625 0.000000 0.732322
O O18 0.143927 0.500000 0.434559
O O19 0.158709 0.224838 0.548302
O O20 0.343137 0.000000 0.335041
O O21 0.149319 0.000000 0.044374
#
# Coordination Sequence:
#
# PCOD9186758 Si02
#       8
#     8   8   8   8   8   8   8   8
#     4  11  21  35  56  83 113 144 187 233 278 329
#     4  10  21  39  60  84 112 145 184 237 291 330
#     4  10  19  35  56  77 109 150 185 218 269 331
#     4   9  19  35  54  78 113 150 176 217 284 337
#     4  10  22  39  59  82 113 149 187 233 286 333
#     4   9  20  38  56  80 116 153 185 228 283 334
#     4  11  21  37  61  84 111 150 192 229 279 339
#     4  10  20  37  59  82 114 148 185 229 280 339
#
# _framework density 22.732004
#
# number of rings (size 3 to 8) (size 9 to 14) (size 15 to 20)
#    0.000    2.000    2.500    1.125    1.750    1.750 
#    0.000    1.250    0.000    1.875    0.000    0.000 
#    0.000    0.000    0.000    0.000    0.000    0.000 
#
# Total GULP energy -178803.376689 kJ/mol
# GULP energy per Si atom -5587.605522 kJ/mol
# Density = 2.268026 g / cm^3
# Si number density = 22.732004 Si / 1000 Ang^3
#
#
#
# Elastic Constant Matrix: (Units=GPa)
#
#
# Indices 1 2 3 4 5 6 
#
# 1 45.3491 -2.3758 -0.9372 0.0000 -27.6964 0.0000
# 2 -2.3758 59.9342 -8.8085 0.0000 -11.4314 0.0000
# 3 -0.9372 -8.8085 94.7566 0.0000 -29.0609 0.0000
# 4 0.0000 0.0000 0.0000 12.3261 0.0000 12.7736
# 5 -27.6964 -11.4314 -29.0609 0.0000 37.3444 0.0000
# 6 0.0000 0.0000 0.0000 12.7736 0.0000 3.0899
#
#
#
# Elastic Compliance Matrix: (Units=1/GPa)
#
#
# Indices 1 2 3 4 5 6 
#
# 1 0.079049 0.024847 0.030741 0.000000 0.090155 0.000000
# 2 0.024847 0.027007 0.014374 0.000000 0.037881 0.000000
# 3 0.030741 0.014374 0.026973 0.000000 0.048189 0.000000
# 4 0.000000 0.000000 0.000000 -0.024704 0.000000 0.102125
# 5 0.090155 0.037881 0.048189 0.000000 0.142737 0.000000
# 6 0.000000 0.000000 0.000000 0.102125 0.000000 -0.098547
#
#
# Mechanical properties :
#
#
# Convention : Reuss Voigt Hill
#
# Bulk Modulus (GPa) = 3.66362 19.53300 11.59831
# Shear Modulus (GPa) = 48.27398 24.69617 36.48507
#
# Velocity S-wave (km/s) = 4.61327 3.29964 4.01060
# Velocity P-wave (km/s) = 5.47645 4.80918 5.15362
#
# Compressibility (1/GPa) = 0.27295370
#
# Stress axis : x y z
#
# Youngs Moduli (GPa) = 12.65034 37.02679 37.07464
#
# Poissons Ratio (x) = -0.92001 -1.13972
# Poissons Ratio (y) = -0.31432 -0.53291
# Poissons Ratio (z) = -0.38889 -0.53222
#
# Static dielectric constant tensor:
#      x y z
#    x 1.835030 0.000000 -0.017920 
#    y 0.000000 1.849860 0.000000 
#    z -0.017920 0.000000 1.830860 
# 
# From -- ./inp_files/187480.got.cif
#   From: 2010.05.17/outbox.cif.g08.bks.cpg/sg12_94_cif.got.tgz:187480.got - 2010.06.03 13:09:07.
