data_PCOD9186458
_publ_section_title
;
Structure prediction by ZEFSAII (Michael W. Deem and Ramdas Pophale) SiO2 
 PCOD9186458
Probable space group: C 2/M
;
_chemical_formula_sum "Si O2"
_cell_formula_units_Z 64
_cell_length_a 9.498952
_cell_length_b 25.961724
_cell_length_c 21.294408
_cell_angle_alpha 90.000000
_cell_angle_beta 45.004662
_cell_angle_gamma 90.000000
_cell_volume 3713.600052
_symmetry_space_group_name_H-M "C 2/M"
_symmetry_group_IT_number 12
_symmetry_cell_setting 'monoclinic'
loop_
_space_group_symop_operation_xyz
x,y,z
-x,y,-z
-x,-y,-z
x,-y,z
1/2+x,1/2+y,z
1/2-x,1/2+y,-z
1/2-x,1/2-y,-z
1/2+x,1/2-y,z
loop_
_atom_site_type_symbol
_atom_site_label
_atom_site_fract_x
_atom_site_fract_y
_atom_site_fract_z
Si Si1 0.262727 0.442289 0.089680
Si Si2 0.496013 0.337173 0.187487
Si Si3 0.907809 0.830499 0.712235
Si Si4 0.282002 0.760065 0.563402
Si Si5 0.824211 0.856227 0.601347
Si Si6 0.183651 0.154859 0.992645
Si Si7 0.481040 0.216462 0.829813
Si Si8 0.386492 0.870329 0.755464
O O1 0.182542 0.500000 0.108752
O O2 0.197996 0.397485 0.062235
O O3 0.207661 0.417089 0.174263
O O4 0.500000 0.445537 0.000000
O O5 0.576479 0.360304 0.226961
O O6 0.526107 0.275886 0.184717
O O7 0.267091 0.352511 0.248879
O O8 0.601723 0.349899 0.088305
O O9 0.889219 0.861756 0.653198
O O10 0.706134 0.797245 0.776734
O O11 0.103168 0.794935 0.644031
O O12 0.500000 0.784963 0.500000
O O13 0.250000 0.750000 0.500000
O O14 0.293575 0.705233 0.596002
O O15 0.608046 0.881420 0.661261
O O16 0.000000 0.873570 0.500000
O O17 0.332694 0.201603 0.932933
O O18 0.000000 0.160483 0.000000
O O19 0.413698 0.178237 0.794789
#
# Coordination Sequence:
#
# PCOD9186458 Si02
#       8
#     8   8   8   8   8   8   8   8
#     4   9  16  33  59  81 101 125 169 227 276 309
#     4  12  20  30  48  71 104 139 183 212 249 301
#     4  11  22  30  44  72  92 138 182 218 257 296
#     4  11  20  33  49  66  96 139 192 226 255 300
#     4  10  20  35  47  66 104 139 172 217 267 301
#     4  10  19  35  49  75 103 135 175 216 258 309
#     4  10  20  33  47  63 105 146 175 209 252 303
#     4  10  20  34  52  77 104 135 181 222 253 311
#
# _framework density 17.23395
#
# number of rings (size 3 to 8) (size 9 to 14) (size 15 to 20)
#    0.000    1.625    6.250    3.375    1.750    0.500 
#    0.000    0.000    0.000    0.375    0.000   23.625 
#    0.000    1.000    0.000    0.000    0.000    3.000 
#
# Total GULP energy -178309.128281 kJ/mol
# GULP energy per Si atom -5572.160259 kJ/mol
# Density = 1.719473 g / cm^3
# Si number density = 17.233950 Si / 1000 Ang^3
#
#
#
# Elastic Constant Matrix: (Units=GPa)
#
#
# Indices 1 2 3 4 5 6 
#
# 1 79.8808 10.8673 32.3003 0.0000 13.8707 0.0000
# 2 10.8673 50.3193 17.9018 0.0000 -4.2749 0.0000
# 3 32.3003 17.9018 103.7932 0.0000 2.0258 0.0000
# 4 0.0000 0.0000 0.0000 3.5563 0.0000 -0.6030
# 5 13.8707 -4.2749 2.0258 0.0000 36.8523 0.0000
# 6 0.0000 0.0000 0.0000 -0.6030 0.0000 5.6868
#
#
#
# Elastic Compliance Matrix: (Units=1/GPa)
#
#
# Indices 1 2 3 4 5 6 
#
# 1 0.015618 -0.002330 -0.004343 0.000000 -0.005910 0.000000
# 2 -0.002330 0.021783 -0.003102 0.000000 0.003574 0.000000
# 3 -0.004343 -0.003102 0.011509 0.000000 0.000642 0.000000
# 4 0.000000 0.000000 0.000000 0.286337 0.000000 0.030363
# 5 -0.005910 0.003574 0.000642 0.000000 0.029739 0.000000
# 6 0.000000 0.000000 0.000000 0.030363 0.000000 0.179067
#
#
# Mechanical properties :
#
#
# Convention : Reuss Voigt Hill
#
# Bulk Modulus (GPa) = 34.05954 39.57023 36.81488
# Shear Modulus (GPa) = 8.72009 20.74734 14.73371
#
# Velocity S-wave (km/s) = 2.25185 3.47344 2.92708
# Velocity P-wave (km/s) = 5.15432 6.25275 5.72992
#
# Compressibility (1/GPa) = 0.02936035
#
# Stress axis : x y z
#
# Youngs Moduli (GPa) = 64.02871 45.90636 86.89174
#
# Poissons Ratio (x) = 0.10696 0.37738
# Poissons Ratio (y) = 0.14918 0.26952
# Poissons Ratio (z) = 0.27808 0.14239
#
# Static dielectric constant tensor:
#      x y z
#    x 1.640270 0.000000 0.010540 
#    y 0.000000 1.581470 0.000000 
#    z 0.010540 0.000000 1.656330 
# 
# From -- ./inp_files/302632.got.cif
#   From: 2010.05.17/outbox.cif.g08.bks.cpg/sg12_152_cif.got.tgz:302632.got - 2010.06.03 13:09:07.
