data_PCOD9186352
_publ_section_title
;
Structure prediction by ZEFSAII (Michael W. Deem and Ramdas Pophale) SiO2 
 PCOD9186352
Probable space group: C 2/M
;
_chemical_formula_sum "Si O2"
_cell_formula_units_Z 48
_cell_length_a 19.118943
_cell_length_b 13.341798
_cell_length_c 9.781409
_cell_angle_alpha 90.000000
_cell_angle_beta 58.882464
_cell_angle_gamma 90.000000
_cell_volume 2136.036638
_symmetry_space_group_name_H-M "C 2/M"
_symmetry_group_IT_number 12
_symmetry_cell_setting 'monoclinic'
loop_
_space_group_symop_operation_xyz
x,y,z
-x,y,-z
-x,-y,-z
x,-y,z
1/2+x,1/2+y,z
1/2-x,1/2+y,-z
1/2-x,1/2-y,-z
1/2+x,1/2-y,z
loop_
_atom_site_type_symbol
_atom_site_label
_atom_site_fract_x
_atom_site_fract_y
_atom_site_fract_z
Si Si1 0.518366 0.312851 0.334710
Si Si2 0.245184 0.613516 0.565334
Si Si3 0.092909 0.885930 0.780160
Si Si4 0.410544 0.889028 0.475092
Si Si5 0.322126 0.238703 0.120915
Si Si6 0.838810 0.678329 0.824520
O O1 0.500000 0.361673 0.500000
O O2 0.484624 0.370754 0.238986
O O3 0.468893 0.205548 0.386331
O O4 0.613196 0.284666 0.235348
O O5 0.246345 0.500000 0.615618
O O6 0.329119 0.629427 0.399544
O O7 0.170164 0.622779 0.535386
O O8 0.227426 0.685717 0.708082
O O9 0.105671 0.802814 0.883819
O O10 0.095976 0.000000 0.829396
O O11 0.381082 0.884954 0.662466
O O12 0.445348 0.000000 0.411447
O O13 0.255882 0.312129 0.118030
O O14 0.348059 0.159975 0.977026
#
# Coordination Sequence:
#
# PCOD9186352 Si02
#       6
#     8   8   8   8   8   8
#     4  10  21  38  58  90 120 157 194 246 302 350
#     4  10  19  34  61  89 111 148 198 243 289 352
#     4  11  22  38  64  87 115 161 209 249 289 351
#     4  10  19  36  62  89 116 151 195 238 291 358
#     4  11  21  40  59  86 118 157 198 245 297 348
#     4  10  23  36  58  85 121 156 195 244 296 353
#
# _framework density 22.471523000000001
#
# number of rings (size 3 to 8) (size 9 to 14) (size 15 to 20)
#    0.000    1.667    3.333    2.500    0.000    4.667 
#    0.000    5.000    0.000    3.000    0.000    0.000 
#    0.000    0.000    0.000    0.000    0.000    0.000 
#
# Total GULP energy -134030.560028 kJ/mol
# GULP energy per Si atom -5584.606668 kJ/mol
# Density = 2.242038 g / cm^3
# Si number density = 22.471523 Si / 1000 Ang^3
#
#
#
# Elastic Constant Matrix: (Units=GPa)
#
#
# Indices 1 2 3 4 5 6 
#
# 1 82.0212 -7.1712 11.1921 0.0000 18.3396 0.0000
# 2 -7.1712 78.2804 19.9118 0.0000 13.0811 0.0000
# 3 11.1921 19.9118 89.4509 0.0000 10.6840 0.0000
# 4 0.0000 0.0000 0.0000 4.2013 0.0000 1.5328
# 5 18.3396 13.0811 10.6840 0.0000 38.5450 0.0000
# 6 0.0000 0.0000 0.0000 1.5328 0.0000 19.6240
#
#
#
# Elastic Compliance Matrix: (Units=1/GPa)
#
#
# Indices 1 2 3 4 5 6 
#
# 1 0.014311 0.002941 -0.001565 0.000000 -0.007374 0.000000
# 2 0.002941 0.014734 -0.002982 0.000000 -0.005573 0.000000
# 3 -0.001565 -0.002982 0.012234 0.000000 -0.001635 0.000000
# 4 0.000000 0.000000 0.000000 0.245001 0.000000 -0.019136
# 5 -0.007374 -0.005573 -0.001635 0.000000 0.031797 0.000000
# 6 0.000000 0.000000 0.000000 -0.019136 0.000000 0.052453
#
#
# Mechanical properties :
#
#
# Convention : Reuss Voigt Hill
#
# Bulk Modulus (GPa) = 26.26855 33.06866 29.66861
# Shear Modulus (GPa) = 12.93894 27.52870 20.23382
#
# Velocity S-wave (km/s) = 2.40217 3.50387 3.00396
# Velocity P-wave (km/s) = 4.40556 5.57828 5.02624
#
# Compressibility (1/GPa) = 0.03806834
#
# Stress axis : x y z
#
# Youngs Moduli (GPa) = 69.87450 67.87078 81.73840
#
# Poissons Ratio (x) = -0.19962 0.12789
# Poissons Ratio (y) = -0.20552 0.24375
# Poissons Ratio (z) = 0.10933 0.20240
#
# Static dielectric constant tensor:
#      x y z
#    x 1.839180 0.000000 -0.012850 
#    y 0.000000 1.827800 0.000000 
#    z -0.012850 0.000000 1.886400 
# 
# From -- ./inp_files/85692.got.cif
#   From: 2010.05.17/outbox.cif.g08.bks.cpg/sg12_43_cif.got.tgz:85692.got - 2010.06.03 13:09:07.
