data_PCOD9186544
_publ_section_title
;
Structure prediction by ZEFSAII (Michael W. Deem and Ramdas Pophale) SiO2 
 PCOD9186544
Probable space group: C 2/M
;
_chemical_formula_sum "Si O2"
_cell_formula_units_Z 56
_cell_length_a 10.241742
_cell_length_b 25.836462
_cell_length_c 15.781487
_cell_angle_alpha 90.000000
_cell_angle_beta 60.159876
_cell_angle_gamma 90.000000
_cell_volume 3622.286777
_symmetry_space_group_name_H-M "C 2/M"
_symmetry_group_IT_number 12
_symmetry_cell_setting 'monoclinic'
loop_
_space_group_symop_operation_xyz
x,y,z
-x,y,-z
-x,-y,-z
x,-y,z
1/2+x,1/2+y,z
1/2-x,1/2+y,-z
1/2-x,1/2-y,-z
1/2+x,1/2-y,z
loop_
_atom_site_type_symbol
_atom_site_label
_atom_site_fract_x
_atom_site_fract_y
_atom_site_fract_z
Si Si1 0.183170 0.600265 0.799525
Si Si2 0.819276 0.000000 0.056091
Si Si3 0.175203 0.500000 0.918771
Si Si4 0.969425 0.437814 0.413767
Si Si5 0.322571 0.807289 0.073780
Si Si6 0.666499 0.438168 0.414448
Si Si7 0.637301 0.903976 0.192556
Si Si8 0.322018 0.687268 0.062655
O O1 0.203664 0.551408 0.854937
O O2 0.215561 0.652747 0.839868
O O3 0.289043 0.591929 0.684567
O O4 0.011663 0.598732 0.819060
O O5 0.743043 0.049501 0.125827
O O6 0.000000 0.000000 0.000000
O O7 0.769376 0.000000 0.974321
O O8 0.000000 0.500000 0.000000
O O9 0.991893 0.500000 0.402951
O O10 0.076572 0.413954 0.306896
O O11 0.000000 0.420746 0.500000
O O12 0.797417 0.427704 0.440759
O O13 0.294898 0.746601 0.099731
O O14 0.500000 0.813240 0.000000
O O15 0.239826 0.819789 0.012685
O O16 0.500000 0.426036 0.500000
O O17 0.673460 0.500000 0.393860
O O18 0.732978 0.852064 0.150697
O O19 0.500000 0.677797 0.000000
#
# Coordination Sequence:
#
# PCOD9186544 Si02
#       8
#     8   4   4   8   8   8   8   8
#     4  11  19  33  57  79  99 140 180 210 254 314
#     4  12  24  34  45  78 118 138 163 210 266 306
#     4  12  20  32  53  76 106 138 173 204 250 320
#     4   9  18  34  54  73  99 138 174 204 252 318
#     4  10  19  35  54  75 102 140 181 211 250 311
#     4   9  18  34  52  76 105 127 167 220 259 300
#     4  11  19  35  55  75 105 142 175 211 256 314
#     4  10  21  34  51  76 107 139 175 217 255 296
#
# _framework density 15.459847999999999
#
# number of rings (size 3 to 8) (size 9 to 14) (size 15 to 20)
#    0.000    1.714    4.286    1.714    0.000    0.000 
#    5.143    0.000    0.000    0.857    0.000    4.000 
#    0.000    0.000    0.000    0.000    0.000    0.000 
#
# Total GULP energy -156209.002420 kJ/mol
# GULP energy per Si atom -5578.892944 kJ/mol
# Density = 1.542466 g / cm^3
# Si number density = 15.459848 Si / 1000 Ang^3
#
#
#
# Elastic Constant Matrix: (Units=GPa)
#
#
# Indices 1 2 3 4 5 6 
#
# 1 120.7365 51.9818 81.5013 0.0000 4.5681 0.0000
# 2 51.9818 86.2980 76.8601 0.0000 3.7049 0.0000
# 3 81.5013 76.8601 129.1103 0.0000 6.0923 0.0000
# 4 0.0000 0.0000 0.0000 14.2133 0.0000 7.7962
# 5 4.5681 3.7049 6.0923 0.0000 26.8915 0.0000
# 6 0.0000 0.0000 0.0000 7.7962 0.0000 -22.9419
#
#
#
# Elastic Compliance Matrix: (Units=1/GPa)
#
#
# Indices 1 2 3 4 5 6 
#
# 1 0.014498 -0.001238 -0.008397 0.000000 -0.000390 0.000000
# 2 -0.001238 0.024771 -0.013963 0.000000 -0.000039 0.000000
# 3 -0.008397 -0.013963 0.021429 0.000000 -0.001505 0.000000
# 4 0.000000 0.000000 0.000000 0.059303 0.000000 0.020152
# 5 -0.000390 -0.000039 -0.001505 0.000000 0.037599 0.000000
# 6 0.000000 0.000000 0.000000 0.020152 0.000000 -0.036740
#
#
# Mechanical properties :
#
#
# Convention : Reuss Voigt Hill
#
# Bulk Modulus (GPa) = 74.05756 84.09235 79.07496
# Shear Modulus (GPa) = 28.97592 12.01935 20.49763
#
# Velocity S-wave (km/s) = 4.33398 2.79131 3.64519
# Velocity P-wave (km/s) = 8.54703 8.05610 8.30519
#
# Compressibility (1/GPa) = 0.01350301
#
# Stress axis : x y z
#
# Youngs Moduli (GPa) = 68.97344 40.36952 46.66533
#
# Poissons Ratio (x) = 0.04997 0.39184
# Poissons Ratio (y) = 0.08538 0.65160
# Poissons Ratio (z) = 0.57916 0.56369
#
# Static dielectric constant tensor:
#      x y z
#    x 1.529660 0.000000 0.009430 
#    y 0.000000 1.520320 0.000000 
#    z 0.009430 0.000000 1.486370 
# 
# From -- ./inp_files/199729.got.cif
#   From: 2010.05.17/outbox.cif.g08.bks.cpg/sg12_100_cif.got.tgz:199729.got - 2010.06.03 13:09:07.
