data_PCOD9186650
_publ_section_title
;
Structure prediction by ZEFSAII (Michael W. Deem and Ramdas Pophale) SiO2 
 PCOD9186650
Probable space group: C 2/M
;
_chemical_formula_sum "Si O2"
_cell_formula_units_Z 50
_cell_length_a 23.056693
_cell_length_b 15.262601
_cell_length_c 11.571362
_cell_angle_alpha 90.000000
_cell_angle_beta 137.524527
_cell_angle_gamma 90.000000
_cell_volume 2749.732332
_symmetry_space_group_name_H-M "C 2/M"
_symmetry_group_IT_number 12
_symmetry_cell_setting 'monoclinic'
loop_
_space_group_symop_operation_xyz
x,y,z
-x,y,-z
-x,-y,-z
x,-y,z
1/2+x,1/2+y,z
1/2-x,1/2+y,-z
1/2-x,1/2-y,-z
1/2+x,1/2-y,z
loop_
_atom_site_type_symbol
_atom_site_label
_atom_site_fract_x
_atom_site_fract_y
_atom_site_fract_z
Si Si1 0.500000 0.000000 0.500000
Si Si2 0.929328 0.395963 0.799024
Si Si3 0.833522 0.269110 0.043150
Si Si4 0.909924 0.903312 0.205942
Si Si5 0.979682 0.667033 0.625122
Si Si6 0.596611 0.647874 0.535825
Si Si7 0.718191 0.896556 0.243061
O O1 0.534537 0.922274 0.463353
O O2 0.936480 0.500000 0.785128
O O3 0.950220 0.344502 0.713915
O O4 0.838453 0.379489 0.726885
O O5 0.000000 0.375047 0.000000
O O6 0.868379 0.171727 0.066867
O O7 0.917707 0.312634 0.225855
O O8 0.750000 0.250000 0.000000
O O9 0.810548 0.332360 0.903198
O O10 0.889725 0.883554 0.311813
O O11 0.012957 0.896923 0.357914
O O12 0.879748 0.000000 0.132361
O O13 0.927928 0.749750 0.499050
O O14 0.681907 0.623580 0.593416
O O15 0.705807 0.000000 0.193894
#
# Coordination Sequence:
#
# PCOD9186650 Si02
#       7
#     2   8   8   8   8   8   8
#     4  12  24  36  62  84 122 164 180 240 320 348
#     4  10  20  38  59  85 116 159 208 236 283 365
#     4  11  22  34  54  88 119 148 197 244 295 349
#     4  10  19  35  55  78 118 155 192 244 298 354
#     4  11  23  40  58  87 122 159 193 243 303 359
#     4  10  20  35  54  84 115 148 199 246 294 350
#     4  11  22  36  61  87 116 155 203 252 289 346
#
# _framework density 18.183588
#
# number of rings (size 3 to 8) (size 9 to 14) (size 15 to 20)
#    0.000    1.440    4.000    3.840    1.120    0.640 
#    0.000    0.000    0.000    0.000    0.000   11.200 
#    0.000    0.000    0.000    0.000    0.000    0.000 
#
# Total GULP energy -139203.734690 kJ/mol
# GULP energy per Si atom -5568.149388 kJ/mol
# Density = 1.814220 g / cm^3
# Si number density = 18.183588 Si / 1000 Ang^3
#
#
#
# Elastic Constant Matrix: (Units=GPa)
#
#
# Indices 1 2 3 4 5 6 
#
# 1 126.4369 29.0161 41.2333 0.0000 12.6481 0.0000
# 2 29.0161 144.2620 24.5425 0.0000 -5.0243 0.0000
# 3 41.2333 24.5425 33.1571 0.0000 7.7391 0.0000
# 4 0.0000 0.0000 0.0000 2.4025 0.0000 3.7634
# 5 12.6481 -5.0243 7.7391 0.0000 32.0982 0.0000
# 6 0.0000 0.0000 0.0000 3.7634 0.0000 21.1877
#
#
#
# Elastic Compliance Matrix: (Units=1/GPa)
#
#
# Indices 1 2 3 4 5 6 
#
# 1 0.013359 0.000047 -0.016340 0.000000 -0.001317 0.000000
# 2 0.000047 0.008178 -0.006788 0.000000 0.002898 0.000000
# 3 -0.016340 -0.006788 0.057485 0.000000 -0.008484 0.000000
# 4 0.000000 0.000000 0.000000 0.576689 0.000000 -0.102434
# 5 -0.001317 0.002898 -0.008484 0.000000 0.034172 0.000000
# 6 0.000000 0.000000 0.000000 -0.102434 0.000000 0.065392
#
#
# Mechanical properties :
#
#
# Convention : Reuss Voigt Hill
#
# Bulk Modulus (GPa) = 30.43349 54.82663 42.63006
# Shear Modulus (GPa) = 6.15468 25.07530 15.61499
#
# Velocity S-wave (km/s) = 1.84176 3.71753 2.93361
# Velocity P-wave (km/s) = 4.61475 6.97451 5.91353
#
# Compressibility (1/GPa) = 0.03285854
#
# Stress axis : x y z
#
# Youngs Moduli (GPa) = 74.85682 122.27664 17.39597
#
# Poissons Ratio (x) = -0.00576 0.28425
# Poissons Ratio (y) = -0.00352 0.11809
# Poissons Ratio (z) = 1.22317 0.83006
#
# Static dielectric constant tensor:
#      x y z
#    x 1.650820 0.000000 0.021210 
#    y 0.000000 1.636660 0.000000 
#    z 0.021210 0.000000 1.633190 
# 
# From -- ./inp_files/156234.got.cif
#   From: 2010.05.17/outbox.cif.g08.bks.cpg/sg12_79_cif.got.tgz:156234.got - 2010.06.03 13:09:07.
