data_PCOD9186080
_publ_section_title
;
Structure prediction by ZEFSAII (Michael W. Deem and Ramdas Pophale) SiO2 
 PCOD9186080
Probable space group: C 2/M
;
_chemical_formula_sum "Si O2"
_cell_formula_units_Z 64
_cell_length_a 16.930529
_cell_length_b 14.241981
_cell_length_c 11.918218
_cell_angle_alpha 90.000000
_cell_angle_beta 109.459430
_cell_angle_gamma 90.000000
_cell_volume 2709.614958
_symmetry_space_group_name_H-M "C 2/M"
_symmetry_group_IT_number 12
_symmetry_cell_setting 'monoclinic'
loop_
_space_group_symop_operation_xyz
x,y,z
-x,y,-z
-x,-y,-z
x,-y,z
1/2+x,1/2+y,z
1/2-x,1/2+y,-z
1/2-x,1/2-y,-z
1/2+x,1/2-y,z
loop_
_atom_site_type_symbol
_atom_site_label
_atom_site_fract_x
_atom_site_fract_y
_atom_site_fract_z
Si Si1 0.330596 0.385874 0.140387
Si Si2 0.079726 0.611714 0.254840
Si Si3 0.918831 0.111332 0.399038
Si Si4 0.747505 0.642922 0.533752
Si Si5 0.242398 0.105507 0.276586
Si Si6 0.593791 0.613956 0.063285
Si Si7 0.403947 0.885345 0.226140
Si Si8 0.641188 0.114393 0.050926
O O1 0.329263 0.500000 0.146887
O O2 0.395962 0.351892 0.264569
O O3 0.236314 0.354102 0.118765
O O4 0.356362 0.363915 0.026644
O O5 0.066565 0.500000 0.238411
O O6 0.168695 0.622849 0.357055
O O7 0.085241 0.646720 0.128989
O O8 0.999746 0.647935 0.286489
O O9 0.835017 0.120519 0.433815
O O10 0.000000 0.152091 0.500000
O O11 0.935429 0.000000 0.392101
O O12 0.750000 0.750000 0.500000
O O13 0.745710 0.596916 0.410871
O O14 0.154131 0.147466 0.192667
O O15 0.328088 0.149351 0.268949
O O16 0.241584 0.000000 0.226813
O O17 0.584598 0.500000 0.070924
O O18 0.500000 0.650145 0.000000
O O19 0.404876 0.000000 0.239293
O O20 0.382909 0.861291 0.087041
O O21 0.640158 0.000000 0.052187
#
# Coordination Sequence:
#
# PCOD9186080 Si02
#       8
#     8   8   8   8   8   8   8   8
#     4   9  15  27  51  83 115 140 170 229 292 335
#     4  10  19  34  59  85 110 145 189 231 276 330
#     4  10  21  38  63  90 112 145 201 255 293 336
#     4  12  26  42  55  77 113 155 196 238 289 347
#     4  10  20  36  58  83 115 148 187 233 281 343
#     4   9  17  28  50  85 117 144 176 229 294 344
#     4   9  17  30  54  91 118 138 172 224 285 338
#     4   9  14  26  51  85 119 138 167 222 279 332
#
# _framework density 23.619591
#
# number of rings (size 3 to 8) (size 9 to 14) (size 15 to 20)
#    0.000    2.250    2.500    1.500    1.750    2.000 
#    2.250    1.875    0.000    4.500    0.000    0.000 
#    0.000    0.000    0.000    0.000    0.000    0.000 
#
# Total GULP energy -178753.115831 kJ/mol
# GULP energy per Si atom -5586.034870 kJ/mol
# Density = 2.356583 g / cm^3
# Si number density = 23.619591 Si / 1000 Ang^3
#
#
#
# Elastic Constant Matrix: (Units=GPa)
#
#
# Indices 1 2 3 4 5 6 
#
# 1 106.3939 -19.4072 42.2441 0.0000 26.4450 0.0000
# 2 -19.4072 50.3131 -30.2604 0.0000 3.3429 0.0000
# 3 42.2441 -30.2604 118.8559 0.0000 9.8085 0.0000
# 4 0.0000 0.0000 0.0000 -16.8229 0.0000 15.6936
# 5 26.4450 3.3429 9.8085 0.0000 33.8977 0.0000
# 6 0.0000 0.0000 0.0000 15.6936 0.0000 -1.1246
#
#
#
# Elastic Compliance Matrix: (Units=1/GPa)
#
#
# Indices 1 2 3 4 5 6 
#
# 1 0.013973 0.004269 -0.003017 0.000000 -0.010449 0.000000
# 2 0.004269 0.025356 0.005552 0.000000 -0.007438 0.000000
# 3 -0.003017 0.005552 0.011013 0.000000 -0.001381 0.000000
# 4 0.000000 0.000000 0.000000 0.004946 0.000000 0.069023
# 5 -0.010449 -0.007438 -0.001381 0.000000 0.038785 0.000000
# 6 0.000000 0.000000 0.000000 0.069023 0.000000 0.073990
#
#
# Mechanical properties :
#
#
# Convention : Reuss Voigt Hill
#
# Bulk Modulus (GPa) = 15.63716 28.96845 22.30280
# Shear Modulus (GPa) = 28.44611 22.05579 25.25095
#
# Velocity S-wave (km/s) = 3.47413 3.05912 3.27321
# Velocity P-wave (km/s) = 4.76734 4.97683 4.87321
#
# Compressibility (1/GPa) = 0.06395023
#
# Stress axis : x y z
#
# Youngs Moduli (GPa) = 71.56725 39.43896 90.79960
#
# Poissons Ratio (x) = -0.16838 0.27394
# Poissons Ratio (y) = -0.30555 -0.50410
# Poissons Ratio (z) = 0.21592 -0.21896
#
# Static dielectric constant tensor:
#      x y z
#    x 1.874890 0.000000 0.007610 
#    y 0.000000 1.831880 0.000000 
#    z 0.007610 0.000000 1.860600 
# 
# From -- ./inp_files/147679.got.cif
#   From: 2010.05.17/outbox.cif.g08.bks.cpg/sg12_74_cif.got.tgz:147679.got - 2010.06.03 13:09:07.
