data_PCOD9186426
_publ_section_title
;
Structure prediction by ZEFSAII (Michael W. Deem and Ramdas Pophale) SiO2 
 PCOD9186426
Probable space group: C 2/M
;
_chemical_formula_sum "Si O2"
_cell_formula_units_Z 40
_cell_length_a 12.839854
_cell_length_b 12.774277
_cell_length_c 15.046630
_cell_angle_alpha 90.000000
_cell_angle_beta 42.728028
_cell_angle_gamma 90.000000
_cell_volume 1674.548500
_symmetry_space_group_name_H-M "C 2/M"
_symmetry_group_IT_number 12
_symmetry_cell_setting 'monoclinic'
loop_
_space_group_symop_operation_xyz
x,y,z
-x,y,-z
-x,-y,-z
x,-y,z
1/2+x,1/2+y,z
1/2-x,1/2+y,-z
1/2-x,1/2-y,-z
1/2+x,1/2-y,z
loop_
_atom_site_type_symbol
_atom_site_label
_atom_site_fract_x
_atom_site_fract_y
_atom_site_fract_z
Si Si1 0.357211 0.799234 0.643387
Si Si2 0.091978 0.886167 0.695229
Si Si3 0.613943 0.880637 0.843103
Si Si4 0.945645 0.678578 0.766440
Si Si5 0.625053 0.617694 0.998077
O O1 0.500000 0.755078 0.500000
O O2 0.252477 0.866876 0.643046
O O3 0.246896 0.706333 0.750063
O O4 0.418084 0.870145 0.686645
O O5 0.043781 0.780863 0.676452
O O6 0.966477 0.883286 0.853164
O O7 0.086781 0.000000 0.654269
O O8 0.525043 0.870799 0.803532
O O9 0.672167 0.000000 0.815774
O O10 0.500000 0.864533 0.000000
O O11 0.768887 0.693189 0.906239
O O12 0.686735 0.500000 0.946319
O O13 0.500000 0.636665 0.000000
#
# Coordination Sequence:
#
# PCOD9186426 Si02
#       5
#     8   8   8   8   8
#     4  11  26  44  66  96 136 180 224 272 327 392
#     4  10  23  39  61  95 129 166 221 275 325 391
#     4  10  25  45  69 103 135 169 221 277 334 401
#     4  11  23  40  69  92 134 175 218 271 338 386
#     4  10  19  34  62  98 125 159 214 274 336 391
#
# _framework density 23.887035999999998
#
# number of rings (size 3 to 8) (size 9 to 14) (size 15 to 20)
#    0.000    1.600    2.000    1.200    8.400    5.600 
#    0.000    2.000    0.000    0.600    0.000    0.000 
#    0.000    0.000    0.000    0.000    0.000    0.000 
#
# Total GULP energy -111598.055260 kJ/mol
# GULP energy per Si atom -5579.902763 kJ/mol
# Density = 2.383267 g / cm^3
# Si number density = 23.887036 Si / 1000 Ang^3
#
#
#
# Elastic Constant Matrix: (Units=GPa)
#
#
# Indices 1 2 3 4 5 6 
#
# 1 107.4119 5.6507 24.7693 0.0000 -6.7772 0.0000
# 2 5.6507 101.1385 27.4964 0.0000 -15.8894 0.0000
# 3 24.7693 27.4964 107.5923 0.0000 3.3756 0.0000
# 4 0.0000 0.0000 0.0000 -24.8030 0.0000 -11.3841
# 5 -6.7772 -15.8894 3.3756 0.0000 17.5234 0.0000
# 6 0.0000 0.0000 0.0000 -11.3841 0.0000 -7.8887
#
#
#
# Elastic Compliance Matrix: (Units=1/GPa)
#
#
# Indices 1 2 3 4 5 6 
#
# 1 0.010243 0.001043 -0.002796 0.000000 0.005446 0.000000
# 2 0.001043 0.012927 -0.003948 0.000000 0.012886 0.000000
# 3 -0.002796 -0.003948 0.011161 0.000000 -0.006811 0.000000
# 4 0.000000 0.000000 0.000000 -0.119405 0.000000 0.172312
# 5 0.005446 0.012886 -0.006811 0.000000 0.072169 0.000000
# 6 0.000000 0.000000 0.000000 0.172312 0.000000 -0.375424
#
#
# Mechanical properties :
#
#
# Convention : Reuss Voigt Hill
#
# Bulk Modulus (GPa) = 43.61074 47.99728 45.80401
# Shear Modulus (GPa) = -13.53969 14.18142 0.32086
#
# Velocity S-wave (km/s) = -2.38338 2.43921 0.36690
# Velocity P-wave (km/s) = 3.27455 5.29812 4.40413
#
# Compressibility (1/GPa) = 0.02293013
#
# Stress axis : x y z
#
# Youngs Moduli (GPa) = 97.62391 77.35812 89.60073
#
# Poissons Ratio (x) = -0.08072 0.25050
# Poissons Ratio (y) = -0.10186 0.35375
# Poissons Ratio (z) = 0.27293 0.30542
#
# Static dielectric constant tensor:
#      x y z
#    x 1.964740 0.000000 0.048960 
#    y 0.000000 2.022010 0.000000 
#    z 0.048960 0.000000 1.933310 
# 
# From -- ./inp_files/270514.got.cif
#   From: 2010.05.17/outbox.cif.g08.bks.cpg/sg12_136_cif.got.tgz:270514.got - 2010.06.03 13:09:07.
