data_PCOD9186931
_publ_section_title
;
Structure prediction by ZEFSAII (Michael W. Deem and Ramdas Pophale) SiO2 
 PCOD9186931
Probable space group: C 2/M
;
_chemical_formula_sum "Si O2"
_cell_formula_units_Z 64
_cell_length_a 20.902874
_cell_length_b 7.644455
_cell_length_c 21.390926
_cell_angle_alpha 90.000000
_cell_angle_beta 129.817723
_cell_angle_gamma 90.000000
_cell_volume 2625.376990
_symmetry_space_group_name_H-M "C 2/M"
_symmetry_group_IT_number 12
_symmetry_cell_setting 'monoclinic'
loop_
_space_group_symop_operation_xyz
x,y,z
-x,y,-z
-x,-y,-z
x,-y,z
1/2+x,1/2+y,z
1/2-x,1/2+y,-z
1/2-x,1/2-y,-z
1/2+x,1/2-y,z
loop_
_atom_site_type_symbol
_atom_site_label
_atom_site_fract_x
_atom_site_fract_y
_atom_site_fract_z
Si Si1 0.256779 0.209253 0.186905
Si Si2 0.497101 0.713099 0.410711
Si Si3 0.341498 0.790936 0.696489
Si Si4 0.419954 0.707566 0.227510
Si Si5 0.330968 0.298487 0.366141
Si Si6 0.652730 0.707280 0.439766
Si Si7 0.995196 0.699872 0.145088
Si Si8 0.084389 0.203864 0.025993
O O1 0.323426 0.247664 0.174799
O O2 0.291257 0.297058 0.271427
O O3 0.255172 0.000000 0.197357
O O4 0.168041 0.277298 0.107853
O O5 0.496203 0.500000 0.416809
O O6 0.459972 0.758605 0.319069
O O7 0.425221 0.773856 0.414652
O O8 0.593109 0.772264 0.459135
O O9 0.247353 0.719415 0.644889
O O10 0.373909 0.763039 0.646488
O O11 0.411194 0.722139 0.788496
O O12 0.335742 0.000000 0.702487
O O13 0.432362 0.500000 0.228965
O O14 0.458044 0.795336 0.191025
O O15 0.341461 0.500000 0.394173
O O16 0.645035 0.500000 0.437744
O O17 0.750000 0.750000 0.500000
O O18 0.004212 0.500000 0.130593
O O19 0.930938 0.787157 0.057549
O O20 0.086317 0.000000 0.045215
O O21 0.000000 0.283744 0.000000
#
# Coordination Sequence:
#
# PCOD9186931 Si02
#       8
#     8   8   8   8   8   8   8   8
#     4  10  20  34  53  80 111 143 187 238 283 326
#     4   8  16  33  57  82 107 143 187 222 264 330
#     4  10  21  37  58  87 117 144 183 235 282 333
#     4  10  19  35  57  79 105 144 187 227 277 337
#     4   9  18  35  59  84 112 149 190 229 278 337
#     4  11  22  38  60  86 115 148 186 227 277 335
#     4  11  22  34  54  83 111 140 182 235 286 329
#     4  10  22  38  53  72 105 149 190 228 279 342
#
# _framework density 24.37745
#
# number of rings (size 3 to 8) (size 9 to 14) (size 15 to 20)
#    0.000    2.125    1.250    3.000    0.000    2.750 
#    0.000    1.250    0.000    3.750    0.000    0.000 
#    0.000    0.000    0.000    0.000    0.000    0.000 
#
# Total GULP energy -178694.229379 kJ/mol
# GULP energy per Si atom -5584.194668 kJ/mol
# Density = 2.432197 g / cm^3
# Si number density = 24.377450 Si / 1000 Ang^3
#
#
#
# Elastic Constant Matrix: (Units=GPa)
#
#
# Indices 1 2 3 4 5 6 
#
# 1 178.4657 -3.7540 40.2884 0.0000 19.8466 0.0000
# 2 -3.7540 55.9344 -6.5053 0.0000 1.8756 0.0000
# 3 40.2884 -6.5053 110.9037 0.0000 28.3019 0.0000
# 4 0.0000 0.0000 0.0000 9.3095 0.0000 -8.7594
# 5 19.8466 1.8756 28.3019 0.0000 49.3839 0.0000
# 6 0.0000 0.0000 0.0000 -8.7594 0.0000 2.7788
#
#
#
# Elastic Compliance Matrix: (Units=1/GPa)
#
#
# Indices 1 2 3 4 5 6 
#
# 1 0.006189 0.000246 -0.001870 0.000000 -0.001425 0.000000
# 2 0.000246 0.018107 0.001375 0.000000 -0.001574 0.000000
# 3 -0.001870 0.001375 0.011243 0.000000 -0.005744 0.000000
# 4 0.000000 0.000000 0.000000 -0.054638 0.000000 -0.172232
# 5 -0.001425 -0.001574 -0.005744 0.000000 0.024174 0.000000
# 6 0.000000 0.000000 0.000000 -0.172232 0.000000 -0.183047
#
#
# Mechanical properties :
#
#
# Convention : Reuss Voigt Hill
#
# Bulk Modulus (GPa) = 28.53974 45.04021 36.78997
# Shear Modulus (GPa) = -30.15818 33.31276 1.57729
#
# Velocity S-wave (km/s) = -3.52111 3.70068 0.80525
# Velocity P-wave (km/s) = 2.19045 6.06435 3.99864
#
# Compressibility (1/GPa) = 0.03503886
#
# Stress axis : x y z
#
# Youngs Moduli (GPa) = 161.57285 55.22656 88.94676
#
# Poissons Ratio (x) = -0.01357 0.16636
# Poissons Ratio (y) = -0.03969 -0.12227
# Poissons Ratio (z) = 0.30220 -0.07592
#
# Static dielectric constant tensor:
#      x y z
#    x 1.993210 0.000000 0.041760 
#    y 0.000000 1.914850 0.000000 
#    z 0.041760 0.000000 2.010850 
# 
# From -- ./inp_files/346263.got.cif
#   From: 2010.05.17/outbox.cif.g08.bks.cpg/sg12_174_cif.got.tgz:346263.got - 2010.06.03 13:09:07.
