data_PCOD9186213
_publ_section_title
;
Structure prediction by ZEFSAII (Michael W. Deem and Ramdas Pophale) SiO2 
 PCOD9186213
Probable space group: C 2/M
;
_chemical_formula_sum "Si O2"
_cell_formula_units_Z 60
_cell_length_a 25.321428
_cell_length_b 7.741218
_cell_length_c 13.956336
_cell_angle_alpha 90.000000
_cell_angle_beta 99.414810
_cell_angle_gamma 90.000000
_cell_volume 2698.852601
_symmetry_space_group_name_H-M "C 2/M"
_symmetry_group_IT_number 12
_symmetry_cell_setting 'monoclinic'
loop_
_space_group_symop_operation_xyz
x,y,z
-x,y,-z
-x,-y,-z
x,-y,z
1/2+x,1/2+y,z
1/2-x,1/2+y,-z
1/2-x,1/2-y,-z
1/2+x,1/2-y,z
loop_
_atom_site_type_symbol
_atom_site_label
_atom_site_fract_x
_atom_site_fract_y
_atom_site_fract_z
Si Si1 0.180351 0.198437 0.898364
Si Si2 0.917689 0.200217 0.488884
Si Si3 0.858770 0.686205 0.770008
Si Si4 0.534681 0.292110 0.304462
Si Si5 0.802763 0.706119 0.457392
Si Si6 0.255617 0.197184 0.248559
Si Si7 0.165396 0.500000 0.046047
Si Si8 0.082795 0.209676 0.728560
O O1 0.231877 0.197151 0.843076
O O2 0.184168 0.345458 0.978106
O O3 0.130900 0.254258 0.813776
O O4 0.172314 0.000000 0.929902
O O5 0.954742 0.274240 0.583792
O O6 0.857208 0.211391 0.510725
O O7 0.914705 0.275102 0.380752
O O8 0.933310 0.000000 0.481741
O O9 0.846692 0.500000 0.718590
O O10 0.915484 0.745001 0.747360
O O11 0.805941 0.797553 0.737534
O O12 0.858003 0.646654 0.882934
O O13 0.533972 0.500000 0.310317
O O14 0.476059 0.237040 0.252210
O O15 0.809359 0.500000 0.457173
O O16 0.750000 0.750000 0.500000
O O17 0.791230 0.768337 0.345778
O O18 0.270674 0.000000 0.234400
O O19 0.085035 0.000000 0.724972
#
# Coordination Sequence:
#
# PCOD9186213 Si02
#       8
#     8   8   8   8   8   8   4   8
#     4  11  22  42  70  97 130 169 213 272 332 391
#     4  10  19  34  59  92 129 166 211 258 310 375
#     4  10  24  43  59  89 122 168 208 263 336 383
#     4  10  20  38  64  92 128 170 215 263 314 388
#     4  11  23  35  54  86 127 174 212 254 305 377
#     4  11  22  40  64  90 128 167 213 266 322 385
#     4  10  26  48  65  98 130 158 225 279 337 400
#     4   9  19  37  64  96 128 168 213 261 322 381
#
# _framework density 22.231670000000001
#
# number of rings (size 3 to 8) (size 9 to 14) (size 15 to 20)
#    0.400    1.333    2.000    2.400    0.000    8.533 
#    1.200    1.333    0.000    4.000    0.000    0.000 
#    0.000    0.000    0.000    0.000    0.000    0.000 
#
# Total GULP energy -167017.927868 kJ/mol
# GULP energy per Si atom -5567.264262 kJ/mol
# Density = 2.218107 g / cm^3
# Si number density = 22.231670 Si / 1000 Ang^3
#
#
#
# Elastic Constant Matrix: (Units=GPa)
#
#
# Indices 1 2 3 4 5 6 
#
# 1 119.5430 1.6062 21.8624 0.0000 6.1487 0.0000
# 2 1.6062 76.6002 18.2313 0.0000 1.7237 0.0000
# 3 21.8624 18.2313 73.7110 0.0000 -3.8722 0.0000
# 4 0.0000 0.0000 0.0000 173.3717 0.0000 -46.3969
# 5 6.1487 1.7237 -3.8722 0.0000 27.8799 0.0000
# 6 0.0000 0.0000 0.0000 -46.3969 0.0000 29.8951
#
#
#
# Elastic Compliance Matrix: (Units=1/GPa)
#
#
# Indices 1 2 3 4 5 6 
#
# 1 0.009021 0.000566 -0.002943 0.000000 -0.002433 0.000000
# 2 0.000566 0.013957 -0.003699 0.000000 -0.001502 0.000000
# 3 -0.002943 -0.003699 0.015514 0.000000 0.003033 0.000000
# 4 0.000000 0.000000 0.000000 0.009865 0.000000 0.015311
# 5 -0.002433 -0.001502 0.003033 0.000000 0.036919 0.000000
# 6 0.000000 0.000000 0.000000 0.015311 0.000000 0.057213
#
#
# Mechanical properties :
#
#
# Convention : Reuss Voigt Hill
#
# Bulk Modulus (GPa) = 37.96587 39.25044 38.60816
# Shear Modulus (GPa) = 30.59583 61.43963 46.01773
#
# Velocity S-wave (km/s) = 3.71378 5.26271 4.55457
# Velocity P-wave (km/s) = 5.95852 7.39064 6.71288
#
# Compressibility (1/GPa) = 0.02633945
#
# Stress axis : x y z
#
# Youngs Moduli (GPa) = 110.85178 71.64826 64.45926
#
# Poissons Ratio (x) = -0.04056 0.18973
# Poissons Ratio (y) = -0.06276 0.23843
# Poissons Ratio (z) = 0.32629 0.26502
#
# Static dielectric constant tensor:
#      x y z
#    x 1.829050 0.000000 0.009930 
#    y 0.000000 1.803170 0.000000 
#    z 0.009930 0.000000 1.840960 
# 
# From -- ./inp_files/237690.got.cif
#   From: 2010.05.17/outbox.cif.g08.bks.cpg/sg12_119_cif.got.tgz:237690.got - 2010.06.03 13:09:07.
