data_PCOD9186855
_publ_section_title
;
Structure prediction by ZEFSAII (Michael W. Deem and Ramdas Pophale) SiO2 
 PCOD9186855
Probable space group: C 2/M
;
_chemical_formula_sum "Si O2"
_cell_formula_units_Z 52
_cell_length_a 25.100505
_cell_length_b 12.326438
_cell_length_c 13.820901
_cell_angle_alpha 90.000000
_cell_angle_beta 44.275514
_cell_angle_gamma 90.000000
_cell_volume 2985.244269
_symmetry_space_group_name_H-M "C 2/M"
_symmetry_group_IT_number 12
_symmetry_cell_setting 'monoclinic'
loop_
_space_group_symop_operation_xyz
x,y,z
-x,y,-z
-x,-y,-z
x,-y,z
1/2+x,1/2+y,z
1/2-x,1/2+y,-z
1/2-x,1/2-y,-z
1/2+x,1/2-y,z
loop_
_atom_site_type_symbol
_atom_site_label
_atom_site_fract_x
_atom_site_fract_y
_atom_site_fract_z
Si Si1 0.843023 0.500000 0.036562
Si Si2 0.259979 0.626313 0.268589
Si Si3 0.326716 0.764931 0.339833
Si Si4 0.990771 0.500000 0.251200
Si Si5 0.412184 0.624148 0.582089
Si Si6 0.763524 0.207161 0.874000
Si Si7 0.874739 0.500000 0.220519
Si Si8 0.101145 0.300334 0.566354
O O1 0.791630 0.606170 0.082028
O O2 0.877821 0.500000 0.100331
O O3 0.918869 0.500000 0.873766
O O4 0.274703 0.500000 0.233379
O O5 0.322740 0.683962 0.255317
O O6 0.252695 0.695445 0.180304
O O7 0.179682 0.640422 0.430876
O O8 0.250000 0.750000 0.500000
O O9 0.391812 0.751154 0.335087
O O10 0.330832 0.889313 0.301463
O O11 0.947215 0.500000 0.201426
O O12 0.961901 0.393334 0.344714
O O13 0.500000 0.625152 0.500000
O O14 0.390826 0.500000 0.585722
O O15 0.350413 0.667468 0.740266
O O16 0.408246 0.703948 0.496341
O O17 0.750000 0.250000 0.000000
#
# Coordination Sequence:
#
# PCOD9186855 Si02
#       8
#     4   8   8   4   8   8   4   8
#     4  12  23  40  62  84 116 160 202 236 295 352
#     4  10  19  35  56  83 117 149 187 240 293 334
#     4   9  18  29  54  83 116 149 176 235 287 345
#     4  10  21  36  62  91 122 149 188 243 299 355
#     4  10  22  41  62  82 113 156 198 244 291 346
#     4  11  25  40  58  85 115 153 203 246 286 349
#     4  10  19  38  54  88 121 150 197 234 291 355
#     4   9  19  36  55  88 117 146 189 237 291 347
#
# _framework density 17.419011000000001
#
# number of rings (size 3 to 8) (size 9 to 14) (size 15 to 20)
#    0.000    2.000    3.077    0.231    6.462    0.615 
#    0.000    0.385    0.000    0.000    0.000    2.154 
#    0.000    0.000    0.000    0.000    0.000    0.000 
#
# Total GULP energy -144838.712727 kJ/mol
# GULP energy per Si atom -5570.719720 kJ/mol
# Density = 1.737936 g / cm^3
# Si number density = 17.419011 Si / 1000 Ang^3
#
#
#
# Elastic Constant Matrix: (Units=GPa)
#
#
# Indices 1 2 3 4 5 6 
#
# 1 37.0355 57.8141 45.9929 0.0000 2.0874 0.0000
# 2 57.8141 157.2422 60.8283 0.0000 4.3800 0.0000
# 3 45.9929 60.8283 105.8819 0.0000 4.8304 0.0000
# 4 0.0000 0.0000 0.0000 24.3283 0.0000 4.2722
# 5 2.0874 4.3800 4.8304 0.0000 30.2708 0.0000
# 6 0.0000 0.0000 0.0000 4.2722 0.0000 17.8607
#
#
#
# Elastic Compliance Matrix: (Units=1/GPa)
#
#
# Indices 1 2 3 4 5 6 
#
# 1 0.111191 -0.028561 -0.031962 0.000000 0.001566 0.000000
# 2 -0.028561 0.015519 0.003529 0.000000 -0.000839 0.000000
# 3 -0.031962 0.003529 0.021379 0.000000 -0.001718 0.000000
# 4 0.000000 0.000000 0.000000 0.042907 0.000000 -0.010263
# 5 0.001566 -0.000839 -0.001718 0.000000 0.033323 0.000000
# 6 0.000000 0.000000 0.000000 -0.010263 0.000000 0.058444
#
#
# Mechanical properties :
#
#
# Convention : Reuss Voigt Hill
#
# Bulk Modulus (GPa) = 29.32515 69.93669 49.63092
# Shear Modulus (GPa) = 12.25134 23.52691 17.88913
#
# Velocity S-wave (km/s) = 2.65492 3.67910 3.20814
# Velocity P-wave (km/s) = 5.12541 7.63443 6.50209
#
# Compressibility (1/GPa) = 0.03410042
#
# Stress axis : x y z
#
# Youngs Moduli (GPa) = 8.99350 64.43674 46.77459
#
# Poissons Ratio (x) = 1.84041 1.49502
# Poissons Ratio (y) = 0.25687 -0.16508
# Poissons Ratio (z) = 0.28745 -0.22741
#
# Static dielectric constant tensor:
#      x y z
#    x 1.642870 0.000000 0.022460 
#    y 0.000000 1.616220 0.000000 
#    z 0.022460 0.000000 1.591920 
# 
# From -- ./inp_files/175209.got.cif
#   From: 2010.05.17/outbox.cif.g08.bks.cpg/sg12_88_cif.got.tgz:175209.got - 2010.06.03 13:09:07.
