data_PCOD9186002
_publ_section_title
;
Structure prediction by ZEFSAII (Michael W. Deem and Ramdas Pophale) SiO2 
 PCOD9186002
Probable space group: C 2/M
;
_chemical_formula_sum "Si O2"
_cell_formula_units_Z 40
_cell_length_a 14.647865
_cell_length_b 18.915564
_cell_length_c 9.998620
_cell_angle_alpha 90.000000
_cell_angle_beta 134.870533
_cell_angle_gamma 90.000000
_cell_volume 1963.350412
_symmetry_space_group_name_H-M "C 2/M"
_symmetry_group_IT_number 12
_symmetry_cell_setting 'monoclinic'
loop_
_space_group_symop_operation_xyz
x,y,z
-x,y,-z
-x,-y,-z
x,-y,z
1/2+x,1/2+y,z
1/2-x,1/2+y,-z
1/2-x,1/2-y,-z
1/2+x,1/2-y,z
loop_
_atom_site_type_symbol
_atom_site_label
_atom_site_fract_x
_atom_site_fract_y
_atom_site_fract_z
Si Si1 0.367391 0.077134 0.943877
Si Si2 0.882167 0.112242 0.472359
Si Si3 0.548491 0.333740 0.192647
Si Si4 0.176615 0.278883 0.611464
Si Si5 0.926190 0.700195 0.204942
O O1 0.249371 0.080624 0.718357
O O2 0.363739 0.000000 0.007840
O O3 0.500000 0.082919 0.000000
O O4 0.367740 0.142443 0.045734
O O5 0.922820 0.106060 0.668556
O O6 0.860653 0.196758 0.437464
O O7 0.000000 0.090697 0.500000
O O8 0.683019 0.294132 0.299470
O O9 0.451356 0.274650 0.154439
O O10 0.500000 0.360206 0.000000
O O11 0.159211 0.294970 0.749988
O O12 0.068617 0.318855 0.410775
#
# Coordination Sequence:
#
# PCOD9186002 Si02
#       5
#     8   8   8   8   8
#     4  11  24  40  60  82 114 162 208 241 279 344
#     4  11  21  38  59  88 122 153 193 243 298 352
#     4  11  21  32  57  91 121 153 183 238 305 358
#     4  10  19  34  58  89 124 149 183 238 310 355
#     4  10  19  36  56  88 117 153 187 242 289 350
#
# _framework density 20.373336999999999
#
# number of rings (size 3 to 8) (size 9 to 14) (size 15 to 20)
#    0.000    1.400    4.000    6.600    2.800    2.000 
#    0.000    2.000    0.000    1.800    0.000    0.000 
#    0.000    0.000    0.000    0.000    0.000    0.000 
#
# Total GULP energy -111710.890449 kJ/mol
# GULP energy per Si atom -5585.544522 kJ/mol
# Density = 2.032697 g / cm^3
# Si number density = 20.373337 Si / 1000 Ang^3
#
#
#
# Elastic Constant Matrix: (Units=GPa)
#
#
# Indices 1 2 3 4 5 6 
#
# 1 99.7424 0.7201 57.3599 0.0000 -2.3669 0.0000
# 2 0.7201 45.1271 30.4269 0.0000 -4.6402 0.0000
# 3 57.3599 30.4269 154.5170 0.0000 -9.3936 0.0000
# 4 0.0000 0.0000 0.0000 -16.3106 0.0000 -4.3041
# 5 -2.3669 -4.6402 -9.3936 0.0000 40.7870 0.0000
# 6 0.0000 0.0000 0.0000 -4.3041 0.0000 7.4395
#
#
#
# Elastic Compliance Matrix: (Units=1/GPa)
#
#
# Indices 1 2 3 4 5 6 
#
# 1 0.013230 0.003566 -0.005621 0.000000 -0.000121 0.000000
# 2 0.003566 0.026641 -0.006463 0.000000 0.001749 0.000000
# 3 -0.005621 -0.006463 0.009905 0.000000 0.001220 0.000000
# 4 0.000000 0.000000 0.000000 -0.053189 0.000000 -0.030773
# 5 -0.000121 0.001749 0.001220 0.000000 0.024990 0.000000
# 6 0.000000 0.000000 0.000000 -0.030773 0.000000 0.116614
#
#
# Mechanical properties :
#
#
# Convention : Reuss Voigt Hill
#
# Bulk Modulus (GPa) = 30.54425 52.93336 41.73881
# Shear Modulus (GPa) = 30.09523 20.44183 25.26853
#
# Velocity S-wave (km/s) = 3.84759 3.17103 3.52557
# Velocity P-wave (km/s) = 5.89605 6.28055 6.09133
#
# Compressibility (1/GPa) = 0.03273939
#
# Stress axis : x y z
#
# Youngs Moduli (GPa) = 75.58842 37.53676 100.95710
#
# Poissons Ratio (x) = -0.13386 0.56745
# Poissons Ratio (y) = -0.26956 0.65253
# Poissons Ratio (z) = 0.42486 0.24262
#
# Static dielectric constant tensor:
#      x y z
#    x 1.731370 0.000000 -0.007270 
#    y 0.000000 1.692490 0.000000 
#    z -0.007270 0.000000 1.802960 
# 
# From -- ./inp_files/63803.got.cif
#   From: 2010.05.17/outbox.cif.g08.bks.cpg/sg12_32_cif.got.tgz:63803.got - 2010.06.03 13:09:07.
