data_PCOD9186815
_publ_section_title
;
Structure prediction by ZEFSAII (Michael W. Deem and Ramdas Pophale) SiO2 
 PCOD9186815
Probable space group: C 2/M
;
_chemical_formula_sum "Si O2"
_cell_formula_units_Z 64
_cell_length_a 12.848179
_cell_length_b 29.071589
_cell_length_c 9.465218
_cell_angle_alpha 90.000000
_cell_angle_beta 92.325869
_cell_angle_gamma 90.000000
_cell_volume 3532.507064
_symmetry_space_group_name_H-M "C 2/M"
_symmetry_group_IT_number 12
_symmetry_cell_setting 'monoclinic'
loop_
_space_group_symop_operation_xyz
x,y,z
-x,y,-z
-x,-y,-z
x,-y,z
1/2+x,1/2+y,z
1/2-x,1/2+y,-z
1/2-x,1/2-y,-z
1/2+x,1/2-y,z
loop_
_atom_site_type_symbol
_atom_site_label
_atom_site_fract_x
_atom_site_fract_y
_atom_site_fract_z
Si Si1 0.782945 0.201454 0.822933
Si Si2 0.592955 0.423223 0.337455
Si Si3 0.996995 0.553205 0.828202
Si Si4 0.714425 0.900702 0.834578
Si Si5 0.476516 0.316933 0.656545
Si Si6 0.294883 0.888744 0.829795
Si Si7 0.182259 0.201429 0.847358
Si Si8 0.866486 0.050094 0.339471
O O1 0.723219 0.153296 0.792443
O O2 0.878381 0.207692 0.721861
O O3 0.710974 0.246120 0.815687
O O4 0.829912 0.197536 0.984023
O O5 0.686148 0.425065 0.230965
O O6 0.558955 0.370119 0.353185
O O7 0.627945 0.441650 0.492066
O O8 0.485316 0.447720 0.292045
O O9 0.982556 0.500000 0.780453
O O10 0.107091 0.574605 0.786062
O O11 0.902698 0.587939 0.786935
O O12 0.000000 0.552076 0.000000
O O13 0.719034 0.901032 0.005225
O O14 0.500000 0.300663 0.500000
O O15 0.578504 0.312513 0.758920
O O16 0.276391 0.833986 0.816023
O O17 0.202664 0.911784 0.737184
O O18 0.821287 0.000000 0.306759
#
# Coordination Sequence:
#
# PCOD9186815 Si02
#       8
#     8   8   8   8   8   8   8   8
#     4   9  21  34  55  84 107 144 182 233 279 339
#     4  10  19  36  53  78 107 146 178 221 282 332
#     4   9  18  33  52  75 106 142 178 223 277 325
#     4   9  20  35  57  79 108 139 187 231 276 331
#     4  11  19  34  56  78 109 145 181 224 280 336
#     4  10  19  35  56  81 106 144 183 232 276 332
#     4  10  19  36  55  80 113 141 184 227 287 333
#     4  11  21  35  54  79 109 144 183 224 275 337
#
# _framework density 18.117443999999999
#
# number of rings (size 3 to 8) (size 9 to 14) (size 15 to 20)
#    0.000    2.125    2.500    1.500    0.000    3.500 
#    0.000    5.000    0.000    1.500    0.000    0.000 
#    0.000    0.000    0.000    0.000    0.000    0.000 
#
# Total GULP energy -178401.412585 kJ/mol
# GULP energy per Si atom -5575.044143 kJ/mol
# Density = 1.807621 g / cm^3
# Si number density = 18.117444 Si / 1000 Ang^3
#
#
#
# Elastic Constant Matrix: (Units=GPa)
#
#
# Indices 1 2 3 4 5 6 
#
# 1 86.2513 10.6938 29.4610 0.0000 -7.0579 0.0000
# 2 10.6938 54.6572 16.1782 0.0000 -2.2889 0.0000
# 3 29.4610 16.1782 26.7805 0.0000 -7.0894 0.0000
# 4 0.0000 0.0000 0.0000 12.3368 0.0000 8.5582
# 5 -7.0579 -2.2889 -7.0894 0.0000 17.2852 0.0000
# 6 0.0000 0.0000 0.0000 8.5582 0.0000 3.8265
#
#
#
# Elastic Compliance Matrix: (Units=1/GPa)
#
#
# Indices 1 2 3 4 5 6 
#
# 1 0.018995 0.003065 -0.023095 0.000000 -0.001310 0.000000
# 2 0.003065 0.022903 -0.018031 0.000000 -0.003111 0.000000
# 3 -0.023095 -0.018031 0.079099 0.000000 0.020624 0.000000
# 4 0.000000 0.000000 0.000000 -0.146967 0.000000 0.328703
# 5 -0.001310 -0.003111 0.020624 0.000000 0.065365 0.000000
# 6 0.000000 0.000000 0.000000 0.328703 0.000000 -0.473832
#
#
# Mechanical properties :
#
#
# Convention : Reuss Voigt Hill
#
# Bulk Modulus (GPa) = 22.28376 31.15056 26.71716
# Shear Modulus (GPa) = -14.56216 14.11342 -0.22437
#
# Velocity S-wave (km/s) = -2.83815 2.79408 -0.35229
# Velocity P-wave (km/s) = 1.25944 5.25739 3.82272
#
# Compressibility (1/GPa) = 0.04487573
#
# Stress axis : x y z
#
# Youngs Moduli (GPa) = 52.64414 43.66251 12.64232
#
# Poissons Ratio (x) = -0.13381 0.29197
# Poissons Ratio (y) = -0.16133 0.22795
# Poissons Ratio (z) = 1.21582 0.78726
#
# Static dielectric constant tensor:
#      x y z
#    x 1.609400 0.000000 -0.014910 
#    y 0.000000 1.639570 0.000000 
#    z -0.014910 0.000000 1.604720 
# 
# From -- ./inp_files/54691.got.cif
#   From: 2010.05.17/outbox.cif.g08.bks.cpg/sg12_28_cif.got.tgz:54691.got - 2010.06.03 13:09:07.
