data_PCOD9186972
_publ_section_title
;
Structure prediction by ZEFSAII (Michael W. Deem and Ramdas Pophale) SiO2 
 PCOD9186972
Probable space group: C 2/M
;
_chemical_formula_sum "Si O2"
_cell_formula_units_Z 64
_cell_length_a 15.236101
_cell_length_b 8.062488
_cell_length_c 34.952876
_cell_angle_alpha 90.000000
_cell_angle_beta 130.517914
_cell_angle_gamma 90.000000
_cell_volume 3264.039059
_symmetry_space_group_name_H-M "C 2/M"
_symmetry_group_IT_number 12
_symmetry_cell_setting 'monoclinic'
loop_
_space_group_symop_operation_xyz
x,y,z
-x,y,-z
-x,-y,-z
x,-y,z
1/2+x,1/2+y,z
1/2-x,1/2+y,-z
1/2-x,1/2-y,-z
1/2+x,1/2-y,z
loop_
_atom_site_type_symbol
_atom_site_label
_atom_site_fract_x
_atom_site_fract_y
_atom_site_fract_z
Si Si1 0.642914 0.302652 0.925594
Si Si2 0.032408 0.301180 0.268086
Si Si3 0.315349 0.700097 0.253392
Si Si4 0.073051 0.202925 0.634748
Si Si5 0.310612 0.697001 0.556124
Si Si6 0.249711 0.699910 0.378789
Si Si7 0.058338 0.701223 0.188143
Si Si8 0.900016 0.802078 0.000457
O O1 0.658008 0.500000 0.933056
O O2 0.545647 0.263600 0.867146
O O3 0.768262 0.230425 0.950053
O O4 0.601791 0.238489 0.955960
O O5 0.045010 0.500000 0.270639
O O6 0.131319 0.238360 0.325142
O O7 0.048779 0.241969 0.229455
O O8 0.907454 0.257971 0.248648
O O9 0.315062 0.500000 0.253890
O O10 0.361188 0.755488 0.308077
O O11 0.184553 0.755140 0.209370
O O12 0.144946 0.255534 0.618020
O O13 0.941717 0.263355 0.596563
O O14 0.072220 0.000000 0.634913
O O15 0.318655 0.500000 0.558057
O O16 0.250000 0.750000 0.500000
O O17 0.244430 0.748265 0.575732
O O18 0.247805 0.500000 0.377342
O O19 0.054963 0.500000 0.186946
O O20 0.917719 0.000000 0.007633
O O21 0.000000 0.736982 0.000000
#
# Coordination Sequence:
#
# PCOD9186972 Si02
#       8
#     8   8   8   8   8   8   8   8
#     4  10  21  36  56  85 117 146 186 238 280 324
#     4  10  20  34  55  82 109 142 182 226 273 325
#     4  10  19  35  57  81 108 145 189 227 267 327
#     4   9  18  35  59  80 105 143 183 218 268 335
#     4  11  23  39  58  82 111 143 180 230 282 331
#     4  10  19  36  60  82 105 139 184 225 268 329
#     4  10  21  37  56  79 115 155 187 223 274 334
#     4   9  19  38  62  83 109 151 193 230 281 339
#
# _framework density 19.607609
#
# number of rings (size 3 to 8) (size 9 to 14) (size 15 to 20)
#    0.000    2.125    2.500    0.750    0.000    3.250 
#    0.000    8.125    0.000    0.000    0.000    0.000 
#    0.000    0.000    0.000    0.000    0.000    0.000 
#
# Total GULP energy -178614.079711 kJ/mol
# GULP energy per Si atom -5581.689991 kJ/mol
# Density = 1.956298 g / cm^3
# Si number density = 19.607609 Si / 1000 Ang^3
#
#
#
# Elastic Constant Matrix: (Units=GPa)
#
#
# Indices 1 2 3 4 5 6 
#
# 1 92.2231 6.7391 -8.8460 0.0000 -1.7734 0.0000
# 2 6.7391 8.2098 1.5864 0.0000 -3.1924 0.0000
# 3 -8.8460 1.5864 52.1205 0.0000 4.2750 0.0000
# 4 0.0000 0.0000 0.0000 24.5221 0.0000 0.2772
# 5 -1.7734 -3.1924 4.2750 0.0000 21.3956 0.0000
# 6 0.0000 0.0000 0.0000 0.2772 0.0000 23.4734
#
#
#
# Elastic Compliance Matrix: (Units=1/GPa)
#
#
# Indices 1 2 3 4 5 6 
#
# 1 0.011829 -0.010599 0.002419 0.000000 -0.001084 0.000000
# 2 -0.010599 0.140440 -0.007849 0.000000 0.021644 0.000000
# 3 0.002419 -0.007849 0.020247 0.000000 -0.005016 0.000000
# 4 0.000000 0.000000 0.000000 0.040785 0.000000 -0.000482
# 5 -0.001084 0.021644 -0.005016 0.000000 0.050881 0.000000
# 6 0.000000 0.000000 0.000000 -0.000482 0.000000 0.042607
#
#
# Mechanical properties :
#
#
# Convention : Reuss Voigt Hill
#
# Bulk Modulus (GPa) = 7.11953 16.83469 11.97711
# Shear Modulus (GPa) = 12.96461 24.08314 18.52388
#
# Velocity S-wave (km/s) = 2.57418 3.50845 3.07698
# Velocity P-wave (km/s) = 3.53186 5.00167 4.32959
#
# Compressibility (1/GPa) = 0.14045871
#
# Stress axis : x y z
#
# Youngs Moduli (GPa) = 84.53817 7.12050 49.38954
#
# Poissons Ratio (x) = 0.07547 -0.11948
# Poissons Ratio (y) = 0.89603 0.38764
# Poissons Ratio (z) = -0.20451 0.05589
#
# Static dielectric constant tensor:
#      x y z
#    x 1.686670 0.000000 -0.011120 
#    y 0.000000 1.708610 0.000000 
#    z -0.011120 0.000000 1.693780 
# 
# From -- ./inp_files/359989.got.cif
#   From: 2010.05.17/outbox.cif.g08.bks.cpg/sg12_180_cif.got.tgz:359989.got - 2010.06.03 13:09:07.
