data_PCOD9186540
_publ_section_title
;
Structure prediction by ZEFSAII (Michael W. Deem and Ramdas Pophale) SiO2 
 PCOD9186540
Probable space group: C 2/M
;
_chemical_formula_sum "Si O2"
_cell_formula_units_Z 56
_cell_length_a 9.931275
_cell_length_b 19.081497
_cell_length_c 20.522424
_cell_angle_alpha 90.000000
_cell_angle_beta 121.719639
_cell_angle_gamma 90.000000
_cell_volume 3308.165937
_symmetry_space_group_name_H-M "C 2/M"
_symmetry_group_IT_number 12
_symmetry_cell_setting 'monoclinic'
loop_
_space_group_symop_operation_xyz
x,y,z
-x,y,-z
-x,-y,-z
x,-y,z
1/2+x,1/2+y,z
1/2-x,1/2+y,-z
1/2-x,1/2-y,-z
1/2+x,1/2-y,z
loop_
_atom_site_type_symbol
_atom_site_label
_atom_site_fract_x
_atom_site_fract_y
_atom_site_fract_z
Si Si1 0.400458 0.705541 0.855746
Si Si2 0.169477 0.699995 0.674924
Si Si3 0.609301 0.419024 0.963118
Si Si4 0.156070 0.219497 0.413038
Si Si5 0.492117 0.080835 0.572259
Si Si6 0.869887 0.919601 0.522307
Si Si7 0.315354 0.195487 0.069385
O O1 0.291444 0.702899 0.764569
O O2 0.516839 0.637265 0.893224
O O3 0.506059 0.776464 0.877792
O O4 0.286808 0.704664 0.890471
O O5 0.241609 0.726350 0.625460
O O6 0.007781 0.742164 0.642344
O O7 0.111892 0.621067 0.647932
O O8 0.627686 0.500000 0.944799
O O9 0.500000 0.421898 0.000000
O O10 0.771417 0.380695 0.028301
O O11 0.250000 0.250000 0.500000
O O12 0.118723 0.138565 0.419517
O O13 0.500000 0.110004 0.500000
O O14 0.310697 0.086833 0.549243
O O15 0.535040 0.000000 0.578948
O O16 0.000000 0.906322 0.500000
O O17 0.887956 0.000000 0.549609
O O18 0.250000 0.250000 0.000000
#
# Coordination Sequence:
#
# PCOD9186540 Si02
#       7
#     8   8   8   8   8   8   8
#     4  10  20  33  52  81 111 137 169 212 267 319
#     4  12  23  34  51  78 111 139 174 226 288 309
#     4   8  15  30  55  81 103 131 169 207 243 300
#     4  12  22  36  53  74 101 143 189 232 263 319
#     4  10  19  35  54  74 100 136 186 229 266 318
#     4  10  20  35  55  74  94 129 183 233 269 314
#     4   9  17  34  57  78 103 140 174 205 245 312
#
# _framework density 16.927809
#
# number of rings (size 3 to 8) (size 9 to 14) (size 15 to 20)
#    0.000    1.857    2.857    3.429    0.000    0.571 
#    0.000    0.000    0.000    7.714    0.000    0.000 
#    0.000    0.000    0.000    0.000    0.000    0.000 
#
# Total GULP energy -155959.307744 kJ/mol
# GULP energy per Si atom -5569.975277 kJ/mol
# Density = 1.688928 g / cm^3
# Si number density = 16.927809 Si / 1000 Ang^3
#
#
#
# Elastic Constant Matrix: (Units=GPa)
#
#
# Indices 1 2 3 4 5 6 
#
# 1 72.6636 14.9381 23.9013 0.0000 5.3655 0.0000
# 2 14.9381 77.1860 35.3915 0.0000 11.4941 0.0000
# 3 23.9013 35.3915 112.6975 0.0000 18.9550 0.0000
# 4 0.0000 0.0000 0.0000 19.6548 0.0000 5.2710
# 5 5.3655 11.4941 18.9550 0.0000 24.2207 0.0000
# 6 0.0000 0.0000 0.0000 5.2710 0.0000 24.9668
#
#
#
# Elastic Compliance Matrix: (Units=1/GPa)
#
#
# Indices 1 2 3 4 5 6 
#
# 1 0.014985 -0.001641 -0.002574 0.000000 -0.000526 0.000000
# 2 -0.001641 0.015657 -0.003893 0.000000 -0.004020 0.000000
# 3 -0.002574 -0.003893 0.011786 0.000000 -0.006807 0.000000
# 4 0.000000 0.000000 0.000000 0.053932 0.000000 -0.011386
# 5 -0.000526 -0.004020 -0.006807 0.000000 0.048638 0.000000
# 6 0.000000 0.000000 0.000000 -0.011386 0.000000 0.042457
#
#
# Mechanical properties :
#
#
# Convention : Reuss Voigt Hill
#
# Bulk Modulus (GPa) = 38.15032 45.66764 41.90898
# Shear Modulus (GPa) = 23.53948 26.32287 24.93117
#
# Velocity S-wave (km/s) = 3.73309 3.94764 3.84186
# Velocity P-wave (km/s) = 6.41618 6.91483 6.67017
#
# Compressibility (1/GPa) = 0.02621210
#
# Stress axis : x y z
#
# Youngs Moduli (GPa) = 66.73317 63.86958 84.84301
#
# Poissons Ratio (x) = 0.10484 0.21839
# Poissons Ratio (y) = 0.10954 0.33026
# Poissons Ratio (z) = 0.17178 0.24862
#
# Static dielectric constant tensor:
#      x y z
#    x 1.552790 0.000000 -0.019940 
#    y 0.000000 1.609060 0.000000 
#    z -0.019940 0.000000 1.550270 
# 
# From -- ./inp_files/258243.got.cif
#   From: 2010.05.17/outbox.cif.g08.bks.cpg/sg12_130_cif.got.tgz:258243.got - 2010.06.03 13:09:07.
