data_PCOD9186486
_publ_section_title
;
Structure prediction by ZEFSAII (Michael W. Deem and Ramdas Pophale) SiO2 
 PCOD9186486
Probable space group: C 2/M
;
_chemical_formula_sum "Si O2"
_cell_formula_units_Z 64
_cell_length_a 23.502403
_cell_length_b 9.314562
_cell_length_c 21.967961
_cell_angle_alpha 90.000000
_cell_angle_beta 49.992923
_cell_angle_gamma 90.000000
_cell_volume 3683.607978
_symmetry_space_group_name_H-M "C 2/M"
_symmetry_group_IT_number 12
_symmetry_cell_setting 'monoclinic'
loop_
_space_group_symop_operation_xyz
x,y,z
-x,y,-z
-x,-y,-z
x,-y,z
1/2+x,1/2+y,z
1/2-x,1/2+y,-z
1/2-x,1/2-y,-z
1/2+x,1/2-y,z
loop_
_atom_site_type_symbol
_atom_site_label
_atom_site_fract_x
_atom_site_fract_y
_atom_site_fract_z
Si Si1 0.365390 0.171537 0.326577
Si Si2 0.588501 0.331878 0.449715
Si Si3 0.674000 0.829823 0.285039
Si Si4 0.516256 0.169126 0.919265
Si Si5 0.403162 0.329823 0.415384
Si Si6 0.512804 0.330055 0.175983
Si Si7 0.424720 0.332198 0.740851
Si Si8 0.188883 0.332366 0.764529
O O1 0.354964 0.240589 0.400067
O O2 0.440787 0.245623 0.250455
O O3 0.308356 0.198063 0.310301
O O4 0.374453 0.000000 0.324946
O O5 0.500000 0.318945 0.500000
O O6 0.607418 0.500000 0.426122
O O7 0.629765 0.233094 0.373393
O O8 0.608288 0.296675 0.505894
O O9 0.632618 0.766248 0.254801
O O10 0.756347 0.767715 0.236170
O O11 0.673085 0.000000 0.285195
O O12 0.472331 0.263205 0.900055
O O13 0.603916 0.186341 0.844610
O O14 0.498898 0.000000 0.922813
O O15 0.500000 0.207940 0.000000
O O16 0.390510 0.500000 0.414567
O O17 0.491022 0.304345 0.341059
O O18 0.496646 0.500000 0.183180
O O19 0.572979 0.311273 0.187988
O O20 0.409473 0.500000 0.738162
O O21 0.208298 0.500000 0.759695
#
# Coordination Sequence:
#
# PCOD9186486 Si02
#       8
#     8   8   8   8   8   8   8   8
#     4   9  17  30  50  73  98 130 167 212 259 300
#     4  10  19  35  53  69  97 136 175 211 257 316
#     4  12  24  33  48  75 103 133 172 220 260 292
#     4   9  18  34  58  86 110 132 162 204 253 299
#     4   9  17  30  51  74  95 127 169 214 260 306
#     4   9  17  29  49  77 105 134 168 204 244 296
#     4   9  17  32  50  70  99 136 174 207 250 306
#     4   9  19  36  54  72 101 140 170 195 245 314
#
# _framework density 17.374271
#
# number of rings (size 3 to 8) (size 9 to 14) (size 15 to 20)
#    0.000    2.500    1.250    3.375    0.000    6.000 
#    0.000    0.625    0.000    0.750    0.000    0.000 
#    0.000    0.000    0.000    0.000    0.000    0.000 
#
# Total GULP energy -178406.482711 kJ/mol
# GULP energy per Si atom -5575.202585 kJ/mol
# Density = 1.733473 g / cm^3
# Si number density = 17.374271 Si / 1000 Ang^3
#
#
#
# Elastic Constant Matrix: (Units=GPa)
#
#
# Indices 1 2 3 4 5 6 
#
# 1 83.0840 69.7660 38.5246 -0.0002 27.9086 0.0002
# 2 69.7660 87.9945 33.7170 -0.0003 20.7122 0.0003
# 3 38.5246 33.7170 53.3290 -0.0001 26.8657 0.0001
# 4 -0.0002 -0.0003 -0.0001 22.1936 0.0001 8.8041
# 5 27.9086 20.7122 26.8657 0.0001 25.5346 -0.0001
# 6 0.0002 0.0003 0.0001 8.8041 -0.0001 31.9355
#
#
#
# Elastic Compliance Matrix: (Units=1/GPa)
#
#
# Indices 1 2 3 4 5 6 
#
# 1 0.046918 -0.030627 -0.002577 0.000000 -0.023726 0.000000
# 2 -0.030627 0.035255 -0.005580 0.000000 0.010748 0.000000
# 3 -0.002577 -0.005580 0.043497 0.000000 -0.038421 0.000000
# 4 0.000000 0.000000 0.000000 0.050591 -0.000001 -0.013947
# 5 -0.023726 0.010748 -0.038421 -0.000001 0.096800 0.000001
# 6 0.000000 0.000000 0.000000 -0.013947 0.000001 0.035158
#
#
# Mechanical properties :
#
#
# Convention : Reuss Voigt Hill
#
# Bulk Modulus (GPa) = 20.78908 56.49142 38.64025
# Shear Modulus (GPa) = 12.44338 21.42605 16.93472
#
# Velocity S-wave (km/s) = 2.67909 3.51551 3.12541
# Velocity P-wave (km/s) = 4.64343 7.00453 5.94243
#
# Compressibility (1/GPa) = 0.04810217
#
# Stress axis : x y z
#
# Youngs Moduli (GPa) = 21.31371 28.36510 22.99022
#
# Poissons Ratio (x) = 0.86873 0.05926
# Poissons Ratio (y) = 0.65277 0.12828
# Poissons Ratio (z) = 0.05494 0.15826
#
# Static dielectric constant tensor:
#      x y z
#    x 1.610730 0.000000 0.017260 
#    y 0.000000 1.572500 0.000000 
#    z 0.017260 0.000000 1.605480 
# 
# From -- ./inp_files/345521.got.cif
#   From: 2010.05.17/outbox.cif.g08.bks.cpg/sg12_173_cif.got.tgz:345521.got - 2010.06.03 13:09:07.
