data_PCOD9186161
_publ_section_title
;
Structure prediction by ZEFSAII (Michael W. Deem and Ramdas Pophale) SiO2 
 PCOD9186161
Probable space group: C 2/M
;
_chemical_formula_sum "Si O2"
_cell_formula_units_Z 64
_cell_length_a 14.136723
_cell_length_b 12.709702
_cell_length_c 19.602651
_cell_angle_alpha 90.000000
_cell_angle_beta 84.385946
_cell_angle_gamma 90.000000
_cell_volume 3505.183754
_symmetry_space_group_name_H-M "C 2/M"
_symmetry_group_IT_number 12
_symmetry_cell_setting 'monoclinic'
loop_
_space_group_symop_operation_xyz
x,y,z
-x,y,-z
-x,-y,-z
x,-y,z
1/2+x,1/2+y,z
1/2-x,1/2+y,-z
1/2-x,1/2-y,-z
1/2+x,1/2-y,z
loop_
_atom_site_type_symbol
_atom_site_label
_atom_site_fract_x
_atom_site_fract_y
_atom_site_fract_z
Si Si1 0.334526 0.306290 0.159130
Si Si2 0.731855 0.877545 0.297589
Si Si3 0.289610 0.377814 0.880686
Si Si4 0.981864 0.122198 0.778889
Si Si5 0.657167 0.756061 0.599197
Si Si6 0.891859 0.875869 0.007814
Si Si7 0.662504 0.624321 0.461491
Si Si8 0.050650 0.750214 0.354339
O O1 0.261297 0.359916 0.216993
O O2 0.293392 0.191662 0.145369
O O3 0.436668 0.312515 0.188500
O O4 0.347615 0.361761 0.085293
O O5 0.801968 0.805900 0.338333
O O6 0.627468 0.833915 0.322756
O O7 0.740997 0.000000 0.314427
O O8 0.261344 0.500000 0.888494
O O9 0.382931 0.372113 0.826443
O O10 0.325404 0.335162 0.951555
O O11 0.965375 0.165998 0.704885
O O12 0.012913 0.000000 0.775812
O O13 0.653316 0.672596 0.537479
O O14 0.731902 0.845550 0.572462
O O15 0.551762 0.796748 0.620592
O O16 0.901339 0.000000 0.991652
O O17 0.000000 0.832089 0.000000
O O18 0.645589 0.500000 0.461255
O O19 0.592756 0.688058 0.416275
#
# Coordination Sequence:
#
# PCOD9186161 Si02
#       8
#     8   8   8   8   8   8   8   8
#     4  12  21  36  61  86 114 153 197 238 286 340
#     4  11  23  37  57  86 117 152 193 238 286 344
#     4  10  22  39  58  85 119 151 190 239 291 341
#     4  11  21  36  59  85 114 149 193 241 286 336
#     4  10  22  39  59  83 118 153 186 236 288 343
#     4  10  19  34  59  89 114 147 195 241 287 341
#     4  10  22  39  60  87 114 148 194 236 284 341
#     4  11  22  38  57  86 118 149 190 238 285 343
#
# _framework density 18.258672000000001
#
# number of rings (size 3 to 8) (size 9 to 14) (size 15 to 20)
#    0.000    1.375    3.750    2.625    0.000    2.500 
#    0.000    0.625    0.000    4.875    0.000    0.000 
#    0.000    0.000    0.000    0.000    0.000    0.000 
#
# Total GULP energy -178659.505711 kJ/mol
# GULP energy per Si atom -5583.109553 kJ/mol
# Density = 1.821711 g / cm^3
# Si number density = 18.258672 Si / 1000 Ang^3
#
#
#
# Elastic Constant Matrix: (Units=GPa)
#
#
# Indices 1 2 3 4 5 6 
#
# 1 73.8877 -1.8862 5.3863 0.0000 4.0715 0.0000
# 2 -1.8862 28.2484 -15.2278 0.0000 9.5805 0.0000
# 3 5.3863 -15.2278 74.4380 0.0000 1.4625 0.0000
# 4 0.0000 0.0000 0.0000 18.4749 0.0000 3.8672
# 5 4.0715 9.5805 1.4625 0.0000 27.8689 0.0000
# 6 0.0000 0.0000 0.0000 3.8672 0.0000 13.1454
#
#
#
# Elastic Compliance Matrix: (Units=1/GPa)
#
#
# Indices 1 2 3 4 5 6 
#
# 1 0.013753 0.001394 -0.000662 0.000000 -0.002454 0.000000
# 2 0.001394 0.046379 0.009714 0.000000 -0.016657 0.000000
# 3 -0.000662 0.009714 0.015549 0.000000 -0.004059 0.000000
# 4 0.000000 0.000000 0.000000 0.057680 0.000000 -0.016969
# 5 -0.002454 -0.016657 -0.004059 0.000000 0.042180 0.000000
# 6 0.000000 0.000000 0.000000 -0.016969 0.000000 0.081064
#
#
# Mechanical properties :
#
#
# Convention : Reuss Voigt Hill
#
# Bulk Modulus (GPa) = 10.35481 17.01319 13.68400
# Shear Modulus (GPa) = 18.66340 24.45128 21.55734
#
# Velocity S-wave (km/s) = 3.20060 3.66342 3.43981
# Velocity P-wave (km/s) = 4.39795 5.21846 4.82568
#
# Compressibility (1/GPa) = 0.09657352
#
# Stress axis : x y z
#
# Youngs Moduli (GPa) = 72.71098 21.56132 64.31334
#
# Poissons Ratio (x) = -0.03005 0.04257
# Poissons Ratio (y) = -0.10134 -0.62476
# Poissons Ratio (z) = 0.04812 -0.20945
#
# Static dielectric constant tensor:
#      x y z
#    x 1.640520 0.000000 -0.004280 
#    y 0.000000 1.586950 0.000000 
#    z -0.004280 0.000000 1.633760 
# 
# From -- ./inp_files/269313.got.cif
#   From: 2010.05.17/outbox.cif.g08.bks.cpg/sg12_135_cif.got.tgz:269313.got - 2010.06.03 13:09:07.
