data_PCOD9186472
_publ_section_title
;
Structure prediction by ZEFSAII (Michael W. Deem and Ramdas Pophale) SiO2 
 PCOD9186472
Probable space group: C 2/M
;
_chemical_formula_sum "Si O2"
_cell_formula_units_Z 48
_cell_length_a 14.939598
_cell_length_b 17.845626
_cell_length_c 11.882291
_cell_angle_alpha 90.000000
_cell_angle_beta 67.671481
_cell_angle_gamma 90.000000
_cell_volume 2930.369246
_symmetry_space_group_name_H-M "C 2/M"
_symmetry_group_IT_number 12
_symmetry_cell_setting 'monoclinic'
loop_
_space_group_symop_operation_xyz
x,y,z
-x,y,-z
-x,-y,-z
x,-y,z
1/2+x,1/2+y,z
1/2-x,1/2+y,-z
1/2-x,1/2-y,-z
1/2+x,1/2-y,z
loop_
_atom_site_type_symbol
_atom_site_label
_atom_site_fract_x
_atom_site_fract_y
_atom_site_fract_z
Si Si1 0.164875 0.840538 0.021992
Si Si2 0.711535 0.240721 0.211469
Si Si3 0.935263 0.500000 0.793322
Si Si4 0.000000 0.739810 0.000000
Si Si5 0.019972 0.653517 0.359400
Si Si6 0.636340 0.000000 0.806847
Si Si7 0.760580 0.000000 0.977442
Si Si8 0.364841 0.832026 0.253822
O O1 0.205832 0.802427 0.115207
O O2 0.067415 0.794890 0.041175
O O3 0.230979 0.824847 0.880857
O O4 0.171354 0.927956 0.042163
O O5 0.608395 0.210275 0.297401
O O6 0.773858 0.277844 0.280270
O O7 0.953594 0.574402 0.711699
O O8 0.826374 0.500000 0.890397
O O9 0.017944 0.500000 0.852647
O O10 0.934812 0.688587 0.113432
O O11 0.000000 0.643774 0.500000
O O12 0.926383 0.682030 0.336088
O O13 0.662099 0.080027 0.738147
O O14 0.696424 0.000000 0.893871
#
# Coordination Sequence:
#
# PCOD9186472 Si02
#       8
#     8   8   4   4   8   4   4   8
#     4  10  20  32  53  78 110 136 171 216 274 312
#     4  10  19  35  51  79 110 136 172 224 263 311
#     4  10  22  34  49  79 113 136 174 214 264 318
#     4  10  20  34  52  78 110 138 168 226 266 312
#     4  11  22  37  55  77 108 147 179 213 261 314
#     4  10  21  27  50  83 107 134 165 214 272 324
#     4  12  19  32  53  82 106 141 168 214 269 325
#     4  10  21  33  54  80 108 136 176 220 267 311
#
# _framework density 16.380188
#
# number of rings (size 3 to 8) (size 9 to 14) (size 15 to 20)
#    0.000    1.667    5.000    0.500    4.667    1.000 
#    0.000    0.000    0.000    0.000    0.000    2.333 
#    0.000    0.000    0.000    0.000    0.000    0.000 
#
# Total GULP energy -133717.973165 kJ/mol
# GULP energy per Si atom -5571.582215 kJ/mol
# Density = 1.634291 g / cm^3
# Si number density = 16.380188 Si / 1000 Ang^3
#
#
#
# Elastic Constant Matrix: (Units=GPa)
#
#
# Indices 1 2 3 4 5 6 
#
# 1 91.6800 38.8161 27.5672 0.0000 22.2844 0.0000
# 2 38.8161 101.0228 14.0053 0.0000 7.9216 0.0000
# 3 27.5672 14.0053 46.5899 0.0000 14.1107 0.0000
# 4 0.0000 0.0000 0.0000 7.5974 0.0000 5.1418
# 5 22.2844 7.9216 14.1107 0.0000 18.4516 0.0000
# 6 0.0000 0.0000 0.0000 5.1418 0.0000 21.8431
#
#
#
# Elastic Compliance Matrix: (Units=1/GPa)
#
#
# Indices 1 2 3 4 5 6 
#
# 1 0.018479 -0.005188 -0.004281 0.000000 -0.016816 0.000000
# 2 -0.005188 0.011889 -0.001114 0.000000 0.002013 0.000000
# 3 -0.004281 -0.001114 0.029440 0.000000 -0.016865 0.000000
# 4 0.000000 0.000000 0.000000 0.156567 0.000000 -0.036855
# 5 -0.016816 0.002013 -0.016865 0.000000 0.086538 0.000000
# 6 0.000000 0.000000 0.000000 -0.036855 0.000000 0.054457
#
#
# Mechanical properties :
#
#
# Convention : Reuss Voigt Hill
#
# Bulk Modulus (GPa) = 25.87931 44.45220 35.16575
# Shear Modulus (GPa) = 12.77415 20.17203 16.47309
#
# Velocity S-wave (km/s) = 2.79562 3.51307 3.17467
# Velocity P-wave (km/s) = 5.12387 6.60698 5.91212
#
# Compressibility (1/GPa) = 0.03864091
#
# Stress axis : x y z
#
# Youngs Moduli (GPa) = 54.11623 84.11368 33.96747
#
# Poissons Ratio (x) = 0.43638 0.14543
# Poissons Ratio (y) = 0.28075 0.03784
# Poissons Ratio (z) = 0.23169 0.09370
#
# Static dielectric constant tensor:
#      x y z
#    x 1.574710 0.000000 0.014960 
#    y 0.000000 1.546180 0.000000 
#    z 0.014960 0.000000 1.527110 
# 
# From -- ./inp_files/144827.got.cif
#   From: 2010.05.17/outbox.cif.g08.bks.cpg/sg12_73_cif.got.tgz:144827.got - 2010.06.03 13:09:07.
