data_PCOD9186902
_publ_section_title
;
Structure prediction by ZEFSAII (Michael W. Deem and Ramdas Pophale) SiO2 
 PCOD9186902
Probable space group: C 2/M
;
_chemical_formula_sum "Si O2"
_cell_formula_units_Z 56
_cell_length_a 28.116544
_cell_length_b 7.560679
_cell_length_c 14.130722
_cell_angle_alpha 90.000000
_cell_angle_beta 121.379678
_cell_angle_gamma 90.000000
_cell_volume 2564.545743
_symmetry_space_group_name_H-M "C 2/M"
_symmetry_group_IT_number 12
_symmetry_cell_setting 'monoclinic'
loop_
_space_group_symop_operation_xyz
x,y,z
-x,y,-z
-x,-y,-z
x,-y,z
1/2+x,1/2+y,z
1/2-x,1/2+y,-z
1/2-x,1/2-y,-z
1/2+x,1/2-y,z
loop_
_atom_site_type_symbol
_atom_site_label
_atom_site_fract_x
_atom_site_fract_y
_atom_site_fract_z
Si Si1 0.775751 0.716346 0.739709
Si Si2 0.437346 0.716299 0.408510
Si Si3 0.344255 0.714211 0.461678
Si Si4 0.124063 0.292542 0.290798
Si Si5 0.919571 0.794540 0.178290
Si Si6 0.501764 0.704019 0.106738
Si Si7 0.299183 0.789393 0.977751
O O1 0.775210 0.500000 0.738310
O O2 0.716559 0.773834 0.636074
O O3 0.827143 0.774359 0.727618
O O4 0.784122 0.773419 0.856648
O O5 0.500000 0.768190 0.500000
O O6 0.435308 0.500000 0.407651
O O7 0.391963 0.774931 0.438330
O O8 0.423354 0.779195 0.288147
O O9 0.344179 0.500000 0.460663
O O10 0.357566 0.770390 0.581912
O O11 0.116602 0.500000 0.263114
O O12 0.064613 0.206122 0.209386
O O13 0.857085 0.786688 0.075192
O O14 0.961058 0.714485 0.143224
O O15 0.936676 0.000000 0.206531
O O16 0.482579 0.500000 0.075202
O O17 0.500000 0.784919 0.000000
O O18 0.306386 0.000000 0.980059
O O19 0.250000 0.750000 0.000000
#
# Coordination Sequence:
#
# PCOD9186902 Si02
#       7
#     8   8   8   8   8   8   8
#     4   9  20  37  56  78 107 147 187 222 268 332
#     4   9  17  31  54  80 105 140 183 223 269 328
#     4  10  19  35  57  77 103 141 185 229 271 321
#     4  11  22  36  55  81 112 144 181 226 279 331
#     4  10  20  36  58  83 111 144 184 226 271 326
#     4  10  21  37  58  84 112 144 185 229 271 321
#     4  11  22  38  59  83 112 145 183 224 271 325
#
# _framework density 21.836224999999999
#
# number of rings (size 3 to 8) (size 9 to 14) (size 15 to 20)
#    0.000    2.000    0.000    3.857    0.000    5.429 
#    0.000    6.429    0.000    1.714    0.000    0.000 
#    0.000    0.000    0.000    0.000    0.000    0.000 
#
# Total GULP energy -156542.852297 kJ/mol
# GULP energy per Si atom -5590.816153 kJ/mol
# Density = 2.178652 g / cm^3
# Si number density = 21.836225 Si / 1000 Ang^3
#
#
#
# Elastic Constant Matrix: (Units=GPa)
#
#
# Indices 1 2 3 4 5 6 
#
# 1 200.8819 -13.9437 94.2503 0.0000 -21.2104 0.0000
# 2 -13.9437 52.0314 -17.0914 0.0000 -7.7753 0.0000
# 3 94.2503 -17.0914 190.2722 0.0000 -19.4046 0.0000
# 4 0.0000 0.0000 0.0000 52.5275 0.0000 8.0043
# 5 -21.2104 -7.7753 -19.4046 0.0000 47.2366 0.0000
# 6 0.0000 0.0000 0.0000 8.0043 0.0000 8.0180
#
#
#
# Elastic Compliance Matrix: (Units=1/GPa)
#
#
# Indices 1 2 3 4 5 6 
#
# 1 0.006670 0.001089 -0.003008 0.000000 0.001938 0.000000
# 2 0.001089 0.020799 0.001803 0.000000 0.004653 0.000000
# 3 -0.003008 0.001803 0.007098 0.000000 0.001862 0.000000
# 4 0.000000 0.000000 0.000000 0.022453 0.000000 -0.022415
# 5 0.001938 0.004653 0.001862 0.000000 0.023571 0.000000
# 6 0.000000 0.000000 0.000000 -0.022415 0.000000 0.147095
#
#
# Mechanical properties :
#
#
# Convention : Reuss Voigt Hill
#
# Bulk Modulus (GPa) = 29.12552 63.29065 46.20808
# Shear Modulus (GPa) = 20.88885 46.88778 33.88831
#
# Velocity S-wave (km/s) = 3.09627 4.63887 3.94373
# Velocity P-wave (km/s) = 5.11367 7.59864 6.47646
#
# Compressibility (1/GPa) = 0.03433415
#
# Stress axis : x y z
#
# Youngs Moduli (GPa) = 149.93061 48.07980 140.89146
#
# Poissons Ratio (x) = -0.05235 0.42385
# Poissons Ratio (y) = -0.16325 -0.25409
# Poissons Ratio (z) = 0.45104 -0.08671
#
# Static dielectric constant tensor:
#      x y z
#    x 1.745790 0.000000 -0.033210 
#    y 0.000000 1.880150 0.000000 
#    z -0.033210 0.000000 1.747260 
# 
# From -- ./inp_files/180662.got.cif
#   From: 2010.05.17/outbox.cif.g08.bks.cpg/sg12_91_cif.got.tgz:180662.got - 2010.06.03 13:09:07.
