data_PCOD9186214
_publ_section_title
;
Structure prediction by ZEFSAII (Michael W. Deem and Ramdas Pophale) SiO2 
 PCOD9186214
Probable space group: C 2/M
;
_chemical_formula_sum "Si O2"
_cell_formula_units_Z 56
_cell_length_a 24.043471
_cell_length_b 11.825901
_cell_length_c 9.888062
_cell_angle_alpha 90.000000
_cell_angle_beta 56.515122
_cell_angle_gamma 90.000000
_cell_volume 2344.903740
_symmetry_space_group_name_H-M "C 2/M"
_symmetry_group_IT_number 12
_symmetry_cell_setting 'monoclinic'
loop_
_space_group_symop_operation_xyz
x,y,z
-x,y,-z
-x,-y,-z
x,-y,z
1/2+x,1/2+y,z
1/2-x,1/2+y,-z
1/2-x,1/2-y,-z
1/2+x,1/2-y,z
loop_
_atom_site_type_symbol
_atom_site_label
_atom_site_fract_x
_atom_site_fract_y
_atom_site_fract_z
Si Si1 0.286776 0.127444 0.933023
Si Si2 0.989239 0.500000 0.352667
Si Si3 0.353194 0.223411 0.273227
Si Si4 0.527367 0.369130 0.776211
Si Si5 0.926374 0.500000 0.164499
Si Si6 0.785887 0.716284 0.650815
Si Si7 0.576947 0.786324 0.174768
Si Si8 0.104816 0.128799 0.393550
O O1 0.301165 0.130616 0.752011
O O2 0.353363 0.148346 0.929366
O O3 0.259464 0.000000 0.999437
O O4 0.250000 0.250000 0.000000
O O5 0.023890 0.384209 0.264512
O O6 0.000000 0.500000 0.500000
O O7 0.928240 0.500000 0.327590
O O8 0.410796 0.313250 0.229229
O O9 0.293033 0.270366 0.263447
O O10 0.317792 0.189265 0.463124
O O11 0.388756 0.112287 0.170685
O O12 0.518697 0.500000 0.820800
O O13 0.458537 0.299975 0.880538
O O14 0.552107 0.361531 0.586274
O O15 0.000000 0.500000 0.000000
O O16 0.823367 0.832304 0.644646
O O17 0.587522 0.712254 0.295974
O O18 0.105470 0.000000 0.345600
#
# Coordination Sequence:
#
# PCOD9186214 Si02
#       8
#     8   4   8   8   4   8   8   8
#     4  11  26  45  68  98 140 185 235 298 368 446
#     4  12  24  38  70 104 136 174 227 285 347 412
#     4  10  22  43  67  99 134 181 238 295 350 433
#     4  10  19  34  59  92 130 170 216 281 346 416
#     4  12  28  44  70 104 148 192 231 290 378 448
#     4   9  22  41  67  99 128 181 240 296 351 414
#     4  11  21  37  60  93 130 173 222 278 347 418
#     4   9  18  32  55  92 136 165 214 282 354 411
#
# _framework density 23.881577
#
# number of rings (size 3 to 8) (size 9 to 14) (size 15 to 20)
#    0.000    1.714    2.143    1.714    6.000    5.714 
#    2.571    0.000    0.000    0.429    0.000    0.000 
#    0.000    0.000    0.000    0.000    0.000    0.000 
#
# Total GULP energy -156436.678294 kJ/mol
# GULP energy per Si atom -5587.024225 kJ/mol
# Density = 2.382722 g / cm^3
# Si number density = 23.881577 Si / 1000 Ang^3
#
#
#
# Elastic Constant Matrix: (Units=GPa)
#
#
# Indices 1 2 3 4 5 6 
#
# 1 164.0719 43.8114 16.4345 0.0000 -5.4209 0.0000
# 2 43.8114 176.3448 14.9960 0.0000 -9.4418 0.0000
# 3 16.4345 14.9960 78.3885 0.0000 27.2742 0.0000
# 4 0.0000 0.0000 0.0000 7.4044 0.0000 -13.7393
# 5 -5.4209 -9.4418 27.2742 0.0000 25.8496 0.0000
# 6 0.0000 0.0000 0.0000 -13.7393 0.0000 11.8403
#
#
#
# Elastic Compliance Matrix: (Units=1/GPa)
#
#
# Indices 1 2 3 4 5 6 
#
# 1 0.006795 -0.001300 -0.002380 0.000000 0.003461 0.000000
# 2 -0.001300 0.006486 -0.002682 0.000000 0.004926 0.000000
# 3 -0.002380 -0.002682 0.022569 0.000000 -0.025291 0.000000
# 4 0.000000 0.000000 0.000000 -0.117115 0.000000 -0.135899
# 5 0.003461 0.004926 -0.025291 0.000000 0.067896 0.000000
# 6 0.000000 0.000000 0.000000 -0.135899 0.000000 -0.073238
#
#
# Mechanical properties :
#
#
# Convention : Reuss Voigt Hill
#
# Bulk Modulus (GPa) = 43.24466 63.25434 53.24950
# Shear Modulus (GPa) = -75.55692 31.92308 -21.81692
#
# Velocity S-wave (km/s) = -5.63088 3.66009 -3.02577
# Velocity P-wave (km/s) = 4.91208 6.66377 3.18413
#
# Compressibility (1/GPa) = 0.02312424
#
# Stress axis : x y z
#
# Youngs Moduli (GPa) = 147.16926 154.18750 44.30890
#
# Poissons Ratio (x) = 0.20051 0.10546
# Poissons Ratio (y) = 0.19138 0.11884
# Poissons Ratio (z) = 0.35028 0.41354
#
# Static dielectric constant tensor:
#      x y z
#    x 1.946320 0.000000 0.004650 
#    y 0.000000 1.841850 0.000000 
#    z 0.004650 0.000000 2.033660 
# 
# From -- ./inp_files/174526.got.cif
#   From: 2010.05.17/outbox.cif.g08.bks.cpg/sg12_88_cif.got.tgz:174526.got - 2010.06.03 13:09:07.
