data_PCOD9186798
_publ_section_title
;
Structure prediction by ZEFSAII (Michael W. Deem and Ramdas Pophale) SiO2 
 PCOD9186798
Probable space group: C 2/M
;
_chemical_formula_sum "Si O2"
_cell_formula_units_Z 56
_cell_length_a 27.118477
_cell_length_b 18.315760
_cell_length_c 9.729092
_cell_angle_alpha 90.000000
_cell_angle_beta 36.890493
_cell_angle_gamma 90.000000
_cell_volume 2900.827267
_symmetry_space_group_name_H-M "C 2/M"
_symmetry_group_IT_number 12
_symmetry_cell_setting 'monoclinic'
loop_
_space_group_symop_operation_xyz
x,y,z
-x,y,-z
-x,-y,-z
x,-y,z
1/2+x,1/2+y,z
1/2-x,1/2+y,-z
1/2-x,1/2-y,-z
1/2+x,1/2-y,z
loop_
_atom_site_type_symbol
_atom_site_label
_atom_site_fract_x
_atom_site_fract_y
_atom_site_fract_z
Si Si1 0.245972 0.692154 0.630334
Si Si2 0.456662 0.308922 0.452459
Si Si3 0.708698 0.081005 0.051116
Si Si4 0.606022 0.915047 0.021067
Si Si5 0.360781 0.582514 0.497901
Si Si6 0.025017 0.685160 0.787712
Si Si7 0.310580 0.787353 0.709414
O O1 0.250000 0.750000 0.500000
O O2 0.169118 0.637627 0.799804
O O3 0.327222 0.640712 0.461317
O O4 0.245349 0.739222 0.773092
O O5 0.500000 0.320746 0.500000
O O6 0.435783 0.381443 0.413136
O O7 0.368904 0.267063 0.667683
O O8 0.503101 0.252351 0.247621
O O9 0.718393 0.145134 0.137576
O O10 0.702570 0.000000 0.127337
O O11 0.629625 0.093280 0.129152
O O12 0.785027 0.079513 0.775215
O O13 0.618834 0.000000 0.958743
O O14 0.516522 0.886878 0.181516
O O15 0.375406 0.500000 0.416540
O O16 0.123041 0.684297 0.550763
O O17 0.000000 0.695611 0.000000
#
# Coordination Sequence:
#
# PCOD9186798 Si02
#       7
#     8   8   8   8   8   8   8
#     4  10  19  35  56  80 106 146 195 230 273 332
#     4   9  19  33  55  84 106 146 192 232 274 334
#     4   9  18  34  53  80 112 141 177 231 287 331
#     4  10  21  34  56  82 111 149 184 225 284 344
#     4   9  19  35  56  80 110 140 181 238 291 330
#     4  10  21  36  52  80 117 151 186 227 282 333
#     4   9  20  33  53  82 107 146 188 229 277 324
#
# _framework density 19.304838
#
# number of rings (size 3 to 8) (size 9 to 14) (size 15 to 20)
#    0.857    1.714    0.000    3.000    0.000    7.429 
#    0.000    4.286    0.000    0.429    0.000    0.000 
#    0.000    0.000    0.000    0.000    0.000    0.000 
#
# Total GULP energy -155994.804482 kJ/mol
# GULP energy per Si atom -5571.243017 kJ/mol
# Density = 1.926090 g / cm^3
# Si number density = 19.304838 Si / 1000 Ang^3
#
#
#
# Elastic Constant Matrix: (Units=GPa)
#
#
# Indices 1 2 3 4 5 6 
#
# 1 70.7902 51.3369 8.7091 0.0000 12.1421 0.0000
# 2 51.3369 163.7331 25.9468 0.0000 16.7154 0.0000
# 3 8.7091 25.9468 40.0736 0.0000 6.6842 0.0000
# 4 0.0000 0.0000 0.0000 25.0077 0.0000 -1.7326
# 5 12.1421 16.7154 6.6842 0.0000 16.8395 0.0000
# 6 0.0000 0.0000 0.0000 -1.7326 0.0000 31.4727
#
#
#
# Elastic Compliance Matrix: (Units=1/GPa)
#
#
# Indices 1 2 3 4 5 6 
#
# 1 0.019417 -0.005277 0.000705 0.000000 -0.009043 0.000000
# 2 -0.005277 0.008724 -0.003954 0.000000 -0.003286 0.000000
# 3 0.000705 -0.003954 0.028691 0.000000 -0.007972 0.000000
# 4 0.000000 0.000000 0.000000 0.040141 0.000000 0.002210
# 5 -0.009043 -0.003286 -0.007972 0.000000 0.072330 0.000000
# 6 0.000000 0.000000 0.000000 0.002210 0.000000 0.031895
#
#
# Mechanical properties :
#
#
# Convention : Reuss Voigt Hill
#
# Bulk Modulus (GPa) = 25.13773 49.62028 37.37901
# Shear Modulus (GPa) = 21.59743 27.23759 24.41751
#
# Velocity S-wave (km/s) = 3.34841 3.76030 3.56032
# Velocity P-wave (km/s) = 5.29140 6.67926 6.02542
#
# Compressibility (1/GPa) = 0.03978083
#
# Stress axis : x y z
#
# Youngs Moduli (GPa) = 51.50089 114.62768 34.85463
#
# Poissons Ratio (x) = 0.60484 -0.02457
# Poissons Ratio (y) = 0.27175 0.13781
# Poissons Ratio (z) = -0.03631 0.45321
#
# Static dielectric constant tensor:
#      x y z
#    x 1.692680 0.000000 -0.025490 
#    y 0.000000 1.696560 0.000000 
#    z -0.025490 0.000000 1.705960 
# 
# From -- ./inp_files/105539.got.cif
#   From: 2010.05.17/outbox.cif.g08.bks.cpg/sg12_53_cif.got.tgz:105539.got - 2010.06.03 13:09:07.
