data_PCOD9186278
_publ_section_title
;
Structure prediction by ZEFSAII (Michael W. Deem and Ramdas Pophale) SiO2 
 PCOD9186278
Probable space group: C 2/M
;
_chemical_formula_sum "Si O2"
_cell_formula_units_Z 48
_cell_length_a 10.124196
_cell_length_b 15.270957
_cell_length_c 21.416573
_cell_angle_alpha 90.000000
_cell_angle_beta 137.057981
_cell_angle_gamma 90.000000
_cell_volume 2255.736333
_symmetry_space_group_name_H-M "C 2/M"
_symmetry_group_IT_number 12
_symmetry_cell_setting 'monoclinic'
loop_
_space_group_symop_operation_xyz
x,y,z
-x,y,-z
-x,-y,-z
x,-y,z
1/2+x,1/2+y,z
1/2-x,1/2+y,-z
1/2-x,1/2-y,-z
1/2+x,1/2-y,z
loop_
_atom_site_type_symbol
_atom_site_label
_atom_site_fract_x
_atom_site_fract_y
_atom_site_fract_z
Si Si1 0.802011 0.607391 0.962898
Si Si2 0.718974 0.099777 0.569109
Si Si3 0.195953 0.831271 0.527289
Si Si4 0.934856 0.605241 0.273125
Si Si5 0.724835 0.607017 0.075133
Si Si6 0.425314 0.394537 0.759135
O O1 0.796052 0.500000 0.961494
O O2 0.616704 0.639441 0.859696
O O3 0.799443 0.635179 0.033711
O O4 0.000000 0.635078 0.000000
O O5 0.500000 0.137368 0.500000
O O6 0.798911 0.097907 0.526749
O O7 0.869025 0.139804 0.670918
O O8 0.695245 0.000000 0.582843
O O9 0.250000 0.750000 0.500000
O O10 0.371874 0.850073 0.635008
O O11 0.000000 0.828445 0.500000
O O12 0.967861 0.500000 0.282251
O O13 0.854969 0.635295 0.178411
O O14 0.761941 0.620433 0.262596
O O15 0.725121 0.500000 0.077835
O O16 0.500000 0.633453 0.000000
O O17 0.456878 0.500000 0.766725
#
# Coordination Sequence:
#
# PCOD9186278 Si02
#       6
#     8   8   8   8   8   8
#     4   9  16  25  40  73 121 156 178 216 272 332
#     4  10  19  35  61  88 115 149 191 239 292 350
#     4  12  27  43  59  82 113 153 200 250 301 352
#     4  10  19  34  60  89 116 151 194 239 289 348
#     4   9  15  26  48  80 117 151 183 223 277 342
#     4   9  16  28  52  83 115 155 187 218 278 343
#
# _framework density 21.279083
#
# number of rings (size 3 to 8) (size 9 to 14) (size 15 to 20)
#    0.000    2.167    3.333    1.000    0.000    2.667 
#    0.000    3.333    0.000    0.000    0.000    5.833 
#    0.000    0.000    0.000    0.000    0.000    0.167 
#
# Total GULP energy -133873.475765 kJ/mol
# GULP energy per Si atom -5578.061490 kJ/mol
# Density = 2.123065 g / cm^3
# Si number density = 21.279083 Si / 1000 Ang^3
#
#
#
# Elastic Constant Matrix: (Units=GPa)
#
#
# Indices 1 2 3 4 5 6 
#
# 1 171.2947 16.9325 117.3705 0.0000 -8.5373 0.0000
# 2 16.9325 35.2552 26.7898 0.0000 3.2282 0.0000
# 3 117.3705 26.7898 255.9714 0.0000 -15.3366 0.0000
# 4 0.0000 0.0000 0.0000 -7.3010 0.0000 -1.7411
# 5 -8.5373 3.2282 -15.3366 0.0000 38.3011 0.0000
# 6 0.0000 0.0000 0.0000 -1.7411 0.0000 4.2864
#
#
#
# Elastic Compliance Matrix: (Units=1/GPa)
#
#
# Indices 1 2 3 4 5 6 
#
# 1 0.008571 -0.001304 -0.003763 0.000000 0.000514 0.000000
# 2 -0.001304 0.031619 -0.002959 0.000000 -0.004141 0.000000
# 3 -0.003763 -0.002959 0.006052 0.000000 0.001834 0.000000
# 4 0.000000 0.000000 0.000000 -0.124871 0.000000 -0.050721
# 5 0.000514 -0.004141 0.001834 0.000000 0.027307 0.000000
# 6 0.000000 0.000000 0.000000 -0.050721 0.000000 0.212692
#
#
# Mechanical properties :
#
#
# Convention : Reuss Voigt Hill
#
# Bulk Modulus (GPa) = 33.12486 87.18966 60.15726
# Shear Modulus (GPa) = 26.66907 27.15253 26.91080
#
# Velocity S-wave (km/s) = 3.54404 3.57602 3.56006
# Velocity P-wave (km/s) = 5.68749 7.62324 6.72538
#
# Compressibility (1/GPa) = 0.03018881
#
# Stress axis : x y z
#
# Youngs Moduli (GPa) = 116.67918 31.62667 165.24747
#
# Poissons Ratio (x) = 0.04125 0.62175
# Poissons Ratio (y) = 0.15217 0.48902
# Poissons Ratio (z) = 0.43901 0.09359
#
# Static dielectric constant tensor:
#      x y z
#    x 1.649310 0.000000 -0.024600 
#    y 0.000000 2.144560 0.000000 
#    z -0.024600 0.000000 1.770320 
# 
# From -- ./inp_files/257915.got.cif
#   From: 2010.05.17/outbox.cif.g08.bks.cpg/sg12_129_cif.got.tgz:257915.got - 2010.06.03 13:09:07.
