data_PCOD9186189
_publ_section_title
;
Structure prediction by ZEFSAII (Michael W. Deem and Ramdas Pophale) SiO2 
 PCOD9186189
Probable space group: C 2/M
;
_chemical_formula_sum "Si O2"
_cell_formula_units_Z 56
_cell_length_a 10.386254
_cell_length_b 21.792733
_cell_length_c 19.774808
_cell_angle_alpha 90.000000
_cell_angle_beta 43.309496
_cell_angle_gamma 90.000000
_cell_volume 3070.212140
_symmetry_space_group_name_H-M "C 2/M"
_symmetry_group_IT_number 12
_symmetry_cell_setting 'monoclinic'
loop_
_space_group_symop_operation_xyz
x,y,z
-x,y,-z
-x,-y,-z
x,-y,z
1/2+x,1/2+y,z
1/2-x,1/2+y,-z
1/2-x,1/2-y,-z
1/2+x,1/2-y,z
loop_
_atom_site_type_symbol
_atom_site_label
_atom_site_fract_x
_atom_site_fract_y
_atom_site_fract_z
Si Si1 0.512428 0.122860 0.914410
Si Si2 0.407267 0.626103 0.209567
Si Si3 0.395793 0.571371 0.741886
Si Si4 0.028975 0.239140 0.068914
Si Si5 0.477292 0.073857 0.589694
Si Si6 0.113615 0.926026 0.520784
Si Si7 0.627502 0.569444 0.013213
O O1 0.673297 0.080096 0.822823
O O2 0.562101 0.194018 0.884844
O O3 0.500000 0.111699 0.000000
O O4 0.311020 0.108767 0.958796
O O5 0.531041 0.618413 0.229576
O O6 0.445898 0.687711 0.151235
O O7 0.196506 0.610745 0.312502
O O8 0.490909 0.573567 0.129265
O O9 0.440601 0.500000 0.742069
O O10 0.498246 0.585880 0.632925
O O11 0.250000 0.250000 0.000000
O O12 0.000000 0.225220 0.000000
O O13 0.500000 0.083484 0.500000
O O14 0.671436 0.093201 0.551180
O O15 0.448095 0.000000 0.609653
O O16 0.000000 0.901378 0.500000
O O17 0.122644 0.000000 0.510554
O O18 0.688553 0.500000 0.977068
O O19 0.500000 0.590288 0.000000
#
# Coordination Sequence:
#
# PCOD9186189 Si02
#       7
#     8   8   8   8   8   8   8
#     4  11  22  38  61  86 114 162 206 251 294 365
#     4  12  21  35  61  89 120 160 201 250 294 365
#     4  11  21  36  62  93 121 156 202 250 311 370
#     4  11  23  43  63  84 119 164 216 249 296 359
#     4  10  19  34  59  90 122 159 202 246 307 373
#     4   9  19  36  57  85 123 156 191 245 300 364
#     4  11  23  36  53  88 130 156 187 250 318 367
#
# _framework density 18.239781000000001
#
# number of rings (size 3 to 8) (size 9 to 14) (size 15 to 20)
#    0.000    1.286    4.286    3.000    0.000    1.714 
#    0.000    2.857    0.000    1.714    0.000    0.000 
#    0.000    0.000    0.000    0.000    0.000    0.000 
#
# Total GULP energy -156205.777530 kJ/mol
# GULP energy per Si atom -5578.777769 kJ/mol
# Density = 1.819827 g / cm^3
# Si number density = 18.239781 Si / 1000 Ang^3
#
#
#
# Elastic Constant Matrix: (Units=GPa)
#
#
# Indices 1 2 3 4 5 6 
#
# 1 154.2489 38.7943 71.6270 -0.0002 -1.0530 0.0003
# 2 38.7943 88.1586 39.4583 -0.0001 3.9970 0.0001
# 3 71.6270 39.4583 123.9324 0.0000 -18.3419 0.0000
# 4 -0.0002 -0.0001 0.0000 32.5643 0.0001 -0.5366
# 5 -1.0530 3.9970 -18.3419 0.0001 28.1596 -0.0001
# 6 0.0003 0.0001 0.0000 -0.5366 -0.0001 21.4748
#
#
#
# Elastic Compliance Matrix: (Units=1/GPa)
#
#
# Indices 1 2 3 4 5 6 
#
# 1 0.009332 -0.001599 -0.005311 0.000000 -0.002884 0.000000
# 2 -0.001599 0.014203 -0.004322 0.000000 -0.004891 0.000000
# 3 -0.005311 -0.004322 0.013918 0.000000 0.009480 0.000000
# 4 0.000000 0.000000 0.000000 0.030721 0.000000 0.000768
# 5 -0.002884 -0.004891 0.009480 0.000000 0.042273 0.000000
# 6 0.000000 0.000000 0.000000 0.000768 0.000000 0.046585
#
#
# Mechanical properties :
#
#
# Convention : Reuss Voigt Hill
#
# Bulk Modulus (GPa) = 66.71584 74.01102 70.36343
# Shear Modulus (GPa) = 27.10158 30.87042 28.98600
#
# Velocity S-wave (km/s) = 3.85885 4.11844 3.99076
# Velocity P-wave (km/s) = 7.51737 7.95488 7.73922
#
# Compressibility (1/GPa) = 0.01498894
#
# Stress axis : x y z
#
# Youngs Moduli (GPa) = 107.16257 70.40863 71.85168
#
# Poissons Ratio (x) = 0.11255 0.38161
# Poissons Ratio (y) = 0.17130 0.31054
# Poissons Ratio (z) = 0.56915 0.30430
#
# Static dielectric constant tensor:
#      x y z
#    x 1.656480 0.000000 -0.020470 
#    y 0.000000 1.637970 0.000000 
#    z -0.020470 0.000000 1.585930 
# 
# From -- ./inp_files/259147.got.cif
#   From: 2010.05.17/outbox.cif.g08.bks.cpg/sg12_130_cif.got.tgz:259147.got - 2010.06.03 13:09:07.
