data_PCOD9186531
_publ_section_title
;
Structure prediction by ZEFSAII (Michael W. Deem and Ramdas Pophale) SiO2 
 PCOD9186531
Probable space group: C 2/M
;
_chemical_formula_sum "Si O2"
_cell_formula_units_Z 56
_cell_length_a 14.965891
_cell_length_b 7.666288
_cell_length_c 27.075826
_cell_angle_alpha 90.000000
_cell_angle_beta 115.387023
_cell_angle_gamma 90.000000
_cell_volume 2806.500306
_symmetry_space_group_name_H-M "C 2/M"
_symmetry_group_IT_number 12
_symmetry_cell_setting 'monoclinic'
loop_
_space_group_symop_operation_xyz
x,y,z
-x,y,-z
-x,-y,-z
x,-y,z
1/2+x,1/2+y,z
1/2-x,1/2+y,-z
1/2-x,1/2-y,-z
1/2+x,1/2-y,z
loop_
_atom_site_type_symbol
_atom_site_label
_atom_site_fract_x
_atom_site_fract_y
_atom_site_fract_z
Si Si1 0.483257 0.713397 0.643785
Si Si2 0.698024 0.208050 0.936338
Si Si3 0.790317 0.792528 0.856619
Si Si4 0.486291 0.705355 0.849729
Si Si5 0.562836 0.702259 0.559986
Si Si6 0.735490 0.291951 0.438801
Si Si7 0.076583 0.211660 0.768560
O O1 0.485712 0.500000 0.646363
O O2 0.542977 0.774328 0.609562
O O3 0.370572 0.765820 0.606479
O O4 0.528162 0.773179 0.706157
O O5 0.761217 0.276386 0.904271
O O6 0.586052 0.276742 0.905520
O O7 0.691178 0.000000 0.929696
O O8 0.750000 0.250000 0.000000
O O9 0.691010 0.764507 0.801304
O O10 0.889012 0.721093 0.853716
O O11 0.805976 0.000000 0.866188
O O12 0.466932 0.500000 0.837668
O O13 0.516964 0.776142 0.802923
O O14 0.500000 0.783142 0.500000
O O15 0.529913 0.500000 0.555306
O O16 0.675621 0.711233 0.570887
O O17 0.741014 0.500000 0.434967
O O18 0.750000 0.250000 0.500000
O O19 0.074520 0.000000 0.768990
#
# Coordination Sequence:
#
# PCOD9186531 Si02
#       7
#     8   8   8   8   8   8   8
#     4   9  19  35  53  74 104 137 168 209 267 318
#     4  10  20  34  52  77 109 141 175 214 257 303
#     4   9  19  35  54  76 105 139 171 215 266 306
#     4   9  18  34  55  76 102 138 175 211 258 308
#     4  10  19  35  54  72 100 139 170 205 260 314
#     4  11  21  35  54  77 103 134 172 213 260 317
#     4   9  18  34  55  76  99 133 175 215 256 311
#
# _framework density 19.953678
#
# number of rings (size 3 to 8) (size 9 to 14) (size 15 to 20)
#    0.000    2.429    1.429    0.857    0.000    3.143 
#    0.000    6.429    0.000    0.000    0.000    0.000 
#    0.000    0.000    0.000    0.000    0.000    0.000 
#
# Total GULP energy -156210.154450 kJ/mol
# GULP energy per Si atom -5578.934088 kJ/mol
# Density = 1.990826 g / cm^3
# Si number density = 19.953678 Si / 1000 Ang^3
#
#
#
# Elastic Constant Matrix: (Units=GPa)
#
#
# Indices 1 2 3 4 5 6 
#
# 1 189.1518 -8.7860 98.4273 0.0000 1.0086 0.0000
# 2 -8.7860 32.0790 -15.7344 0.0000 -5.7403 0.0000
# 3 98.4273 -15.7344 182.4462 0.0000 -4.3057 0.0000
# 4 0.0000 0.0000 0.0000 13.2461 0.0000 7.6524
# 5 1.0086 -5.7403 -4.3057 0.0000 12.3004 0.0000
# 6 0.0000 0.0000 0.0000 7.6524 0.0000 15.3852
#
#
#
# Elastic Compliance Matrix: (Units=1/GPa)
#
#
# Indices 1 2 3 4 5 6 
#
# 1 0.007403 -0.000367 -0.004078 0.000000 -0.002206 0.000000
# 2 -0.000367 0.036171 0.003748 0.000000 0.018222 0.000000
# 3 -0.004078 0.003748 0.008120 0.000000 0.004926 0.000000
# 4 0.000000 0.000000 0.000000 0.105933 0.000000 -0.052690
# 5 -0.002206 0.018222 0.004926 0.000000 0.091707 0.000000
# 6 0.000000 0.000000 0.000000 -0.052690 0.000000 0.091204
#
#
# Mechanical properties :
#
#
# Convention : Reuss Voigt Hill
#
# Bulk Modulus (GPa) = 19.88051 61.27676 40.57863
# Shear Modulus (GPa) = 13.93918 30.17101 22.05509
#
# Velocity S-wave (km/s) = 2.64593 3.89273 3.32823
# Velocity P-wave (km/s) = 4.39540 7.14007 5.92875
#
# Compressibility (1/GPa) = 0.05030051
#
# Stress axis : x y z
#
# Youngs Moduli (GPa) = 135.07370 27.64621 123.14677
#
# Poissons Ratio (x) = 0.01015 0.50216
# Poissons Ratio (y) = 0.04958 -0.46150
# Poissons Ratio (z) = 0.55079 -0.10361
#
# Static dielectric constant tensor:
#      x y z
#    x 1.691710 0.000000 -0.027310 
#    y 0.000000 1.776840 0.000000 
#    z -0.027310 0.000000 1.682750 
# 
# From -- ./inp_files/309026.got.cif
#   From: 2010.05.17/outbox.cif.g08.bks.cpg/sg12_155_cif.got.tgz:309026.got - 2010.06.03 13:09:07.
