data_PCOD9186877
_publ_section_title
;
Structure prediction by ZEFSAII (Michael W. Deem and Ramdas Pophale) SiO2 
 PCOD9186877
Probable space group: C 2/M
;
_chemical_formula_sum "Si O2"
_cell_formula_units_Z 58
_cell_length_a 29.525688
_cell_length_b 13.039555
_cell_length_c 17.328235
_cell_angle_alpha 90.000000
_cell_angle_beta 153.934272
_cell_angle_gamma 90.000000
_cell_volume 2931.427000
_symmetry_space_group_name_H-M "C 2/M"
_symmetry_group_IT_number 12
_symmetry_cell_setting 'monoclinic'
loop_
_space_group_symop_operation_xyz
x,y,z
-x,y,-z
-x,-y,-z
x,-y,z
1/2+x,1/2+y,z
1/2-x,1/2+y,-z
1/2-x,1/2-y,-z
1/2+x,1/2-y,z
loop_
_atom_site_type_symbol
_atom_site_label
_atom_site_fract_x
_atom_site_fract_y
_atom_site_fract_z
Si Si1 0.974130 0.770982 0.237575
Si Si2 0.000000 0.000000 0.500000
Si Si3 0.877666 0.386775 0.298855
Si Si4 0.807142 0.382804 0.938346
Si Si5 0.462786 0.620980 0.820275
Si Si6 0.832121 0.878253 0.761697
Si Si7 0.358402 0.663169 0.194232
Si Si8 0.179201 0.724406 0.639995
O O1 0.883372 0.835281 0.141550
O O2 0.024431 0.825741 0.241720
O O3 0.063696 0.752092 0.437083
O O4 0.917092 0.669496 0.120034
O O5 0.943345 0.090236 0.362233
O O6 0.845810 0.500000 0.221171
O O7 0.862581 0.282724 0.226794
O O8 0.825769 0.362930 0.302082
O O9 0.000000 0.391229 0.500000
O O10 0.814451 0.500000 0.925096
O O11 0.745202 0.376756 0.924214
O O12 0.739019 0.318447 0.772590
O O13 0.448371 0.500000 0.786510
O O14 0.371406 0.656164 0.737505
O O15 0.569308 0.633960 0.030784
O O16 0.740397 0.815537 0.659441
O O17 0.808610 0.000000 0.722493
#
# Coordination Sequence:
#
# PCOD9186877 Si02
#       8
#     8   2   8   8   8   8   8   8
#     4  12  24  39  62  97 125 164 224 262 315 391
#     4  12  20  40  66  88 124 180 226 262 308 390
#     4  10  19  35  56  87 125 161 207 257 311 373
#     4  11  25  43  61  90 138 179 212 264 325 392
#     4   9  20  38  63  92 119 150 206 271 324 380
#     4   9  18  39  66  89 117 157 200 266 338 376
#     4  11  22  39  60  91 125 176 218 263 315 375
#     4  11  22  39  65  92 125 171 215 258 326 388
#
# _framework density 19.785585000000001
#
# number of rings (size 3 to 8) (size 9 to 14) (size 15 to 20)
#    0.000    1.517    4.138    2.483    0.966    2.759 
#    0.000    0.000    0.000    1.655    0.000    0.000 
#    0.000    0.000    0.000    0.000    0.000    0.000 
#
# Total GULP energy -161638.555311 kJ/mol
# GULP energy per Si atom -5573.743287 kJ/mol
# Density = 1.974055 g / cm^3
# Si number density = 19.785585 Si / 1000 Ang^3
#
#
#
# Elastic Constant Matrix: (Units=GPa)
#
#
# Indices 1 2 3 4 5 6 
#
# 1 134.4423 33.1142 15.3612 0.0000 6.8431 0.0000
# 2 33.1142 106.6250 32.3651 0.0000 -7.2407 0.0000
# 3 15.3612 32.3651 68.2213 0.0000 -5.8433 0.0000
# 4 0.0000 0.0000 0.0000 -4.0277 0.0000 -1.1401
# 5 6.8431 -7.2407 -5.8433 0.0000 26.8389 0.0000
# 6 0.0000 0.0000 0.0000 -1.1401 0.0000 23.5530
#
#
#
# Elastic Compliance Matrix: (Units=1/GPa)
#
#
# Indices 1 2 3 4 5 6 
#
# 1 0.008314 -0.002500 -0.000943 0.000000 -0.003000 0.000000
# 2 -0.002500 0.011800 -0.004797 0.000000 0.002776 0.000000
# 3 -0.000943 -0.004797 0.017380 0.000000 0.002730 0.000000
# 4 0.000000 0.000000 0.000000 -0.244927 0.000000 -0.011856
# 5 -0.003000 0.002776 0.002730 0.000000 0.039368 0.000000
# 6 0.000000 0.000000 0.000000 -0.011856 0.000000 0.041883
#
#
# Mechanical properties :
#
#
# Convention : Reuss Voigt Hill
#
# Bulk Modulus (GPa) = 47.58705 52.32997 49.95851
# Shear Modulus (GPa) = -48.68698 24.50273 -12.09213
#
# Velocity S-wave (km/s) = -4.96596 3.52293 -2.47484
# Velocity P-wave (km/s) = 2.96266 6.56155 4.13984
#
# Compressibility (1/GPa) = 0.02101412
#
# Stress axis : x y z
#
# Youngs Moduli (GPa) = 120.27565 84.74837 57.53638
#
# Poissons Ratio (x) = 0.21183 0.05427
# Poissons Ratio (y) = 0.30063 0.27602
# Poissons Ratio (z) = 0.11344 0.40656
#
# Static dielectric constant tensor:
#      x y z
#    x 1.722700 0.000000 0.008800 
#    y 0.000000 1.681780 0.000000 
#    z 0.008800 0.000000 1.763780 
# 
# From -- ./inp_files/296308.got.cif
#   From: 2010.05.17/outbox.cif.g08.bks.cpg/sg12_149_cif.got.tgz:296308.got - 2010.06.03 13:09:07.
