data_PCOD9186743
_publ_section_title
;
Structure prediction by ZEFSAII (Michael W. Deem and Ramdas Pophale) SiO2 
 PCOD9186743
Probable space group: C 2/M
;
_chemical_formula_sum "Si O2"
_cell_formula_units_Z 64
_cell_length_a 14.563615
_cell_length_b 8.644962
_cell_length_c 28.978516
_cell_angle_alpha 90.000000
_cell_angle_beta 88.217154
_cell_angle_gamma 90.000000
_cell_volume 3646.684030
_symmetry_space_group_name_H-M "C 2/M"
_symmetry_group_IT_number 12
_symmetry_cell_setting 'monoclinic'
loop_
_space_group_symop_operation_xyz
x,y,z
-x,y,-z
-x,-y,-z
x,-y,z
1/2+x,1/2+y,z
1/2-x,1/2+y,-z
1/2-x,1/2-y,-z
1/2+x,1/2-y,z
loop_
_atom_site_type_symbol
_atom_site_label
_atom_site_fract_x
_atom_site_fract_y
_atom_site_fract_z
Si Si1 0.752716 0.185950 0.448522
Si Si2 0.900319 0.313398 0.120035
Si Si3 0.897147 0.686314 0.374275
Si Si4 0.392827 0.812414 0.624856
Si Si5 0.762004 0.185741 0.301206
Si Si6 0.249166 0.685163 0.801156
Si Si7 0.760319 0.815135 0.050922
Si Si8 0.110705 0.313098 0.129542
O O1 0.750000 0.250000 0.500000
O O2 0.839032 0.249113 0.418194
O O3 0.662884 0.233783 0.420174
O O4 0.756220 0.000000 0.449131
O O5 0.898961 0.500000 0.116665
O O6 0.836780 0.269241 0.164715
O O7 0.850533 0.246106 0.075799
O O8 0.005487 0.263865 0.124743
O O9 0.894855 0.500000 0.375314
O O10 0.846276 0.745063 0.329084
O O11 0.002557 0.740607 0.374571
O O12 0.329952 0.765972 0.669317
O O13 0.395152 0.000000 0.624942
O O14 0.759380 0.243238 0.249131
O O15 0.767535 0.000000 0.302560
O O16 0.250389 0.500000 0.797830
O O17 0.339640 0.742994 0.826566
O O18 0.673919 0.769210 0.084721
O O19 0.763086 0.000000 0.049177
O O20 0.750000 0.750000 0.000000
O O21 0.112509 0.500000 0.133431
#
# Coordination Sequence:
#
# PCOD9186743 Si02
#       8
#     8   8   8   8   8   8   8   8
#     4  10  20  36  54  77 106 138 172 209 255 305
#     4   9  19  36  55  74 101 135 172 210 253 303
#     4  10  19  35  56  77 100 132 173 215 253 297
#     4   8  18  35  54  73 100 137 172 204 250 307
#     4  10  20  36  54  75 105 139 170 206 252 307
#     4  10  20  34  53  78 104 132 168 213 255 296
#     4  10  20  34  53  76 103 133 169 210 255 303
#     4   9  19  36  55  74  99 136 173 207 250 306
#
# _framework density 17.550190000000001
#
# number of rings (size 3 to 8) (size 9 to 14) (size 15 to 20)
#    0.000    2.500    0.000    2.625    0.000    3.500 
#    0.000   17.500    0.000    0.000    0.000    0.000 
#    0.000    0.000    0.000    0.000    0.000    0.000 
#
# Total GULP energy -178540.296188 kJ/mol
# GULP energy per Si atom -5579.384256 kJ/mol
# Density = 1.751025 g / cm^3
# Si number density = 17.550190 Si / 1000 Ang^3
#
#
#
# Elastic Constant Matrix: (Units=GPa)
#
#
# Indices 1 2 3 4 5 6 
#
# 1 182.9473 38.7626 87.5825 0.0000 3.0941 0.0000
# 2 38.7626 41.3025 40.2301 0.0000 4.8421 0.0000
# 3 87.5825 40.2301 156.9837 0.0000 25.2306 0.0000
# 4 0.0000 0.0000 0.0000 34.6992 0.0000 5.2807
# 5 3.0941 4.8421 25.2306 0.0000 11.7997 0.0000
# 6 0.0000 0.0000 0.0000 5.2807 0.0000 27.0437
#
#
#
# Elastic Compliance Matrix: (Units=1/GPa)
#
#
# Indices 1 2 3 4 5 6 
#
# 1 0.008920 -0.004079 -0.005827 0.000000 0.011794 0.000000
# 2 -0.004079 0.034489 -0.006795 0.000000 0.001447 0.000000
# 3 -0.005827 -0.006795 0.016255 0.000000 -0.030441 0.000000
# 4 0.000000 0.000000 0.000000 0.029702 0.000000 -0.005800
# 5 0.011794 0.001447 -0.030441 0.000000 0.146150 0.000000
# 6 0.000000 0.000000 0.000000 -0.005800 0.000000 0.038110
#
#
# Mechanical properties :
#
#
# Convention : Reuss Voigt Hill
#
# Bulk Modulus (GPa) = 38.07836 79.37600 58.72718
# Shear Modulus (GPa) = 15.83367 29.01908 22.42637
#
# Velocity S-wave (km/s) = 3.00691 4.07073 3.57857
# Velocity P-wave (km/s) = 5.81372 8.21100 7.11407
#
# Compressibility (1/GPa) = 0.02626164
#
# Stress axis : x y z
#
# Youngs Moduli (GPa) = 112.10249 28.99480 61.51945
#
# Poissons Ratio (x) = 0.11826 0.35848
# Poissons Ratio (y) = 0.45724 0.41806
# Poissons Ratio (z) = 0.65324 0.19703
#
# Static dielectric constant tensor:
#      x y z
#    x 1.588550 0.000000 -0.012420 
#    y 0.000000 1.595450 0.000000 
#    z -0.012420 0.000000 1.567960 
# 
# From -- ./inp_files/359770.got.cif
#   From: 2010.05.17/outbox.cif.g08.bks.cpg/sg12_180_cif.got.tgz:359770.got - 2010.06.03 13:09:07.
