data_PCOD9186229
_publ_section_title
;
Structure prediction by ZEFSAII (Michael W. Deem and Ramdas Pophale) SiO2 
 PCOD9186229
Probable space group: C 2/M
;
_chemical_formula_sum "Si O2"
_cell_formula_units_Z 52
_cell_length_a 14.772062
_cell_length_b 11.233590
_cell_length_c 18.885123
_cell_angle_alpha 90.000000
_cell_angle_beta 121.940581
_cell_angle_gamma 90.000000
_cell_volume 2659.384305
_symmetry_space_group_name_H-M "C 2/M"
_symmetry_group_IT_number 12
_symmetry_cell_setting 'monoclinic'
loop_
_space_group_symop_operation_xyz
x,y,z
-x,y,-z
-x,-y,-z
x,-y,z
1/2+x,1/2+y,z
1/2-x,1/2+y,-z
1/2-x,1/2-y,-z
1/2+x,1/2-y,z
loop_
_atom_site_type_symbol
_atom_site_label
_atom_site_fract_x
_atom_site_fract_y
_atom_site_fract_z
Si Si1 0.242338 0.000000 0.592691
Si Si2 0.923446 0.000000 0.360348
Si Si3 0.505087 0.639280 0.174090
Si Si4 0.168926 0.740363 0.399727
Si Si5 0.710158 0.360206 0.185363
Si Si6 0.334711 0.500000 0.593253
Si Si7 0.428433 0.741073 0.288472
Si Si8 0.311817 0.639615 0.989472
O O1 0.127195 0.000000 0.582728
O O2 0.297772 0.126136 0.632246
O O3 0.241560 0.000000 0.506667
O O4 0.887458 0.119881 0.307213
O O5 0.049863 0.000000 0.397419
O O6 0.511513 0.500000 0.200637
O O7 0.617580 0.692867 0.195921
O O8 0.454488 0.712705 0.217420
O O9 0.427372 0.640032 0.074187
O O10 0.250000 0.750000 0.500000
O O11 0.176044 0.874883 0.371071
O O12 0.044116 0.725091 0.368837
O O13 0.693583 0.500000 0.185658
O O14 0.831301 0.330596 0.254494
O O15 0.689096 0.333113 0.094250
O O16 0.272013 0.500000 0.981912
O O17 0.250000 0.750000 0.000000
#
# Coordination Sequence:
#
# PCOD9186229 Si02
#       8
#     4   4   8   8   8   4   8   8
#     4  10  19  34  60  84 110 145 196 238 291 343
#     4  10  21  34  54  85 109 150 192 235 285 350
#     4  10  20  37  60  83 111 155 195 233 283 350
#     4   9  20  36  57  84 117 155 192 238 291 346
#     4  10  22  37  58  85 113 150 197 238 284 348
#     4   8  17  38  58  79 111 151 191 234 285 347
#     4  11  21  36  57  82 119 148 190 242 294 338
#     4  10  19  36  61  86 115 152 192 235 289 346
#
# _framework density 19.553398999999999
#
# number of rings (size 3 to 8) (size 9 to 14) (size 15 to 20)
#    0.000    2.154    2.308    0.692    3.231    1.846 
#    0.000    0.000    1.692    0.923    0.000   11.846 
#    0.000    0.000    0.000    0.000    0.000    0.000 
#
# Total GULP energy -144767.408144 kJ/mol
# GULP energy per Si atom -5567.977236 kJ/mol
# Density = 1.950889 g / cm^3
# Si number density = 19.553399 Si / 1000 Ang^3
#
#
#
# Elastic Constant Matrix: (Units=GPa)
#
#
# Indices 1 2 3 4 5 6 
#
# 1 81.3156 36.0647 17.7165 0.0000 8.9582 0.0000
# 2 36.0647 95.0924 1.7035 0.0000 -8.4094 0.0000
# 3 17.7165 1.7035 73.9367 0.0000 7.8061 0.0000
# 4 0.0000 0.0000 0.0000 26.8420 0.0000 8.8415
# 5 8.9582 -8.4094 7.8061 0.0000 23.4666 0.0000
# 6 0.0000 0.0000 0.0000 8.8415 0.0000 16.2761
#
#
#
# Elastic Compliance Matrix: (Units=1/GPa)
#
#
# Indices 1 2 3 4 5 6 
#
# 1 0.016997 -0.007100 -0.003063 0.000000 -0.008014 0.000000
# 2 -0.007100 0.013860 0.000592 0.000000 0.007480 0.000000
# 3 -0.003063 0.000592 0.014613 0.000000 -0.003479 0.000000
# 4 0.000000 0.000000 0.000000 0.045374 0.000000 -0.024648
# 5 -0.008014 0.007480 -0.003479 0.000000 0.049511 0.000000
# 6 0.000000 0.000000 0.000000 -0.024648 0.000000 0.074829
#
#
# Mechanical properties :
#
#
# Convention : Reuss Voigt Hill
#
# Bulk Modulus (GPa) = 37.98295 40.14599 39.06447
# Shear Modulus (GPa) = 20.56757 26.30762 23.43759
#
# Velocity S-wave (km/s) = 3.24677 3.67198 3.46590
# Velocity P-wave (km/s) = 5.78988 6.20918 6.00320
#
# Compressibility (1/GPa) = 0.02632760
#
# Stress axis : x y z
#
# Youngs Moduli (GPa) = 58.83390 72.15126 68.43346
#
# Poissons Ratio (x) = 0.51228 0.20962
# Poissons Ratio (y) = 0.41773 -0.04053
# Poissons Ratio (z) = 0.18021 -0.04273
#
# Static dielectric constant tensor:
#      x y z
#    x 1.678540 0.000000 0.004210 
#    y 0.000000 1.728490 0.000000 
#    z 0.004210 0.000000 1.744410 
# 
# From -- ./inp_files/268193.got.cif
#   From: 2010.05.17/outbox.cif.g08.bks.cpg/sg12_135_cif.got.tgz:268193.got - 2010.06.03 13:09:07.
