data_PCOD9186734
_publ_section_title
;
Structure prediction by ZEFSAII (Michael W. Deem and Ramdas Pophale) SiO2 
 PCOD9186734
Probable space group: C 2/M
;
_chemical_formula_sum "Si O2"
_cell_formula_units_Z 64
_cell_length_a 19.317599
_cell_length_b 7.573342
_cell_length_c 21.337737
_cell_angle_alpha 90.000000
_cell_angle_beta 112.825060
_cell_angle_gamma 90.000000
_cell_volume 2877.236974
_symmetry_space_group_name_H-M "C 2/M"
_symmetry_group_IT_number 12
_symmetry_cell_setting 'monoclinic'
loop_
_space_group_symop_operation_xyz
x,y,z
-x,y,-z
-x,-y,-z
x,-y,z
1/2+x,1/2+y,z
1/2-x,1/2+y,-z
1/2-x,1/2-y,-z
1/2+x,1/2-y,z
loop_
_atom_site_type_symbol
_atom_site_label
_atom_site_fract_x
_atom_site_fract_y
_atom_site_fract_z
Si Si1 0.824978 0.285335 0.452652
Si Si2 0.852096 0.705106 0.594758
Si Si3 0.344216 0.201139 0.188426
Si Si4 0.311006 0.783185 0.311070
Si Si5 0.811597 0.708697 0.921658
Si Si6 0.882082 0.294089 0.069396
Si Si7 0.951390 0.212053 0.883845
Si Si8 0.138838 0.206228 0.264587
O O1 0.824590 0.500000 0.454404
O O2 0.867787 0.222886 0.530321
O O3 0.738215 0.226796 0.429414
O O4 0.848042 0.232266 0.390551
O O5 0.871747 0.500000 0.601622
O O6 0.883536 0.779682 0.670553
O O7 0.348329 0.279237 0.259616
O O8 0.255978 0.201111 0.139105
O O9 0.379739 0.285260 0.138482
O O10 0.372812 0.000000 0.203529
O O11 0.223529 0.722602 0.283587
O O12 0.310319 0.000000 0.309034
O O13 0.794475 0.500000 0.918776
O O14 0.888100 0.733543 0.910489
O O15 0.827385 0.780688 0.996992
O O16 0.861216 0.500000 0.068972
O O17 0.966497 0.284113 0.074432
O O18 0.921025 0.277477 0.805587
O O19 0.957863 0.000000 0.886847
O O20 0.145510 0.000000 0.252246
#
# Coordination Sequence:
#
# PCOD9186734 Si02
#       8
#     8   8   8   8   8   8   8   8
#     4   8  14  24  37  59  94 128 158 194 236 284
#     4   9  15  22  37  63  93 125 157 194 242 289
#     4  10  19  35  56  76 101 136 174 203 244 306
#     4   8  13  26  47  67  91 125 163 200 235 282
#     4  11  22  36  54  77 105 131 162 211 262 300
#     4  10  23  38  52  75 106 134 163 210 261 300
#     4  11  22  37  56  75  97 133 175 211 252 307
#     4   9  17  30  46  66  93 125 162 203 246 292
#
# _framework density 22.243562000000001
#
# number of rings (size 3 to 8) (size 9 to 14) (size 15 to 20)
#    0.000    2.500    1.250    2.625    0.000    4.500 
#    0.000    0.000    0.000    0.000    0.000    0.875 
#    0.000    7.000    0.000    0.000    0.000    0.000 
#
# Total GULP energy -178428.347617 kJ/mol
# GULP energy per Si atom -5575.885863 kJ/mol
# Density = 2.219293 g / cm^3
# Si number density = 22.243562 Si / 1000 Ang^3
#
#
#
# Elastic Constant Matrix: (Units=GPa)
#
#
# Indices 1 2 3 4 5 6 
#
# 1 42.3999 -14.9771 7.5285 0.0000 -13.9529 0.0000
# 2 -14.9771 66.2684 -27.0443 0.0000 9.3449 0.0000
# 3 7.5285 -27.0443 170.1876 0.0000 -34.3994 0.0000
# 4 0.0000 0.0000 0.0000 12.9632 0.0000 2.5206
# 5 -13.9529 9.3449 -34.3994 0.0000 27.6883 0.0000
# 6 0.0000 0.0000 0.0000 2.5206 0.0000 6.1018
#
#
#
# Elastic Compliance Matrix: (Units=1/GPa)
#
#
# Indices 1 2 3 4 5 6 
#
# 1 0.030796 0.005760 0.003067 0.000000 0.017386 0.000000
# 2 0.005760 0.017405 0.002551 0.000000 0.000198 0.000000
# 3 0.003067 0.002551 0.008391 0.000000 0.011110 0.000000
# 4 0.000000 0.000000 0.000000 0.083879 0.000000 -0.034650
# 5 0.017386 0.000198 0.011110 0.000000 0.058613 0.000000
# 6 0.000000 0.000000 0.000000 -0.034650 0.000000 0.178200
#
#
# Mechanical properties :
#
#
# Convention : Reuss Voigt Hill
#
# Bulk Modulus (GPa) = 12.60252 23.31890 17.96071
# Shear Modulus (GPa) = 13.12411 30.24056 21.68234
#
# Velocity S-wave (km/s) = 2.43166 3.69117 3.12552
# Velocity P-wave (km/s) = 3.68266 5.35467 4.59535
#
# Compressibility (1/GPa) = 0.07934923
#
# Stress axis : x y z
#
# Youngs Moduli (GPa) = 32.47144 57.45413 119.17385
#
# Poissons Ratio (x) = -0.33095 -0.36552
# Poissons Ratio (y) = -0.18704 -0.30401
# Poissons Ratio (z) = -0.09959 -0.14656
#
# Static dielectric constant tensor:
#      x y z
#    x 1.774440 0.000000 -0.041360 
#    y 0.000000 1.873210 0.000000 
#    z -0.041360 0.000000 1.896730 
# 
# From -- ./inp_files/319235.got.cif
#   From: 2010.05.17/outbox.cif.g08.bks.cpg/sg12_160_cif.got.tgz:319235.got - 2010.06.03 13:09:07.
