data_PCOD9186362
_publ_section_title
;
Structure prediction by ZEFSAII (Michael W. Deem and Ramdas Pophale) SiO2 
 PCOD9186362
Probable space group: C 2/M
;
_chemical_formula_sum "Si O2"
_cell_formula_units_Z 64
_cell_length_a 29.040543
_cell_length_b 18.008713
_cell_length_c 11.662722
_cell_angle_alpha 90.000000
_cell_angle_beta 150.785015
_cell_angle_gamma 90.000000
_cell_volume 2977.045100
_symmetry_space_group_name_H-M "C 2/M"
_symmetry_group_IT_number 12
_symmetry_cell_setting 'monoclinic'
loop_
_space_group_symop_operation_xyz
x,y,z
-x,y,-z
-x,-y,-z
x,-y,z
1/2+x,1/2+y,z
1/2-x,1/2+y,-z
1/2-x,1/2-y,-z
1/2+x,1/2-y,z
loop_
_atom_site_type_symbol
_atom_site_label
_atom_site_fract_x
_atom_site_fract_y
_atom_site_fract_z
Si Si1 0.244032 0.704520 0.603236
Si Si2 0.157527 0.088283 0.307955
Si Si3 0.218717 0.653622 0.231330
Si Si4 0.685821 0.413833 0.987221
Si Si5 0.030777 0.411332 0.934149
Si Si6 0.854809 0.169838 0.331376
Si Si7 0.978676 0.086028 0.180763
Si Si8 0.624714 0.827968 0.535062
O O1 0.250000 0.750000 0.500000
O O2 0.266560 0.621177 0.617815
O O3 0.309087 0.758381 0.821449
O O4 0.147631 0.708965 0.461155
O O5 0.189173 0.127216 0.493826
O O6 0.161350 0.000000 0.327278
O O7 0.061676 0.108518 0.031692
O O8 0.257411 0.647114 0.186160
O O9 0.135222 0.610896 0.115674
O O10 0.696711 0.500000 0.976748
O O11 0.648446 0.365312 0.800588
O O12 0.609348 0.411840 0.922730
O O13 0.785717 0.379707 0.242748
O O14 0.022356 0.500000 0.913939
O O15 0.965565 0.375762 0.692683
O O16 0.000000 0.389535 0.000000
O O17 0.872125 0.258662 0.371750
O O18 0.940513 0.134782 0.588903
O O19 0.010093 0.000000 0.239535
#
# Coordination Sequence:
#
# PCOD9186362 Si02
#       8
#     8   8   8   8   8   8   8   8
#     4   9  18  35  58  86 122 158 199 251 311 371
#     4  10  19  34  61  90 120 161 204 257 318 372
#     4  10  23  40  60  89 131 172 203 253 320 384
#     4  11  23  43  70  92 122 163 217 273 313 365
#     4  11  24  40  65  97 128 167 216 263 313 375
#     4  11  25  42  62  92 129 169 206 257 322 383
#     4  10  22  39  66  94 119 159 214 267 315 372
#     4  11  23  40  63  95 125 167 214 260 314 377
#
# _framework density 21.497826
#
# number of rings (size 3 to 8) (size 9 to 14) (size 15 to 20)
#    0.000    1.625    1.250    3.375    1.750    5.000 
#    0.000    3.125    0.000    1.500    0.000    0.000 
#    0.000    0.000    0.000    0.000    0.000    0.000 
#
# Total GULP energy -178189.712944 kJ/mol
# GULP energy per Si atom -5568.428529 kJ/mol
# Density = 2.144890 g / cm^3
# Si number density = 21.497826 Si / 1000 Ang^3
#
#
#
# Elastic Constant Matrix: (Units=GPa)
#
#
# Indices 1 2 3 4 5 6 
#
# 1 69.0782 27.1954 19.9793 0.0000 -7.1735 0.0000
# 2 27.1954 77.7989 29.3529 0.0000 -1.9434 0.0000
# 3 19.9793 29.3529 94.0208 0.0000 4.6831 0.0000
# 4 0.0000 0.0000 0.0000 46.1421 0.0000 -19.3305
# 5 -7.1735 -1.9434 4.6831 0.0000 15.8332 0.0000
# 6 0.0000 0.0000 0.0000 -19.3305 0.0000 57.4969
#
#
#
# Elastic Compliance Matrix: (Units=1/GPa)
#
#
# Indices 1 2 3 4 5 6 
#
# 1 0.018136 -0.005122 -0.002672 0.000000 0.008378 0.000000
# 2 -0.005122 0.016176 -0.004004 0.000000 0.000849 0.000000
# 3 -0.002672 -0.004004 0.012726 0.000000 -0.005466 0.000000
# 4 0.000000 0.000000 0.000000 0.025225 0.000000 0.008481
# 5 0.008378 0.000849 -0.005466 0.000000 0.068675 0.000000
# 6 0.000000 0.000000 0.000000 0.008481 0.000000 0.020243
#
#
# Mechanical properties :
#
#
# Convention : Reuss Voigt Hill
#
# Bulk Modulus (GPa) = 42.65917 43.77256 43.21586
# Shear Modulus (GPa) = 25.96169 34.85246 30.40708
#
# Velocity S-wave (km/s) = 3.47889 4.03079 3.76497
# Velocity P-wave (km/s) = 6.00195 6.48603 6.24868
#
# Compressibility (1/GPa) = 0.02344162
#
# Stress axis : x y z
#
# Youngs Moduli (GPa) = 55.13976 61.82003 78.57916
#
# Poissons Ratio (x) = 0.31665 0.20997
# Poissons Ratio (y) = 0.28243 0.31463
# Poissons Ratio (z) = 0.14734 0.24752
#
# Static dielectric constant tensor:
#      x y z
#    x 1.838860 0.000000 0.008710 
#    y 0.000000 1.879170 0.000000 
#    z 0.008710 0.000000 1.844760 
# 
# From -- ./inp_files/190079.got.cif
#   From: 2010.05.17/outbox.cif.g08.bks.cpg/sg12_96_cif.got.tgz:190079.got - 2010.06.03 13:09:07.
