data_PCOD9186423
_publ_section_title
;
Structure prediction by ZEFSAII (Michael W. Deem and Ramdas Pophale) SiO2 
 PCOD9186423
Probable space group: C 2/M
;
_chemical_formula_sum "Si O2"
_cell_formula_units_Z 58
_cell_length_a 17.888560
_cell_length_b 14.116379
_cell_length_c 22.326083
_cell_angle_alpha 90.000000
_cell_angle_beta 24.961386
_cell_angle_gamma 90.000000
_cell_volume 2379.201691
_symmetry_space_group_name_H-M "C 2/M"
_symmetry_group_IT_number 12
_symmetry_cell_setting 'monoclinic'
loop_
_space_group_symop_operation_xyz
x,y,z
-x,y,-z
-x,-y,-z
x,-y,z
1/2+x,1/2+y,z
1/2-x,1/2+y,-z
1/2-x,1/2-y,-z
1/2+x,1/2-y,z
loop_
_atom_site_type_symbol
_atom_site_label
_atom_site_fract_x
_atom_site_fract_y
_atom_site_fract_z
Si Si1 0.993136 0.690368 0.083911
Si Si2 0.349032 0.893847 0.914916
Si Si3 0.556288 0.893570 0.640525
Si Si4 0.198134 0.279329 0.367340
Si Si5 0.482839 0.609959 0.231700
Si Si6 0.000000 0.500000 0.000000
Si Si7 0.116717 0.892266 0.511818
Si Si8 0.635256 0.284440 0.237152
O O1 0.066471 0.675822 0.098476
O O2 0.820012 0.754870 0.220894
O O3 0.971634 0.585786 0.071208
O O4 0.158865 0.732397 0.925551
O O5 0.430791 0.887351 0.790348
O O6 0.388782 0.000000 0.907646
O O7 0.138093 0.885712 0.069397
O O8 0.750954 0.879366 0.527329
O O9 0.481237 0.805748 0.658232
O O10 0.544659 0.000000 0.623873
O O11 0.305016 0.349948 0.332792
O O12 0.174315 0.179257 0.418856
O O13 0.000000 0.314681 0.500000
O O14 0.467581 0.500000 0.262182
O O15 0.556568 0.674540 0.231713
O O16 0.919885 0.867807 0.677223
O O17 0.133467 0.000000 0.480151
#
# Coordination Sequence:
#
# PCOD9186423 Si02
#       8
#     8   8   8   8   8   2   8   8
#     4  11  24  41  63  90 127 169 210 260 314 384
#     4   9  16  34  64  95 122 157 206 255 316 376
#     4  10  19  34  62  96 132 166 202 261 328 378
#     4  12  27  43  62  89 130 177 219 258 316 396
#     4  10  21  39  67  97 126 165 214 273 324 371
#     4  12  28  40  66  96 130 172 212 260 326 390
#     4  11  24  39  60  93 131 169 206 260 331 389
#     4  11  22  40  66  97 131 161 216 272 324 379
#
# _framework density 24.377925000000001
#
# number of rings (size 3 to 8) (size 9 to 14) (size 15 to 20)
#    0.000    1.379    3.448    1.655    4.828    2.759 
#    0.000    0.000    0.000    0.000    0.000    0.966 
#    0.000    0.000    0.000    0.000    0.000    0.000 
#
# Total GULP energy -162069.352080 kJ/mol
# GULP energy per Si atom -5588.598348 kJ/mol
# Density = 2.432244 g / cm^3
# Si number density = 24.377925 Si / 1000 Ang^3
#
#
#
# Elastic Constant Matrix: (Units=GPa)
#
#
# Indices 1 2 3 4 5 6 
#
# 1 53.9769 18.5427 29.3730 0.0074 -15.3180 0.0012
# 2 18.5427 107.2464 13.7827 0.0393 -15.1180 0.0011
# 3 29.3730 13.7827 165.2462 -0.0057 -6.6487 0.0133
# 4 0.0074 0.0393 -0.0057 28.9867 0.0113 2.7755
# 5 -15.3180 -15.1180 -6.6487 0.0113 41.4905 -0.0074
# 6 0.0012 0.0011 0.0133 2.7755 -0.0074 20.4851
#
#
#
# Elastic Compliance Matrix: (Units=1/GPa)
#
#
# Indices 1 2 3 4 5 6 
#
# 1 0.023426 -0.002575 -0.003663 -0.000006 0.007123 0.000005
# 2 -0.002575 0.010189 -0.000283 -0.000015 0.002716 0.000003
# 3 -0.003663 -0.000283 0.006711 0.000003 -0.000380 -0.000005
# 4 -0.000006 -0.000015 0.000003 0.034952 -0.000017 -0.004736
# 5 0.007123 0.002716 -0.000380 -0.000017 0.027661 0.000012
# 6 0.000005 0.000003 -0.000005 -0.004736 0.000012 0.049458
#
#
# Mechanical properties :
#
#
# Convention : Reuss Voigt Hill
#
# Bulk Modulus (GPa) = 36.65149 49.98515 43.31832
# Shear Modulus (GPa) = 28.64802 35.84387 32.24594
#
# Velocity S-wave (km/s) = 3.43178 3.83866 3.64091
# Velocity P-wave (km/s) = 5.54709 6.34002 5.95676
#
# Compressibility (1/GPa) = 0.02728402
#
# Stress axis : x y z
#
# Youngs Moduli (GPa) = 42.68805 98.14634 149.01108
#
# Poissons Ratio (x) = 0.25277 0.54577
# Poissons Ratio (y) = 0.10994 0.04213
# Poissons Ratio (z) = 0.15635 0.02775
#
# Static dielectric constant tensor:
#      x y z
#    x 2.043400 0.000000 -0.016980 
#    y 0.000000 2.060480 0.000000 
#    z -0.016980 0.000000 1.992020 
# 
# From -- ./inp_files/366548.got.cif
#   From: 2010.05.17/outbox.cif.g08.bks.cpg/sg12_184_cif.got.tgz:366548.got - 2010.06.03 13:09:07.
