data_PCOD9186501
_publ_section_title
;
Structure prediction by ZEFSAII (Michael W. Deem and Ramdas Pophale) SiO2 
 PCOD9186501
Probable space group: C 2/M
;
_chemical_formula_sum "Si O2"
_cell_formula_units_Z 64
_cell_length_a 17.289042
_cell_length_b 31.935592
_cell_length_c 11.398116
_cell_angle_alpha 90.000000
_cell_angle_beta 148.645541
_cell_angle_gamma 90.000000
_cell_volume 3274.603333
_symmetry_space_group_name_H-M "C 2/M"
_symmetry_group_IT_number 12
_symmetry_cell_setting 'monoclinic'
loop_
_space_group_symop_operation_xyz
x,y,z
-x,y,-z
-x,-y,-z
x,-y,z
1/2+x,1/2+y,z
1/2-x,1/2+y,-z
1/2-x,1/2-y,-z
1/2+x,1/2-y,z
loop_
_atom_site_type_symbol
_atom_site_label
_atom_site_fract_x
_atom_site_fract_y
_atom_site_fract_z
Si Si1 0.517310 0.626691 0.703943
Si Si2 0.644205 0.236385 0.972168
Si Si3 0.455481 0.183644 0.568387
Si Si4 0.830610 0.950236 0.039178
Si Si5 0.070133 0.601211 0.824103
Si Si6 0.868504 0.451383 0.428352
Si Si7 0.874602 0.824510 0.930305
Si Si8 0.739379 0.651096 0.778554
O O1 0.528070 0.577023 0.740427
O O2 0.592050 0.648191 0.912309
O O3 0.625141 0.638975 0.735593
O O4 0.353356 0.642544 0.458836
O O5 0.496995 0.216706 0.721969
O O6 0.616714 0.276564 0.015029
O O7 0.750000 0.250000 0.000000
O O8 0.716417 0.199009 0.141553
O O9 0.500000 0.201983 0.500000
O O10 0.556140 0.142647 0.723809
O O11 0.286323 0.169972 0.336398
O O12 0.842266 0.000000 0.069389
O O13 0.697644 0.930823 0.946407
O O14 0.778877 0.941885 0.837570
O O15 0.916611 0.577135 0.599420
O O16 0.119795 0.620944 0.012307
O O17 0.865984 0.500000 0.458892
O O18 0.000000 0.446616 0.500000
O O19 0.000000 0.834008 0.000000
#
# Coordination Sequence:
#
# PCOD9186501 Si02
#       8
#     8   8   8   8   8   8   8   8
#     4  10  19  35  53  76 114 156 189 231 296 358
#     4  11  21  37  58  83 108 149 201 241 291 354
#     4  11  20  34  59  80 107 148 192 235 286 355
#     4   9  16  27  48  82 117 148 189 242 293 343
#     4   9  15  27  45  75 105 136 183 229 279 336
#     4   8  12  19  36  62  99 134 163 215 273 322
#     4  12  26  39  57  86 116 151 195 256 303 343
#     4   9  19  32  54  77 104 149 194 233 277 355
#
# _framework density 19.544352
#
# number of rings (size 3 to 8) (size 9 to 14) (size 15 to 20)
#    0.000    2.125    2.500    4.500    1.750    0.500 
#    0.000    5.625    0.000    0.375    0.000    0.000 
#    0.000    0.000    0.000   26.500    0.000    0.000 
#
# Total GULP energy -178347.957824 kJ/mol
# GULP energy per Si atom -5573.373682 kJ/mol
# Density = 1.949987 g / cm^3
# Si number density = 19.544352 Si / 1000 Ang^3
#
#
#
# Elastic Constant Matrix: (Units=GPa)
#
#
# Indices 1 2 3 4 5 6 
#
# 1 15.8906 -8.3179 14.7973 0.0000 4.6747 0.0000
# 2 -8.3179 111.9889 45.6511 0.0000 -14.7060 0.0000
# 3 14.7973 45.6511 116.8380 0.0000 -11.0409 0.0000
# 4 0.0000 0.0000 0.0000 26.0058 0.0000 -0.9145
# 5 4.6747 -14.7060 -11.0409 0.0000 9.9519 0.0000
# 6 0.0000 0.0000 0.0000 -0.9145 0.0000 -0.0733
#
#
#
# Elastic Compliance Matrix: (Units=1/GPa)
#
#
# Indices 1 2 3 4 5 6 
#
# 1 0.107798 0.009219 -0.023182 0.000000 -0.062732 0.000000
# 2 0.009219 0.012979 -0.005402 0.000000 0.008856 0.000000
# 3 -0.023182 -0.005402 0.015506 0.000000 0.020109 0.000000
# 4 0.000000 0.000000 0.000000 0.026721 0.000000 -0.333612
# 5 -0.062732 0.008856 0.020109 0.000000 0.165347 0.000001
# 6 0.000000 0.000000 0.000000 -0.333612 0.000001 -9.486704
#
#
# Mechanical properties :
#
#
# Convention : Reuss Voigt Hill
#
# Bulk Modulus (GPa) = 10.25098 38.77540 24.51319
# Shear Modulus (GPa) = -0.55023 20.01602 9.73290
#
# Velocity S-wave (km/s) = -0.53117 3.20368 2.23399
# Velocity P-wave (km/s) = 2.20911 5.79375 4.38450
#
# Compressibility (1/GPa) = 0.09755165
#
# Stress axis : x y z
#
# Youngs Moduli (GPa) = 9.27665 77.04654 64.49205
#
# Poissons Ratio (x) = -0.71028 1.49508
# Poissons Ratio (y) = -0.08552 0.34838
# Poissons Ratio (z) = 0.21505 0.41620
#
# Static dielectric constant tensor:
#      x y z
#    x 1.674060 0.000000 0.000790 
#    y 0.000000 1.693810 0.000000 
#    z 0.000790 0.000000 1.797110 
# 
# From -- ./inp_files/161247.got.cif
#   From: 2010.05.17/outbox.cif.g08.bks.cpg/sg12_81_cif.got.tgz:161247.got - 2010.06.03 13:09:07.
