data_PCOD9186977
_publ_section_title
;
Structure prediction by ZEFSAII (Michael W. Deem and Ramdas Pophale) SiO2 
 PCOD9186977
Probable space group: C 2/M
;
_chemical_formula_sum "Si O2"
_cell_formula_units_Z 58
_cell_length_a 24.403680
_cell_length_b 7.757214
_cell_length_c 29.510783
_cell_angle_alpha 90.000000
_cell_angle_beta 148.627311
_cell_angle_gamma 90.000000
_cell_volume 2908.360610
_symmetry_space_group_name_H-M "C 2/M"
_symmetry_group_IT_number 12
_symmetry_cell_setting 'monoclinic'
loop_
_space_group_symop_operation_xyz
x,y,z
-x,y,-z
-x,-y,-z
x,-y,z
1/2+x,1/2+y,z
1/2-x,1/2+y,-z
1/2-x,1/2-y,-z
1/2+x,1/2-y,z
loop_
_atom_site_type_symbol
_atom_site_label
_atom_site_fract_x
_atom_site_fract_y
_atom_site_fract_z
Si Si1 0.000000 0.500000 0.000000
Si Si2 0.612347 0.701775 0.717074
Si Si3 0.796388 0.294811 0.983226
Si Si4 0.149419 0.801294 0.118532
Si Si5 0.916232 0.300035 0.207010
Si Si6 0.497277 0.791636 0.828108
Si Si7 0.197018 0.796611 0.252449
Si Si8 0.065134 0.800371 0.587314
O O1 0.914332 0.654912 0.952720
O O2 0.634499 0.500000 0.724758
O O3 0.725428 0.791801 0.800514
O O4 0.555382 0.719112 0.724870
O O5 0.555343 0.770723 0.631598
O O6 0.795184 0.500000 0.975442
O O7 0.710161 0.216387 0.889173
O O8 0.750000 0.250000 0.000000
O O9 0.916365 0.232589 0.073458
O O10 0.139988 0.745901 0.165077
O O11 0.116805 0.000000 0.088720
O O12 0.943364 0.500000 0.228627
O O13 0.969197 0.228481 0.198328
O O14 0.382024 0.741644 0.762719
O O15 0.505318 0.000000 0.832818
O O16 0.310420 0.708690 0.335574
O O17 0.216675 0.000000 0.262986
O O18 0.000000 0.719614 0.500000
O O19 0.030945 0.000000 0.566083
#
# Coordination Sequence:
#
# PCOD9186977 Si02
#       8
#     2   8   8   8   8   8   8   8
#     4  12  22  36  56  78 110 156 194 236 288 340
#     4  10  19  35  57  81 110 146 181 228 286 343
#     4   9  17  30  46  68  97 137 189 234 270 311
#     4  10  22  38  53  78 112 147 193 237 284 339
#     4  10  20  33  50  76 109 148 190 235 279 322
#     4   9  19  33  51  73 105 149 192 232 278 327
#     4  10  21  35  55  81 111 143 178 231 285 335
#     4   9  19  37  63  88 108 136 175 221 280 352
#
# _framework density 19.942505000000001
#
# number of rings (size 3 to 8) (size 9 to 14) (size 15 to 20)
#    0.000    2.345    0.690    2.690    1.931    5.241 
#    2.483    1.379    0.000    0.828    0.000    0.000 
#    0.000    0.000    0.000    0.000    0.000    0.000 
#
# Total GULP energy -161447.134085 kJ/mol
# GULP energy per Si atom -5567.142555 kJ/mol
# Density = 1.989712 g / cm^3
# Si number density = 19.942505 Si / 1000 Ang^3
#
#
#
# Elastic Constant Matrix: (Units=GPa)
#
#
# Indices 1 2 3 4 5 6 
#
# 1 110.1008 2.0204 37.8413 -0.0002 -23.7387 -0.0004
# 2 2.0204 62.9062 6.7459 -0.0010 -3.8027 -0.0023
# 3 37.8413 6.7459 58.9892 0.0001 -21.0781 0.0000
# 4 -0.0002 -0.0010 0.0001 0.1059 0.0001 -5.9832
# 5 -23.7387 -3.8027 -21.0781 0.0001 25.3275 0.0000
# 6 -0.0004 -0.0023 0.0000 -5.9832 0.0000 10.5286
#
#
#
# Elastic Compliance Matrix: (Units=1/GPa)
#
#
# Indices 1 2 3 4 5 6 
#
# 1 0.012531 0.000628 -0.005522 -0.000002 0.007243 -0.000001
# 2 0.000628 0.016154 -0.001670 -0.000011 0.001624 -0.000003
# 3 -0.005522 -0.001670 0.026681 0.000004 0.016778 0.000001
# 4 -0.000002 -0.000011 0.000004 -0.303569 0.000001 -0.172511
# 5 0.007243 0.001624 0.016778 0.000001 0.060479 0.000001
# 6 -0.000001 -0.000003 0.000001 -0.172511 0.000001 -0.003055
#
#
# Mechanical properties :
#
#
# Convention : Reuss Voigt Hill
#
# Bulk Modulus (GPa) = 23.67585 36.13461 29.90523
# Shear Modulus (GPa) = -30.56746 19.55163 -5.50792
#
# Velocity S-wave (km/s) = -3.91932 3.13453 -1.66370
# Velocity P-wave (km/s) = 2.92978 5.59098 3.36716
#
# Compressibility (1/GPa) = 0.04223713
#
# Stress axis : x y z
#
# Youngs Moduli (GPa) = 79.80414 61.90516 37.48037
#
# Poissons Ratio (x) = -0.03885 0.20696
# Poissons Ratio (y) = -0.05008 0.06258
# Poissons Ratio (z) = 0.44067 0.10336
#
# Static dielectric constant tensor:
#      x y z
#    x 1.784550 0.000000 -0.044550 
#    y 0.000000 1.743440 0.000000 
#    z -0.044550 0.000000 1.720460 
# 
# From -- ./inp_files/382092.got.cif
#   From: 2010.05.17/outbox.cif.g08.bks.cpg/sg12_192_cif.got.tgz:382092.got - 2010.06.03 13:09:07.
