data_PCOD9186830
_publ_section_title
;
Structure prediction by ZEFSAII (Michael W. Deem and Ramdas Pophale) SiO2 
 PCOD9186830
Probable space group: C 2/M
;
_chemical_formula_sum "Si O2"
_cell_formula_units_Z 56
_cell_length_a 29.145649
_cell_length_b 7.732391
_cell_length_c 11.995404
_cell_angle_alpha 90.000000
_cell_angle_beta 109.586749
_cell_angle_gamma 90.000000
_cell_volume 2546.921494
_symmetry_space_group_name_H-M "C 2/M"
_symmetry_group_IT_number 12
_symmetry_cell_setting 'monoclinic'
loop_
_space_group_symop_operation_xyz
x,y,z
-x,y,-z
-x,-y,-z
x,-y,z
1/2+x,1/2+y,z
1/2-x,1/2+y,-z
1/2-x,1/2-y,-z
1/2+x,1/2-y,z
loop_
_atom_site_type_symbol
_atom_site_label
_atom_site_fract_x
_atom_site_fract_y
_atom_site_fract_z
Si Si1 0.149944 0.208674 0.566866
Si Si2 0.397365 0.200002 0.252766
Si Si3 0.502876 0.701630 0.375742
Si Si4 0.806589 0.695046 0.047010
Si Si5 0.743289 0.793796 0.365403
Si Si6 0.406391 0.711339 0.694052
Si Si7 0.152501 0.197483 0.152590
O O1 0.113152 0.287334 0.624555
O O2 0.204682 0.257123 0.643690
O O3 0.135063 0.260089 0.429928
O O4 0.146362 0.000000 0.568732
O O5 0.449559 0.286131 0.278084
O O6 0.402170 0.000000 0.222098
O O7 0.349182 0.281224 0.156307
O O8 0.500000 0.776071 0.500000
O O9 0.516487 0.500000 0.402123
O O10 0.543743 0.771173 0.324076
O O11 0.804148 0.500000 0.086795
O O12 0.829114 0.704660 0.941485
O O13 0.750000 0.750000 0.000000
O O14 0.750000 0.750000 0.500000
O O15 0.698924 0.698541 0.272441
O O16 0.736539 0.000000 0.346533
O O17 0.406850 0.500000 0.702026
O O18 0.390884 0.770218 0.804917
O O19 0.141239 0.000000 0.110222
#
# Coordination Sequence:
#
# PCOD9186830 Si02
#       7
#     8   8   8   8   8   8   8
#     4  10  19  35  56  81 117 157 196 238 290 357
#     4  11  24  39  58  88 122 153 196 254 308 358
#     4  10  19  36  63  89 118 159 203 245 295 360
#     4  11  25  45  65  88 120 161 207 253 302 360
#     4  11  21  33  53  83 119 157 196 241 298 363
#     4   9  18  35  57  86 119 153 194 242 294 354
#     4  11  22  39  61  86 121 159 201 254 305 358
#
# _framework density 21.987328999999999
#
# number of rings (size 3 to 8) (size 9 to 14) (size 15 to 20)
#    0.000    1.571    2.857    2.571    0.000    6.000 
#    0.000    2.143    0.000    4.286    0.000    0.000 
#    0.000    0.000    0.000    0.000    0.000    0.000 
#
# Total GULP energy -156256.192776 kJ/mol
# GULP energy per Si atom -5580.578313 kJ/mol
# Density = 2.193728 g / cm^3
# Si number density = 21.987329 Si / 1000 Ang^3
#
#
#
# Elastic Constant Matrix: (Units=GPa)
#
#
# Indices 1 2 3 4 5 6 
#
# 1 165.4379 4.5290 32.3000 0.0000 -7.1270 0.0000
# 2 4.5290 35.7039 -10.3038 0.0000 0.1379 0.0000
# 3 32.3000 -10.3038 67.7687 0.0000 -4.9265 0.0000
# 4 0.0000 0.0000 0.0000 19.8987 0.0000 0.6566
# 5 -7.1270 0.1379 -4.9265 0.0000 34.6153 0.0000
# 6 0.0000 0.0000 0.0000 0.6566 0.0000 20.0491
#
#
#
# Elastic Compliance Matrix: (Units=1/GPa)
#
#
# Indices 1 2 3 4 5 6 
#
# 1 0.006811 -0.001867 -0.003464 0.000000 0.000917 0.000000
# 2 -0.001867 0.029815 0.005443 0.000000 0.000271 0.000000
# 3 -0.003464 0.005443 0.017361 0.000000 0.001736 0.000000
# 4 0.000000 0.000000 0.000000 0.050309 0.000000 -0.001648
# 5 0.000917 0.000271 0.001736 0.000000 0.029324 0.000000
# 6 0.000000 0.000000 0.000000 -0.001648 0.000000 0.049931
#
#
# Mechanical properties :
#
#
# Convention : Reuss Voigt Hill
#
# Bulk Modulus (GPa) = 18.44657 35.77344 27.11001
# Shear Modulus (GPa) = 24.82657 31.07166 27.94911
#
# Velocity S-wave (km/s) = 3.36390 3.76328 3.56918
# Velocity P-wave (km/s) = 4.84723 5.93198 5.41683
#
# Compressibility (1/GPa) = 0.05421062
#
# Stress axis : x y z
#
# Youngs Moduli (GPa) = 146.81209 33.54056 57.60142
#
# Poissons Ratio (x) = 0.06263 0.19951
# Poissons Ratio (y) = 0.27412 -0.31351
# Poissons Ratio (z) = 0.50851 -0.18255
#
# Static dielectric constant tensor:
#      x y z
#    x 1.859910 0.000000 -0.007920 
#    y 0.000000 1.852310 0.000000 
#    z -0.007920 0.000000 1.819440 
# 
# From -- ./inp_files/181036.got.cif
#   From: 2010.05.17/outbox.cif.g08.bks.cpg/sg12_91_cif.got.tgz:181036.got - 2010.06.03 13:09:07.
