data_PCOD9186990
_publ_section_title
;
Structure prediction by ZEFSAII (Michael W. Deem and Ramdas Pophale) SiO2 
 PCOD9186990
Probable space group: C 2/M
;
_chemical_formula_sum "Si O2"
_cell_formula_units_Z 56
_cell_length_a 13.958738
_cell_length_b 13.684363
_cell_length_c 14.692908
_cell_angle_alpha 90.000000
_cell_angle_beta 81.909648
_cell_angle_gamma 90.000000
_cell_volume 2778.654026
_symmetry_space_group_name_H-M "C 2/M"
_symmetry_group_IT_number 12
_symmetry_cell_setting 'monoclinic'
loop_
_space_group_symop_operation_xyz
x,y,z
-x,y,-z
-x,-y,-z
x,-y,z
1/2+x,1/2+y,z
1/2-x,1/2+y,-z
1/2-x,1/2-y,-z
1/2+x,1/2-y,z
loop_
_atom_site_type_symbol
_atom_site_label
_atom_site_fract_x
_atom_site_fract_y
_atom_site_fract_z
Si Si1 0.231415 0.254936 0.821170
Si Si2 0.009802 0.386101 0.605232
Si Si3 0.943635 0.277746 0.780000
Si Si4 0.406864 0.616163 0.264814
Si Si5 0.573568 0.113490 0.906531
Si Si6 0.605409 0.381673 0.522842
Si Si7 0.769131 0.383654 0.360055
O O1 0.338078 0.225797 0.836730
O O2 0.172165 0.161903 0.792047
O O3 0.166139 0.316057 0.899962
O O4 0.243143 0.325791 0.731820
O O5 0.985050 0.500000 0.624291
O O6 0.121581 0.371599 0.618565
O O7 0.000000 0.367341 0.500000
O O8 0.943160 0.319907 0.677948
O O9 0.993348 0.171727 0.770666
O O10 0.014937 0.348642 0.826287
O O11 0.414158 0.500000 0.256958
O O12 0.381819 0.643533 0.372878
O O13 0.600916 0.000000 0.892497
O O14 0.500000 0.122746 0.000000
O O15 0.500000 0.351526 0.500000
O O16 0.606585 0.500000 0.519962
O O17 0.691511 0.349076 0.445428
O O18 0.754319 0.500000 0.346924
#
# Coordination Sequence:
#
# PCOD9186990 Si02
#       7
#     8   8   8   8   8   8   8
#     4  11  23  37  60  90 118 153 193 246 302 359
#     4  10  21  36  57  87 123 163 206 254 302 348
#     4  11  23  39  61  91 123 157 199 249 296 353
#     4  10  22  38  52  78 119 162 202 239 289 347
#     4  10  22  44  71  94 118 149 191 247 307 367
#     4   9  18  31  48  73 108 153 203 247 284 329
#     4  10  19  35  57  81 115 158 205 255 296 343
#
# _framework density 20.153642000000001
#
# number of rings (size 3 to 8) (size 9 to 14) (size 15 to 20)
#    0.000    1.857    2.857    1.714    2.000    6.286 
#    0.000    0.000    0.000    6.857    0.000    0.000 
#    0.000    0.000    0.000    0.000    0.000    0.000 
#
# Total GULP energy -156533.094092 kJ/mol
# GULP energy per Si atom -5590.467646 kJ/mol
# Density = 2.010777 g / cm^3
# Si number density = 20.153642 Si / 1000 Ang^3
#
#
#
# Elastic Constant Matrix: (Units=GPa)
#
#
# Indices 1 2 3 4 5 6 
#
# 1 73.9108 16.7754 5.7475 0.0000 -26.0847 0.0000
# 2 16.7754 114.5201 19.4907 0.0000 -13.7599 0.0000
# 3 5.7475 19.4907 44.6773 0.0000 -17.4895 0.0000
# 4 0.0000 0.0000 0.0000 26.7013 0.0000 -8.2020
# 5 -26.0847 -13.7599 -17.4895 0.0000 23.9026 0.0000
# 6 0.0000 0.0000 0.0000 -8.2020 0.0000 14.5804
#
#
#
# Elastic Compliance Matrix: (Units=1/GPa)
#
#
# Indices 1 2 3 4 5 6 
#
# 1 0.025284 -0.001389 0.010989 0.000000 0.034834 0.000000
# 2 -0.001389 0.009709 -0.003451 0.000000 0.001549 0.000000
# 3 0.010989 -0.003451 0.036985 0.000000 0.037068 0.000000
# 4 0.000000 0.000000 0.000000 0.045275 0.000000 0.025469
# 5 0.034834 0.001549 0.037068 0.000000 0.107864 0.000000
# 6 0.000000 0.000000 0.000000 0.025469 0.000000 0.082912
#
#
# Mechanical properties :
#
#
# Convention : Reuss Voigt Hill
#
# Bulk Modulus (GPa) = 11.86550 35.23728 23.55139
# Shear Modulus (GPa) = 15.44056 25.77649 20.60853
#
# Velocity S-wave (km/s) = 2.77093 3.58019 3.20124
# Velocity P-wave (km/s) = 4.01718 5.88325 5.03738
#
# Compressibility (1/GPa) = 0.08427793
#
# Stress axis : x y z
#
# Youngs Moduli (GPa) = 39.55068 102.99854 27.03788
#
# Poissons Ratio (x) = 0.14303 -0.29713
# Poissons Ratio (y) = 0.05492 0.09330
# Poissons Ratio (z) = -0.43463 0.35541
#
# Static dielectric constant tensor:
#      x y z
#    x 1.714380 0.000000 -0.009480 
#    y 0.000000 1.721840 0.000000 
#    z -0.009480 0.000000 1.707460 
# 
# From -- ./inp_files/214186.got.cif
#   From: 2010.05.17/outbox.cif.g08.bks.cpg/sg12_108_cif.got.tgz:214186.got - 2010.06.03 13:09:07.
