data_PCOD9186682
_publ_section_title
;
Structure prediction by ZEFSAII (Michael W. Deem and Ramdas Pophale) SiO2 
 PCOD9186682
Probable space group: C 2/M
;
_chemical_formula_sum "Si O2"
_cell_formula_units_Z 56
_cell_length_a 13.223500
_cell_length_b 14.033288
_cell_length_c 18.852595
_cell_angle_alpha 90.000000
_cell_angle_beta 56.643171
_cell_angle_gamma 90.000000
_cell_volume 2922.132655
_symmetry_space_group_name_H-M "C 2/M"
_symmetry_group_IT_number 12
_symmetry_cell_setting 'monoclinic'
loop_
_space_group_symop_operation_xyz
x,y,z
-x,y,-z
-x,-y,-z
x,-y,z
1/2+x,1/2+y,z
1/2-x,1/2+y,-z
1/2-x,1/2-y,-z
1/2+x,1/2-y,z
loop_
_atom_site_type_symbol
_atom_site_label
_atom_site_fract_x
_atom_site_fract_y
_atom_site_fract_z
Si Si1 0.886039 0.388673 0.500920
Si Si2 0.580808 0.886129 0.804847
Si Si3 0.093488 0.108296 0.866350
Si Si4 0.136896 0.894628 0.680526
Si Si5 0.716473 0.741808 0.199284
Si Si6 0.965354 0.300095 0.330147
Si Si7 0.878739 0.233054 0.915568
O O1 0.908323 0.500000 0.475601
O O2 0.770073 0.384872 0.595894
O O3 0.887076 0.334563 0.426440
O O4 0.000000 0.350405 0.500000
O O5 0.701871 0.835139 0.790043
O O6 0.569305 0.862487 0.725474
O O7 0.465543 0.827053 0.880824
O O8 0.578211 0.000000 0.818351
O O9 0.130026 0.113149 0.768267
O O10 0.189568 0.178365 0.864400
O O11 0.959978 0.152389 0.921282
O O12 0.100129 0.000000 0.887561
O O13 0.065054 0.808784 0.674507
O O14 0.090645 0.000000 0.679630
O O15 0.611098 0.796756 0.283761
O O16 0.649960 0.703234 0.154653
O O17 0.750000 0.250000 0.000000
#
# Coordination Sequence:
#
# PCOD9186682 Si02
#       7
#     8   8   8   8   8   8   8
#     4  10  21  33  54  84 113 149 194 239 284 332
#     4  10  22  38  58  86 116 148 190 235 284 340
#     4  10  20  37  59  84 112 148 191 232 279 336
#     4  10  19  35  55  81 113 147 190 233 276 334
#     4  10  20  37  58  83 112 148 189 229 282 336
#     4  11  20  37  59  82 116 154 190 235 289 332
#     4  10  22  40  59  83 117 149 185 231 285 342
#
# _framework density 19.164086999999999
#
# number of rings (size 3 to 8) (size 9 to 14) (size 15 to 20)
#    0.000    1.857    4.286    1.714    0.000    8.000 
#    0.000    1.429    0.000    0.429    0.000    0.000 
#    0.000    0.000    0.000    0.000    0.000    0.000 
#
# Total GULP energy -156132.109723 kJ/mol
# GULP energy per Si atom -5576.146776 kJ/mol
# Density = 1.912047 g / cm^3
# Si number density = 19.164087 Si / 1000 Ang^3
#
#
#
# Elastic Constant Matrix: (Units=GPa)
#
#
# Indices 1 2 3 4 5 6 
#
# 1 73.9554 33.1493 -6.1802 0.0000 -9.8904 0.0000
# 2 33.1493 100.5954 -0.0217 0.0000 -1.4102 0.0000
# 3 -6.1802 -0.0217 61.9120 0.0000 -7.2916 0.0000
# 4 0.0000 0.0000 0.0000 19.3081 0.0000 0.0964
# 5 -9.8904 -1.4102 -7.2916 0.0000 19.9957 0.0000
# 6 0.0000 0.0000 0.0000 0.0964 0.0000 16.6583
#
#
#
# Elastic Compliance Matrix: (Units=1/GPa)
#
#
# Indices 1 2 3 4 5 6 
#
# 1 0.017536 -0.005648 0.002845 0.000000 0.009313 0.000000
# 2 -0.005648 0.011770 -0.000826 0.000000 -0.002265 0.000000
# 3 0.002845 -0.000826 0.017339 0.000000 0.007672 0.000000
# 4 0.000000 0.000000 0.000000 0.051793 0.000000 -0.000300
# 5 0.009313 -0.002265 0.007672 0.000000 0.057255 0.000000
# 6 0.000000 0.000000 0.000000 -0.000300 0.000000 0.060032
#
#
# Mechanical properties :
#
#
# Convention : Reuss Voigt Hill
#
# Bulk Modulus (GPa) = 25.38815 32.26197 28.82506
# Shear Modulus (GPa) = 21.17634 25.16012 23.16823
#
# Velocity S-wave (km/s) = 3.32776 3.62730 3.48075
# Velocity P-wave (km/s) = 5.29546 5.86636 5.58820
#
# Compressibility (1/GPa) = 0.03938845
#
# Stress axis : x y z
#
# Youngs Moduli (GPa) = 57.02420 84.96212 57.67259
#
# Poissons Ratio (x) = 0.47983 -0.16410
# Poissons Ratio (y) = 0.32205 0.04766
# Poissons Ratio (z) = -0.16226 0.07021
#
# Static dielectric constant tensor:
#      x y z
#    x 1.684500 0.000000 -0.017140 
#    y 0.000000 1.660890 0.000000 
#    z -0.017140 0.000000 1.762530 
# 
# From -- ./inp_files/263215.got.cif
#   From: 2010.05.17/outbox.cif.g08.bks.cpg/sg12_132_cif.got.tgz:263215.got - 2010.06.03 13:09:07.
