data_PCOD9186218
_publ_section_title
;
Structure prediction by ZEFSAII (Michael W. Deem and Ramdas Pophale) SiO2 
 PCOD9186218
Probable space group: C 2/M
;
_chemical_formula_sum "Si O2"
_cell_formula_units_Z 40
_cell_length_a 9.137499
_cell_length_b 30.186113
_cell_length_c 7.448980
_cell_angle_alpha 90.000000
_cell_angle_beta 58.110665
_cell_angle_gamma 90.000000
_cell_volume 1744.515606
_symmetry_space_group_name_H-M "C 2/M"
_symmetry_group_IT_number 12
_symmetry_cell_setting 'monoclinic'
loop_
_space_group_symop_operation_xyz
x,y,z
-x,y,-z
-x,-y,-z
x,-y,z
1/2+x,1/2+y,z
1/2-x,1/2+y,-z
1/2-x,1/2-y,-z
1/2+x,1/2-y,z
loop_
_atom_site_type_symbol
_atom_site_label
_atom_site_fract_x
_atom_site_fract_y
_atom_site_fract_z
Si Si1 0.604933 0.451665 0.241496
Si Si2 0.200099 0.788107 0.168463
Si Si3 0.093392 0.346621 0.704939
Si Si4 0.000000 0.577165 0.000000
Si Si5 0.450698 0.638738 0.319605
Si Si6 0.500000 0.775090 0.500000
O O1 0.500000 0.452378 0.500000
O O2 0.573210 0.500000 0.177841
O O3 0.812851 0.446441 0.130383
O O4 0.531129 0.407079 0.197217
O O5 0.325836 0.825470 0.165594
O O6 0.041964 0.816906 0.190744
O O7 0.154035 0.759651 0.376524
O O8 0.250000 0.750000 0.000000
O O9 0.245560 0.358772 0.464706
O O10 0.994617 0.307261 0.672771
O O11 0.999404 0.391075 0.825108
O O12 0.500000 0.639730 0.500000
#
# Coordination Sequence:
#
# PCOD9186218 Si02
#       6
#     8   8   8   4   8   4
#     4  10  19  34  59  94 123 150 191 257 326 369
#     4  11  21  37  60  84 119 163 205 251 309 356
#     4  11  22  39  56  84 126 162 202 256 302 357
#     4  12  19  36  64  90 122 152 204 254 309 372
#     4   9  17  38  54  78 123 155 187 252 307 350
#     4  12  24  36  54  84 122 168 218 244 292 376
#
# _framework density 22.929002000000001
#
# number of rings (size 3 to 8) (size 9 to 14) (size 15 to 20)
#    0.000    1.400    9.000    2.100    0.000    0.000 
#    0.000    0.000    0.000    0.000    0.000    7.700 
#    0.000    0.000    0.000    0.000    0.000    0.000 
#
# Total GULP energy -111434.688736 kJ/mol
# GULP energy per Si atom -5571.734437 kJ/mol
# Density = 2.287681 g / cm^3
# Si number density = 22.929002 Si / 1000 Ang^3
#
#
#
# Elastic Constant Matrix: (Units=GPa)
#
#
# Indices 1 2 3 4 5 6 
#
# 1 34.9445 20.0833 35.2676 0.0000 -20.0518 0.0000
# 2 20.0833 177.2857 54.7502 0.0000 -23.8990 0.0000
# 3 35.2676 54.7502 83.1464 0.0000 -26.7633 0.0000
# 4 0.0000 0.0000 0.0000 -18.3639 0.0000 -0.9962
# 5 -20.0518 -23.8990 -26.7633 0.0000 41.0709 0.0000
# 6 0.0000 0.0000 0.0000 -0.9962 0.0000 12.6109
#
#
#
# Elastic Compliance Matrix: (Units=1/GPa)
#
#
# Indices 1 2 3 4 5 6 
#
# 1 0.057184 0.001969 -0.020496 0.000000 0.015709 0.000000
# 2 0.001969 0.007210 -0.004964 0.000000 0.001922 0.000000
# 3 -0.020496 -0.004964 0.025104 0.000000 0.003464 0.000000
# 4 0.000000 0.000000 0.000000 -0.054222 0.000000 -0.004283
# 5 0.015709 0.001922 0.003464 0.000000 0.035393 0.000000
# 6 0.000000 0.000000 0.000000 -0.004283 0.000000 0.078958
#
#
# Mechanical properties :
#
#
# Convention : Reuss Voigt Hill
#
# Bulk Modulus (GPa) = 23.51996 57.28655 40.40325
# Shear Modulus (GPa) = 23.72134 19.41527 21.56830
#
# Velocity S-wave (km/s) = 3.21994 2.91306 3.07034
# Velocity P-wave (km/s) = 4.90959 6.02936 5.49805
#
# Compressibility (1/GPa) = 0.04251707
#
# Stress axis : x y z
#
# Youngs Moduli (GPa) = 17.48727 138.70315 39.83401
#
# Poissons Ratio (x) = -0.27315 0.81643
# Poissons Ratio (y) = -0.03444 0.19774
# Poissons Ratio (z) = 0.35842 0.68853
#
# Static dielectric constant tensor:
#      x y z
#    x 1.939950 0.000000 -0.095620 
#    y 0.000000 1.832630 0.000000 
#    z -0.095620 0.000000 2.052070 
# 
# From -- ./inp_files/52360.got.cif
#   From: 2010.05.17/outbox.cif.g08.bks.cpg/sg12_27_cif.got.tgz:52360.got - 2010.06.03 13:09:07.
