data_PCOD9186974
_publ_section_title
;
Structure prediction by ZEFSAII (Michael W. Deem and Ramdas Pophale) SiO2 
 PCOD9186974
Probable space group: C 2/M
;
_chemical_formula_sum "Si O2"
_cell_formula_units_Z 20
_cell_length_a 6.369179
_cell_length_b 25.103252
_cell_length_c 7.249763
_cell_angle_alpha 90.000000
_cell_angle_beta 45.840418
_cell_angle_gamma 90.000000
_cell_volume 831.572217
_symmetry_space_group_name_H-M "C 2/M"
_symmetry_group_IT_number 12
_symmetry_cell_setting 'monoclinic'
loop_
_space_group_symop_operation_xyz
x,y,z
-x,y,-z
-x,-y,-z
x,-y,z
1/2+x,1/2+y,z
1/2-x,1/2+y,-z
1/2-x,1/2-y,-z
1/2+x,1/2-y,z
loop_
_atom_site_type_symbol
_atom_site_label
_atom_site_fract_x
_atom_site_fract_y
_atom_site_fract_z
Si Si1 0.644053 0.383734 0.708938
Si Si2 0.147071 0.000000 0.706843
Si Si3 0.528027 0.731427 0.297123
O O1 0.572203 0.442145 0.670539
O O2 0.508502 0.332688 0.695705
O O3 0.000000 0.377323 0.500000
O O4 0.500000 0.383394 0.000000
O O5 0.500000 0.000000 0.500000
O O6 0.000000 0.000000 0.000000
O O7 0.233427 0.755416 0.360189
O O8 0.750000 0.750000 0.000000
#
# Coordination Sequence:
#
# PCOD9186974 Si02
#       3
#     8   4   8
#     4  10  19  35  57  81 109 143 182 224 269 325
#     4   8  16  30  53  80 105 138 179 218 265 324
#     4  12  24  38  56  81 112 148 186 229 277 327
#
# _framework density 24.050825
#
# number of rings (size 3 to 8) (size 9 to 14) (size 15 to 20)
#    0.000    1.600    0.000    7.200    0.000    0.000 
#    0.000    1.000    0.000    0.000    0.000   22.400 
#    0.000    0.000    0.000    0.000    0.000    0.000 
#
# Total GULP energy -55784.156552 kJ/mol
# GULP energy per Si atom -5578.415655 kJ/mol
# Density = 2.399608 g / cm^3
# Si number density = 24.050825 Si / 1000 Ang^3
#
#
#
# Elastic Constant Matrix: (Units=GPa)
#
#
# Indices 1 2 3 4 5 6 
#
# 1 180.7531 88.5680 107.3672 0.0000 29.1200 0.0000
# 2 88.5680 304.0586 44.8298 0.0000 19.0303 0.0000
# 3 107.3672 44.8298 274.6518 0.0000 -5.9348 0.0000
# 4 0.0000 0.0000 0.0000 41.2115 0.0000 1.1963
# 5 29.1200 19.0303 -5.9348 0.0000 69.9230 0.0000
# 6 0.0000 0.0000 0.0000 1.1963 0.0000 38.7343
#
#
#
# Elastic Compliance Matrix: (Units=1/GPa)
#
#
# Indices 1 2 3 4 5 6 
#
# 1 0.008977 -0.001914 -0.003273 0.000000 -0.003496 0.000000
# 2 -0.001914 0.003844 0.000115 0.000000 -0.000240 0.000000
# 3 -0.003273 0.000115 0.004939 0.000000 0.001751 0.000000
# 4 0.000000 0.000000 0.000000 0.024287 0.000000 -0.000750
# 5 -0.003496 -0.000240 0.001751 0.000000 0.015971 0.000000
# 6 0.000000 0.000000 0.000000 -0.000750 0.000000 0.025840
#
#
# Mechanical properties :
#
#
# Convention : Reuss Voigt Hill
#
# Bulk Modulus (GPa) = 131.24832 137.88816 134.56824
# Shear Modulus (GPa) = 51.79223 64.55367 58.17295
#
# Velocity S-wave (km/s) = 4.64556 5.18640 4.92342
# Velocity P-wave (km/s) = 9.13590 9.66031 9.40176
#
# Compressibility (1/GPa) = 0.00761915
#
# Stress axis : x y z
#
# Youngs Moduli (GPa) = 111.39474 260.13060 202.45968
#
# Poissons Ratio (x) = 0.49779 0.66255
# Poissons Ratio (y) = 0.21317 -0.02337
# Poissons Ratio (z) = 0.36454 -0.03003
#
# Static dielectric constant tensor:
#      x y z
#    x 1.926790 0.000000 0.015230 
#    y 0.000000 1.892110 0.000000 
#    z 0.015230 0.000000 1.893820 
# 
# From -- ./inp_files/33671.got.cif
#   From: 2010.05.17/outbox.cif.g08.bks.cpg/sg12_17_cif.got.tgz:33671.got - 2010.06.03 13:09:07.
