data_PCOD9186019
_publ_section_title
;
Structure prediction by ZEFSAII (Michael W. Deem and Ramdas Pophale) SiO2 
 PCOD9186019
Probable space group: C 2/M
;
_chemical_formula_sum "Si O2"
_cell_formula_units_Z 48
_cell_length_a 10.290808
_cell_length_b 20.402641
_cell_length_c 14.707922
_cell_angle_alpha 90.000000
_cell_angle_beta 127.261200
_cell_angle_gamma 90.000000
_cell_volume 2457.744729
_symmetry_space_group_name_H-M "C 2/M"
_symmetry_group_IT_number 12
_symmetry_cell_setting 'monoclinic'
loop_
_space_group_symop_operation_xyz
x,y,z
-x,y,-z
-x,-y,-z
x,-y,z
1/2+x,1/2+y,z
1/2-x,1/2+y,-z
1/2-x,1/2-y,-z
1/2+x,1/2-y,z
loop_
_atom_site_type_symbol
_atom_site_label
_atom_site_fract_x
_atom_site_fract_y
_atom_site_fract_z
Si Si1 0.221414 0.642470 0.177576
Si Si2 0.017509 0.240614 0.142638
Si Si3 0.246401 0.853384 0.017327
Si Si4 0.013997 0.576342 0.774522
Si Si5 0.420979 0.838718 0.560321
Si Si6 0.060725 0.195660 0.362423
O O1 0.151623 0.717372 0.146679
O O2 0.107648 0.600579 0.195975
O O3 0.403621 0.649034 0.293468
O O4 0.220533 0.622095 0.071980
O O5 0.086493 0.219142 0.269117
O O6 0.871059 0.293342 0.092093
O O7 0.932740 0.177761 0.062354
O O8 0.303456 0.907470 0.112509
O O9 0.991879 0.500000 0.748410
O O10 0.975568 0.618814 0.669281
O O11 0.500000 0.862385 0.500000
O O12 0.224741 0.836795 0.468987
O O13 0.472511 0.762896 0.597778
#
# Coordination Sequence:
#
# PCOD9186019 Si02
#       6
#     8   8   8   8   8   8
#     4  10  19  34  58  91 120 146 179 245 303 348
#     4   9  15  31  51  84 122 139 176 230 296 349
#     4   9  18  31  54  87 117 147 181 230 297 348
#     4  11  23  40  57  82 119 159 202 230 281 355
#     4  11  23  37  56  84 113 161 193 243 285 334
#     4  10  20  35  58  87 122 141 191 245 304 345
#
# _framework density 19.530100000000001
#
# number of rings (size 3 to 8) (size 9 to 14) (size 15 to 20)
#    0.000    2.000    3.333    3.000    2.333    1.667 
#    3.000    1.667    0.000    1.000    0.000   11.667 
#    0.000    0.000    0.000    0.000    0.000    0.000 
#
# Total GULP energy -133958.982907 kJ/mol
# GULP energy per Si atom -5581.624288 kJ/mol
# Density = 1.948565 g / cm^3
# Si number density = 19.530100 Si / 1000 Ang^3
#
#
#
# Elastic Constant Matrix: (Units=GPa)
#
#
# Indices 1 2 3 4 5 6 
#
# 1 31.4627 18.4918 23.6709 0.0000 -16.4354 0.0000
# 2 18.4918 64.7570 36.9762 0.0000 -5.7730 0.0000
# 3 23.6709 36.9762 130.7945 0.0000 -8.1919 0.0000
# 4 0.0000 0.0000 0.0000 8.7404 0.0000 1.2643
# 5 -16.4354 -5.7730 -8.1919 0.0000 35.1580 0.0000
# 6 0.0000 0.0000 0.0000 1.2643 0.0000 12.6276
#
#
#
# Elastic Compliance Matrix: (Units=1/GPa)
#
#
# Indices 1 2 3 4 5 6 
#
# 1 0.053316 -0.010185 -0.005392 0.000000 0.021995 0.000000
# 2 -0.010185 0.020478 -0.004093 0.000000 -0.002352 0.000000
# 3 -0.005392 -0.004093 0.009721 0.000000 -0.000928 0.000000
# 4 0.000000 0.000000 0.000000 0.116092 0.000000 -0.011624
# 5 0.021995 -0.002352 -0.000928 0.000000 0.038123 0.000000
# 6 0.000000 0.000000 0.000000 -0.011624 0.000000 0.080355
#
#
# Mechanical properties :
#
#
# Convention : Reuss Voigt Hill
#
# Bulk Modulus (GPa) = 22.63772 42.81019 32.72396
# Shear Modulus (GPa) = 13.43539 21.16356 17.29948
#
# Velocity S-wave (km/s) = 2.62569 3.29544 2.97944
# Velocity P-wave (km/s) = 4.56166 6.03718 5.35053
#
# Compressibility (1/GPa) = 0.04417406
#
# Stress axis : x y z
#
# Youngs Moduli (GPa) = 18.75599 48.83198 102.87502
#
# Poissons Ratio (x) = 0.49736 0.55471
# Poissons Ratio (y) = 0.19103 0.42111
# Poissons Ratio (z) = 0.10113 0.19989
#
# Static dielectric constant tensor:
#      x y z
#    x 1.731540 0.000000 0.000350 
#    y 0.000000 1.668660 0.000000 
#    z 0.000350 0.000000 1.705440 
# 
# From -- ./inp_files/207357.got.cif
#   From: 2010.05.17/outbox.cif.g08.bks.cpg/sg12_104_cif.got.tgz:207357.got - 2010.06.03 13:09:07.
