data_PCOD9186861
_publ_section_title
;
Structure prediction by ZEFSAII (Michael W. Deem and Ramdas Pophale) SiO2 
 PCOD9186861
Probable space group: C 2/M
;
_chemical_formula_sum "Si O2"
_cell_formula_units_Z 48
_cell_length_a 19.592336
_cell_length_b 13.906824
_cell_length_c 14.700391
_cell_angle_alpha 90.000000
_cell_angle_beta 142.285939
_cell_angle_gamma 90.000000
_cell_volume 2450.172122
_symmetry_space_group_name_H-M "C 2/M"
_symmetry_group_IT_number 12
_symmetry_cell_setting 'monoclinic'
loop_
_space_group_symop_operation_xyz
x,y,z
-x,y,-z
-x,-y,-z
x,-y,z
1/2+x,1/2+y,z
1/2-x,1/2+y,-z
1/2-x,1/2-y,-z
1/2+x,1/2-y,z
loop_
_atom_site_type_symbol
_atom_site_label
_atom_site_fract_x
_atom_site_fract_y
_atom_site_fract_z
Si Si1 0.627530 0.727312 0.909610
Si Si2 0.757353 0.887387 0.827122
Si Si3 0.788442 0.685787 0.409368
Si Si4 0.252405 0.891415 0.567002
Si Si5 0.526045 0.219430 0.626502
Si Si6 0.008475 0.610007 0.901819
O O1 0.549810 0.714522 0.739328
O O2 0.581465 0.816282 0.920438
O O3 0.750000 0.750000 0.000000
O O4 0.648232 0.640935 0.000989
O O5 0.778682 0.841017 0.751115
O O6 0.637974 0.843286 0.732268
O O7 0.746896 0.000000 0.806685
O O8 0.795210 0.801200 0.427600
O O9 0.739282 0.637902 0.447608
O O10 0.917547 0.655027 0.533874
O O11 0.384152 0.889419 0.729481
O O12 0.211959 0.000000 0.542308
O O13 0.500000 0.264849 0.500000
O O14 0.051879 0.500000 0.942138
O O15 0.000000 0.635208 0.000000
#
# Coordination Sequence:
#
# PCOD9186861 Si02
#       6
#     8   8   8   8   8   8
#     4  10  20  36  55  84 121 155 190 245 298 351
#     4  10  21  35  57  85 115 150 191 237 293 353
#     4  10  19  35  56  84 117 148 186 245 291 340
#     4  10  20  33  56  83 111 151 195 238 288 344
#     4   9  19  35  58  84 112 149 189 239 294 343
#     4  10  20  35  58  86 114 152 200 248 296 352
#
# _framework density 19.590461000000001
#
# number of rings (size 3 to 8) (size 9 to 14) (size 15 to 20)
#    0.000    2.167    1.667    1.500    0.000    6.333 
#    0.000    0.833    0.000   15.500    0.000    0.000 
#    0.000    0.000    0.000    0.000    0.000    0.000 
#
# Total GULP energy -133763.230737 kJ/mol
# GULP energy per Si atom -5573.467947 kJ/mol
# Density = 1.954587 g / cm^3
# Si number density = 19.590461 Si / 1000 Ang^3
#
#
#
# Elastic Constant Matrix: (Units=GPa)
#
#
# Indices 1 2 3 4 5 6 
#
# 1 67.3224 36.0820 31.4805 0.0000 -24.6216 0.0000
# 2 36.0820 108.4862 37.9074 0.0000 -19.4969 0.0000
# 3 31.4805 37.9074 104.7524 0.0000 -40.6955 0.0000
# 4 0.0000 0.0000 0.0000 17.0582 0.0000 3.9881
# 5 -24.6216 -19.4969 -40.6955 0.0000 39.2668 0.0000
# 6 0.0000 0.0000 0.0000 3.9881 0.0000 13.0782
#
#
#
# Elastic Compliance Matrix: (Units=1/GPa)
#
#
# Indices 1 2 3 4 5 6 
#
# 1 0.021704 -0.005130 -0.000617 0.000000 0.010422 0.000000
# 2 -0.005130 0.011874 -0.002870 0.000000 -0.000295 0.000000
# 3 -0.000617 -0.002870 0.016851 0.000000 0.015652 0.000000
# 4 0.000000 0.000000 0.000000 0.063123 0.000000 -0.019249
# 5 0.010422 -0.000295 0.015652 0.000000 0.048077 0.000000
# 6 0.000000 0.000000 0.000000 -0.019249 0.000000 0.082333
#
#
# Mechanical properties :
#
#
# Convention : Reuss Voigt Hill
#
# Bulk Modulus (GPa) = 30.12531 54.61119 42.36825
# Shear Modulus (GPa) = 18.36481 25.55338 21.95909
#
# Velocity S-wave (km/s) = 3.06508 3.61554 3.35163
# Velocity P-wave (km/s) = 5.28557 6.73546 6.05407
#
# Compressibility (1/GPa) = 0.03319468
#
# Stress axis : x y z
#
# Youngs Moduli (GPa) = 46.07547 84.22014 59.34325
#
# Poissons Ratio (x) = 0.43203 0.03662
# Poissons Ratio (y) = 0.23636 0.17031
# Poissons Ratio (z) = 0.02843 0.24170
#
# Static dielectric constant tensor:
#      x y z
#    x 1.717570 0.000000 -0.015600 
#    y 0.000000 1.666150 0.000000 
#    z -0.015600 0.000000 1.727740 
# 
# From -- ./inp_files/225086.got.cif
#   From: 2010.05.17/outbox.cif.g08.bks.cpg/sg12_113_cif.got.tgz:225086.got - 2010.06.03 13:09:07.
