data_PCOD9186827
_publ_section_title
;
Structure prediction by ZEFSAII (Michael W. Deem and Ramdas Pophale) SiO2 
 PCOD9186827
Probable space group: C 2/M
;
_chemical_formula_sum "Si O2"
_cell_formula_units_Z 40
_cell_length_a 20.256132
_cell_length_b 21.773877
_cell_length_c 8.903041
_cell_angle_alpha 90.000000
_cell_angle_beta 31.295709
_cell_angle_gamma 90.000000
_cell_volume 2039.758196
_symmetry_space_group_name_H-M "C 2/M"
_symmetry_group_IT_number 12
_symmetry_cell_setting 'monoclinic'
loop_
_space_group_symop_operation_xyz
x,y,z
-x,y,-z
-x,-y,-z
x,-y,z
1/2+x,1/2+y,z
1/2-x,1/2+y,-z
1/2-x,1/2-y,-z
1/2+x,1/2-y,z
loop_
_atom_site_type_symbol
_atom_site_label
_atom_site_fract_x
_atom_site_fract_y
_atom_site_fract_z
Si Si1 0.874216 0.000000 0.847862
Si Si2 0.449224 0.370458 0.767506
Si Si3 0.717116 0.179876 0.373691
Si Si4 0.533179 0.930563 0.762260
Si Si5 0.617130 0.306527 0.664377
Si Si6 0.881969 0.500000 0.845134
O O1 0.887162 0.062773 0.912945
O O2 0.000000 0.000000 0.500000
O O3 0.749220 0.000000 0.987448
O O4 0.500000 0.364561 0.500000
O O5 0.563911 0.358565 0.658884
O O6 0.335899 0.324274 0.030297
O O7 0.619013 0.124679 0.536838
O O8 0.656684 0.247181 0.492569
O O9 0.773218 0.172752 0.434401
O O10 0.593689 0.000000 0.637305
O O11 0.408049 0.941660 0.903089
O O12 0.500000 0.919220 0.000000
O O13 0.500000 0.287731 0.000000
O O14 0.000000 0.500000 0.500000
#
# Coordination Sequence:
#
# PCOD9186827 Si02
#       6
#     4   8   8   8   8   4
#     4  10  22  39  57  81 125 163 187 240 304 360
#     4  10  22  39  56  87 118 154 204 239 292 359
#     4  10  19  37  63  81 117 158 187 252 300 350
#     4   9  20  35  55  89 113 141 198 255 287 347
#     4   9  20  38  58  86 116 154 198 235 301 361
#     4  10  19  35  56  81 116 153 196 240 299 352
#
# _framework density 19.610168999999999
#
# number of rings (size 3 to 8) (size 9 to 14) (size 15 to 20)
#    0.600    1.800    0.000    1.800    1.400    4.000 
#    1.800    4.500    0.000    0.000    0.000    0.000 
#    0.000    0.000    0.000    0.000    0.000    0.000 
#
# Total GULP energy -111438.062010 kJ/mol
# GULP energy per Si atom -5571.903100 kJ/mol
# Density = 1.956554 g / cm^3
# Si number density = 19.610169 Si / 1000 Ang^3
#
#
#
# Elastic Constant Matrix: (Units=GPa)
#
#
# Indices 1 2 3 4 5 6 
#
# 1 96.3024 50.0943 29.4354 -0.0001 -20.2213 0.0000
# 2 50.0943 79.1764 22.9052 0.0000 -15.0339 0.0000
# 3 29.4354 22.9052 50.4659 -0.0001 2.1743 0.0000
# 4 -0.0001 0.0000 -0.0001 24.4948 0.0001 -9.2418
# 5 -20.2213 -15.0339 2.1743 0.0001 37.5723 0.0000
# 6 0.0000 0.0000 0.0000 -9.2418 0.0000 20.4366
#
#
#
# Elastic Compliance Matrix: (Units=1/GPa)
#
#
# Indices 1 2 3 4 5 6 
#
# 1 0.018329 -0.008153 -0.007293 0.000000 0.007024 0.000000
# 2 -0.008153 0.019773 -0.004382 0.000000 0.003778 0.000000
# 3 -0.007293 -0.004382 0.026368 0.000000 -0.007204 0.000000
# 4 0.000000 0.000000 0.000000 0.049224 0.000000 0.022260
# 5 0.007024 0.003778 -0.007204 0.000000 0.032324 0.000000
# 6 0.000000 0.000000 0.000000 0.022260 0.000000 0.058998
#
#
# Mechanical properties :
#
#
# Convention : Reuss Voigt Hill
#
# Bulk Modulus (GPa) = 40.29847 47.86828 44.08338
# Shear Modulus (GPa) = 19.76717 24.73471 22.25094
#
# Velocity S-wave (km/s) = 3.17836 3.55536 3.37213
# Velocity P-wave (km/s) = 5.83641 6.42783 6.13925
#
# Compressibility (1/GPa) = 0.02481484
#
# Stress axis : x y z
#
# Youngs Moduli (GPa) = 54.55791 50.57309 37.92408
#
# Poissons Ratio (x) = 0.41233 0.27658
# Poissons Ratio (y) = 0.44482 0.16618
# Poissons Ratio (z) = 0.39789 0.22161
#
# Static dielectric constant tensor:
#      x y z
#    x 1.705610 0.000000 -0.012720 
#    y 0.000000 1.714010 0.000000 
#    z -0.012720 0.000000 1.743980 
# 
# From -- ./inp_files/90577.got.cif
#   From: 2010.05.17/outbox.cif.g08.bks.cpg/sg12_46_cif.got.tgz:90577.got - 2010.06.03 13:09:07.
