data_PCOD9186220
_publ_section_title
;
Structure prediction by ZEFSAII (Michael W. Deem and Ramdas Pophale) SiO2 
 PCOD9186220
Probable space group: C 2/M
;
_chemical_formula_sum "Si O2"
_cell_formula_units_Z 48
_cell_length_a 5.214077
_cell_length_b 25.438093
_cell_length_c 17.547367
_cell_angle_alpha 90.000000
_cell_angle_beta 106.650448
_cell_angle_gamma 90.000000
_cell_volume 2229.828647
_symmetry_space_group_name_H-M "C 2/M"
_symmetry_group_IT_number 12
_symmetry_cell_setting 'monoclinic'
loop_
_space_group_symop_operation_xyz
x,y,z
-x,y,-z
-x,-y,-z
x,-y,z
1/2+x,1/2+y,z
1/2-x,1/2+y,-z
1/2-x,1/2-y,-z
1/2+x,1/2-y,z
loop_
_atom_site_type_symbol
_atom_site_label
_atom_site_fract_x
_atom_site_fract_y
_atom_site_fract_z
Si Si1 0.452677 0.895565 0.335050
Si Si2 0.475891 0.268166 0.140345
Si Si3 0.941904 0.891914 0.836850
Si Si4 0.018116 0.562140 0.911114
Si Si5 0.027925 0.062126 0.413885
Si Si6 0.384372 0.776357 0.680899
O O1 0.252609 0.907866 0.248652
O O2 0.272759 0.908573 0.393453
O O3 0.533175 0.834470 0.335043
O O4 0.733848 0.926100 0.354614
O O5 0.676462 0.245953 0.096183
O O6 0.516983 0.329225 0.159987
O O7 0.541590 0.234643 0.223702
O O8 0.774184 0.909144 0.896789
O O9 0.233963 0.917610 0.854906
O O10 0.046692 0.500000 0.899179
O O11 0.000000 0.570791 0.000000
O O12 0.000000 0.077342 0.500000
O O13 0.084186 0.000000 0.413939
O O14 0.571400 0.736290 0.649942
#
# Coordination Sequence:
#
# PCOD9186220 Si02
#       6
#     8   8   8   8   8   8
#     4  12  23  38  71 103 121 163 223 273 304 371
#     4  10  19  34  59  95 125 164 196 253 319 389
#     4  12  23  38  71 103 121 163 223 273 304 371
#     4  11  26  46  64  88 134 181 208 253 332 392
#     4  11  26  46  64  88 134 181 208 253 332 392
#     4  10  19  34  59  95 125 164 196 253 319 389
#
# _framework density 21.526316999999999
#
# number of rings (size 3 to 8) (size 9 to 14) (size 15 to 20)
#    0.000    1.000    3.333    5.000    4.667    6.667 
#    0.000    0.000    0.000   20.000    0.000    0.000 
#    0.000    0.000    0.000    0.000    0.000    0.000 
#
# Total GULP energy -134157.488958 kJ/mol
# GULP energy per Si atom -5589.895373 kJ/mol
# Density = 2.147732 g / cm^3
# Si number density = 21.526317 Si / 1000 Ang^3
#
#
#
# Elastic Constant Matrix: (Units=GPa)
#
#
# Indices 1 2 3 4 5 6 
#
# 1 134.9707 7.5225 2.7681 0.0000 -11.4466 0.0000
# 2 7.5225 52.5751 21.6870 0.0000 -21.5952 0.0000
# 3 2.7681 21.6870 34.2451 0.0000 -1.8510 0.0000
# 4 0.0000 0.0000 0.0000 64.0076 0.0000 34.8764
# 5 -11.4466 -21.5952 -1.8510 0.0000 28.7013 0.0000
# 6 0.0000 0.0000 0.0000 34.8764 0.0000 79.0447
#
#
#
# Elastic Compliance Matrix: (Units=1/GPa)
#
#
# Indices 1 2 3 4 5 6 
#
# 1 0.007688 0.000728 -0.000890 0.000000 0.003557 0.000000
# 2 0.000728 0.041293 -0.024600 0.000000 0.029773 0.000000
# 3 -0.000890 -0.024600 0.043986 0.000000 -0.016028 0.000000
# 4 0.000000 0.000000 0.000000 0.020568 0.000000 -0.009075
# 5 0.003557 0.029773 -0.016028 0.000000 0.057628 0.000000
# 6 0.000000 0.000000 0.000000 -0.009075 0.000000 0.016655
#
#
# Mechanical properties :
#
#
# Convention : Reuss Voigt Hill
#
# Bulk Modulus (GPa) = 23.01881 31.74957 27.38419
# Shear Modulus (GPa) = 19.85521 47.00496 33.43009
#
# Velocity S-wave (km/s) = 3.04035 4.67797 3.94507
# Velocity P-wave (km/s) = 4.80016 6.63017 5.78795
#
# Compressibility (1/GPa) = 0.04344274
#
# Stress axis : x y z
#
# Youngs Moduli (GPa) = 130.06729 24.21727 22.73468
#
# Poissons Ratio (x) = -0.01763 0.02024
# Poissons Ratio (y) = -0.09470 0.55927
# Poissons Ratio (z) = 0.11580 0.59574
#
# Static dielectric constant tensor:
#      x y z
#    x 1.861790 0.000000 -0.008170 
#    y 0.000000 1.750130 0.000000 
#    z -0.008170 0.000000 1.820370 
# 
# From -- ./inp_files/253246.got.cif
#   From: 2010.05.17/outbox.cif.g08.bks.cpg/sg12_127_cif.got.tgz:253246.got - 2010.06.03 13:09:07.
