data_PCOD9186088
_publ_section_title
;
Structure prediction by ZEFSAII (Michael W. Deem and Ramdas Pophale) SiO2 
 PCOD9186088
Probable space group: C 2/M
;
_chemical_formula_sum "Si O2"
_cell_formula_units_Z 56
_cell_length_a 20.966552
_cell_length_b 8.516686
_cell_length_c 33.365795
_cell_angle_alpha 90.000000
_cell_angle_beta 150.879471
_cell_angle_gamma 90.000000
_cell_volume 2899.442140
_symmetry_space_group_name_H-M "C 2/M"
_symmetry_group_IT_number 12
_symmetry_cell_setting 'monoclinic'
loop_
_space_group_symop_operation_xyz
x,y,z
-x,y,-z
-x,-y,-z
x,-y,z
1/2+x,1/2+y,z
1/2-x,1/2+y,-z
1/2-x,1/2-y,-z
1/2+x,1/2-y,z
loop_
_atom_site_type_symbol
_atom_site_label
_atom_site_fract_x
_atom_site_fract_y
_atom_site_fract_z
Si Si1 0.660958 0.809814 0.344866
Si Si2 0.874683 0.188295 0.309981
Si Si3 0.113498 0.808515 0.031912
Si Si4 0.660716 0.813196 0.487357
Si Si5 0.389192 0.688365 0.061227
Si Si6 0.124945 0.310363 0.779653
Si Si7 0.853898 0.310310 0.755233
O O1 0.770704 0.739687 0.433966
O O2 0.517308 0.761190 0.282159
O O3 0.674178 0.762323 0.305856
O O4 0.667964 0.000000 0.351047
O O5 0.854499 0.250869 0.254029
O O6 0.759227 0.242105 0.276269
O O7 0.015350 0.245841 0.402634
O O8 0.874533 0.000000 0.308977
O O9 0.255496 0.758895 0.126366
O O10 0.112287 0.000000 0.031334
O O11 0.090210 0.758262 0.973525
O O12 0.000000 0.756084 0.000000
O O13 0.750000 0.750000 0.500000
O O14 0.655747 0.000000 0.481941
O O15 0.388055 0.500000 0.061076
O O16 0.506692 0.749125 0.153185
O O17 0.250000 0.750000 0.000000
O O18 0.125492 0.500000 0.779251
O O19 0.857852 0.500000 0.757852
#
# Coordination Sequence:
#
# PCOD9186088 Si02
#       7
#     8   8   8   8   8   8   8
#     4  10  21  39  62  86 117 158 203 245 292 354
#     4  11  23  39  61  89 124 160 196 245 304 359
#     4   9  18  33  55  84 115 151 198 246 293 348
#     4  12  24  40  63  91 121 154 198 246 299 358
#     4  11  22  38  62  88 119 160 203 251 303 359
#     4  10  19  34  59  85 112 153 203 250 295 351
#     4  10  23  42  62  88 123 162 201 244 299 362
#
# _framework density 19.314060000000001
#
# number of rings (size 3 to 8) (size 9 to 14) (size 15 to 20)
#    0.000    1.571    1.429    3.857    0.000    5.714 
#    0.000    5.714    0.000    3.857    0.000    0.000 
#    0.000    0.000    0.000    0.000    0.000    0.000 
#
# Total GULP energy -156536.680292 kJ/mol
# GULP energy per Si atom -5590.595725 kJ/mol
# Density = 1.927010 g / cm^3
# Si number density = 19.314060 Si / 1000 Ang^3
#
#
#
# Elastic Constant Matrix: (Units=GPa)
#
#
# Indices 1 2 3 4 5 6 
#
# 1 92.3516 2.9556 7.0132 -0.0001 -12.5396 0.0002
# 2 2.9556 9.5362 -0.6661 0.0001 -2.7014 0.0000
# 3 7.0132 -0.6661 93.7287 -0.0001 -13.1875 0.0003
# 4 -0.0001 0.0001 -0.0001 28.9775 0.0000 -4.2798
# 5 -12.5396 -2.7014 -13.1875 0.0000 39.7926 0.0000
# 6 0.0002 0.0000 0.0003 -4.2798 0.0000 26.1237
#
#
#
# Elastic Compliance Matrix: (Units=1/GPa)
#
#
# Indices 1 2 3 4 5 6 
#
# 1 0.011388 -0.002631 -0.000410 0.000000 0.003274 0.000000
# 2 -0.002631 0.107840 0.001968 0.000000 0.007144 0.000000
# 3 -0.000410 0.001968 0.011238 0.000000 0.003729 0.000000
# 4 0.000000 0.000000 0.000000 0.035365 0.000000 0.005794
# 5 0.003274 0.007144 0.003729 0.000000 0.027883 0.000000
# 6 0.000000 0.000000 0.000000 0.005794 0.000000 0.039229
#
#
# Mechanical properties :
#
#
# Convention : Reuss Voigt Hill
#
# Bulk Modulus (GPa) = 7.79292 23.80245 15.79768
# Shear Modulus (GPa) = 17.99454 31.39967 24.69711
#
# Velocity S-wave (km/s) = 3.05566 4.03642 3.57979
# Velocity P-wave (km/s) = 4.06115 5.83732 5.02828
#
# Compressibility (1/GPa) = 0.12832161
#
# Stress axis : x y z
#
# Youngs Moduli (GPa) = 87.81100 9.27299 88.98052
#
# Poissons Ratio (x) = 0.02439 0.03649
# Poissons Ratio (y) = 0.23101 -0.17515
# Poissons Ratio (z) = 0.03602 -0.01825
#
# Static dielectric constant tensor:
#      x y z
#    x 1.657450 0.000000 -0.002380 
#    y 0.000000 1.663150 0.000000 
#    z -0.002380 0.000000 1.637200 
# 
# From -- ./inp_files/380744.got.cif
#   From: 2010.05.17/outbox.cif.g08.bks.cpg/sg12_191_cif.got.tgz:380744.got - 2010.06.03 13:09:07.
