data_PCOD9186116
_publ_section_title
;
Structure prediction by ZEFSAII (Michael W. Deem and Ramdas Pophale) SiO2 
 PCOD9186116
Probable space group: C 2/M
;
_chemical_formula_sum "Si O2"
_cell_formula_units_Z 64
_cell_length_a 14.054705
_cell_length_b 13.124668
_cell_length_c 19.217473
_cell_angle_alpha 90.000000
_cell_angle_beta 90.136030
_cell_angle_gamma 90.000000
_cell_volume 3544.909207
_symmetry_space_group_name_H-M "C 2/M"
_symmetry_group_IT_number 12
_symmetry_cell_setting 'monoclinic'
loop_
_space_group_symop_operation_xyz
x,y,z
-x,y,-z
-x,-y,-z
x,-y,z
1/2+x,1/2+y,z
1/2-x,1/2+y,-z
1/2-x,1/2-y,-z
1/2+x,1/2-y,z
loop_
_atom_site_type_symbol
_atom_site_label
_atom_site_fract_x
_atom_site_fract_y
_atom_site_fract_z
Si Si1 0.135211 0.263986 0.161326
Si Si2 0.893350 0.882763 0.969437
Si Si3 0.327302 0.679126 0.591715
Si Si4 0.228293 0.884450 0.562343
Si Si5 0.031420 0.120113 0.645725
Si Si6 0.254284 0.117845 0.261986
Si Si7 0.064504 0.258867 0.780437
Si Si8 0.313882 0.381719 0.117717
O O1 0.121501 0.195430 0.092607
O O2 0.183432 0.190371 0.218664
O O3 0.209310 0.352734 0.143840
O O4 0.034075 0.300451 0.189625
O O5 0.879984 0.000000 0.945583
O O6 0.825272 0.863787 0.035349
O O7 0.000000 0.874834 0.000000
O O8 0.302079 0.798844 0.587100
O O9 0.292096 0.630964 0.519433
O O10 0.438358 0.657111 0.604151
O O11 0.270915 0.633509 0.657229
O O12 0.128013 0.867792 0.601680
O O13 0.259645 0.000000 0.576169
O O14 0.041984 0.184922 0.715726
O O15 0.019404 0.000000 0.661215
O O16 0.359840 0.157284 0.244201
O O17 0.241904 0.000000 0.243213
O O18 0.114494 0.190568 0.840029
O O19 0.336868 0.500000 0.130637
#
# Coordination Sequence:
#
# PCOD9186116 Si02
#       8
#     8   8   8   8   8   8   8   8
#     4  11  22  37  60  82 114 149 190 229 277 334
#     4  10  19  34  59  87 112 142 185 235 281 324
#     4  11  21  37  62  85 113 145 195 234 280 337
#     4  10  22  39  60  84 115 149 186 235 286 335
#     4  11  21  36  59  85 113 147 190 235 281 331
#     4  11  23  38  57  83 114 150 190 233 283 335
#     4  11  22  37  55  85 115 147 186 235 277 333
#     4  10  22  38  58  84 113 148 188 229 279 333
#
# _framework density 18.054058999999999
#
# number of rings (size 3 to 8) (size 9 to 14) (size 15 to 20)
#    0.000    1.375    3.750    2.625    0.000    2.500 
#    0.000    0.625    0.000    1.875    0.000    0.000 
#    0.000    0.000    0.000    0.000    0.000    0.000 
#
# Total GULP energy -178765.025701 kJ/mol
# GULP energy per Si atom -5586.407053 kJ/mol
# Density = 1.801297 g / cm^3
# Si number density = 18.054059 Si / 1000 Ang^3
#
#
#
# Elastic Constant Matrix: (Units=GPa)
#
#
# Indices 1 2 3 4 5 6 
#
# 1 61.0003 -4.2609 -2.1067 0.0000 -14.9978 0.0000
# 2 -4.2609 33.7825 -12.0099 0.0000 -9.5235 0.0000
# 3 -2.1067 -12.0099 51.9423 0.0000 -14.0771 0.0000
# 4 0.0000 0.0000 0.0000 12.8861 0.0000 -3.6495
# 5 -14.9978 -9.5235 -14.0771 0.0000 27.5648 0.0000
# 6 0.0000 0.0000 0.0000 -3.6495 0.0000 18.5560
#
#
#
# Elastic Compliance Matrix: (Units=1/GPa)
#
#
# Indices 1 2 3 4 5 6 
#
# 1 0.022951 0.012483 0.009715 0.000000 0.021762 0.000000
# 2 0.012483 0.048231 0.020909 0.000000 0.034134 0.000000
# 3 0.009715 0.020909 0.032348 0.000000 0.029030 0.000000
# 4 0.000000 0.000000 0.000000 0.082181 0.000000 0.016163
# 5 0.021762 0.034134 0.029030 0.000000 0.074737 0.000000
# 6 0.000000 0.000000 0.000000 0.016163 0.000000 0.057070
#
#
# Mechanical properties :
#
#
# Convention : Reuss Voigt Hill
#
# Bulk Modulus (GPa) = 5.27023 12.21891 8.74457
# Shear Modulus (GPa) = 16.97494 22.80822 19.89158
#
# Velocity S-wave (km/s) = 3.06964 3.55819 3.32291
# Velocity P-wave (km/s) = 3.93562 4.86453 4.42452
#
# Compressibility (1/GPa) = 0.18974495
#
# Stress axis : x y z
#
# Youngs Moduli (GPa) = 43.57049 20.73344 30.91375
#
# Poissons Ratio (x) = -0.25882 -0.30033
# Poissons Ratio (y) = -0.54390 -0.64637
# Poissons Ratio (z) = -0.42329 -0.43351
#
# Static dielectric constant tensor:
#      x y z
#    x 1.612210 0.000000 -0.014760 
#    y 0.000000 1.592000 0.000000 
#    z -0.014760 0.000000 1.607770 
# 
# From -- ./inp_files/269322.got.cif
#   From: 2010.05.17/outbox.cif.g08.bks.cpg/sg12_135_cif.got.tgz:269322.got - 2010.06.03 13:09:07.
