data_PCOD9186480
_publ_section_title
;
Structure prediction by ZEFSAII (Michael W. Deem and Ramdas Pophale) SiO2 
 PCOD9186480
Probable space group: C 2/M
;
_chemical_formula_sum "Si O2"
_cell_formula_units_Z 64
_cell_length_a 9.098313
_cell_length_b 26.599903
_cell_length_c 14.664391
_cell_angle_alpha 90.000000
_cell_angle_beta 82.190688
_cell_angle_gamma 90.000000
_cell_volume 3516.077328
_symmetry_space_group_name_H-M "C 2/M"
_symmetry_group_IT_number 12
_symmetry_cell_setting 'monoclinic'
loop_
_space_group_symop_operation_xyz
x,y,z
-x,y,-z
-x,-y,-z
x,-y,z
1/2+x,1/2+y,z
1/2-x,1/2+y,-z
1/2-x,1/2-y,-z
1/2+x,1/2-y,z
loop_
_atom_site_type_symbol
_atom_site_label
_atom_site_fract_x
_atom_site_fract_y
_atom_site_fract_z
Si Si1 0.972037 0.149176 0.280305
Si Si2 0.562724 0.298100 0.093522
Si Si3 0.939010 0.941564 0.403824
Si Si4 0.913564 0.557168 0.602558
Si Si5 0.919627 0.649291 0.327047
Si Si6 0.201232 0.286742 0.325881
Si Si7 0.649947 0.212971 0.833431
Si Si8 0.857488 0.195179 0.575811
O O1 0.004921 0.095154 0.321129
O O2 0.804921 0.164653 0.319561
O O3 0.004200 0.161568 0.173169
O O4 0.069093 0.187998 0.330452
O O5 0.496742 0.242803 0.124032
O O6 0.739506 0.297063 0.092190
O O7 0.500000 0.310603 0.000000
O O8 0.760862 0.936969 0.407270
O O9 0.000000 0.927793 0.500000
O O10 0.978532 0.000000 0.386699
O O11 0.931956 0.500000 0.636477
O O12 0.000000 0.561237 0.500000
O O13 0.991471 0.598159 0.661477
O O14 0.871627 0.663238 0.227286
O O15 0.780818 0.656764 0.408185
O O16 0.034583 0.694555 0.334102
O O17 0.268106 0.254330 0.237542
O O18 0.208504 0.251134 0.412843
O O19 0.000000 0.188355 0.500000
#
# Coordination Sequence:
#
# PCOD9186480 Si02
#       8
#     8   8   8   8   8   8   8   8
#     4  11  21  36  55  80 113 145 190 231 282 330
#     4  11  21  35  57  82 118 154 187 231 278 336
#     4  10  22  40  62  84 109 145 191 240 285 330
#     4  10  23  39  54  80 110 144 194 240 281 330
#     4  11  20  36  57  74 110 151 188 229 284 328
#     4  10  19  35  52  76 110 148 186 227 274 326
#     4  10  19  36  54  82 113 148 190 229 273 335
#     4  11  23  33  50  78 111 151 189 226 266 335
#
# _framework density 18.202103999999999
#
# number of rings (size 3 to 8) (size 9 to 14) (size 15 to 20)
#    0.000    1.500    5.000    2.250    3.500    2.500 
#    0.000    0.000    0.000    0.750    0.000    0.000 
#    0.000    2.500    0.000    0.000    0.000    0.000 
#
# Total GULP energy -178344.637375 kJ/mol
# GULP energy per Si atom -5573.269918 kJ/mol
# Density = 1.816068 g / cm^3
# Si number density = 18.202104 Si / 1000 Ang^3
#
#
#
# Elastic Constant Matrix: (Units=GPa)
#
#
# Indices 1 2 3 4 5 6 
#
# 1 70.9161 8.4729 10.5690 0.0000 10.2883 0.0000
# 2 8.4729 85.7521 31.6496 0.0000 13.1048 0.0000
# 3 10.5690 31.6496 81.9393 0.0000 23.7290 0.0000
# 4 0.0000 0.0000 0.0000 13.2618 0.0000 6.8659
# 5 10.2883 13.1048 23.7290 0.0000 28.9435 0.0000
# 6 0.0000 0.0000 0.0000 6.8659 0.0000 23.9822
#
#
#
# Elastic Compliance Matrix: (Units=1/GPa)
#
#
# Indices 1 2 3 4 5 6 
#
# 1 0.014913 -0.000635 -0.000297 0.000000 -0.004770 0.000000
# 2 -0.000635 0.013759 -0.004582 0.000000 -0.002248 0.000000
# 3 -0.000297 -0.004582 0.017547 0.000000 -0.012206 0.000000
# 4 0.000000 0.000000 0.000000 0.088525 0.000000 -0.025344
# 5 -0.004770 -0.002248 -0.012206 0.000000 0.047270 0.000000
# 6 0.000000 0.000000 0.000000 -0.025344 0.000000 0.048953
#
#
# Mechanical properties :
#
#
# Convention : Reuss Voigt Hill
#
# Bulk Modulus (GPa) = 28.41565 37.77671 33.09618
# Shear Modulus (GPa) = 19.70636 25.76522 22.73579
#
# Velocity S-wave (km/s) = 3.29392 3.76641 3.53806
# Velocity P-wave (km/s) = 5.48741 6.30186 5.90869
#
# Compressibility (1/GPa) = 0.03519187
#
# Stress axis : x y z
#
# Youngs Moduli (GPa) = 67.05414 72.68103 56.99056
#
# Poissons Ratio (x) = 0.04615 0.01692
# Poissons Ratio (y) = 0.04258 0.26111
# Poissons Ratio (z) = 0.01991 0.33299
#
# Static dielectric constant tensor:
#      x y z
#    x 1.724010 0.000000 0.003930 
#    y 0.000000 1.652510 0.000000 
#    z 0.003930 0.000000 1.644520 
# 
# From -- ./inp_files/199805.got.cif
#   From: 2010.05.17/outbox.cif.g08.bks.cpg/sg12_100_cif.got.tgz:199805.got - 2010.06.03 13:09:07.
