data_PCOD9186022
_publ_section_title
;
Structure prediction by ZEFSAII (Michael W. Deem and Ramdas Pophale) SiO2 
 PCOD9186022
Probable space group: C 2/M
;
_chemical_formula_sum "Si O2"
_cell_formula_units_Z 48
_cell_length_a 10.242992
_cell_length_b 18.763147
_cell_length_c 14.082206
_cell_angle_alpha 90.000000
_cell_angle_beta 130.312311
_cell_angle_gamma 90.000000
_cell_volume 2063.762731
_symmetry_space_group_name_H-M "C 2/M"
_symmetry_group_IT_number 12
_symmetry_cell_setting 'monoclinic'
loop_
_space_group_symop_operation_xyz
x,y,z
-x,y,-z
-x,-y,-z
x,-y,z
1/2+x,1/2+y,z
1/2-x,1/2+y,-z
1/2-x,1/2-y,-z
1/2+x,1/2-y,z
loop_
_atom_site_type_symbol
_atom_site_label
_atom_site_fract_x
_atom_site_fract_y
_atom_site_fract_z
Si Si1 0.934392 0.580451 0.228089
Si Si2 0.913931 0.115062 0.868624
Si Si3 0.378217 0.719874 0.637330
Si Si4 0.730159 0.833464 0.022571
Si Si5 0.721826 0.230739 0.206347
Si Si6 0.163963 0.415670 0.510405
O O1 0.962809 0.500000 0.208252
O O2 0.771586 0.579309 0.225352
O O3 0.154002 0.736699 0.281040
O O4 0.095159 0.600368 0.370818
O O5 0.851162 0.194571 0.865859
O O6 0.081591 0.129326 0.884230
O O7 0.000000 0.079222 0.000000
O O8 0.250000 0.750000 0.500000
O O9 0.572594 0.729569 0.696475
O O10 0.314187 0.637494 0.614439
O O11 0.672721 0.828109 0.105562
O O12 0.750000 0.750000 0.000000
O O13 0.619444 0.873486 0.889693
O O14 0.207857 0.500000 0.535626
O O15 0.000000 0.402180 0.500000
#
# Coordination Sequence:
#
# PCOD9186022 Si02
#       6
#     8   8   8   8   8   8
#     4  10  21  38  62  94 136 176 222 279 338 398
#     4  10  19  34  58  91 128 167 214 259 332 384
#     4  12  25  40  68 100 134 171 228 278 332 397
#     4  11  22  36  61  94 132 174 214 268 336 395
#     4  12  23  40  63  97 136 172 216 279 334 396
#     4  10  22  41  65  95 133 178 225 283 338 390
#
# _framework density 23.258488
#
# number of rings (size 3 to 8) (size 9 to 14) (size 15 to 20)
#    0.000    1.167    5.000    3.500    0.000    3.000 
#    0.000    0.833    0.000    3.000    0.000   16.333 
#    0.000    0.000    0.000    0.000    0.000    0.000 
#
# Total GULP energy -133849.387664 kJ/mol
# GULP energy per Si atom -5577.057819 kJ/mol
# Density = 2.320555 g / cm^3
# Si number density = 23.258488 Si / 1000 Ang^3
#
#
#
# Elastic Constant Matrix: (Units=GPa)
#
#
# Indices 1 2 3 4 5 6 
#
# 1 45.1461 46.1943 34.6603 0.0000 -10.7232 0.0000
# 2 46.1943 117.2020 50.2838 0.0000 -11.2358 0.0000
# 3 34.6603 50.2838 172.3906 0.0000 1.8023 0.0000
# 4 0.0000 0.0000 0.0000 20.3467 0.0000 -1.9157
# 5 -10.7232 -11.2358 1.8023 0.0000 50.8976 0.0000
# 6 0.0000 0.0000 0.0000 -1.9157 0.0000 23.7382
#
#
#
# Elastic Compliance Matrix: (Units=1/GPa)
#
#
# Indices 1 2 3 4 5 6 
#
# 1 0.040809 -0.013705 -0.004267 0.000000 0.005723 0.000000
# 2 -0.013705 0.014621 -0.001513 0.000000 0.000394 0.000000
# 3 -0.004267 -0.001513 0.007116 0.000000 -0.001485 0.000000
# 4 0.000000 0.000000 0.000000 0.049524 0.000000 0.003997
# 5 0.005723 0.000394 -0.001485 0.000000 0.020993 0.000000
# 6 0.000000 0.000000 0.000000 0.003997 0.000000 0.042449
#
#
# Mechanical properties :
#
#
# Convention : Reuss Voigt Hill
#
# Bulk Modulus (GPa) = 42.41873 66.33506 54.37689
# Shear Modulus (GPa) = 22.48797 32.56986 27.52891
#
# Velocity S-wave (km/s) = 3.11283 3.74618 3.44409
# Velocity P-wave (km/s) = 5.58544 6.87710 6.26465
#
# Compressibility (1/GPa) = 0.02357449
#
# Stress axis : x y z
#
# Youngs Moduli (GPa) = 24.50432 68.39429 140.53469
#
# Poissons Ratio (x) = 0.93735 0.59969
# Poissons Ratio (y) = 0.33584 0.21268
# Poissons Ratio (z) = 0.10456 0.10351
#
# Static dielectric constant tensor:
#      x y z
#    x 2.050820 0.000000 -0.015720 
#    y 0.000000 1.913100 0.000000 
#    z -0.015720 0.000000 1.929650 
# 
# From -- ./inp_files/361300.got.cif
#   From: 2010.05.17/outbox.cif.g08.bks.cpg/sg12_181_cif.got.tgz:361300.got - 2010.06.03 13:09:07.
