data_PCOD9186456
_publ_section_title
;
Structure prediction by ZEFSAII (Michael W. Deem and Ramdas Pophale) SiO2 
 PCOD9186456
Probable space group: C 2/M
;
_chemical_formula_sum "Si O2"
_cell_formula_units_Z 64
_cell_length_a 10.045094
_cell_length_b 27.352387
_cell_length_c 15.719137
_cell_angle_alpha 90.000000
_cell_angle_beta 114.926884
_cell_angle_gamma 90.000000
_cell_volume 3916.621919
_symmetry_space_group_name_H-M "C 2/M"
_symmetry_group_IT_number 12
_symmetry_cell_setting 'monoclinic'
loop_
_space_group_symop_operation_xyz
x,y,z
-x,y,-z
-x,-y,-z
x,-y,z
1/2+x,1/2+y,z
1/2-x,1/2+y,-z
1/2-x,1/2-y,-z
1/2+x,1/2-y,z
loop_
_atom_site_type_symbol
_atom_site_label
_atom_site_fract_x
_atom_site_fract_y
_atom_site_fract_z
Si Si1 0.095846 0.309857 0.443278
Si Si2 0.915852 0.103439 0.321317
Si Si3 0.875177 0.559182 0.082962
Si Si4 0.288136 0.059164 0.873638
Si Si5 0.850933 0.443498 0.260119
Si Si6 0.729604 0.442136 0.406036
Si Si7 0.845118 0.593941 0.615844
Si Si8 0.562614 0.699525 0.421737
O O1 0.089788 0.351448 0.370840
O O2 0.263518 0.308784 0.522159
O O3 0.048151 0.256730 0.395728
O O4 0.000000 0.321318 0.500000
O O5 0.830103 0.088168 0.213238
O O6 0.800687 0.094101 0.366771
O O7 0.058335 0.069561 0.369113
O O8 0.979185 0.158782 0.344102
O O9 0.871026 0.500000 0.085481
O O10 0.816766 0.578080 0.157837
O O11 0.047399 0.570984 0.115667
O O12 0.789298 0.572355 0.973942
O O13 0.267366 0.000000 0.859647
O O14 0.802435 0.500000 0.245887
O O15 0.785381 0.422143 0.329782
O O16 0.027305 0.440743 0.315535
O O17 0.757329 0.500000 0.415359
O O18 0.809679 0.419873 0.509219
O O19 0.500000 0.693675 0.500000
#
# Coordination Sequence:
#
# PCOD9186456 Si02
#       8
#     8   8   8   8   8   8   8   8
#     4  10  20  33  53  69  94 134 173 209 248 289
#     4  12  21  33  49  74 104 132 168 207 258 302
#     4   8  15  31  52  73  97 129 173 219 249 282
#     4   9  17  30  51  76 101 131 170 212 252 293
#     4  10  20  34  50  71 101 137 176 209 240 288
#     4  11  23  33  44  70 109 142 168 200 245 300
#     4  12  21  33  50  72  99 139 175 201 242 300
#     4  10  19  35  49  71 101 130 165 211 252 296
#
# _framework density 16.340612
#
# number of rings (size 3 to 8) (size 9 to 14) (size 15 to 20)
#    0.000    1.750    3.750    3.000    0.000    3.000 
#    0.000    0.625    0.000    3.000    0.000    0.875 
#    0.000    0.000    0.000    0.250    0.000    0.000 
#
# Total GULP energy -178339.032307 kJ/mol
# GULP energy per Si atom -5573.094760 kJ/mol
# Density = 1.630342 g / cm^3
# Si number density = 16.340612 Si / 1000 Ang^3
#
#
#
# Elastic Constant Matrix: (Units=GPa)
#
#
# Indices 1 2 3 4 5 6 
#
# 1 83.6991 8.5583 18.0967 0.0000 -16.6682 0.0000
# 2 8.5583 46.0296 36.6304 0.0000 1.9296 0.0000
# 3 18.0967 36.6304 99.3379 0.0000 -17.1720 0.0000
# 4 0.0000 0.0000 0.0000 14.6665 0.0000 4.1354
# 5 -16.6682 1.9296 -17.1720 0.0000 24.6003 0.0000
# 6 0.0000 0.0000 0.0000 4.1354 0.0000 22.4760
#
#
#
# Elastic Compliance Matrix: (Units=1/GPa)
#
#
# Indices 1 2 3 4 5 6 
#
# 1 0.014239 -0.003421 0.000434 0.000000 0.010219 0.000000
# 2 -0.003421 0.034874 -0.014909 0.000000 -0.015461 0.000000
# 3 0.000434 -0.014909 0.017898 0.000000 0.013957 0.000000
# 4 0.000000 0.000000 0.000000 0.071913 0.000000 -0.013231
# 5 0.010219 -0.015461 0.013957 0.000000 0.058529 0.000000
# 6 0.000000 0.000000 0.000000 -0.013231 0.000000 0.046926
#
#
# Mechanical properties :
#
#
# Convention : Reuss Voigt Hill
#
# Bulk Modulus (GPa) = 32.03253 39.51527 35.77390
# Shear Modulus (GPa) = 17.20714 23.40065 20.30390
#
# Velocity S-wave (km/s) = 3.24856 3.78836 3.52879
# Velocity P-wave (km/s) = 5.80659 6.58561 6.20833
#
# Compressibility (1/GPa) = 0.03121826
#
# Stress axis : x y z
#
# Youngs Moduli (GPa) = 70.23182 28.67470 55.87268
#
# Poissons Ratio (x) = 0.09811 -0.02426
# Poissons Ratio (y) = 0.24029 0.83300
# Poissons Ratio (z) = -0.03050 0.42751
#
# Static dielectric constant tensor:
#      x y z
#    x 1.578750 0.000000 -0.018600 
#    y 0.000000 1.586720 0.000000 
#    z -0.018600 0.000000 1.556140 
# 
# From -- ./inp_files/200949.got.cif
#   From: 2010.05.17/outbox.cif.g08.bks.cpg/sg12_101_cif.got.tgz:200949.got - 2010.06.03 13:09:07.
