data_PCOD9186249
_publ_section_title
;
Structure prediction by ZEFSAII (Michael W. Deem and Ramdas Pophale) SiO2 
 PCOD9186249
Probable space group: C 2/M
;
_chemical_formula_sum "Si O2"
_cell_formula_units_Z 52
_cell_length_a 12.728361
_cell_length_b 18.444037
_cell_length_c 12.554060
_cell_angle_alpha 90.000000
_cell_angle_beta 68.800744
_cell_angle_gamma 90.000000
_cell_volume 2747.777909
_symmetry_space_group_name_H-M "C 2/M"
_symmetry_group_IT_number 12
_symmetry_cell_setting 'monoclinic'
loop_
_space_group_symop_operation_xyz
x,y,z
-x,y,-z
-x,-y,-z
x,-y,z
1/2+x,1/2+y,z
1/2-x,1/2+y,-z
1/2-x,1/2-y,-z
1/2+x,1/2-y,z
loop_
_atom_site_type_symbol
_atom_site_label
_atom_site_fract_x
_atom_site_fract_y
_atom_site_fract_z
Si Si1 0.024127 0.578360 0.241539
Si Si2 0.307645 0.165502 0.297110
Si Si3 0.500000 0.893103 0.500000
Si Si4 0.347105 0.685313 0.847518
Si Si5 0.249235 0.152939 0.896010
Si Si6 0.885784 0.826878 0.268358
Si Si7 0.263718 0.087554 0.527270
O O1 0.992207 0.500000 0.210845
O O2 0.151745 0.596746 0.165730
O O3 0.933766 0.635441 0.231629
O O4 0.011346 0.576162 0.375159
O O5 0.227969 0.160175 0.224400
O O6 0.327861 0.249701 0.319638
O O7 0.256471 0.116487 0.410035
O O8 0.628813 0.867026 0.464874
O O9 0.313218 0.769554 0.874533
O O10 0.479887 0.679636 0.778814
O O11 0.310718 0.644529 0.968650
O O12 0.159529 0.155365 0.833305
O O13 0.841736 0.888230 0.364578
O O14 0.284087 0.000000 0.526315
#
# Coordination Sequence:
#
# PCOD9186249 Si02
#       7
#     8   8   4   8   8   8   8
#     4  11  20  37  62  91 122 153 203 254 302 349
#     4  10  22  38  58  91 120 159 202 246 303 360
#     4  10  19  34  60  86 118 154 193 250 299 348
#     4  10  22  40  59  84 125 161 200 248 299 361
#     4  10  21  38  62  89 116 158 206 253 298 348
#     4  11  21  38  63  91 118 159 204 251 298 360
#     4  11  22  37  59  88 122 158 197 247 307 359
#
# _framework density 18.924382999999999
#
# number of rings (size 3 to 8) (size 9 to 14) (size 15 to 20)
#    0.000    1.538    3.077    3.692    0.000    1.231 
#    0.000    5.385    0.000    1.846    0.000    0.000 
#    0.000    0.000    0.000    0.000    0.000    0.000 
#
# Total GULP energy -144801.147453 kJ/mol
# GULP energy per Si atom -5569.274902 kJ/mol
# Density = 1.888131 g / cm^3
# Si number density = 18.924383 Si / 1000 Ang^3
#
#
#
# Elastic Constant Matrix: (Units=GPa)
#
#
# Indices 1 2 3 4 5 6 
#
# 1 123.1529 25.1918 58.6124 0.0000 -3.8953 0.0000
# 2 25.1918 58.8549 27.0212 0.0000 5.7453 0.0000
# 3 58.6124 27.0212 83.5928 0.0000 -5.9752 0.0000
# 4 0.0000 0.0000 0.0000 -60.3530 0.0000 -21.2071
# 5 -3.8953 5.7453 -5.9752 0.0000 21.7079 0.0000
# 6 0.0000 0.0000 0.0000 -21.2071 0.0000 -4.3406
#
#
#
# Elastic Compliance Matrix: (Units=1/GPa)
#
#
# Indices 1 2 3 4 5 6 
#
# 1 0.012307 -0.001596 -0.008084 0.000000 0.000405 0.000000
# 2 -0.001596 0.021326 -0.006323 0.000000 -0.007671 0.000000
# 3 -0.008084 -0.006323 0.020086 0.000000 0.005752 0.000000
# 4 0.000000 0.000000 0.000000 0.023116 0.000000 -0.112940
# 5 0.000405 -0.007671 0.005752 0.000000 0.049752 0.000000
# 6 0.000000 0.000000 0.000000 -0.112940 0.000000 0.321412
#
#
# Mechanical properties :
#
#
# Convention : Reuss Voigt Hill
#
# Bulk Modulus (GPa) = 46.05579 54.13906 50.09742
# Shear Modulus (GPa) = 10.26182 1.72121 5.99151
#
# Velocity S-wave (km/s) = 2.33116 0.95472 1.78126
# Velocity P-wave (km/s) = 5.62453 5.46677 5.54621
#
# Compressibility (1/GPa) = 0.02171280
#
# Stress axis : x y z
#
# Youngs Moduli (GPa) = 81.25583 46.89163 49.78528
#
# Poissons Ratio (x) = 0.07482 0.40248
# Poissons Ratio (y) = 0.12966 0.31479
# Poissons Ratio (z) = 0.65690 0.29650
#
# Static dielectric constant tensor:
#      x y z
#    x 1.640860 0.000000 -0.007230 
#    y 0.000000 1.676270 0.000000 
#    z -0.007230 0.000000 1.665250 
# 
# From -- ./inp_files/133074.got.cif
#   From: 2010.05.17/outbox.cif.g08.bks.cpg/sg12_67_cif.got.tgz:133074.got - 2010.06.03 13:09:07.
