data_PCOD9186820
_publ_section_title
;
Structure prediction by ZEFSAII (Michael W. Deem and Ramdas Pophale) SiO2 
 PCOD9186820
Probable space group: C 2/M
;
_chemical_formula_sum "Si O2"
_cell_formula_units_Z 40
_cell_length_a 29.295469
_cell_length_b 18.114431
_cell_length_c 12.619163
_cell_angle_alpha 90.000000
_cell_angle_beta 159.764529
_cell_angle_gamma 90.000000
_cell_volume 2316.221417
_symmetry_space_group_name_H-M "C 2/M"
_symmetry_group_IT_number 12
_symmetry_cell_setting 'monoclinic'
loop_
_space_group_symop_operation_xyz
x,y,z
-x,y,-z
-x,-y,-z
x,-y,z
1/2+x,1/2+y,z
1/2-x,1/2+y,-z
1/2-x,1/2-y,-z
1/2+x,1/2-y,z
loop_
_atom_site_type_symbol
_atom_site_label
_atom_site_fract_x
_atom_site_fract_y
_atom_site_fract_z
Si Si1 0.145289 0.657809 0.357193
Si Si2 0.357893 0.666254 0.639022
Si Si3 0.397158 0.413513 0.507621
Si Si4 0.703910 0.585628 0.125618
Si Si5 0.846868 0.181888 0.190523
O O1 0.246828 0.645924 0.482137
O O2 0.148435 0.745282 0.391584
O O3 0.192481 0.613108 0.561982
O O4 0.000000 0.639122 0.000000
O O5 0.344283 0.624136 0.498880
O O6 0.500000 0.649385 0.000000
O O7 0.363515 0.500000 0.429074
O O8 0.350089 0.370334 0.300842
O O9 0.556859 0.407471 0.854910
O O10 0.724063 0.500000 0.142212
O O11 0.703062 0.635551 0.019199
O O12 0.000000 0.203817 0.500000
O O13 0.750000 0.250000 0.000000
#
# Coordination Sequence:
#
# PCOD9186820 Si02
#       5
#     8   8   8   8   8
#     4  10  21  35  55  82 115 149 185 227 273 326
#     4  10  19  35  56  81 111 147 189 229 268 322
#     4  10  20  35  59  86 110 142 188 232 272 324
#     4  10  20  36  58  83 113 146 184 229 276 327
#     4  10  21  39  62  85 109 143 185 229 276 328
#
# _framework density 17.269504999999999
#
# number of rings (size 3 to 8) (size 9 to 14) (size 15 to 20)
#    0.000    2.000    2.000    1.800    0.000    4.000 
#    3.600    0.000    0.000    1.200    0.000    0.000 
#    0.000    0.000    0.000    0.000    0.000    0.000 
#
# Total GULP energy -111652.683715 kJ/mol
# GULP energy per Si atom -5582.634186 kJ/mol
# Density = 1.723020 g / cm^3
# Si number density = 17.269505 Si / 1000 Ang^3
#
#
#
# Elastic Constant Matrix: (Units=GPa)
#
#
# Indices 1 2 3 4 5 6 
#
# 1 131.9867 87.9832 77.0080 0.0000 -10.3291 0.0000
# 2 87.9832 111.5493 78.5689 0.0000 -8.4502 0.0000
# 3 77.0080 78.5689 125.1149 0.0000 -5.7988 0.0000
# 4 0.0000 0.0000 0.0000 21.4787 0.0000 9.5741
# 5 -10.3291 -8.4502 -5.7988 0.0000 25.1402 0.0000
# 6 0.0000 0.0000 0.0000 9.5741 0.0000 -9.1830
#
#
#
# Elastic Compliance Matrix: (Units=1/GPa)
#
#
# Indices 1 2 3 4 5 6 
#
# 1 0.017009 -0.010635 -0.003671 0.000000 0.002567 0.000000
# 2 -0.010635 0.022969 -0.007806 0.000000 0.001550 0.000000
# 3 -0.003671 -0.007806 0.015124 0.000000 -0.000644 0.000000
# 4 0.000000 0.000000 0.000000 0.031786 0.000000 0.033140
# 5 0.002567 0.001550 -0.000644 0.000000 0.041204 0.000000
# 6 0.000000 0.000000 0.000000 0.033140 0.000000 -0.074346
#
#
# Mechanical properties :
#
#
# Convention : Reuss Voigt Hill
#
# Bulk Modulus (GPa) = 91.93713 95.08569 93.51141
# Shear Modulus (GPa) = 49.21447 15.82658 32.52053
#
# Velocity S-wave (km/s) = 5.34413 3.03057 4.34420
# Velocity P-wave (km/s) = 9.56201 8.21129 8.91227
#
# Compressibility (1/GPa) = 0.01087700
#
# Stress axis : x y z
#
# Youngs Moduli (GPa) = 58.79215 43.53785 66.11865
#
# Poissons Ratio (x) = 0.46304 0.24274
# Poissons Ratio (y) = 0.62528 0.51610
# Poissons Ratio (z) = 0.21585 0.33984
#
# Static dielectric constant tensor:
#      x y z
#    x 1.561570 0.000000 0.008710 
#    y 0.000000 1.569090 0.000000 
#    z 0.008710 0.000000 1.567000 
# 
# From -- ./inp_files/118902.got.cif
#   From: 2010.05.17/outbox.cif.g08.bks.cpg/sg12_60_cif.got.tgz:118902.got - 2010.06.03 13:09:07.
