data_PCOD9186575
_publ_section_title
;
Structure prediction by ZEFSAII (Michael W. Deem and Ramdas Pophale) SiO2 
 PCOD9186575
Probable space group: C 2/M
;
_chemical_formula_sum "Si O2"
_cell_formula_units_Z 56
_cell_length_a 27.754199
_cell_length_b 13.348353
_cell_length_c 9.278107
_cell_angle_alpha 90.000000
_cell_angle_beta 62.205179
_cell_angle_gamma 90.000000
_cell_volume 3040.703315
_symmetry_space_group_name_H-M "C 2/M"
_symmetry_group_IT_number 12
_symmetry_cell_setting 'monoclinic'
loop_
_space_group_symop_operation_xyz
x,y,z
-x,y,-z
-x,-y,-z
x,-y,z
1/2+x,1/2+y,z
1/2-x,1/2+y,-z
1/2-x,1/2-y,-z
1/2+x,1/2-y,z
loop_
_atom_site_type_symbol
_atom_site_label
_atom_site_fract_x
_atom_site_fract_y
_atom_site_fract_z
Si Si1 0.212417 0.619470 0.145519
Si Si2 0.791296 0.885616 0.555183
Si Si3 0.704402 0.221277 0.847192
Si Si4 0.122826 0.833936 0.804969
Si Si5 0.954982 0.878535 0.343996
Si Si6 0.628672 0.280200 0.341233
Si Si7 0.583878 0.607894 0.156187
O O1 0.214414 0.500000 0.162254
O O2 0.265336 0.676834 0.137978
O O3 0.159961 0.673902 0.294703
O O4 0.208642 0.648413 0.980359
O O5 0.739853 0.818674 0.663552
O O6 0.825543 0.869228 0.361826
O O7 0.831869 0.855327 0.628182
O O8 0.775222 0.000000 0.585694
O O9 0.645341 0.236844 0.858042
O O10 0.073570 0.837084 0.760758
O O11 0.103259 0.898198 0.966194
O O12 0.928703 0.807820 0.503567
O O13 0.019808 0.869427 0.249468
O O14 0.942934 0.000000 0.374986
O O15 0.619866 0.312620 0.190304
O O16 0.591653 0.500000 0.218543
#
# Coordination Sequence:
#
# PCOD9186575 Si02
#       7
#     8   8   8   8   8   8   8
#     4  10  21  37  56  81 109 137 181 230 269 314
#     4  10  20  34  54  80 116 147 174 214 262 321
#     4  10  21  37  53  81 107 146 182 216 266 322
#     4  11  20  34  50  79 115 144 175 216 263 318
#     4  10  21  35  53  81 116 146 173 215 270 326
#     4  10  19  35  54  81 108 142 181 215 268 314
#     4  11  20  32  54  82 112 144 180 217 264 322
#
# _framework density 18.416792000000001
#
# number of rings (size 3 to 8) (size 9 to 14) (size 15 to 20)
#    0.000    1.714    1.429    5.143    0.000    4.000 
#    0.000    0.000    0.000    5.143    0.000    1.000 
#    0.000    0.000    0.000    0.000    0.000    0.000 
#
# Total GULP energy -155908.876500 kJ/mol
# GULP energy per Si atom -5568.174161 kJ/mol
# Density = 1.837487 g / cm^3
# Si number density = 18.416792 Si / 1000 Ang^3
#
#
#
# Elastic Constant Matrix: (Units=GPa)
#
#
# Indices 1 2 3 4 5 6 
#
# 1 43.3612 34.6732 20.3938 0.0000 -1.3801 0.0000
# 2 34.6732 84.8514 20.8291 0.0000 2.4256 0.0000
# 3 20.3938 20.8291 90.2859 0.0000 7.4499 0.0000
# 4 0.0000 0.0000 0.0000 9.8511 0.0000 -6.7395
# 5 -1.3801 2.4256 7.4499 0.0000 30.3892 0.0000
# 6 0.0000 0.0000 0.0000 -6.7395 0.0000 10.6271
#
#
#
# Elastic Compliance Matrix: (Units=1/GPa)
#
#
# Indices 1 2 3 4 5 6 
#
# 1 0.036815 -0.013819 -0.005467 0.000000 0.004115 0.000000
# 2 -0.013819 0.017683 -0.000806 0.000000 -0.001841 0.000000
# 3 -0.005467 -0.000806 0.012770 0.000000 -0.003315 0.000000
# 4 0.000000 0.000000 0.000000 0.179307 0.000000 0.113714
# 5 0.004115 -0.001841 -0.003315 0.000000 0.034053 0.000000
# 6 0.000000 0.000000 0.000000 0.113714 0.000000 0.166214
#
#
# Mechanical properties :
#
#
# Convention : Reuss Voigt Hill
#
# Bulk Modulus (GPa) = 36.92358 41.14342 39.03350
# Shear Modulus (GPa) = 10.07952 19.68032 14.87992
#
# Velocity S-wave (km/s) = 2.34198 3.27250 2.84554
# Velocity P-wave (km/s) = 5.23503 6.05539 5.66009
#
# Compressibility (1/GPa) = 0.02708296
#
# Stress axis : x y z
#
# Youngs Moduli (GPa) = 27.16286 56.55183 78.30675
#
# Poissons Ratio (x) = 0.78151 0.42812
# Poissons Ratio (y) = 0.37538 0.06311
# Poissons Ratio (z) = 0.14850 0.04558
#
# Static dielectric constant tensor:
#      x y z
#    x 1.638310 0.000000 -0.015320 
#    y 0.000000 1.633050 0.000000 
#    z -0.015320 0.000000 1.711020 
# 
# From -- ./inp_files/110357.got.cif
#   From: 2010.05.17/outbox.cif.g08.bks.cpg/sg12_56_cif.got.tgz:110357.got - 2010.06.03 13:09:07.
