data_PCOD9186016
_publ_section_title
;
Structure prediction by ZEFSAII (Michael W. Deem and Ramdas Pophale) SiO2 
 PCOD9186016
Probable space group: C 2/M
;
_chemical_formula_sum "Si O2"
_cell_formula_units_Z 36
_cell_length_a 25.400390
_cell_length_b 11.352541
_cell_length_c 6.361990
_cell_angle_alpha 90.000000
_cell_angle_beta 118.086495
_cell_angle_gamma 90.000000
_cell_volume 1618.497892
_symmetry_space_group_name_H-M "C 2/M"
_symmetry_group_IT_number 12
_symmetry_cell_setting 'monoclinic'
loop_
_space_group_symop_operation_xyz
x,y,z
-x,y,-z
-x,-y,-z
x,-y,z
1/2+x,1/2+y,z
1/2-x,1/2+y,-z
1/2-x,1/2-y,-z
1/2+x,1/2-y,z
loop_
_atom_site_type_symbol
_atom_site_label
_atom_site_fract_x
_atom_site_fract_y
_atom_site_fract_z
Si Si1 0.895437 0.206218 0.527014
Si Si2 0.677710 0.870202 0.299029
Si Si3 0.726181 0.631744 0.839189
Si Si4 0.571843 0.864222 0.793263
Si Si5 0.000000 0.786529 0.000000
O O1 0.853112 0.281174 0.602115
O O2 0.845731 0.132875 0.308669
O O3 0.926799 0.293412 0.420286
O O4 0.947804 0.149606 0.767997
O O5 0.744546 0.859544 0.338988
O O6 0.670268 0.000000 0.379626
O O7 0.638755 0.864683 0.012534
O O8 0.743864 0.500000 0.954698
O O9 0.750000 0.750000 0.000000
O O10 0.553720 0.000000 0.738138
O O11 0.533709 0.796788 0.896851
#
# Coordination Sequence:
#
# PCOD9186016 Si02
#       5
#     8   8   8   8   4
#     4  11  21  37  61  87 127 170 209 259 316 377
#     4   9  19  35  59  94 128 161 209 261 317 381
#     4  11  23  42  67  97 130 167 214 263 321 382
#     4  10  19  34  58  90 128 169 210 264 321 374
#     4  10  23  36  55  88 130 166 220 258 310 376
#
# _framework density 22.242847000000001
#
# number of rings (size 3 to 8) (size 9 to 14) (size 15 to 20)
#    0.000    1.778    2.222    2.333    0.000    4.444 
#    0.000    1.667    0.000    2.667    0.000    0.000 
#    0.000    0.000    0.000    0.000    0.000    0.000 
#
# Total GULP energy -100341.753907 kJ/mol
# GULP energy per Si atom -5574.541884 kJ/mol
# Density = 2.219222 g / cm^3
# Si number density = 22.242847 Si / 1000 Ang^3
#
#
#
# Elastic Constant Matrix: (Units=GPa)
#
#
# Indices 1 2 3 4 5 6 
#
# 1 93.4329 18.8592 26.4098 0.0000 18.6503 0.0000
# 2 18.8592 113.4291 35.9384 0.0000 5.4952 0.0000
# 3 26.4098 35.9384 85.4326 0.0000 17.0531 0.0000
# 4 0.0000 0.0000 0.0000 7.3408 0.0000 4.7652
# 5 18.6503 5.4952 17.0531 0.0000 40.8681 0.0000
# 6 0.0000 0.0000 0.0000 4.7652 0.0000 11.5697
#
#
#
# Elastic Compliance Matrix: (Units=1/GPa)
#
#
# Indices 1 2 3 4 5 6 
#
# 1 0.012534 -0.001065 -0.002524 0.000000 -0.004524 0.000000
# 2 -0.001065 0.010270 -0.004159 0.000000 0.000841 0.000000
# 3 -0.002524 -0.004159 0.015155 0.000000 -0.004613 0.000000
# 4 0.000000 0.000000 0.000000 0.185937 0.000000 -0.076581
# 5 -0.004524 0.000841 -0.004613 0.000000 0.028345 0.000000
# 6 0.000000 0.000000 0.000000 -0.076581 0.000000 0.117974
#
#
# Mechanical properties :
#
#
# Convention : Reuss Voigt Hill
#
# Bulk Modulus (GPa) = 44.51441 50.52325 47.51883
# Shear Modulus (GPa) = 12.71620 26.02820 19.37220
#
# Velocity S-wave (km/s) = 2.39362 3.42450 2.95437
# Velocity P-wave (km/s) = 5.26266 6.19677 5.74872
#
# Compressibility (1/GPa) = 0.02246464
#
# Stress axis : x y z
#
# Youngs Moduli (GPa) = 79.78170 97.37001 65.98267
#
# Poissons Ratio (x) = 0.10372 0.16651
# Poissons Ratio (y) = 0.08499 0.27440
# Poissons Ratio (z) = 0.20134 0.40493
#
# Static dielectric constant tensor:
#      x y z
#    x 1.820610 0.000000 0.084060 
#    y 0.000000 1.836430 0.000000 
#    z 0.084060 0.000000 1.882720 
# 
# From -- ./inp_files/23604.got.cif
#   From: 2010.05.17/outbox.cif.g08.bks.cpg/sg12_12_cif.got.tgz:23604.got - 2010.06.03 13:09:07.
