data_PCOD9186382
_publ_section_title
;
Structure prediction by ZEFSAII (Michael W. Deem and Ramdas Pophale) SiO2 
 PCOD9186382
Probable space group: C 2/M
;
_chemical_formula_sum "Si O2"
_cell_formula_units_Z 50
_cell_length_a 19.733408
_cell_length_b 15.619020
_cell_length_c 7.320928
_cell_angle_alpha 90.000000
_cell_angle_beta 117.042168
_cell_angle_gamma 90.000000
_cell_volume 2009.740060
_symmetry_space_group_name_H-M "C 2/M"
_symmetry_group_IT_number 12
_symmetry_cell_setting 'monoclinic'
loop_
_space_group_symop_operation_xyz
x,y,z
-x,y,-z
-x,-y,-z
x,-y,z
1/2+x,1/2+y,z
1/2-x,1/2+y,-z
1/2-x,1/2-y,-z
1/2+x,1/2-y,z
loop_
_atom_site_type_symbol
_atom_site_label
_atom_site_fract_x
_atom_site_fract_y
_atom_site_fract_z
Si Si1 0.887667 0.405716 0.175845
Si Si2 0.500000 0.229675 0.500000
Si Si3 0.000000 0.000000 0.000000
Si Si4 0.235105 0.597326 0.513975
Si Si5 0.282179 0.397843 0.164300
Si Si6 0.369328 0.364945 0.938553
Si Si7 0.394961 0.231880 0.657404
Si Si8 0.000000 0.386301 0.000000
O O1 0.888149 0.500000 0.270283
O O2 0.933954 0.333996 0.341435
O O3 0.801345 0.381255 0.022249
O O4 0.929856 0.418841 0.034237
O O5 0.447911 0.283482 0.578397
O O6 0.941271 0.074447 0.004933
O O7 0.203066 0.500000 0.450005
O O8 0.277214 0.621038 0.374123
O O9 0.296772 0.593103 0.748778
O O10 0.178127 0.675445 0.486012
O O11 0.297162 0.500000 0.166988
O O12 0.344098 0.350525 0.115843
O O13 0.381107 0.281852 0.828317
O O14 0.455523 0.161040 0.787593
#
# Coordination Sequence:
#
# PCOD9186382 Si02
#       8
#     8   4   2   8   8   8   8   4
#     4  10  19  34  61  93 136 180 225 279 336 429
#     4  10  23  38  58  97 140 184 234 276 362 413
#     4  12  26  52  78 102 138 192 236 314 366 412
#     4  11  23  44  71 105 140 184 236 291 356 431
#     4  10  21  41  68 100 132 177 234 289 353 422
#     4  12  25  48  71  99 138 182 248 300 364 415
#     4  11  24  43  66 100 143 188 232 296 348 428
#     4  10  20  38  56  94 140 178 222 267 354 407
#
# _framework density 24.878841000000001
#
# number of rings (size 3 to 8) (size 9 to 14) (size 15 to 20)
#    0.000    1.280    3.200    2.400    0.000    5.120 
#    8.640    0.800    0.000    0.000    0.000    0.000 
#    0.000    0.000    0.000    0.000    0.000    0.000 
#
# Total GULP energy -139295.158012 kJ/mol
# GULP energy per Si atom -5571.806320 kJ/mol
# Density = 2.482222 g / cm^3
# Si number density = 24.878841 Si / 1000 Ang^3
#
#
#
# Elastic Constant Matrix: (Units=GPa)
#
#
# Indices 1 2 3 4 5 6 
#
# 1 198.5962 30.6745 29.1511 0.0000 -42.0230 0.0000
# 2 30.6745 51.0494 -9.8647 0.0000 -8.3437 0.0000
# 3 29.1511 -9.8647 68.0958 0.0000 -18.6753 0.0000
# 4 0.0000 0.0000 0.0000 10.5492 0.0000 3.7940
# 5 -42.0230 -8.3437 -18.6753 0.0000 41.7927 0.0000
# 6 0.0000 0.0000 0.0000 3.7940 0.0000 43.4831
#
#
#
# Elastic Compliance Matrix: (Units=1/GPa)
#
#
# Indices 1 2 3 4 5 6 
#
# 1 0.007071 -0.003765 -0.002084 0.000000 0.005427 0.000000
# 2 -0.003765 0.023607 0.006024 0.000000 0.003620 0.000000
# 3 -0.002084 0.006024 0.018468 0.000000 0.007360 0.000000
# 4 0.000000 0.000000 0.000000 0.097865 0.000000 -0.008539
# 5 0.005427 0.003620 0.007360 0.000000 0.033396 0.000000
# 6 0.000000 0.000000 0.000000 -0.008539 0.000000 0.023742
#
#
# Mechanical properties :
#
#
# Convention : Reuss Voigt Hill
#
# Bulk Modulus (GPa) = 20.20323 46.40703 33.30513
# Shear Modulus (GPa) = 22.69650 37.01702 29.85676
#
# Velocity S-wave (km/s) = 3.02368 3.86150 3.46798
# Velocity P-wave (km/s) = 4.50871 6.21090 5.42696
#
# Compressibility (1/GPa) = 0.04949703
#
# Stress axis : x y z
#
# Youngs Moduli (GPa) = 141.42048 42.36107 54.14643
#
# Poissons Ratio (x) = 0.15947 0.11284
# Poissons Ratio (y) = 0.53238 -0.32618
# Poissons Ratio (z) = 0.29472 -0.25518
#
# Static dielectric constant tensor:
#      x y z
#    x 2.187620 0.000000 -0.197560 
#    y 0.000000 2.099360 0.000000 
#    z -0.197560 0.000000 2.059130 
# 
# From -- ./inp_files/75421.got.cif
#   From: 2010.05.17/outbox.cif.g08.bks.cpg/sg12_38_cif.got.tgz:75421.got - 2010.06.03 13:09:07.
