data_PCOD9186911
_publ_section_title
;
Structure prediction by ZEFSAII (Michael W. Deem and Ramdas Pophale) SiO2 
 PCOD9186911
Probable space group: C 2/M
;
_chemical_formula_sum "Si O2"
_cell_formula_units_Z 56
_cell_length_a 18.620728
_cell_length_b 13.839971
_cell_length_c 13.085269
_cell_angle_alpha 90.000000
_cell_angle_beta 105.745824
_cell_angle_gamma 90.000000
_cell_volume 3245.666979
_symmetry_space_group_name_H-M "C 2/M"
_symmetry_group_IT_number 12
_symmetry_cell_setting 'monoclinic'
loop_
_space_group_symop_operation_xyz
x,y,z
-x,y,-z
-x,-y,-z
x,-y,z
1/2+x,1/2+y,z
1/2-x,1/2+y,-z
1/2-x,1/2-y,-z
1/2+x,1/2-y,z
loop_
_atom_site_type_symbol
_atom_site_label
_atom_site_fract_x
_atom_site_fract_y
_atom_site_fract_z
Si Si1 0.356702 0.110370 0.580096
Si Si2 0.447547 0.111613 0.828801
Si Si3 0.256687 0.109478 0.075667
Si Si4 0.585036 0.887877 0.758952
Si Si5 0.919177 0.753206 0.432909
Si Si6 0.685098 0.197756 0.110709
Si Si7 0.218924 0.885346 0.664801
O O1 0.406321 0.116705 0.702352
O O2 0.383743 0.186473 0.507893
O O3 0.272345 0.126718 0.586487
O O4 0.363381 0.000000 0.543765
O O5 0.532424 0.137604 0.835228
O O6 0.398828 0.174045 0.887239
O O7 0.443987 0.000000 0.861941
O O8 0.328777 0.116966 0.176782
O O9 0.198636 0.191030 0.087058
O O10 0.228406 0.000000 0.067279
O O11 0.287684 0.135749 0.975556
O O12 0.569887 0.816398 0.660410
O O13 0.567004 0.000000 0.725987
O O14 0.860723 0.836781 0.383443
O O15 0.000000 0.789097 0.500000
O O16 0.738292 0.166661 0.225425
O O17 0.214788 0.000000 0.683962
#
# Coordination Sequence:
#
# PCOD9186911 Si02
#       7
#     8   8   8   8   8   8   8
#     4   9  18  32  52  75 101 133 172 211 254 308
#     4   9  17  31  52  78 105 137 171 206 250 310
#     4  10  20  34  55  84 106 129 168 213 258 305
#     4  10  20  33  50  79 112 131 165 214 260 307
#     4  12  21  32  52  76 104 139 170 209 263 304
#     4  10  19  35  57  78 103 139 167 207 261 305
#     4  10  21  37  53  73 100 137 180 214 248 303
#
# _framework density 17.253772000000001
#
# number of rings (size 3 to 8) (size 9 to 14) (size 15 to 20)
#    0.000    2.000    2.857    3.000    0.000    1.429 
#    0.000    2.143    0.000    0.857    0.000    2.000 
#    0.000    0.000    0.000    0.000    0.000    0.000 
#
# Total GULP energy -156247.627960 kJ/mol
# GULP energy per Si atom -5580.272427 kJ/mol
# Density = 1.721450 g / cm^3
# Si number density = 17.253772 Si / 1000 Ang^3
#
#
#
# Elastic Constant Matrix: (Units=GPa)
#
#
# Indices 1 2 3 4 5 6 
#
# 1 52.5622 20.5906 0.2567 0.0000 -15.0441 0.0000
# 2 20.5906 74.2717 9.2334 0.0000 -19.1788 0.0000
# 3 0.2567 9.2334 33.8318 0.0000 -7.5912 0.0000
# 4 0.0000 0.0000 0.0000 11.6011 0.0000 -1.5473
# 5 -15.0441 -19.1788 -7.5912 0.0000 24.0222 0.0000
# 6 0.0000 0.0000 0.0000 -1.5473 0.0000 27.1643
#
#
#
# Elastic Compliance Matrix: (Units=1/GPa)
#
#
# Indices 1 2 3 4 5 6 
#
# 1 0.024328 -0.003748 0.003859 0.000000 0.013463 0.000000
# 2 -0.003748 0.017631 -0.002316 0.000000 0.010997 0.000000
# 3 0.003859 -0.002316 0.032600 0.000000 0.010870 0.000000
# 4 0.000000 0.000000 0.000000 0.086859 0.000000 0.004947
# 5 0.013463 0.010997 0.010870 0.000000 0.062274 0.000000
# 6 0.000000 0.000000 0.000000 0.004947 0.000000 0.037095
#
#
# Mechanical properties :
#
#
# Convention : Reuss Voigt Hill
#
# Bulk Modulus (GPa) = 14.25537 24.53633 19.39585
# Shear Modulus (GPa) = 17.32637 21.26320 19.29479
#
# Velocity S-wave (km/s) = 3.17236 3.51433 3.34772
# Velocity P-wave (km/s) = 4.65818 5.54248 5.11946
#
# Compressibility (1/GPa) = 0.07014902
#
# Stress axis : x y z
#
# Youngs Moduli (GPa) = 41.10555 56.71924 30.67511
#
# Poissons Ratio (x) = 0.21257 -0.11838
# Poissons Ratio (y) = 0.15405 0.07104
# Poissons Ratio (z) = -0.15863 0.13135
#
# Static dielectric constant tensor:
#      x y z
#    x 1.596950 0.000000 0.007620 
#    y 0.000000 1.562060 0.000000 
#    z 0.007620 0.000000 1.590190 
# 
# From -- ./inp_files/156157.got.cif
#   From: 2010.05.17/outbox.cif.g08.bks.cpg/sg12_79_cif.got.tgz:156157.got - 2010.06.03 13:09:07.
