data_PCOD9186469
_publ_section_title
;
Structure prediction by ZEFSAII (Michael W. Deem and Ramdas Pophale) SiO2 
 PCOD9186469
Probable space group: C 2/M
;
_chemical_formula_sum "Si O2"
_cell_formula_units_Z 64
_cell_length_a 19.580495
_cell_length_b 21.303487
_cell_length_c 11.589911
_cell_angle_alpha 90.000000
_cell_angle_beta 131.799156
_cell_angle_gamma 90.000000
_cell_volume 3604.075242
_symmetry_space_group_name_H-M "C 2/M"
_symmetry_group_IT_number 12
_symmetry_cell_setting 'monoclinic'
loop_
_space_group_symop_operation_xyz
x,y,z
-x,y,-z
-x,-y,-z
x,-y,z
1/2+x,1/2+y,z
1/2-x,1/2+y,-z
1/2-x,1/2-y,-z
1/2+x,1/2-y,z
loop_
_atom_site_type_symbol
_atom_site_label
_atom_site_fract_x
_atom_site_fract_y
_atom_site_fract_z
Si Si1 0.404131 0.426217 0.339865
Si Si2 0.920601 0.298560 0.000845
Si Si3 0.961479 0.926390 0.143759
Si Si4 0.645361 0.206420 0.668365
Si Si5 0.663240 0.331005 0.121456
Si Si6 0.012466 0.288566 0.323910
Si Si7 0.376103 0.330392 0.655524
Si Si8 0.764995 0.837576 0.308506
O O1 0.500000 0.401038 0.500000
O O2 0.399338 0.500000 0.362483
O O3 0.410719 0.419449 0.209980
O O4 0.321156 0.390474 0.304767
O O5 0.877603 0.230905 0.986244
O O6 0.840346 0.336975 0.848284
O O7 0.000000 0.285128 0.000000
O O8 0.969505 0.326144 0.168678
O O9 0.058241 0.891027 0.266067
O O10 0.972198 0.000000 0.130812
O O11 0.900595 0.889238 0.982593
O O12 0.730880 0.162123 0.794994
O O13 0.573404 0.222391 0.687565
O O14 0.588829 0.182000 0.493929
O O15 0.692883 0.271528 0.686134
O O16 0.656646 0.317460 0.251252
O O17 0.061767 0.226711 0.325308
O O18 0.291268 0.340483 0.473040
#
# Coordination Sequence:
#
# PCOD9186469 Si02
#       8
#     8   8   8   8   8   8   8   8
#     4  10  20  36  55  78 108 140 174 220 269 317
#     4  11  21  33  53  79 111 141 177 219 265 317
#     4  11  22  35  55  78 107 142 179 216 264 322
#     4   9  22  33  52  77 106 145 177 218 264 318
#     4  11  22  35  51  77 110 144 177 221 269 312
#     4  10  19  35  51  74 106 142 176 212 263 315
#     4  11  20  35  52  73 112 143 174 216 265 323
#     4  10  22  31  54  80 105 143 179 216 263 323
#
# _framework density 17.757676
#
# number of rings (size 3 to 8) (size 9 to 14) (size 15 to 20)
#    0.000    1.625    3.750    1.125    5.250    3.500 
#    0.000    0.000    0.000    0.375    0.000    2.625 
#    0.000    0.000    0.000    0.000    0.000    0.000 
#
# Total GULP energy -178497.445284 kJ/mol
# GULP energy per Si atom -5578.045165 kJ/mol
# Density = 1.771726 g / cm^3
# Si number density = 17.757676 Si / 1000 Ang^3
#
#
#
# Elastic Constant Matrix: (Units=GPa)
#
#
# Indices 1 2 3 4 5 6 
#
# 1 43.2481 2.6800 31.3193 0.0000 9.6091 0.0000
# 2 2.6800 34.3618 13.1662 0.0000 6.0402 0.0000
# 3 31.3193 13.1662 117.8685 0.0000 10.2123 0.0000
# 4 0.0000 0.0000 0.0000 16.6247 0.0000 2.2285
# 5 9.6091 6.0402 10.2123 0.0000 31.1453 0.0000
# 6 0.0000 0.0000 0.0000 2.2285 0.0000 14.7946
#
#
#
# Elastic Compliance Matrix: (Units=1/GPa)
#
#
# Indices 1 2 3 4 5 6 
#
# 1 0.030086 0.001814 -0.007577 0.000000 -0.007149 0.000000
# 2 0.001814 0.031264 -0.003500 0.000000 -0.005475 0.000000
# 3 -0.007577 -0.003500 0.010938 0.000000 -0.000570 0.000000
# 4 0.000000 0.000000 0.000000 0.061391 0.000000 -0.009247
# 5 -0.007149 -0.005475 -0.000570 0.000000 0.035562 0.000000
# 6 0.000000 0.000000 0.000000 -0.009247 0.000000 0.068985
#
#
# Mechanical properties :
#
#
# Convention : Reuss Voigt Hill
#
# Bulk Modulus (GPa) = 18.60100 32.20106 25.40103
# Shear Modulus (GPa) = 18.20345 22.40046 20.30195
#
# Velocity S-wave (km/s) = 3.20520 3.55555 3.38491
# Velocity P-wave (km/s) = 4.91888 5.91852 5.44170
#
# Compressibility (1/GPa) = 0.05376056
#
# Stress axis : x y z
#
# Youngs Moduli (GPa) = 33.23818 31.98558 91.42649
#
# Poissons Ratio (x) = -0.05801 0.69277
# Poissons Ratio (y) = -0.06028 0.31997
# Poissons Ratio (z) = 0.25186 0.11194
#
# Static dielectric constant tensor:
#      x y z
#    x 1.624350 0.000000 -0.007640 
#    y 0.000000 1.589010 0.000000 
#    z -0.007640 0.000000 1.676400 
# 
# From -- ./inp_files/159599.got.cif
#   From: 2010.05.17/outbox.cif.g08.bks.cpg/sg12_80_cif.got.tgz:159599.got - 2010.06.03 13:09:07.
