data_PCOD9186901
_publ_section_title
;
Structure prediction by ZEFSAII (Michael W. Deem and Ramdas Pophale) SiO2 
 PCOD9186901
Probable space group: C 2/M
;
_chemical_formula_sum "Si O2"
_cell_formula_units_Z 56
_cell_length_a 19.827804
_cell_length_b 7.572698
_cell_length_c 19.433893
_cell_angle_alpha 90.000000
_cell_angle_beta 54.887049
_cell_angle_gamma 90.000000
_cell_volume 2386.980314
_symmetry_space_group_name_H-M "C 2/M"
_symmetry_group_IT_number 12
_symmetry_cell_setting 'monoclinic'
loop_
_space_group_symop_operation_xyz
x,y,z
-x,y,-z
-x,-y,-z
x,-y,z
1/2+x,1/2+y,z
1/2-x,1/2+y,-z
1/2-x,1/2-y,-z
1/2+x,1/2-y,z
loop_
_atom_site_type_symbol
_atom_site_label
_atom_site_fract_x
_atom_site_fract_y
_atom_site_fract_z
Si Si1 0.340213 0.712088 0.417046
Si Si2 0.041882 0.208432 0.130445
Si Si3 0.361074 0.284524 0.246980
Si Si4 0.643007 0.713334 0.204113
Si Si5 0.300743 0.791379 0.039693
Si Si6 0.566151 0.702125 0.511519
Si Si7 0.817325 0.291201 0.672929
O O1 0.348971 0.500000 0.411180
O O2 0.250000 0.750000 0.500000
O O3 0.352877 0.769727 0.331702
O O4 0.407701 0.782292 0.431397
O O5 0.083047 0.278072 0.177841
O O6 0.107498 0.227469 0.030258
O O7 0.950486 0.278374 0.169289
O O8 0.032715 0.000000 0.147863
O O9 0.360930 0.500000 0.243277
O O10 0.276491 0.226918 0.260688
O O11 0.643237 0.500000 0.199289
O O12 0.627087 0.759393 0.292394
O O13 0.736393 0.780114 0.133449
O O14 0.306919 0.000000 0.045508
O O15 0.250000 0.750000 0.000000
O O16 0.500000 0.790112 0.500000
O O17 0.538177 0.500000 0.541004
O O18 0.646683 0.700866 0.415897
O O19 0.815680 0.500000 0.659807
#
# Coordination Sequence:
#
# PCOD9186901 Si02
#       7
#     8   8   8   8   8   8   8
#     4  10  19  35  57  77 103 139 177 217 259 311
#     4   9  18  34  58  81 104 138 178 221 259 307
#     4   9  19  35  54  77 106 140 177 214 261 312
#     4   9  19  34  55  79 106 140 175 213 262 315
#     4   9  17  32  54  80 109 139 173 217 263 311
#     4  10  22  37  57  80 103 138 180 219 262 315
#     4  11  22  36  54  77 109 142 173 219 267 312
#
# _framework density 23.460604
#
# number of rings (size 3 to 8) (size 9 to 14) (size 15 to 20)
#    0.000    2.429    1.429    1.714    2.000    3.143 
#    0.000    2.857    0.000    4.286    0.000    0.000 
#    0.000    0.000    0.000    0.000    0.000    0.000 
#
# Total GULP energy -156216.382494 kJ/mol
# GULP energy per Si atom -5579.156518 kJ/mol
# Density = 2.340721 g / cm^3
# Si number density = 23.460604 Si / 1000 Ang^3
#
#
#
# Elastic Constant Matrix: (Units=GPa)
#
#
# Indices 1 2 3 4 5 6 
#
# 1 86.8926 4.2862 -7.8519 0.0000 -11.6179 0.0004
# 2 4.2862 57.4373 -10.2443 0.0009 -3.0645 -0.0003
# 3 -7.8519 -10.2443 26.5382 0.0000 -8.3556 -0.0002
# 4 0.0000 0.0009 0.0000 17.6572 -0.0002 -7.3566
# 5 -11.6179 -3.0645 -8.3556 -0.0002 47.3830 0.0001
# 6 0.0004 -0.0003 -0.0002 -7.3566 0.0001 4.7355
#
#
#
# Elastic Compliance Matrix: (Units=1/GPa)
#
#
# Indices 1 2 3 4 5 6 
#
# 1 0.012481 0.000172 0.005004 -0.000001 0.003954 -0.000002
# 2 0.000172 0.019014 0.008249 -0.000001 0.002727 0.000000
# 3 0.005004 0.008249 0.045423 0.000001 0.009770 0.000003
# 4 -0.000001 -0.000001 0.000001 0.160551 0.000000 0.249419
# 5 0.003954 0.002727 0.009770 0.000000 0.023973 0.000000
# 6 -0.000002 0.000000 0.000003 0.249419 0.000000 0.598650
#
#
# Mechanical properties :
#
#
# Convention : Reuss Voigt Hill
#
# Bulk Modulus (GPa) = 9.63684 15.91646 12.77665
# Shear Modulus (GPa) = 5.76149 26.26700 16.01424
#
# Velocity S-wave (km/s) = 1.56880 3.34970 2.61550
# Velocity P-wave (km/s) = 2.71995 4.66474 3.81824
#
# Compressibility (1/GPa) = 0.10376847
#
# Stress axis : x y z
#
# Youngs Moduli (GPa) = 80.12328 52.59214 22.01538
#
# Poissons Ratio (x) = -0.00905 -0.11016
# Poissons Ratio (y) = -0.01379 -0.18161
# Poissons Ratio (z) = -0.40093 -0.43385
#
# Static dielectric constant tensor:
#      x y z
#    x 1.908720 0.000000 -0.053410 
#    y 0.000000 1.904750 0.000000 
#    z -0.053410 0.000000 1.901930 
# 
# From -- ./inp_files/313760.got.cif
#   From: 2010.05.17/outbox.cif.g08.bks.cpg/sg12_157_cif.got.tgz:313760.got - 2010.06.03 13:09:07.
