data_PCOD9186160
_publ_section_title
;
Structure prediction by ZEFSAII (Michael W. Deem and Ramdas Pophale) SiO2 
 PCOD9186160
Probable space group: C 2/M
;
_chemical_formula_sum "Si O2"
_cell_formula_units_Z 56
_cell_length_a 31.919483
_cell_length_b 8.887784
_cell_length_c 12.050867
_cell_angle_alpha 90.000000
_cell_angle_beta 124.082255
_cell_angle_gamma 90.000000
_cell_volume 2831.526635
_symmetry_space_group_name_H-M "C 2/M"
_symmetry_group_IT_number 12
_symmetry_cell_setting 'monoclinic'
loop_
_space_group_symop_operation_xyz
x,y,z
-x,y,-z
-x,-y,-z
x,-y,z
1/2+x,1/2+y,z
1/2-x,1/2+y,-z
1/2-x,1/2-y,-z
1/2+x,1/2-y,z
loop_
_atom_site_type_symbol
_atom_site_label
_atom_site_fract_x
_atom_site_fract_y
_atom_site_fract_z
Si Si1 0.743614 0.820590 0.869039
Si Si2 0.442576 0.680523 0.398710
Si Si3 0.861703 0.181141 0.669444
Si Si4 0.429386 0.178737 0.146585
Si Si5 0.520529 0.675987 0.155880
Si Si6 0.832554 0.680264 0.854501
Si Si7 0.347694 0.680500 0.398186
O O1 0.787785 0.757848 0.855677
O O2 0.691158 0.766662 0.737304
O O3 0.745779 0.000000 0.879360
O O4 0.750000 0.750000 0.000000
O O5 0.500000 0.735543 0.500000
O O6 0.444491 0.500000 0.391059
O O7 0.420633 0.746773 0.252651
O O8 0.404856 0.715269 0.443669
O O9 0.921165 0.223453 0.755997
O O10 0.835369 0.262168 0.732881
O O11 0.840143 0.217483 0.516133
O O12 0.859196 0.000000 0.681349
O O13 0.483020 0.233658 0.178957
O O14 0.429053 0.000000 0.157795
O O15 0.385323 0.220525 0.994273
O O16 0.518554 0.500000 0.186332
O O17 0.500000 0.688518 0.000000
O O18 0.826614 0.500000 0.848861
O O19 0.340613 0.500000 0.374840
#
# Coordination Sequence:
#
# PCOD9186160 Si02
#       7
#     8   8   8   8   8   8   8
#     4  12  26  45  69  93 120 156 203 255 311 368
#     4  10  21  39  63  89 120 160 206 250 297 360
#     4  10  21  39  63  93 126 164 209 252 302 362
#     4  11  23  36  56  88 125 161 201 253 309 363
#     4  10  19  34  59  88 122 164 209 249 292 354
#     4  11  24  41  62  91 125 160 204 253 306 366
#     4  10  22  41  65  92 125 163 204 253 306 362
#
# _framework density 19.777315999999999
#
# number of rings (size 3 to 8) (size 9 to 14) (size 15 to 20)
#    0.000    1.429    1.429    3.857    0.000    9.143 
#    0.000    1.429    0.000    0.000    0.000    0.000 
#    0.000    0.000    0.000    0.000    0.000    0.000 
#
# Total GULP energy -156591.081854 kJ/mol
# GULP energy per Si atom -5592.538638 kJ/mol
# Density = 1.973230 g / cm^3
# Si number density = 19.777316 Si / 1000 Ang^3
#
#
#
# Elastic Constant Matrix: (Units=GPa)
#
#
# Indices 1 2 3 4 5 6 
#
# 1 126.2010 55.0207 55.6561 0.0000 -17.1348 0.0000
# 2 55.0207 56.6477 55.8517 0.0000 -8.1970 0.0000
# 3 55.6561 55.8517 116.4902 0.0000 -15.3171 0.0000
# 4 0.0000 0.0000 0.0000 28.1479 0.0000 -4.0363
# 5 -17.1348 -8.1970 -15.3171 0.0000 33.7728 0.0000
# 6 0.0000 0.0000 0.0000 -4.0363 0.0000 24.2475
#
#
#
# Elastic Compliance Matrix: (Units=1/GPa)
#
#
# Indices 1 2 3 4 5 6 
#
# 1 0.014251 -0.013404 0.000150 0.000000 0.004045 0.000000
# 2 -0.013404 0.046112 -0.016086 0.000000 -0.002904 0.000000
# 3 0.000150 -0.016086 0.016719 0.000000 0.003754 0.000000
# 4 0.000000 0.000000 0.000000 0.036395 0.000000 0.006059
# 5 0.004045 -0.002904 0.003754 0.000000 0.032660 0.000000
# 6 0.000000 0.000000 0.000000 0.006059 0.000000 0.042250
#
#
# Mechanical properties :
#
#
# Convention : Reuss Voigt Hill
#
# Bulk Modulus (GPa) = 54.34526 70.26621 62.30574
# Shear Modulus (GPa) = 19.74711 26.08766 22.91738
#
# Velocity S-wave (km/s) = 3.16329 3.63584 3.40777
# Velocity P-wave (km/s) = 6.39376 7.29600 6.85973
#
# Compressibility (1/GPa) = 0.01840087
#
# Stress axis : x y z
#
# Youngs Moduli (GPa) = 70.17168 21.68638 59.81112
#
# Poissons Ratio (x) = 0.29068 -0.00895
# Poissons Ratio (y) = 0.94056 0.96215
# Poissons Ratio (z) = -0.01050 0.34886
#
# Static dielectric constant tensor:
#      x y z
#    x 1.683870 0.000000 0.012940 
#    y 0.000000 1.662910 0.000000 
#    z 0.012940 0.000000 1.689440 
# 
# From -- ./inp_files/187699.got.cif
#   From: 2010.05.17/outbox.cif.g08.bks.cpg/sg12_94_cif.got.tgz:187699.got - 2010.06.03 13:09:07.
