data_PCOD9186528
_publ_section_title
;
Structure prediction by ZEFSAII (Michael W. Deem and Ramdas Pophale) SiO2 
 PCOD9186528
Probable space group: C 2/M
;
_chemical_formula_sum "Si O2"
_cell_formula_units_Z 56
_cell_length_a 23.047374
_cell_length_b 22.045709
_cell_length_c 8.780471
_cell_angle_alpha 90.000000
_cell_angle_beta 48.584122
_cell_angle_gamma 90.000000
_cell_volume 3345.667457
_symmetry_space_group_name_H-M "C 2/M"
_symmetry_group_IT_number 12
_symmetry_cell_setting 'monoclinic'
loop_
_space_group_symop_operation_xyz
x,y,z
-x,y,-z
-x,-y,-z
x,-y,z
1/2+x,1/2+y,z
1/2-x,1/2+y,-z
1/2-x,1/2-y,-z
1/2+x,1/2-y,z
loop_
_atom_site_type_symbol
_atom_site_label
_atom_site_fract_x
_atom_site_fract_y
_atom_site_fract_z
Si Si1 0.718818 0.753208 0.297138
Si Si2 0.219509 0.570910 0.003931
Si Si3 0.926042 0.569924 0.517656
Si Si4 0.539007 0.753534 0.268436
Si Si5 0.084542 0.320421 0.696134
Si Si6 0.333734 0.327535 0.884915
Si Si7 0.150074 0.337024 0.902037
O O1 0.664479 0.790867 0.500529
O O2 0.669968 0.712833 0.262406
O O3 0.778057 0.705772 0.267987
O O4 0.771015 0.798825 0.108063
O O5 0.233155 0.500000 0.960284
O O6 0.298165 0.607040 0.908977
O O7 0.183213 0.601682 0.915795
O O8 0.153266 0.578428 0.248849
O O9 0.926939 0.500000 0.459866
O O10 0.931843 0.620345 0.377470
O O11 0.000000 0.576801 0.500000
O O12 0.500000 0.763921 0.500000
O O13 0.477686 0.768990 0.243162
O O14 0.581673 0.688133 0.194999
O O15 0.606826 0.802046 0.115190
O O16 0.094162 0.339675 0.854426
#
# Coordination Sequence:
#
# PCOD9186528 Si02
#       7
#     8   8   8   8   8   8   8
#     4   9  17  30  50  72 104 128 160 211 255 302
#     4  10  19  35  54  71 100 141 175 211 248 293
#     4  10  21  33  50  74 102 136 175 205 242 299
#     4  11  20  32  52  74 102 137 169 209 257 301
#     4  12  19  31  51  75 105 136 162 202 258 308
#     4   9  17  32  51  77  97 129 177 213 246 297
#     4  10  22  32  46  78 107 129 164 207 256 310
#
# _framework density 16.738064999999999
#
# number of rings (size 3 to 8) (size 9 to 14) (size 15 to 20)
#    0.000    1.857    2.857    3.857    0.000    0.571 
#    0.000    0.000    0.000    4.714    0.000    0.000 
#    0.000    4.000    0.000    0.000    0.000    0.000 
#
# Total GULP energy -156050.875322 kJ/mol
# GULP energy per Si atom -5573.245547 kJ/mol
# Density = 1.669997 g / cm^3
# Si number density = 16.738065 Si / 1000 Ang^3
#
#
#
# Elastic Constant Matrix: (Units=GPa)
#
#
# Indices 1 2 3 4 5 6 
#
# 1 102.2829 58.1591 24.1053 0.0000 4.0575 0.0000
# 2 58.1591 103.4262 38.4244 0.0000 -0.6779 0.0000
# 3 24.1053 38.4244 57.1019 0.0000 -2.9420 0.0000
# 4 0.0000 0.0000 0.0000 15.4850 0.0000 -7.9101
# 5 4.0575 -0.6779 -2.9420 0.0000 16.8997 0.0000
# 6 0.0000 0.0000 0.0000 -7.9101 0.0000 18.7803
#
#
#
# Elastic Compliance Matrix: (Units=1/GPa)
#
#
# Indices 1 2 3 4 5 6 
#
# 1 0.014669 -0.007863 -0.001109 0.000000 -0.004030 0.000000
# 2 -0.007863 0.017123 -0.008143 0.000000 0.001157 0.000000
# 3 -0.001109 -0.008143 0.023670 0.000000 0.004060 0.000000
# 4 0.000000 0.000000 0.000000 0.082282 0.000000 0.034656
# 5 -0.004030 0.001157 0.004060 0.000000 0.060893 0.000000
# 6 0.000000 0.000000 0.000000 0.034656 0.000000 0.067844
#
#
# Mechanical properties :
#
#
# Convention : Reuss Voigt Hill
#
# Bulk Modulus (GPa) = 47.10092 56.02096 51.56094
# Shear Modulus (GPa) = 16.24483 19.70781 17.97632
#
# Velocity S-wave (km/s) = 3.11872 3.43508 3.28072
# Velocity P-wave (km/s) = 6.41636 7.01961 6.72475
#
# Compressibility (1/GPa) = 0.02123101
#
# Stress axis : x y z
#
# Youngs Moduli (GPa) = 68.17021 58.39939 42.24812
#
# Poissons Ratio (x) = 0.45921 0.04685
# Poissons Ratio (y) = 0.53604 0.34405
# Poissons Ratio (z) = 0.07559 0.47557
#
# Static dielectric constant tensor:
#      x y z
#    x 1.623160 0.000000 -0.015670 
#    y 0.000000 1.552200 0.000000 
#    z -0.015670 0.000000 1.585350 
# 
# From -- ./inp_files/76889.got.cif
#   From: 2010.05.17/outbox.cif.g08.bks.cpg/sg12_39_cif.got.tgz:76889.got - 2010.06.03 13:09:07.
