data_PCOD9186818
_publ_section_title
;
Structure prediction by ZEFSAII (Michael W. Deem and Ramdas Pophale) SiO2 
 PCOD9186818
Probable space group: C 2/M
;
_chemical_formula_sum "Si O2"
_cell_formula_units_Z 64
_cell_length_a 18.795009
_cell_length_b 11.232618
_cell_length_c 21.489602
_cell_angle_alpha 90.000000
_cell_angle_beta 134.762669
_cell_angle_gamma 90.000000
_cell_volume 3221.279499
_symmetry_space_group_name_H-M "C 2/M"
_symmetry_group_IT_number 12
_symmetry_cell_setting 'monoclinic'
loop_
_space_group_symop_operation_xyz
x,y,z
-x,y,-z
-x,-y,-z
x,-y,z
1/2+x,1/2+y,z
1/2-x,1/2+y,-z
1/2-x,1/2-y,-z
1/2+x,1/2-y,z
loop_
_atom_site_type_symbol
_atom_site_label
_atom_site_fract_x
_atom_site_fract_y
_atom_site_fract_z
Si Si1 0.835811 0.867394 0.309079
Si Si2 0.570326 0.369055 0.104433
Si Si3 0.785818 0.276178 0.876449
Si Si4 0.274973 0.640275 0.405174
Si Si5 0.527185 0.795070 0.449112
Si Si6 0.427151 0.135462 0.658515
Si Si7 0.625686 0.862119 0.848459
Si Si8 0.039077 0.366334 0.931572
O O1 0.778038 0.856333 0.209051
O O2 0.762288 0.847811 0.322767
O O3 0.927080 0.776310 0.369156
O O4 0.877663 0.000000 0.342840
O O5 0.567325 0.500000 0.133362
O O6 0.678116 0.334963 0.143705
O O7 0.532741 0.249214 0.115310
O O8 0.500000 0.377469 0.000000
O O9 0.718339 0.221028 0.888898
O O10 0.882438 0.342001 0.964200
O O11 0.287373 0.500000 0.427538
O O12 0.378439 0.707360 0.482681
O O13 0.178481 0.688376 0.383278
O O14 0.500000 0.851403 0.500000
O O15 0.558481 0.866082 0.406737
O O16 0.527313 0.186134 0.751650
O O17 0.424071 0.000000 0.680844
O O18 0.600371 0.864643 0.905302
O O19 0.644465 0.000000 0.840321
O O20 0.994188 0.500000 0.910076
#
# Coordination Sequence:
#
# PCOD9186818 Si02
#       8
#     8   8   8   8   8   8   8   8
#     4  10  20  33  53  83 114 145 186 237 289 338
#     4   9  20  37  58  82 112 153 194 236 289 345
#     4  11  20  35  57  83 116 150 194 240 283 334
#     4   9  19  34  56  80 106 145 185 227 283 350
#     4  10  19  35  56  81 109 142 180 230 287 346
#     4  10  20  35  55  80 109 145 189 231 279 340
#     4  10  21  37  56  80 113 153 194 233 282 345
#     4  10  22  38  60  88 117 153 196 243 288 336
#
# _framework density 19.867882000000002
#
# number of rings (size 3 to 8) (size 9 to 14) (size 15 to 20)
#    0.000    2.125    1.250    1.875    1.750    5.000 
#    0.000    1.250    0.000    0.000    0.000    0.000 
#    0.000    0.000    0.000    0.000    0.000    0.000 
#
# Total GULP energy -178291.675626 kJ/mol
# GULP energy per Si atom -5571.614863 kJ/mol
# Density = 1.982266 g / cm^3
# Si number density = 19.867882 Si / 1000 Ang^3
#
#
#
# Elastic Constant Matrix: (Units=GPa)
#
#
# Indices 1 2 3 4 5 6 
#
# 1 96.8707 37.2551 0.1000 0.0000 -2.0066 0.0000
# 2 37.2551 93.9245 8.6903 0.0000 2.3110 0.0000
# 3 0.1000 8.6903 44.3501 0.0000 -7.2516 0.0000
# 4 0.0000 0.0000 0.0000 -21.7989 0.0000 27.0062
# 5 -2.0066 2.3110 -7.2516 0.0000 25.0164 0.0000
# 6 0.0000 0.0000 0.0000 27.0062 0.0000 -2.3987
#
#
#
# Elastic Compliance Matrix: (Units=1/GPa)
#
#
# Indices 1 2 3 4 5 6 
#
# 1 0.012297 -0.005039 0.001257 0.000000 0.001816 0.000000
# 2 -0.005039 0.012977 -0.002933 0.000000 -0.002453 0.000000
# 3 0.001257 -0.002933 0.024334 0.000000 0.007425 0.000000
# 4 0.000000 0.000000 0.000000 0.003543 0.000000 0.039888
# 5 0.001816 -0.002453 0.007425 0.000000 0.042498 0.000000
# 6 0.000000 0.000000 0.000000 0.039888 0.000000 0.032197
#
#
# Mechanical properties :
#
#
# Convention : Reuss Voigt Hill
#
# Bulk Modulus (GPa) = 27.64056 36.35955 32.00005
# Shear Modulus (GPa) = 32.60835 12.77045 22.68940
#
# Velocity S-wave (km/s) = 4.05564 2.53804 3.38304
# Velocity P-wave (km/s) = 5.98944 5.18934 5.60369
#
# Compressibility (1/GPa) = 0.03617872
#
# Stress axis : x y z
#
# Youngs Moduli (GPa) = 81.31981 77.05888 41.09519
#
# Poissons Ratio (x) = 0.38827 -0.05164
# Poissons Ratio (y) = 0.40974 0.12051
# Poissons Ratio (z) = -0.10218 0.22598
#
# Static dielectric constant tensor:
#      x y z
#    x 1.728320 0.000000 -0.000320 
#    y 0.000000 1.715480 0.000000 
#    z -0.000320 0.000000 1.707430 
# 
# From -- ./inp_files/315717.got.cif
#   From: 2010.05.17/outbox.cif.g08.bks.cpg/sg12_158_cif.got.tgz:315717.got - 2010.06.03 13:09:07.
