data_PCOD9186949
_publ_section_title
;
Structure prediction by ZEFSAII (Michael W. Deem and Ramdas Pophale) SiO2 
 PCOD9186949
Probable space group: C 2/M
;
_chemical_formula_sum "Si O2"
_cell_formula_units_Z 56
_cell_length_a 29.909050
_cell_length_b 8.350002
_cell_length_c 14.742362
_cell_angle_alpha 90.000000
_cell_angle_beta 120.685402
_cell_angle_gamma 90.000000
_cell_volume 3166.254303
_symmetry_space_group_name_H-M "C 2/M"
_symmetry_group_IT_number 12
_symmetry_cell_setting 'monoclinic'
loop_
_space_group_symop_operation_xyz
x,y,z
-x,y,-z
-x,-y,-z
x,-y,z
1/2+x,1/2+y,z
1/2-x,1/2+y,-z
1/2-x,1/2-y,-z
1/2+x,1/2-y,z
loop_
_atom_site_type_symbol
_atom_site_label
_atom_site_fract_x
_atom_site_fract_y
_atom_site_fract_z
Si Si1 0.465620 0.816126 0.724699
Si Si2 0.370037 0.190253 0.287477
Si Si3 0.074569 0.817292 0.828763
Si Si4 0.050847 0.190867 0.494230
Si Si5 0.648367 0.689520 0.074271
Si Si6 0.745138 0.193922 0.890599
Si Si7 0.445030 0.692905 0.898666
O O1 0.527647 0.799649 0.801542
O O2 0.454834 0.733951 0.617048
O O3 0.442351 0.736259 0.790389
O O4 0.449795 0.000000 0.703320
O O5 0.403692 0.283479 0.247648
O O6 0.397573 0.230598 0.410356
O O7 0.310206 0.238330 0.210361
O O8 0.373813 0.000000 0.274234
O O9 0.054760 0.000000 0.815851
O O10 0.120570 0.798481 0.947911
O O11 0.000000 0.245840 0.500000
O O12 0.053953 0.000000 0.507672
O O13 0.654011 0.500000 0.101590
O O14 0.706158 0.755336 0.118670
O O15 0.605869 0.755418 0.100787
O O16 0.747861 0.000000 0.895345
O O17 0.750000 0.250000 0.000000
O O18 0.445514 0.500000 0.909154
O O19 0.500000 0.749385 0.000000
#
# Coordination Sequence:
#
# PCOD9186949 Si02
#       7
#     8   8   8   8   8   8   8
#     4  12  24  36  53  81 116 144 175 227 283 324
#     4  11  22  34  52  82 116 145 178 228 279 318
#     4  11  19  32  54  79 110 149 189 218 256 326
#     4  11  23  38  58  79 104 145 188 222 266 333
#     4   9  18  33  54  78 110 149 187 222 257 313
#     4  10  20  34  53  81 113 148 184 220 270 321
#     4  10  19  35  57  80 107 147 190 223 261 319
#
# _framework density 17.686515
#
# number of rings (size 3 to 8) (size 9 to 14) (size 15 to 20)
#    0.000    1.429    4.286    2.571    0.000    1.429 
#    0.000    0.714    0.000    0.857    0.000    0.000 
#    0.000    0.000    0.000    0.000    0.000    0.000 
#
# Total GULP energy -156241.194992 kJ/mol
# GULP energy per Si atom -5580.042678 kJ/mol
# Density = 1.764626 g / cm^3
# Si number density = 17.686515 Si / 1000 Ang^3
#
#
#
# Elastic Constant Matrix: (Units=GPa)
#
#
# Indices 1 2 3 4 5 6 
#
# 1 99.8749 1.0871 39.0916 0.0000 4.0964 0.0000
# 2 1.0871 17.6754 6.6767 0.0000 6.9373 0.0000
# 3 39.0916 6.6767 85.3687 0.0000 -1.3563 0.0000
# 4 0.0000 0.0000 0.0000 22.3991 0.0000 -0.0224
# 5 4.0964 6.9373 -1.3563 0.0000 28.5166 0.0000
# 6 0.0000 0.0000 0.0000 -0.0224 0.0000 13.9598
#
#
#
# Elastic Compliance Matrix: (Units=1/GPa)
#
#
# Indices 1 2 3 4 5 6 
#
# 1 0.012414 0.002526 -0.005925 0.000000 -0.002680 0.000000
# 2 0.002526 0.065397 -0.006535 0.000000 -0.016583 0.000000
# 3 -0.005925 -0.006535 0.014988 0.000000 0.003154 0.000000
# 4 0.000000 0.000000 0.000000 0.044645 0.000000 0.000072
# 5 -0.002680 -0.016583 0.003154 0.000000 0.039636 0.000000
# 6 0.000000 0.000000 0.000000 0.000072 0.000000 0.071634
#
#
# Mechanical properties :
#
#
# Convention : Reuss Voigt Hill
#
# Bulk Modulus (GPa) = 13.71132 32.95886 23.33509
# Shear Modulus (GPa) = 17.07112 23.37935 20.22523
#
# Velocity S-wave (km/s) = 3.11015 3.63970 3.38529
# Velocity P-wave (km/s) = 4.54605 6.02816 5.33879
#
# Compressibility (1/GPa) = 0.07293243
#
# Stress axis : x y z
#
# Youngs Moduli (GPa) = 80.55507 15.29115 66.71968
#
# Poissons Ratio (x) = -0.03863 0.39529
# Poissons Ratio (y) = -0.20350 0.43601
# Poissons Ratio (z) = 0.47726 0.09993
#
# Static dielectric constant tensor:
#      x y z
#    x 1.628430 0.000000 -0.000700 
#    y 0.000000 1.609360 0.000000 
#    z -0.000700 0.000000 1.583610 
# 
# From -- ./inp_files/186843.got.cif
#   From: 2010.05.17/outbox.cif.g08.bks.cpg/sg12_94_cif.got.tgz:186843.got - 2010.06.03 13:09:07.
