data_PCOD9186652
_publ_section_title
;
Structure prediction by ZEFSAII (Michael W. Deem and Ramdas Pophale) SiO2 
 PCOD9186652
Probable space group: C 2/M
;
_chemical_formula_sum "Si O2"
_cell_formula_units_Z 64
_cell_length_a 31.327631
_cell_length_b 14.257928
_cell_length_c 22.155305
_cell_angle_alpha 90.000000
_cell_angle_beta 15.682606
_cell_angle_gamma 90.000000
_cell_volume 2674.982153
_symmetry_space_group_name_H-M "C 2/M"
_symmetry_group_IT_number 12
_symmetry_cell_setting 'monoclinic'
loop_
_space_group_symop_operation_xyz
x,y,z
-x,y,-z
-x,-y,-z
x,-y,z
1/2+x,1/2+y,z
1/2-x,1/2+y,-z
1/2-x,1/2-y,-z
1/2+x,1/2-y,z
loop_
_atom_site_type_symbol
_atom_site_label
_atom_site_fract_x
_atom_site_fract_y
_atom_site_fract_z
Si Si1 0.500094 0.889760 0.066188
Si Si2 0.722182 0.858179 0.086447
Si Si3 0.778312 0.643661 0.041413
Si Si4 0.618143 0.199070 0.599106
Si Si5 0.175100 0.890909 0.314024
Si Si6 0.173276 0.395546 0.282176
Si Si7 0.176816 0.888722 0.580329
Si Si8 0.377768 0.216061 0.544747
O O1 0.333698 0.882519 0.325164
O O2 0.529843 0.000000 0.017559
O O3 0.500000 0.845137 0.000000
O O4 0.647547 0.862416 0.906213
O O5 0.775118 0.899008 0.950193
O O6 0.757459 0.902697 0.103137
O O7 0.533555 0.849225 0.333575
O O8 0.778616 0.752939 0.022674
O O9 0.963233 0.631642 0.807413
O O10 0.678031 0.621434 0.237601
O O11 0.757827 0.144626 0.443627
O O12 0.581487 0.298284 0.683599
O O13 0.666643 0.222611 0.464304
O O14 0.079858 0.816524 0.483961
O O15 0.142823 0.000000 0.371114
O O16 0.150063 0.500000 0.337039
O O17 0.236404 0.332831 0.250514
O O18 0.000000 0.354849 0.500000
O O19 0.124129 0.000000 0.651596
#
# Coordination Sequence:
#
# PCOD9186652 Si02
#       8
#     8   8   8   8   8   8   8   8
#     4   9  17  30  50  77 108 141 178 222 270 323
#     4   9  19  35  56  75 109 150 185 230 277 322
#     4  10  19  35  55  79 109 147 188 229 274 330
#     4  10  21  35  57  83 109 151 186 224 282 331
#     4  11  21  33  55  85 116 149 183 228 282 335
#     4   9  17  31  52  75  98 134 183 230 269 308
#     4  10  20  36  56  81 112 143 186 233 277 337
#     4  10  20  35  54  81 115 146 185 230 274 332
#
# _framework density 23.925394000000001
#
# number of rings (size 3 to 8) (size 9 to 14) (size 15 to 20)
#    0.000    2.250    2.500    0.750    0.000    2.500 
#    0.000    4.375    0.000    4.500    0.000    0.875 
#    0.000    0.000    0.000    0.000    0.000    0.000 
#
# Total GULP energy -178304.679936 kJ/mol
# GULP energy per Si atom -5572.021248 kJ/mol
# Density = 2.387094 g / cm^3
# Si number density = 23.925394 Si / 1000 Ang^3
#
#
#
# Elastic Constant Matrix: (Units=GPa)
#
#
# Indices 1 2 3 4 5 6 
#
# 1 185.3135 41.0731 29.7214 -0.0011 47.2576 0.0009
# 2 41.0731 114.2256 5.3684 -0.0006 20.5520 0.0008
# 3 29.7214 5.3684 34.4388 -0.0014 13.3849 0.0015
# 4 -0.0011 -0.0006 -0.0014 6.4745 0.0012 -1.0214
# 5 47.2576 20.5520 13.3849 0.0012 39.4691 -0.0010
# 6 0.0009 0.0008 0.0015 -1.0214 -0.0010 10.7657
#
#
#
# Elastic Compliance Matrix: (Units=1/GPa)
#
#
# Indices 1 2 3 4 5 6 
#
# 1 0.008361 -0.001390 -0.003904 0.000002 -0.007963 -0.000001
# 2 -0.001390 0.009899 0.001167 0.000002 -0.003886 -0.000001
# 3 -0.003904 0.001167 0.035296 0.000008 -0.007903 -0.000005
# 4 0.000002 0.000002 0.000008 0.156799 -0.000010 0.014876
# 5 -0.007963 -0.003886 -0.007903 -0.000010 0.039574 0.000005
# 6 -0.000001 -0.000001 -0.000005 0.014876 0.000005 0.094299
#
#
# Mechanical properties :
#
#
# Convention : Reuss Voigt Hill
#
# Bulk Modulus (GPa) = 22.07457 54.03373 38.05415
# Shear Modulus (GPa) = 13.60236 28.52953 21.06594
#
# Velocity S-wave (km/s) = 2.38698 3.45691 2.97052
# Velocity P-wave (km/s) = 4.10406 6.21023 5.26357
#
# Compressibility (1/GPa) = 0.04530100
#
# Stress axis : x y z
#
# Youngs Moduli (GPa) = 119.59793 101.02258 28.33176
#
# Poissons Ratio (x) = 0.14045 0.11062
# Poissons Ratio (y) = 0.16627 -0.03306
# Poissons Ratio (z) = 0.46694 -0.11789
#
# Static dielectric constant tensor:
#      x y z
#    x 1.997370 0.000000 0.003620 
#    y 0.000000 1.967310 0.000000 
#    z 0.003620 0.000000 2.046470 
# 
# From -- ./inp_files/330334.got.cif
#   From: 2010.05.17/outbox.cif.g08.bks.cpg/sg12_166_cif.got.tgz:330334.got - 2010.06.03 13:09:07.
