data_PCOD9186057
_publ_section_title
;
Structure prediction by ZEFSAII (Michael W. Deem and Ramdas Pophale) SiO2 
 PCOD9186057
Probable space group: C 2/M
;
_chemical_formula_sum "Si O2"
_cell_formula_units_Z 56
_cell_length_a 28.568749
_cell_length_b 9.116732
_cell_length_c 19.519659
_cell_angle_alpha 90.000000
_cell_angle_beta 38.474342
_cell_angle_gamma 90.000000
_cell_volume 3163.061183
_symmetry_space_group_name_H-M "C 2/M"
_symmetry_group_IT_number 12
_symmetry_cell_setting 'monoclinic'
loop_
_space_group_symop_operation_xyz
x,y,z
-x,y,-z
-x,-y,-z
x,-y,z
1/2+x,1/2+y,z
1/2-x,1/2+y,-z
1/2-x,1/2-y,-z
1/2+x,1/2-y,z
loop_
_atom_site_type_symbol
_atom_site_label
_atom_site_fract_x
_atom_site_fract_y
_atom_site_fract_z
Si Si1 0.946601 0.675285 0.626310
Si Si2 0.699876 0.673591 0.419496
Si Si3 0.641413 0.327162 0.925005
Si Si4 0.049715 0.673852 0.636676
Si Si5 0.143442 0.827162 0.758194
Si Si6 0.496521 0.173879 0.154964
Si Si7 0.798177 0.826310 0.746433
O O1 0.932452 0.500000 0.643708
O O2 0.868842 0.759403 0.705047
O O3 0.000000 0.706121 0.500000
O O4 0.992113 0.716197 0.642413
O O5 0.707205 0.500000 0.422722
O O6 0.627095 0.738407 0.539928
O O7 0.776562 0.755337 0.352182
O O8 0.689624 0.698035 0.349297
O O9 0.642128 0.500000 0.939519
O O10 0.633804 0.310802 0.851350
O O11 0.720455 0.253298 0.854104
O O12 0.571771 0.248908 0.040904
O O13 0.066122 0.500000 0.609174
O O14 0.013561 0.695467 0.752287
O O15 0.075244 0.746042 0.799457
O O16 0.143276 0.000000 0.742393
O O17 0.498375 0.000000 0.138793
O O18 0.791939 0.000000 0.764661
#
# Coordination Sequence:
#
# PCOD9186057 Si02
#       7
#     8   8   8   8   8   8   8
#     4  10  19  34  59  84 110 146 185 223 270 329
#     4  10  20  34  55  84 114 144 181 228 278 325
#     4  10  21  38  60  83 109 144 188 229 270 326
#     4  10  22  38  55  80 114 150 185 222 272 333
#     4  10  21  37  59  83 109 144 187 229 272 327
#     4  11  23  38  56  80 113 148 184 229 276 323
#     4  10  20  34  56  87 116 140 178 232 281 321
#
# _framework density 17.704369
#
# number of rings (size 3 to 8) (size 9 to 14) (size 15 to 20)
#    0.000    1.857    1.429    2.571    0.000    7.143 
#    0.000    0.714    0.000    0.000    0.000    0.000 
#    0.000    0.000    0.000    0.000    0.000    0.000 
#
# Total GULP energy -156437.080343 kJ/mol
# GULP energy per Si atom -5587.038584 kJ/mol
# Density = 1.766407 g / cm^3
# Si number density = 17.704369 Si / 1000 Ang^3
#
#
#
# Elastic Constant Matrix: (Units=GPa)
#
#
# Indices 1 2 3 4 5 6 
#
# 1 97.8706 82.3738 98.3167 -0.0031 -35.4137 0.0030
# 2 82.3738 70.1065 -2.2420 0.0109 1.8134 -0.0138
# 3 98.3167 -2.2420 -122.8741 0.0240 17.0270 -0.0322
# 4 -0.0031 0.0109 0.0240 31.3369 -0.0026 -7.8865
# 5 -35.4137 1.8134 17.0270 -0.0026 13.4203 0.0050
# 6 0.0030 -0.0138 -0.0322 -7.8865 0.0050 29.5735
#
#
#
# Elastic Compliance Matrix: (Units=1/GPa)
#
#
# Indices 1 2 3 4 5 6 
#
# 1 0.020467 -0.024166 0.021053 -0.000002 0.030564 0.000004
# 2 -0.024166 0.042818 -0.025307 -0.000001 -0.037447 0.000001
# 3 0.021053 -0.025307 0.014748 0.000002 0.040263 -0.000004
# 4 -0.000002 -0.000001 0.000002 0.034207 -0.000005 0.009122
# 5 0.030564 -0.037447 0.040263 -0.000005 0.109142 0.000003
# 6 0.000004 0.000001 -0.000004 0.009122 0.000003 0.036247
#
#
# Mechanical properties :
#
#
# Convention : Reuss Voigt Hill
#
# Bulk Modulus (GPa) = 47.18313 44.66667 45.92490
# Shear Modulus (GPa) = 15.55050 5.97644 10.76347
#
# Velocity S-wave (km/s) = 2.96690 1.83930 2.46835
# Velocity P-wave (km/s) = 6.20041 5.45845 5.84122
#
# Compressibility (1/GPa) = 0.02119401
#
# Stress axis : x y z
#
# Youngs Moduli (GPa) = 48.85834 23.35474 67.80540
#
# Poissons Ratio (x) = 0.56439 -1.42751
# Poissons Ratio (y) = 1.18071 1.71593
# Poissons Ratio (z) = -1.02862 0.59103
#
# Static dielectric constant tensor:
#      x y z
#    x 1.581890 0.000000 0.013670 
#    y 0.000000 1.588120 0.000000 
#    z 0.013670 0.000000 1.572720 
# 
# From -- ./inp_files/237817.got.cif
#   From: 2010.05.17/outbox.cif.g08.bks.cpg/sg12_119_cif.got.tgz:237817.got - 2010.06.03 13:09:07.
