data_PCOD9186126
_publ_section_title
;
Structure prediction by ZEFSAII (Michael W. Deem and Ramdas Pophale) SiO2 
 PCOD9186126
Probable space group: C 2/M
;
_chemical_formula_sum "Si O2"
_cell_formula_units_Z 56
_cell_length_a 19.364314
_cell_length_b 8.741425
_cell_length_c 27.571616
_cell_angle_alpha 90.000000
_cell_angle_beta 40.824969
_cell_angle_gamma 90.000000
_cell_volume 3051.114904
_symmetry_space_group_name_H-M "C 2/M"
_symmetry_group_IT_number 12
_symmetry_cell_setting 'monoclinic'
loop_
_space_group_symop_operation_xyz
x,y,z
-x,y,-z
-x,-y,-z
x,-y,z
1/2+x,1/2+y,z
1/2-x,1/2+y,-z
1/2-x,1/2-y,-z
1/2+x,1/2-y,z
loop_
_atom_site_type_symbol
_atom_site_label
_atom_site_fract_x
_atom_site_fract_y
_atom_site_fract_z
Si Si1 0.812899 0.321293 0.294740
Si Si2 0.284214 0.818923 0.929914
Si Si3 0.267938 0.169681 0.213517
Si Si4 0.016158 0.818710 0.235659
Si Si5 0.444442 0.823401 0.680586
Si Si6 0.615351 0.824367 0.949860
Si Si7 0.577325 0.815068 0.414876
O O1 0.815286 0.500000 0.307289
O O2 0.838007 0.309608 0.223889
O O3 0.692878 0.258464 0.361572
O O4 0.901888 0.231343 0.276481
O O5 0.390202 0.753172 0.847437
O O6 0.187625 0.775046 0.946034
O O7 0.297367 0.000000 0.927512
O O8 0.250000 0.750000 0.000000
O O9 0.181779 0.301311 0.255467
O O10 0.329658 0.166168 0.131281
O O11 0.215618 0.000000 0.247342
O O12 0.023578 0.764971 0.287818
O O13 0.029449 0.000000 0.226694
O O14 0.473280 0.769855 0.610563
O O15 0.474875 0.000000 0.670092
O O16 0.606034 0.000000 0.974063
O O17 0.500000 0.761835 0.000000
O O18 0.500000 0.775701 0.500000
O O19 0.589895 0.000000 0.406661
#
# Coordination Sequence:
#
# PCOD9186126 Si02
#       7
#     8   8   8   8   8   8   8
#     4  10  21  36  58  89 120 154 197 242 291 349
#     4  12  26  43  61  85 117 156 200 248 301 352
#     4   9  18  34  55  80 111 147 187 236 289 342
#     4  12  24  40  60  85 119 158 199 245 295 349
#     4  10  19  34  59  87 114 150 192 236 286 346
#     4  10  21  37  58  84 114 149 191 240 294 347
#     4   9  19  38  63  91 123 156 193 240 293 350
#
# _framework density 18.353947000000002
#
# number of rings (size 3 to 8) (size 9 to 14) (size 15 to 20)
#    0.000    1.714    1.429    3.429    2.000    1.714 
#    0.000    0.714    0.000    0.000    0.000    0.000 
#    0.000    0.000    0.000    0.000    0.000    0.000 
#
# Total GULP energy -156112.691293 kJ/mol
# GULP energy per Si atom -5575.453260 kJ/mol
# Density = 1.831217 g / cm^3
# Si number density = 18.353947 Si / 1000 Ang^3
#
#
#
# Elastic Constant Matrix: (Units=GPa)
#
#
# Indices 1 2 3 4 5 6 
#
# 1 134.5681 61.5601 67.9532 0.0000 16.7589 0.0003
# 2 61.5601 105.3315 48.9327 0.0001 10.8644 -0.0001
# 3 67.9532 48.9327 97.6952 0.0000 25.4188 0.0000
# 4 0.0000 0.0001 0.0000 16.5573 0.0000 23.2563
# 5 16.7589 10.8644 25.4188 0.0000 27.5032 0.0000
# 6 0.0003 -0.0001 0.0000 23.2563 0.0000 -106.4265
#
#
#
# Elastic Compliance Matrix: (Units=1/GPa)
#
#
# Indices 1 2 3 4 5 6 
#
# 1 0.012833 -0.004366 -0.006785 0.000000 0.000176 0.000000
# 2 -0.004366 0.013884 -0.004190 0.000000 0.001048 0.000000
# 3 -0.006785 -0.004190 0.020470 0.000000 -0.013129 0.000000
# 4 0.000000 0.000000 0.000000 0.046212 0.000000 0.010098
# 5 0.000176 0.001048 -0.013129 0.000000 0.047972 0.000000
# 6 0.000000 0.000000 0.000000 0.010098 0.000000 -0.007189
#
#
# Mechanical properties :
#
#
# Convention : Reuss Voigt Hill
#
# Bulk Modulus (GPa) = 60.58896 77.16519 68.87707
# Shear Modulus (GPa) = 29.34875 -1.86328 13.74273
#
# Velocity S-wave (km/s) = 4.00314 -1.00866 2.73932
# Velocity P-wave (km/s) = 7.37902 6.38573 6.90027
#
# Compressibility (1/GPa) = 0.01650466
#
# Stress axis : x y z
#
# Youngs Moduli (GPa) = 77.92496 72.02568 48.85246
#
# Poissons Ratio (x) = 0.31448 0.33146
# Poissons Ratio (y) = 0.34024 0.20468
# Poissons Ratio (z) = 0.52871 0.30178
#
# Static dielectric constant tensor:
#      x y z
#    x 1.621730 0.000000 0.046810 
#    y 0.000000 1.656770 0.000000 
#    z 0.046810 0.000000 1.615930 
# 
# From -- ./inp_files/342285.got.cif
#   From: 2010.05.17/outbox.cif.g08.bks.cpg/sg12_172_cif.got.tgz:342285.got - 2010.06.03 13:09:07.
