data_PCOD9186438
_publ_section_title
;
Structure prediction by ZEFSAII (Michael W. Deem and Ramdas Pophale) SiO2 
 PCOD9186438
Probable space group: C 2/M
;
_chemical_formula_sum "Si O2"
_cell_formula_units_Z 40
_cell_length_a 22.770031
_cell_length_b 14.266221
_cell_length_c 7.196811
_cell_angle_alpha 90.000000
_cell_angle_beta 121.208123
_cell_angle_gamma 90.000000
_cell_volume 1999.523313
_symmetry_space_group_name_H-M "C 2/M"
_symmetry_group_IT_number 12
_symmetry_cell_setting 'monoclinic'
loop_
_space_group_symop_operation_xyz
x,y,z
-x,y,-z
-x,-y,-z
x,-y,z
1/2+x,1/2+y,z
1/2-x,1/2+y,-z
1/2-x,1/2-y,-z
1/2+x,1/2-y,z
loop_
_atom_site_type_symbol
_atom_site_label
_atom_site_fract_x
_atom_site_fract_y
_atom_site_fract_z
Si Si1 0.711309 0.892474 0.431688
Si Si2 0.924208 0.792888 0.292916
Si Si3 0.080213 0.101088 0.074400
Si Si4 0.285386 0.736222 0.258372
Si Si5 0.579571 0.806054 0.080539
O O1 0.724179 0.829910 0.635066
O O2 0.751083 0.845551 0.324032
O O3 0.630867 0.880214 0.248620
O O4 0.728741 0.000000 0.487233
O O5 0.915471 0.881729 0.140255
O O6 0.864533 0.785741 0.343657
O O7 0.000000 0.794107 0.500000
O O8 0.916860 0.706163 0.136109
O O9 0.109636 0.000000 0.176441
O O10 0.105523 0.201780 0.190547
O O11 0.000000 0.099925 0.000000
O O12 0.250000 0.750000 0.000000
O O13 0.500000 0.817994 0.000000
#
# Coordination Sequence:
#
# PCOD9186438 Si02
#       5
#     8   8   8   8   8
#     4  11  25  44  68  94 126 171 220 267 323 391
#     4  10  19  34  63  94 129 172 210 263 319 375
#     4   8  16  31  53  86 128 168 204 250 314 378
#     4  11  23  45  67  92 132 173 212 269 326 384
#     4   9  18  37  62  93 133 170 203 269 326 374
#
# _framework density 20.004767999999999
#
# number of rings (size 3 to 8) (size 9 to 14) (size 15 to 20)
#    1.200    1.000    2.000    1.200    0.000    2.400 
#    0.000    8.000    0.000    2.400    0.000    0.000 
#    0.000    0.000    0.000    0.000    0.000    0.000 
#
# Total GULP energy -111466.304838 kJ/mol
# GULP energy per Si atom -5573.315242 kJ/mol
# Density = 1.995924 g / cm^3
# Si number density = 20.004768 Si / 1000 Ang^3
#
#
#
# Elastic Constant Matrix: (Units=GPa)
#
#
# Indices 1 2 3 4 5 6 
#
# 1 150.6887 51.4696 58.3375 0.0000 -7.4900 0.0000
# 2 51.4696 117.3097 18.5331 0.0000 -4.3523 0.0000
# 3 58.3375 18.5331 79.8173 0.0000 -2.2985 0.0000
# 4 0.0000 0.0000 0.0000 12.4745 0.0000 4.4463
# 5 -7.4900 -4.3523 -2.2985 0.0000 37.3840 0.0000
# 6 0.0000 0.0000 0.0000 4.4463 0.0000 22.1844
#
#
#
# Elastic Compliance Matrix: (Units=1/GPa)
#
#
# Indices 1 2 3 4 5 6 
#
# 1 0.010552 -0.003498 -0.006863 0.000000 0.001285 0.000000
# 2 -0.003498 0.010039 0.000239 0.000000 0.000483 0.000000
# 3 -0.006863 0.000239 0.017481 0.000000 -0.000272 0.000000
# 4 0.000000 0.000000 0.000000 0.086331 0.000000 -0.017303
# 5 0.001285 0.000483 -0.000272 0.000000 0.027046 0.000000
# 6 0.000000 0.000000 0.000000 -0.017303 0.000000 0.048545
#
#
# Mechanical properties :
#
#
# Convention : Reuss Voigt Hill
#
# Bulk Modulus (GPa) = 56.08712 67.16623 61.62668
# Shear Modulus (GPa) = 22.10632 29.04027 25.57330
#
# Velocity S-wave (km/s) = 3.32784 3.81421 3.57929
# Velocity P-wave (km/s) = 6.54704 7.28324 6.92493
#
# Compressibility (1/GPa) = 0.01782940
#
# Stress axis : x y z
#
# Youngs Moduli (GPa) = 94.77209 99.61021 57.20411
#
# Poissons Ratio (x) = 0.34840 0.39259
# Poissons Ratio (y) = 0.33148 -0.01369
# Poissons Ratio (z) = 0.65042 -0.02383
#
# Static dielectric constant tensor:
#      x y z
#    x 1.704500 0.000000 0.016130 
#    y 0.000000 1.703300 0.000000 
#    z 0.016130 0.000000 1.740720 
# 
# From -- ./inp_files/85294.got.cif
#   From: 2010.05.17/outbox.cif.g08.bks.cpg/sg12_43_cif.got.tgz:85294.got - 2010.06.03 13:09:07.
