data_PCOD9186766
_publ_section_title
;
Structure prediction by ZEFSAII (Michael W. Deem and Ramdas Pophale) SiO2 
 PCOD9186766
Probable space group: C 2/M
;
_chemical_formula_sum "Si O2"
_cell_formula_units_Z 32
_cell_length_a 17.143365
_cell_length_b 14.710197
_cell_length_c 21.920980
_cell_angle_alpha 90.000000
_cell_angle_beta 164.154210
_cell_angle_gamma 90.000000
_cell_volume 1509.438273
_symmetry_space_group_name_H-M "C 2/M"
_symmetry_group_IT_number 12
_symmetry_cell_setting 'monoclinic'
loop_
_space_group_symop_operation_xyz
x,y,z
-x,y,-z
-x,-y,-z
x,-y,z
1/2+x,1/2+y,z
1/2-x,1/2+y,-z
1/2-x,1/2-y,-z
1/2+x,1/2-y,z
loop_
_atom_site_type_symbol
_atom_site_label
_atom_site_fract_x
_atom_site_fract_y
_atom_site_fract_z
Si Si1 0.644011 0.500000 0.998055
Si Si2 0.777327 0.000000 0.071046
Si Si3 0.678796 0.361769 0.786904
Si Si4 0.049496 0.500000 0.608261
Si Si5 0.357210 0.500000 0.459037
Si Si6 0.316635 0.845847 0.208151
O O1 0.395804 0.500000 0.861565
O O2 0.523245 0.500000 0.838523
O O3 0.802113 0.406397 0.135683
O O4 0.475985 0.000000 0.808204
O O5 0.809769 0.085120 0.140328
O O6 0.470017 0.414666 0.583419
O O7 0.589056 0.257636 0.728211
O O8 0.000000 0.368227 0.000000
O O9 0.993346 0.408342 0.603955
O O10 0.000000 0.500000 0.500000
O O11 0.500000 0.500000 0.500000
O O12 0.000000 0.835254 0.000000
#
# Coordination Sequence:
#
# PCOD9186766 Si02
#       6
#     4   4   8   4   4   8
#     4   9  19  37  54  75 109 137 167 214 273 315
#     4  11  21  35  54  77 111 144 168 218 268 305
#     4  10  19  35  56  78 105 138 180 219 254 307
#     4   9  17  35  59  81 101 132 176 217 261 315
#     4  11  19  34  53  78 105 141 187 211 251 311
#     4   8  17  35  56  75 102 137 172 214 260 314
#
# _framework density 21.199940000000002
#
# number of rings (size 3 to 8) (size 9 to 14) (size 15 to 20)
#    0.000    2.500    2.500    2.250    0.000    2.000 
#   13.500    1.250    0.000    0.000    0.000    0.000 
#    0.000    0.000    0.000    0.000    0.000    0.000 
#
# Total GULP energy -89168.842261 kJ/mol
# GULP energy per Si atom -5573.052641 kJ/mol
# Density = 2.115169 g / cm^3
# Si number density = 21.199940 Si / 1000 Ang^3
#
#
#
# Elastic Constant Matrix: (Units=GPa)
#
#
# Indices 1 2 3 4 5 6 
#
# 1 115.5270 54.6705 24.4756 0.0497 -35.1929 0.0388
# 2 54.6705 247.0088 49.7041 0.0752 -49.9734 0.0496
# 3 24.4756 49.7041 90.4271 0.1466 -32.5863 0.1060
# 4 0.0497 0.0752 0.1466 7.6955 0.0697 -0.2263
# 5 -35.1929 -49.9734 -32.5863 0.0697 57.6261 0.0183
# 6 0.0388 0.0496 0.1060 -0.2263 0.0183 9.0366
#
#
#
# Elastic Compliance Matrix: (Units=1/GPa)
#
#
# Indices 1 2 3 4 5 6 
#
# 1 0.010976 -0.001268 -0.000319 -0.000103 0.005423 -0.000050
# 2 -0.001268 0.005215 -0.001473 -0.000042 0.002916 -0.000013
# 3 -0.000319 -0.001473 0.014349 -0.000322 0.006642 -0.000180
# 4 -0.000103 -0.000042 -0.000322 0.130053 -0.000440 0.003262
# 5 0.005423 0.002916 0.006642 -0.000440 0.026950 -0.000183
# 6 -0.000050 -0.000013 -0.000180 0.003262 -0.000183 0.110746
#
#
# Mechanical properties :
#
#
# Convention : Reuss Voigt Hill
#
# Bulk Modulus (GPa) = 40.94985 78.96259 59.95622
# Shear Modulus (GPa) = 15.99752 36.47915 26.23833
#
# Velocity S-wave (km/s) = 2.74998 4.15266 3.52186
# Velocity P-wave (km/s) = 5.42597 7.76661 6.69930
#
# Compressibility (1/GPa) = 0.02442011
#
# Stress axis : x y z
#
# Youngs Moduli (GPa) = 91.11047 191.74412 69.69169
#
# Poissons Ratio (x) = 0.24309 0.02226
# Poissons Ratio (y) = 0.11551 0.10263
# Poissons Ratio (z) = 0.02910 0.28238
#
# Static dielectric constant tensor:
#      x y z
#    x 2.011390 -0.000150 0.311910 
#    y -0.000150 1.769100 -0.000250 
#    z 0.311910 -0.000250 2.036750 
# 
# From -- ./inp_files/283940.got.cif
#   From: 2010.05.17/outbox.cif.g08.bks.cpg/sg12_142_cif.got.tgz:283940.got - 2010.06.03 13:09:07.
