data_PCOD9186262
_publ_section_title
;
Structure prediction by ZEFSAII (Michael W. Deem and Ramdas Pophale) SiO2 
 PCOD9186262
Probable space group: C 2/M
;
_chemical_formula_sum "Si O2"
_cell_formula_units_Z 36
_cell_length_a 23.623669
_cell_length_b 15.057416
_cell_length_c 8.241403
_cell_angle_alpha 90.000000
_cell_angle_beta 32.700792
_cell_angle_gamma 90.000000
_cell_volume 1583.781606
_symmetry_space_group_name_H-M "C 2/M"
_symmetry_group_IT_number 12
_symmetry_cell_setting 'monoclinic'
loop_
_space_group_symop_operation_xyz
x,y,z
-x,y,-z
-x,-y,-z
x,-y,z
1/2+x,1/2+y,z
1/2-x,1/2+y,-z
1/2-x,1/2-y,-z
1/2+x,1/2-y,z
loop_
_atom_site_type_symbol
_atom_site_label
_atom_site_fract_x
_atom_site_fract_y
_atom_site_fract_z
Si Si1 0.689139 0.500000 0.024488
Si Si2 0.874883 0.500000 0.808275
Si Si3 0.916083 0.807347 0.075110
Si Si4 0.388473 0.500000 0.164177
Si Si5 0.813656 0.310148 0.072540
Si Si6 0.607562 0.679936 0.386463
O O1 0.643858 0.588407 0.217018
O O2 0.812011 0.500000 0.786369
O O3 0.650663 0.500000 0.931395
O O4 0.838686 0.412942 0.991876
O O5 0.000000 0.500000 0.500000
O O6 0.996533 0.837383 0.737040
O O7 0.844695 0.733703 0.166347
O O8 0.000000 0.770662 0.000000
O O9 0.858936 0.897135 0.274109
O O10 0.500000 0.500000 0.000000
O O11 0.881025 0.258555 0.771250
O O12 0.693825 0.293681 0.312640
#
# Coordination Sequence:
#
# PCOD9186262 Si02
#       6
#     4   4   8   4   8   8
#     4  10  19  34  60  88 114 147 185 234 283 337
#     4  10  20  35  58  85 111 144 192 242 273 318
#     4  11  22  36  56  82 116 149 182 229 288 342
#     4  10  21  35  54  87 123 144 177 224 290 354
#     4  10  21  36  56  83 110 144 194 233 275 332
#     4  10  20  35  58  84 110 146 187 234 282 330
#
# _framework density 22.730405000000001
#
# number of rings (size 3 to 8) (size 9 to 14) (size 15 to 20)
#    0.000    1.778    2.222    2.667    0.000    1.778 
#    0.000    0.556    0.000    0.000    0.000    0.000 
#    0.000    0.000    0.000    0.000    0.000    0.000 
#
# Total GULP energy -100388.025673 kJ/mol
# GULP energy per Si atom -5577.112537 kJ/mol
# Density = 2.267867 g / cm^3
# Si number density = 22.730405 Si / 1000 Ang^3
#
#
#
# Elastic Constant Matrix: (Units=GPa)
#
#
# Indices 1 2 3 4 5 6 
#
# 1 217.4018 60.9357 13.0914 0.0000 -28.9164 0.0000
# 2 60.9357 156.5923 1.2320 0.0000 -4.3273 0.0000
# 3 13.0914 1.2320 83.6028 0.0000 -11.8190 0.0000
# 4 0.0000 0.0000 0.0000 18.5357 0.0000 -3.3493
# 5 -28.9164 -4.3273 -11.8190 0.0000 29.9649 0.0000
# 6 0.0000 0.0000 0.0000 -3.3493 0.0000 48.0124
#
#
#
# Elastic Compliance Matrix: (Units=1/GPa)
#
#
# Indices 1 2 3 4 5 6 
#
# 1 0.005924 -0.002156 -0.000139 0.000000 0.005351 0.000000
# 2 -0.002156 0.007197 0.000089 0.000000 -0.001006 0.000000
# 3 -0.000139 0.000089 0.012671 0.000000 0.004876 0.000000
# 4 0.000000 0.000000 0.000000 0.054639 0.000000 0.003812
# 5 0.005351 -0.001006 0.004876 0.000000 0.040314 0.000000
# 6 0.000000 0.000000 0.000000 0.003812 0.000000 0.021094
#
#
# Mechanical properties :
#
#
# Convention : Reuss Voigt Hill
#
# Bulk Modulus (GPa) = 46.77484 67.56834 57.17159
# Shear Modulus (GPa) = 32.59924 44.79179 38.69552
#
# Velocity S-wave (km/s) = 3.79115 4.44392 4.13045
# Velocity P-wave (km/s) = 6.30766 7.49145 6.92489
#
# Compressibility (1/GPa) = 0.02137902
#
# Stress axis : x y z
#
# Youngs Moduli (GPa) = 168.79725 138.95405 78.91911
#
# Poissons Ratio (x) = 0.29964 0.01101
# Poissons Ratio (y) = 0.36399 -0.00705
# Poissons Ratio (z) = 0.02355 -0.01241
#
# Static dielectric constant tensor:
#      x y z
#    x 1.916920 0.000000 0.036270 
#    y 0.000000 1.800940 0.000000 
#    z 0.036270 0.000000 1.927410 
# 
# From -- ./inp_files/58495.got.cif
#   From: 2010.05.17/outbox.cif.g08.bks.cpg/sg12_30_cif.got.tgz:58495.got - 2010.06.03 13:09:07.
