data_PCOD9186577
_publ_section_title
;
Structure prediction by ZEFSAII (Michael W. Deem and Ramdas Pophale) SiO2 
 PCOD9186577
Probable space group: C 2/M
;
_chemical_formula_sum "Si O2"
_cell_formula_units_Z 44
_cell_length_a 9.300976
_cell_length_b 23.667883
_cell_length_c 11.215351
_cell_angle_alpha 90.000000
_cell_angle_beta 67.232483
_cell_angle_gamma 90.000000
_cell_volume 2276.515865
_symmetry_space_group_name_H-M "C 2/M"
_symmetry_group_IT_number 12
_symmetry_cell_setting 'monoclinic'
loop_
_space_group_symop_operation_xyz
x,y,z
-x,y,-z
-x,-y,-z
x,-y,z
1/2+x,1/2+y,z
1/2-x,1/2+y,-z
1/2-x,1/2-y,-z
1/2+x,1/2-y,z
loop_
_atom_site_type_symbol
_atom_site_label
_atom_site_fract_x
_atom_site_fract_y
_atom_site_fract_z
Si Si1 0.130254 0.932037 0.550281
Si Si2 0.368819 0.729010 0.860043
Si Si3 0.704779 0.566158 0.786538
Si Si4 0.000000 0.857896 0.000000
Si Si5 0.583128 0.175610 0.843288
Si Si6 0.568550 0.934816 0.700269
O O1 0.125592 0.913243 0.688862
O O2 0.301509 0.922652 0.440985
O O3 0.000000 0.909922 0.500000
O O4 0.109676 0.000000 0.562822
O O5 0.477797 0.782393 0.796339
O O6 0.255839 0.701951 0.798741
O O7 0.250000 0.750000 0.000000
O O8 0.467244 0.681797 0.897772
O O9 0.665950 0.500000 0.817629
O O10 0.890941 0.569533 0.712855
O O11 0.644303 0.602692 0.916692
O O12 0.588946 0.112283 0.794208
O O13 0.500000 0.175793 0.000000
O O14 0.592891 0.000000 0.732507
#
# Coordination Sequence:
#
# PCOD9186577 Si02
#       6
#     8   8   8   4   8   8
#     4   9  19  37  57  82 114 155 199 236 288 352
#     4  10  19  35  54  81 109 155 198 234 283 340
#     4  10  21  36  57  86 122 155 189 239 295 353
#     4  12  21  34  60  88 117 150 196 240 294 346
#     4  10  20  35  56  85 114 154 196 238 288 344
#     4  10  21  37  59  87 117 153 195 240 294 349
#
# _framework density 19.327781000000002
#
# number of rings (size 3 to 8) (size 9 to 14) (size 15 to 20)
#    0.000    2.000    2.727    3.000    2.545    2.545 
#    0.000    0.909    0.000    1.091    4.727    0.000 
#    0.000    0.000    0.000    0.000    0.000    0.000 
#
# Total GULP energy -122647.340557 kJ/mol
# GULP energy per Si atom -5574.879116 kJ/mol
# Density = 1.928379 g / cm^3
# Si number density = 19.327781 Si / 1000 Ang^3
#
#
#
# Elastic Constant Matrix: (Units=GPa)
#
#
# Indices 1 2 3 4 5 6 
#
# 1 49.9199 27.3612 -3.7026 0.0000 -3.2295 0.0000
# 2 27.3612 90.3538 24.9556 0.0000 -0.4928 0.0000
# 3 -3.7026 24.9556 31.4931 0.0000 -5.7468 0.0000
# 4 0.0000 0.0000 0.0000 1.6531 0.0000 10.4517
# 5 -3.2295 -0.4928 -5.7468 0.0000 21.1185 0.0000
# 6 0.0000 0.0000 0.0000 10.4517 0.0000 18.2889
#
#
#
# Elastic Compliance Matrix: (Units=1/GPa)
#
#
# Indices 1 2 3 4 5 6 
#
# 1 0.028676 -0.012779 0.014988 0.000000 0.008166 0.000000
# 2 -0.012779 0.020030 -0.018568 0.000000 -0.006540 0.000000
# 3 0.014988 -0.018568 0.051106 0.000000 0.015766 0.000000
# 4 0.000000 0.000000 0.000000 -0.231491 0.000000 0.132292
# 5 0.008166 -0.006540 0.015766 0.000000 0.052738 0.000000
# 6 0.000000 0.000000 0.000000 0.132292 0.000000 -0.020924
#
#
# Mechanical properties :
#
#
# Convention : Reuss Voigt Hill
#
# Bulk Modulus (GPa) = 14.90457 29.88835 22.39646
# Shear Modulus (GPa) = -111.64933 16.42227 -47.61353
#
# Velocity S-wave (km/s) = -7.60866 2.91808 -4.96873
# Velocity P-wave (km/s) = 8.33431 5.18180 4.61571
#
# Compressibility (1/GPa) = 0.06709353
#
# Stress axis : x y z
#
# Youngs Moduli (GPa) = 34.87226 49.92492 19.56736
#
# Poissons Ratio (x) = 0.63798 -0.29327
# Poissons Ratio (y) = 0.44563 0.36332
# Poissons Ratio (z) = -0.52265 0.92700
#
# Static dielectric constant tensor:
#      x y z
#    x 1.673140 0.000000 -0.019550 
#    y 0.000000 1.697660 0.000000 
#    z -0.019550 0.000000 1.643340 
# 
# From -- ./inp_files/122348.got.cif
#   From: 2010.05.17/outbox.cif.g08.bks.cpg/sg12_62_cif.got.tgz:122348.got - 2010.06.03 13:09:07.
