data_PCOD9186051
_publ_section_title
;
Structure prediction by ZEFSAII (Michael W. Deem and Ramdas Pophale) SiO2 
 PCOD9186051
Probable space group: C 2/M
;
_chemical_formula_sum "Si O2"
_cell_formula_units_Z 40
_cell_length_a 30.022726
_cell_length_b 7.517462
_cell_length_c 22.894043
_cell_angle_alpha 90.000000
_cell_angle_beta 19.420668
_cell_angle_gamma 90.000000
_cell_volume 1718.055845
_symmetry_space_group_name_H-M "C 2/M"
_symmetry_group_IT_number 12
_symmetry_cell_setting 'monoclinic'
loop_
_space_group_symop_operation_xyz
x,y,z
-x,y,-z
-x,-y,-z
x,-y,z
1/2+x,1/2+y,z
1/2-x,1/2+y,-z
1/2-x,1/2-y,-z
1/2+x,1/2-y,z
loop_
_atom_site_type_symbol
_atom_site_label
_atom_site_fract_x
_atom_site_fract_y
_atom_site_fract_z
Si Si1 0.077809 0.214393 0.845378
Si Si2 0.592957 0.712858 0.186495
Si Si3 0.853722 0.297772 0.683782
Si Si4 0.083281 0.218445 0.069096
Si Si5 0.149401 0.791317 0.439401
O O1 0.232303 0.267420 0.660500
O O2 0.009404 0.276242 0.869956
O O3 0.070787 0.000000 0.854325
O O4 0.000000 0.278089 0.000000
O O5 0.578030 0.500000 0.205665
O O6 0.546900 0.775023 0.179273
O O7 0.491707 0.779413 0.361468
O O8 0.750000 0.750000 0.000000
O O9 0.872720 0.500000 0.681612
O O10 0.806561 0.300578 0.675005
O O11 0.000000 0.211757 0.500000
O O12 0.734989 0.218734 0.868471
O O13 0.085343 0.000000 0.065435
O O14 0.136787 0.000000 0.441783
#
# Coordination Sequence:
#
# PCOD9186051 Si02
#       5
#     8   8   8   8   8
#     4  10  19  36  61  84 109 145 195 240 273 322
#     4  10  22  40  59  82 115 151 186 229 281 335
#     4  10  19  34  59  84 105 143 198 240 272 323
#     4   9  18  35  58  82 108 144 191 238 272 316
#     4  11  23  36  54  84 121 150 177 227 293 345
#
# _framework density 23.282132000000001
#
# number of rings (size 3 to 8) (size 9 to 14) (size 15 to 20)
#    0.000    2.000    2.000    1.800    0.000    4.800 
#    0.000    2.000    0.000    0.000    0.000    0.000 
#    0.000    0.000    0.000    0.000    0.000    0.000 
#
# Total GULP energy -111779.752530 kJ/mol
# GULP energy per Si atom -5588.987627 kJ/mol
# Density = 2.322914 g / cm^3
# Si number density = 23.282132 Si / 1000 Ang^3
#
#
#
# Elastic Constant Matrix: (Units=GPa)
#
#
# Indices 1 2 3 4 5 6 
#
# 1 80.3899 2.2428 -9.7133 0.0046 -1.0254 -0.0031
# 2 2.2428 72.0150 0.6190 -0.0078 5.7355 0.0029
# 3 -9.7133 0.6190 76.1962 -0.0039 2.4320 -0.0004
# 4 0.0046 -0.0078 -0.0039 4.1137 0.0014 -6.3366
# 5 -1.0254 5.7355 2.4320 0.0014 45.7003 0.0006
# 6 -0.0031 0.0029 -0.0004 -6.3366 0.0006 15.6351
#
#
#
# Elastic Compliance Matrix: (Units=1/GPa)
#
#
# Indices 1 2 3 4 5 6 
#
# 1 0.012649 -0.000428 0.001608 -0.000025 0.000252 -0.000008
# 2 -0.000428 0.014041 -0.000112 0.000063 -0.001766 0.000023
# 3 0.001608 -0.000112 0.013351 0.000032 -0.000660 0.000014
# 4 -0.000025 0.000063 0.000032 0.647026 -0.000034 0.262228
# 5 0.000252 -0.001766 -0.000660 -0.000034 0.022144 -0.000014
# 6 -0.000008 0.000023 0.000014 0.262228 -0.000014 0.170235
#
#
# Mechanical properties :
#
#
# Convention : Reuss Voigt Hill
#
# Bulk Modulus (GPa) = 23.71000 23.87758 23.79379
# Shear Modulus (GPa) = 5.60935 28.78665 17.19800
#
# Velocity S-wave (km/s) = 1.55387 3.52010 2.72081
# Velocity P-wave (km/s) = 3.66405 5.17682 4.48468
#
# Compressibility (1/GPa) = 0.04217630
#
# Stress axis : x y z
#
# Youngs Moduli (GPa) = 79.05885 71.22041 74.90095
#
# Poissons Ratio (x) = 0.03047 -0.12043
# Poissons Ratio (y) = 0.03382 0.00841
# Poissons Ratio (z) = -0.12712 0.00799
#
# Static dielectric constant tensor:
#      x y z
#    x 1.895480 0.000000 -0.010820 
#    y 0.000000 1.885040 0.000000 
#    z -0.010820 0.000000 1.866970 
# 
# From -- ./inp_files/151671.got.cif
#   From: 2010.05.17/outbox.cif.g08.bks.cpg/sg12_76_cif.got.tgz:151671.got - 2010.06.03 13:09:07.
