data_PCOD9186984
_publ_section_title
;
Structure prediction by ZEFSAII (Michael W. Deem and Ramdas Pophale) SiO2 
 PCOD9186984
Probable space group: C 2/M
;
_chemical_formula_sum "Si O2"
_cell_formula_units_Z 64
_cell_length_a 22.261505
_cell_length_b 28.677457
_cell_length_c 8.598891
_cell_angle_alpha 90.000000
_cell_angle_beta 143.381122
_cell_angle_gamma 90.000000
_cell_volume 3274.464619
_symmetry_space_group_name_H-M "C 2/M"
_symmetry_group_IT_number 12
_symmetry_cell_setting 'monoclinic'
loop_
_space_group_symop_operation_xyz
x,y,z
-x,y,-z
-x,-y,-z
x,-y,z
1/2+x,1/2+y,z
1/2-x,1/2+y,-z
1/2-x,1/2-y,-z
1/2+x,1/2-y,z
loop_
_atom_site_type_symbol
_atom_site_label
_atom_site_fract_x
_atom_site_fract_y
_atom_site_fract_z
Si Si1 0.592353 0.055154 0.976937
Si Si2 0.803654 0.293174 0.794805
Si Si3 0.183675 0.298707 0.528196
Si Si4 0.994559 0.753571 0.798701
Si Si5 0.979504 0.139008 0.773267
Si Si6 0.806943 0.118460 0.920576
Si Si7 0.730219 0.616082 0.795366
Si Si8 0.870276 0.555084 0.576050
O O1 0.680323 0.081411 0.068188
O O2 0.615060 0.060265 0.208152
O O3 0.594592 0.000000 0.945272
O O4 0.475736 0.071431 0.715560
O O5 0.824413 0.315524 0.667393
O O6 0.716681 0.255420 0.588215
O O7 0.773587 0.332582 0.850730
O O8 0.897682 0.262119 0.038233
O O9 0.077435 0.290277 0.388915
O O10 0.261300 0.331272 0.776777
O O11 0.970996 0.806585 0.701179
O O12 0.000000 0.754576 0.000000
O O13 0.874019 0.113692 0.518683
O O14 0.000000 0.139679 0.000000
O O15 0.078090 0.116911 0.898472
O O16 0.728597 0.082458 0.680712
O O17 0.799803 0.111318 0.088841
O O18 0.860148 0.500000 0.522468
#
# Coordination Sequence:
#
# PCOD9186984 Si02
#       8
#     8   8   8   8   8   8   8   8
#     4   9  20  42  70  94 115 148 198 248 290 344
#     4  10  19  35  57  81 111 156 209 249 284 337
#     4  10  19  35  57  81 111 156 209 249 284 337
#     4   9  18  33  55  80 107 148 205 257 288 322
#     4  11  21  41  64  82 111 160 214 252 286 339
#     4  12  25  38  56  90 128 159 191 239 308 366
#     4  12  25  38  56  90 128 159 191 239 308 366
#     4   9  20  42  70  94 115 148 198 248 290 344
#
# _framework density 19.545179000000001
#
# number of rings (size 3 to 8) (size 9 to 14) (size 15 to 20)
#    0.000    1.750    2.500    3.375    1.750    1.500 
#    0.000    1.875    0.000    3.750    0.000    0.000 
#    0.000    0.000    0.000    0.000    0.000    0.000 
#
# Total GULP energy -178489.690213 kJ/mol
# GULP energy per Si atom -5577.802819 kJ/mol
# Density = 1.950069 g / cm^3
# Si number density = 19.545179 Si / 1000 Ang^3
#
#
#
# Elastic Constant Matrix: (Units=GPa)
#
#
# Indices 1 2 3 4 5 6 
#
# 1 99.4753 30.7978 14.8182 0.0000 26.3771 0.0000
# 2 30.7978 54.7122 14.7261 0.0000 14.3745 0.0000
# 3 14.8182 14.7261 29.4584 0.0000 24.2802 0.0000
# 4 0.0000 0.0000 0.0000 235.0329 0.0000 -109.0595
# 5 26.3771 14.3745 24.2802 0.0000 32.2146 0.0000
# 6 0.0000 0.0000 0.0000 -109.0595 0.0000 90.6851
#
#
#
# Elastic Compliance Matrix: (Units=1/GPa)
#
#
# Indices 1 2 3 4 5 6 
#
# 1 0.015067 -0.006674 0.009163 0.000000 -0.016265 0.000000
# 2 -0.006674 0.024260 -0.011490 0.000000 0.003300 0.000000
# 3 0.009163 -0.011490 0.097783 0.000000 -0.076075 0.000000
# 4 0.000000 0.000000 0.000000 0.009627 0.000000 0.011577
# 5 -0.016265 0.003300 -0.076075 0.000000 0.100225 0.000000
# 6 0.000000 0.000000 0.000000 0.011577 0.000000 0.024950
#
#
# Mechanical properties :
#
#
# Convention : Reuss Voigt Hill
#
# Bulk Modulus (GPa) = 8.39568 33.81445 21.10507
# Shear Modulus (GPa) = 15.16912 79.80679 47.48795
#
# Velocity S-wave (km/s) = 2.78889 6.39692 4.93450
# Velocity P-wave (km/s) = 3.83085 8.47933 6.57930
#
# Compressibility (1/GPa) = 0.11910882
#
# Stress axis : x y z
#
# Youngs Moduli (GPa) = 66.37022 41.21995 10.22671
#
# Poissons Ratio (x) = 0.27512 -0.09371
# Poissons Ratio (y) = 0.44298 0.11750
# Poissons Ratio (z) = -0.60818 0.47361
#
# Static dielectric constant tensor:
#      x y z
#    x 1.699790 0.000000 0.026680 
#    y 0.000000 1.682130 0.000000 
#    z 0.026680 0.000000 1.710380 
# 
# From -- ./inp_files/100246.got.cif
#   From: 2010.05.17/outbox.cif.g08.bks.cpg/sg12_51_cif.got.tgz:100246.got - 2010.06.03 13:09:07.
