data_PCOD9186521
_publ_section_title
;
Structure prediction by ZEFSAII (Michael W. Deem and Ramdas Pophale) SiO2 
 PCOD9186521
Probable space group: C 2/M
;
_chemical_formula_sum "Si O2"
_cell_formula_units_Z 56
_cell_length_a 14.611269
_cell_length_b 18.159440
_cell_length_c 14.910903
_cell_angle_alpha 90.000000
_cell_angle_beta 126.379328
_cell_angle_gamma 90.000000
_cell_volume 3185.285706
_symmetry_space_group_name_H-M "C 2/M"
_symmetry_group_IT_number 12
_symmetry_cell_setting 'monoclinic'
loop_
_space_group_symop_operation_xyz
x,y,z
-x,y,-z
-x,-y,-z
x,-y,z
1/2+x,1/2+y,z
1/2-x,1/2+y,-z
1/2-x,1/2-y,-z
1/2+x,1/2-y,z
loop_
_atom_site_type_symbol
_atom_site_label
_atom_site_fract_x
_atom_site_fract_y
_atom_site_fract_z
Si Si1 0.387686 0.412921 0.496979
Si Si2 0.559532 0.683171 0.299282
Si Si3 0.731602 0.129887 0.975381
Si Si4 0.302737 0.190147 0.701504
Si Si5 0.804243 0.238531 0.174993
Si Si6 0.989787 0.417982 0.887529
Si Si7 0.983204 0.916139 0.093172
O O1 0.500000 0.406289 0.500000
O O2 0.362036 0.500000 0.490636
O O3 0.412578 0.374850 0.606759
O O4 0.286173 0.366685 0.393188
O O5 0.653372 0.746172 0.339300
O O6 0.438284 0.720818 0.250842
O O7 0.542408 0.639295 0.196190
O O8 0.719443 0.182251 0.881883
O O9 0.616138 0.085759 0.920959
O O10 0.745510 0.181510 0.071416
O O11 0.848668 0.086119 0.035631
O O12 0.245491 0.226629 0.755679
O O13 0.411556 0.143819 0.798242
O O14 0.940981 0.500000 0.845614
O O15 0.000000 0.405616 0.000000
O O16 0.025065 0.000000 0.127767
O O17 0.000000 0.893144 0.000000
#
# Coordination Sequence:
#
# PCOD9186521 Si02
#       7
#     8   8   8   8   8   8   8
#     4  11  24  42  63  87 117 151 195 250 303 354
#     4  11  22  39  61  86 115 155 195 246 297 345
#     4  10  19  35  53  82 119 157 190 240 282 339
#     4  12  22  39  60  87 117 153 197 245 295 355
#     4  10  20  33  56  85 115 148 199 233 283 342
#     4  11  22  34  53  84 120 158 193 234 293 353
#     4  10  21  36  57  87 119 157 201 237 289 351
#
# _framework density 17.580839999999998
#
# number of rings (size 3 to 8) (size 9 to 14) (size 15 to 20)
#    0.000    1.286    4.286    2.571    0.000    0.571 
#    0.000    0.000    0.000    0.000    0.000    1.000 
#    0.000    0.000    0.000    0.000    0.000    0.000 
#
# Total GULP energy -156368.640887 kJ/mol
# GULP energy per Si atom -5584.594317 kJ/mol
# Density = 1.754083 g / cm^3
# Si number density = 17.580840 Si / 1000 Ang^3
#
#
#
# Elastic Constant Matrix: (Units=GPa)
#
#
# Indices 1 2 3 4 5 6 
#
# 1 80.1055 45.6642 33.4543 0.0000 -3.3730 0.0000
# 2 45.6642 107.5524 49.3239 0.0000 -5.8548 0.0000
# 3 33.4543 49.3239 71.1555 0.0000 -2.2295 0.0000
# 4 0.0000 0.0000 0.0000 -51.8373 0.0000 36.4235
# 5 -3.3730 -5.8548 -2.2295 0.0000 24.1796 0.0000
# 6 0.0000 0.0000 0.0000 36.4235 0.0000 0.9773
#
#
#
# Elastic Compliance Matrix: (Units=1/GPa)
#
#
# Indices 1 2 3 4 5 6 
#
# 1 0.017407 -0.005289 -0.004494 0.000000 0.000733 0.000000
# 2 -0.005289 0.015383 -0.008106 0.000000 0.002239 0.000000
# 3 -0.004494 -0.008106 0.021768 0.000000 -0.000583 0.000000
# 4 0.000000 0.000000 0.000000 -0.000710 0.000000 0.026445
# 5 0.000733 0.002239 -0.000583 0.000000 0.041948 0.000000
# 6 0.000000 0.000000 0.000000 0.026445 0.000000 0.037636
#
#
# Mechanical properties :
#
#
# Convention : Reuss Voigt Hill
#
# Bulk Modulus (GPa) = 53.25587 57.29982 55.27784
# Shear Modulus (GPa) = 28.49476 3.35531 15.92504
#
# Velocity S-wave (km/s) = 4.03026 1.38299 3.01295
# Velocity P-wave (km/s) = 7.21215 5.93407 6.60410
#
# Compressibility (1/GPa) = 0.01877727
#
# Stress axis : x y z
#
# Youngs Moduli (GPa) = 57.44943 65.00677 45.93970
#
# Poissons Ratio (x) = 0.34385 0.20647
# Poissons Ratio (y) = 0.30387 0.37240
# Poissons Ratio (z) = 0.25820 0.52696
#
# Static dielectric constant tensor:
#      x y z
#    x 1.583060 0.000000 0.003300 
#    y 0.000000 1.586690 0.000000 
#    z 0.003300 0.000000 1.571620 
# 
# From -- ./inp_files/133872.got.cif
#   From: 2010.05.17/outbox.cif.g08.bks.cpg/sg12_67_cif.got.tgz:133872.got - 2010.06.03 13:09:07.
