data_PCOD9186760
_publ_section_title
;
Structure prediction by ZEFSAII (Michael W. Deem and Ramdas Pophale) SiO2 
 PCOD9186760
Probable space group: C 2/M
;
_chemical_formula_sum "Si O2"
_cell_formula_units_Z 32
_cell_length_a 19.279046
_cell_length_b 14.643649
_cell_length_c 7.884658
_cell_angle_alpha 90.000000
_cell_angle_beta 44.924053
_cell_angle_gamma 90.000000
_cell_volume 1571.904947
_symmetry_space_group_name_H-M "C 2/M"
_symmetry_group_IT_number 12
_symmetry_cell_setting 'monoclinic'
loop_
_space_group_symop_operation_xyz
x,y,z
-x,y,-z
-x,-y,-z
x,-y,z
1/2+x,1/2+y,z
1/2-x,1/2+y,-z
1/2-x,1/2-y,-z
1/2+x,1/2-y,z
loop_
_atom_site_type_symbol
_atom_site_label
_atom_site_fract_x
_atom_site_fract_y
_atom_site_fract_z
Si Si1 0.454947 0.855970 0.388533
Si Si2 0.399237 0.000000 0.009498
Si Si3 0.308330 0.500000 0.757581
Si Si4 0.693943 0.000000 0.457752
Si Si5 0.097785 0.000000 0.029378
Si Si6 0.047109 0.852981 0.608240
O O1 0.500000 0.858924 0.500000
O O2 0.353359 0.911712 0.551946
O O3 0.441312 0.751356 0.358685
O O4 0.532588 0.912426 0.141423
O O5 0.349469 0.000000 0.278350
O O6 0.308033 0.000000 0.039544
O O7 0.351497 0.500000 0.872174
O O8 0.353451 0.411187 0.585912
O O9 0.811075 0.000000 0.254043
O O10 0.027707 0.088168 0.148828
O O11 0.000000 0.851677 0.500000
#
# Coordination Sequence:
#
# PCOD9186760 Si02
#       6
#     8   4   4   4   4   8
#     4  10  19  35  56  77  98 131 173 214 252 294
#     4  11  22  35  49  74 107 139 169 205 250 302
#     4   9  17  35  57  78 102 131 165 209 254 300
#     4  11  22  35  49  74 107 139 169 205 250 302
#     4   9  17  35  57  78 102 131 165 209 254 300
#     4   8  17  33  57  81 100 125 169 216 253 292
#
# _framework density 20.357465000000001
#
# number of rings (size 3 to 8) (size 9 to 14) (size 15 to 20)
#    0.000    2.500    0.000    6.000    0.000    2.000 
#    0.000   17.500    0.000    0.000    0.000    0.000 
#    0.000    0.000    0.000    0.000    0.000    0.000 
#
# Total GULP energy -89357.188964 kJ/mol
# GULP energy per Si atom -5584.824310 kJ/mol
# Density = 2.031113 g / cm^3
# Si number density = 20.357465 Si / 1000 Ang^3
#
#
#
# Elastic Constant Matrix: (Units=GPa)
#
#
# Indices 1 2 3 4 5 6 
#
# 1 36.4257 6.5717 -0.6971 0.0000 5.0758 0.0000
# 2 6.5717 184.6175 47.7700 0.0000 -5.4130 0.0000
# 3 -0.6971 47.7700 112.1479 0.0000 -1.4755 0.0000
# 4 0.0000 0.0000 0.0000 0.7982 0.0000 -6.7110
# 5 5.0758 -5.4130 -1.4755 0.0000 33.2458 0.0000
# 6 0.0000 0.0000 0.0000 -6.7110 0.0000 -6.5439
#
#
#
# Elastic Compliance Matrix: (Units=1/GPa)
#
#
# Indices 1 2 3 4 5 6 
#
# 1 0.028332 -0.001316 0.000677 0.000000 -0.004510 0.000000
# 2 -0.001316 0.006174 -0.002624 0.000000 0.001090 0.000000
# 3 0.000677 -0.002624 0.010038 0.000000 -0.000085 0.000000
# 4 0.000000 0.000000 0.000000 0.130199 0.000000 -0.133523
# 5 -0.004510 0.001090 -0.000085 0.000000 0.030941 0.000000
# 6 0.000000 0.000000 0.000000 -0.133523 0.000000 -0.015882
#
#
# Mechanical properties :
#
#
# Convention : Reuss Voigt Hill
#
# Bulk Modulus (GPa) = 26.30276 48.94224 37.62250
# Shear Modulus (GPa) = 23.92336 24.13645 24.02990
#
# Velocity S-wave (km/s) = 3.43179 3.44704 3.43942
# Velocity P-wave (km/s) = 5.35270 6.31952 5.85610
#
# Compressibility (1/GPa) = 0.03801882
#
# Stress axis : x y z
#
# Youngs Moduli (GPa) = 35.29584 161.96115 99.62621
#
# Poissons Ratio (x) = 0.21314 -0.06748
# Poissons Ratio (y) = 0.04645 0.26140
# Poissons Ratio (z) = -0.02391 0.42496
#
# Static dielectric constant tensor:
#      x y z
#    x 1.768260 0.000000 0.036530 
#    y 0.000000 1.693660 0.000000 
#    z 0.036530 0.000000 1.720200 
# 
# From -- ./inp_files/57864.got.cif
#   From: 2010.05.17/outbox.cif.g08.bks.cpg/sg12_29_cif.got.tgz:57864.got - 2010.06.03 13:09:07.
