data_PCOD9186268
_publ_section_title
;
Structure prediction by ZEFSAII (Michael W. Deem and Ramdas Pophale) SiO2 
 PCOD9186268
Probable space group: C 2/M
;
_chemical_formula_sum "Si O2"
_cell_formula_units_Z 56
_cell_length_a 15.434972
_cell_length_b 29.396513
_cell_length_c 5.382726
_cell_angle_alpha 90.000000
_cell_angle_beta 93.560743
_cell_angle_gamma 90.000000
_cell_volume 2437.612835
_symmetry_space_group_name_H-M "C 2/M"
_symmetry_group_IT_number 12
_symmetry_cell_setting 'monoclinic'
loop_
_space_group_symop_operation_xyz
x,y,z
-x,y,-z
-x,-y,-z
x,-y,z
1/2+x,1/2+y,z
1/2-x,1/2+y,-z
1/2-x,1/2-y,-z
1/2+x,1/2-y,z
loop_
_atom_site_type_symbol
_atom_site_label
_atom_site_fract_x
_atom_site_fract_y
_atom_site_fract_z
Si Si1 0.945189 0.261313 0.251990
Si Si2 0.613816 0.337398 0.792965
Si Si3 0.375388 0.052256 0.407608
Si Si4 0.713082 0.826178 0.905570
Si Si5 0.972331 0.083718 0.756426
Si Si6 0.409691 0.105670 0.904060
Si Si7 0.714105 0.397543 0.428771
O O1 0.918899 0.209914 0.323957
O O2 0.853989 0.287084 0.183147
O O3 0.000000 0.280243 0.500000
O O4 0.000000 0.259681 0.000000
O O5 0.526766 0.368704 0.784726
O O6 0.672341 0.373509 0.655842
O O7 0.685531 0.318585 0.006527
O O8 0.417765 0.080489 0.642709
O O9 0.273231 0.058363 0.459188
O O10 0.400942 0.000000 0.421895
O O11 0.389990 0.070930 0.129622
O O12 0.722327 0.860822 0.680131
O O13 0.662742 0.855488 0.105451
O O14 0.870296 0.092825 0.752818
O O15 0.000000 0.063187 0.500000
O O16 0.000000 0.055970 0.000000
O O17 0.500000 0.128180 0.000000
#
# Coordination Sequence:
#
# PCOD9186268 Si02
#       7
#     8   8   8   8   8   8   8
#     4  12  29  44  63  94 137 173 217 274 324 375
#     4  11  22  42  65  93 125 173 222 266 317 383
#     4  11  24  42  67 100 134 167 212 271 324 383
#     4  11  24  41  67  94 130 174 218 270 324 378
#     4  10  19  34  60  88 119 157 210 259 304 371
#     4  11  24  43  67  96 132 174 218 258 322 392
#     4  10  22  39  67  94 129 168 219 260 330 383
#
# _framework density 22.973296000000001
#
# number of rings (size 3 to 8) (size 9 to 14) (size 15 to 20)
#    0.000    1.143    2.857    3.429    4.000    4.571 
#    0.000    0.000    0.000    4.286    0.000    0.000 
#    0.000    0.000    0.000    0.000    0.000    0.000 
#
# Total GULP energy -155944.421473 kJ/mol
# GULP energy per Si atom -5569.443624 kJ/mol
# Density = 2.292101 g / cm^3
# Si number density = 22.973296 Si / 1000 Ang^3
#
#
#
# Elastic Constant Matrix: (Units=GPa)
#
#
# Indices 1 2 3 4 5 6 
#
# 1 112.1475 8.1767 14.7253 0.0000 24.4043 0.0000
# 2 8.1767 54.0387 1.4217 0.0000 8.0956 0.0000
# 3 14.7253 1.4217 120.9058 0.0000 13.4854 0.0000
# 4 0.0000 0.0000 0.0000 12.1181 0.0000 9.3123
# 5 24.4043 8.0956 13.4854 0.0000 47.4807 0.0000
# 6 0.0000 0.0000 0.0000 9.3123 0.0000 12.5837
#
#
#
# Elastic Compliance Matrix: (Units=1/GPa)
#
#
# Indices 1 2 3 4 5 6 
#
# 1 0.010125 -0.000783 -0.000680 0.000000 -0.004877 0.000000
# 2 -0.000783 0.019053 0.000195 0.000000 -0.002901 0.000000
# 3 -0.000680 0.000195 0.008588 0.000000 -0.002123 0.000000
# 4 0.000000 0.000000 0.000000 0.191322 0.000000 -0.141583
# 5 -0.004877 -0.002901 -0.002123 0.000000 0.024666 0.000000
# 6 0.000000 0.000000 0.000000 -0.141583 0.000000 0.184243
#
#
# Mechanical properties :
#
#
# Convention : Reuss Voigt Hill
#
# Bulk Modulus (GPa) = 28.38537 37.30436 32.84486
# Shear Modulus (GPa) = 11.05518 31.95438 21.50478
#
# Velocity S-wave (km/s) = 2.19605 3.73357 3.06286
# Velocity P-wave (km/s) = 4.33737 5.90419 5.18036
#
# Compressibility (1/GPa) = 0.03522942
#
# Stress axis : x y z
#
# Youngs Moduli (GPa) = 98.77002 52.48424 116.43873
#
# Poissons Ratio (x) = 0.04112 0.07917
# Poissons Ratio (y) = 0.07738 -0.02270
# Poissons Ratio (z) = 0.06715 -0.01023
#
# Static dielectric constant tensor:
#      x y z
#    x 1.967090 0.000000 0.022410 
#    y 0.000000 1.865450 0.000000 
#    z 0.022410 0.000000 1.978800 
# 
# From -- ./inp_files/13135.got.cif
#   From: 2010.05.17/outbox.cif.g08.bks.cpg/sg12_7_cif.got.tgz:13135.got - 2010.06.03 13:09:07.
