data_PCOD9186813
_publ_section_title
;
Structure prediction by ZEFSAII (Michael W. Deem and Ramdas Pophale) SiO2 
 PCOD9186813
Probable space group: C 2/M
;
_chemical_formula_sum "Si O2"
_cell_formula_units_Z 64
_cell_length_a 15.974621
_cell_length_b 21.693172
_cell_length_c 9.087069
_cell_angle_alpha 90.000000
_cell_angle_beta 81.957177
_cell_angle_gamma 90.000000
_cell_volume 3118.060100
_symmetry_space_group_name_H-M "C 2/M"
_symmetry_group_IT_number 12
_symmetry_cell_setting 'monoclinic'
loop_
_space_group_symop_operation_xyz
x,y,z
-x,y,-z
-x,-y,-z
x,-y,z
1/2+x,1/2+y,z
1/2-x,1/2+y,-z
1/2-x,1/2-y,-z
1/2+x,1/2-y,z
loop_
_atom_site_type_symbol
_atom_site_label
_atom_site_fract_x
_atom_site_fract_y
_atom_site_fract_z
Si Si1 0.650073 0.345353 0.572587
Si Si2 0.914297 0.246032 0.615173
Si Si3 0.263823 0.928858 0.737826
Si Si4 0.403521 0.572502 0.680476
Si Si5 0.433244 0.070028 0.146331
Si Si6 0.002353 0.833411 0.824609
Si Si7 0.946510 0.386649 0.650996
Si Si8 0.245723 0.425878 0.929486
O O1 0.659271 0.286937 0.460458
O O2 0.726956 0.384147 0.621565
O O3 0.601079 0.392219 0.473479
O O4 0.593029 0.323871 0.724934
O O5 0.934807 0.212860 0.764484
O O6 0.909143 0.318818 0.632530
O O7 0.000000 0.234416 0.500000
O O8 0.365890 0.927285 0.712096
O O9 0.235905 0.000000 0.721925
O O10 0.236135 0.905861 0.907574
O O11 0.411540 0.500000 0.656317
O O12 0.474637 0.599675 0.770377
O O13 0.317311 0.586351 0.792211
O O14 0.480994 0.114796 0.244761
O O15 0.344934 0.095178 0.107957
O O16 0.420200 0.000000 0.211716
O O17 0.500000 0.063433 0.000000
O O18 0.000000 0.829440 0.000000
O O19 0.000000 0.410098 0.500000
O O20 0.238186 0.500000 0.944540
#
# Coordination Sequence:
#
# PCOD9186813 Si02
#       8
#     8   8   8   8   8   8   8   8
#     4  10  21  37  59  82 114 152 185 237 284 335
#     4   8  19  40  58  80 110 150 193 237 284 329
#     4  11  22  36  56  86 120 151 188 235 284 339
#     4  10  20  34  56  84 114 150 187 228 288 349
#     4  10  19  35  56  80 115 154 190 234 289 338
#     4  10  20  37  61  83 111 145 188 240 285 337
#     4  11  23  37  58  85 113 154 197 237 281 338
#     4   9  19  35  53  79 119 153 184 231 281 337
#
# _framework density 20.525583000000001
#
# number of rings (size 3 to 8) (size 9 to 14) (size 15 to 20)
#    0.000    2.125    1.250    2.625    1.750    3.750 
#    0.000    0.000    0.000    3.750    0.000    0.000 
#    0.000    0.000    0.000    0.000    0.000    0.000 
#
# Total GULP energy -178396.961900 kJ/mol
# GULP energy per Si atom -5574.905059 kJ/mol
# Density = 2.047887 g / cm^3
# Si number density = 20.525583 Si / 1000 Ang^3
#
#
#
# Elastic Constant Matrix: (Units=GPa)
#
#
# Indices 1 2 3 4 5 6 
#
# 1 41.1141 11.2182 18.5806 0.0000 19.2186 0.0000
# 2 11.2182 40.2039 15.5551 0.0000 8.1390 0.0000
# 3 18.5806 15.5551 128.1448 0.0000 13.4791 0.0000
# 4 0.0000 0.0000 0.0000 8.3222 0.0000 2.5960
# 5 19.2186 8.1390 13.4791 0.0000 32.5824 0.0000
# 6 0.0000 0.0000 0.0000 2.5960 0.0000 25.3686
#
#
#
# Elastic Compliance Matrix: (Units=1/GPa)
#
#
# Indices 1 2 3 4 5 6 
#
# 1 0.035614 -0.005165 -0.002575 0.000000 -0.018651 0.000000
# 2 -0.005165 0.027806 -0.002317 0.000000 -0.002941 0.000000
# 3 -0.002575 -0.002317 0.008612 0.000000 -0.001465 0.000000
# 4 0.000000 0.000000 0.000000 0.124122 0.000000 -0.012702
# 5 -0.018651 -0.002941 -0.001465 0.000000 0.043033 0.000000
# 6 0.000000 0.000000 0.000000 -0.012702 0.000000 0.040719
#
#
# Mechanical properties :
#
#
# Convention : Reuss Voigt Hill
#
# Bulk Modulus (GPa) = 19.26117 33.35227 26.30672
# Shear Modulus (GPa) = 15.75656 24.19524 19.97590
#
# Velocity S-wave (km/s) = 2.77366 3.43707 3.12303
# Velocity P-wave (km/s) = 4.43418 5.66000 5.08417
#
# Compressibility (1/GPa) = 0.05191794
#
# Stress axis : x y z
#
# Youngs Moduli (GPa) = 28.07873 35.96308 116.11124
#
# Poissons Ratio (x) = 0.18576 0.29900
# Poissons Ratio (y) = 0.14504 0.26903
# Poissons Ratio (z) = 0.07231 0.08333
#
# Static dielectric constant tensor:
#      x y z
#    x 1.721720 0.000000 -0.041720 
#    y 0.000000 1.771150 0.000000 
#    z -0.041720 0.000000 1.663720 
# 
# From -- ./inp_files/65881.got.cif
#   From: 2010.05.17/outbox.cif.g08.bks.cpg/sg12_33_cif.got.tgz:65881.got - 2010.06.03 13:09:07.
