data_PCOD9186255
_publ_section_title
;
Structure prediction by ZEFSAII (Michael W. Deem and Ramdas Pophale) SiO2 
 PCOD9186255
Probable space group: C 2/M
;
_chemical_formula_sum "Si O2"
_cell_formula_units_Z 56
_cell_length_a 13.081016
_cell_length_b 24.187258
_cell_length_c 11.286500
_cell_angle_alpha 90.000000
_cell_angle_beta 130.555640
_cell_angle_gamma 90.000000
_cell_volume 2713.140958
_symmetry_space_group_name_H-M "C 2/M"
_symmetry_group_IT_number 12
_symmetry_cell_setting 'monoclinic'
loop_
_space_group_symop_operation_xyz
x,y,z
-x,y,-z
-x,-y,-z
x,-y,z
1/2+x,1/2+y,z
1/2-x,1/2+y,-z
1/2-x,1/2-y,-z
1/2+x,1/2-y,z
loop_
_atom_site_type_symbol
_atom_site_label
_atom_site_fract_x
_atom_site_fract_y
_atom_site_fract_z
Si Si1 0.469600 0.395188 0.110018
Si Si2 0.447048 0.202191 0.327872
Si Si3 0.068767 0.562972 0.178282
Si Si4 0.256507 0.940806 0.371648
Si Si5 0.994645 0.823461 0.627265
Si Si6 0.173956 0.408680 0.828114
Si Si7 0.698048 0.845613 0.405194
O O1 0.597089 0.435207 0.224962
O O2 0.471508 0.356654 0.228191
O O3 0.500000 0.370383 0.000000
O O4 0.320947 0.420940 0.991305
O O5 0.500000 0.188605 0.500000
O O6 0.418580 0.267321 0.309026
O O7 0.336746 0.157534 0.205383
O O8 0.569116 0.191993 0.328688
O O9 0.120862 0.500000 0.224781
O O10 0.175135 0.612320 0.278970
O O11 0.949572 0.572501 0.184398
O O12 0.000000 0.569438 0.000000
O O13 0.332781 0.936100 0.305294
O O14 0.294502 0.889459 0.481325
O O15 0.284765 0.000000 0.448985
O O16 0.834646 0.811540 0.511516
O O17 0.000000 0.851274 0.500000
#
# Coordination Sequence:
#
# PCOD9186255 Si02
#       7
#     8   8   8   8   8   8   8
#     4   9  21  38  56  84 117 147 182 237 279 330
#     4  10  19  36  57  85 109 145 182 232 283 332
#     4  10  22  36  53  78 112 151 185 225 277 332
#     4  10  19  34  60  87 111 144 184 230 282 334
#     4  10  22  37  60  82 108 150 192 228 281 337
#     4  10  20  35  58  81 117 140 183 229 283 331
#     4  10  20  37  57  80 113 142 184 237 274 335
#
# _framework density 20.640284999999999
#
# number of rings (size 3 to 8) (size 9 to 14) (size 15 to 20)
#    0.000    2.143    1.429    1.286    2.000    3.714 
#    0.000    5.000    0.000    2.143    0.000    0.000 
#    0.000    0.000    0.000    0.000    0.000    0.000 
#
# Total GULP energy -156041.906777 kJ/mol
# GULP energy per Si atom -5572.925242 kJ/mol
# Density = 2.059331 g / cm^3
# Si number density = 20.640285 Si / 1000 Ang^3
#
#
#
# Elastic Constant Matrix: (Units=GPa)
#
#
# Indices 1 2 3 4 5 6 
#
# 1 35.5882 -0.8190 2.1430 0.0000 -4.9982 0.0000
# 2 -0.8190 70.5974 11.5798 0.0000 -16.6908 0.0000
# 3 2.1430 11.5798 74.2513 0.0000 -18.6995 0.0000
# 4 0.0000 0.0000 0.0000 17.9420 0.0000 -4.6241
# 5 -4.9982 -16.6908 -18.6995 0.0000 31.5960 0.0000
# 6 0.0000 0.0000 0.0000 -4.6241 0.0000 12.5116
#
#
#
# Elastic Compliance Matrix: (Units=1/GPa)
#
#
# Indices 1 2 3 4 5 6 
#
# 1 0.028905 0.001609 0.000330 0.000000 0.005618 0.000000
# 2 0.001609 0.016288 -0.000418 0.000000 0.008612 0.000000
# 3 0.000330 -0.000418 0.015842 0.000000 0.009207 0.000000
# 4 0.000000 0.000000 0.000000 0.061603 0.000000 0.022767
# 5 0.005618 0.008612 0.009207 0.000000 0.042536 0.000000
# 6 0.000000 0.000000 0.000000 0.022767 0.000000 0.088340
#
#
# Mechanical properties :
#
#
# Convention : Reuss Voigt Hill
#
# Bulk Modulus (GPa) = 15.60604 22.91606 19.26105
# Shear Modulus (GPa) = 18.39369 23.57879 20.98624
#
# Velocity S-wave (km/s) = 2.98846 3.38356 3.19213
# Velocity P-wave (km/s) = 4.41421 5.13725 4.78939
#
# Compressibility (1/GPa) = 0.06407777
#
# Stress axis : x y z
#
# Youngs Moduli (GPa) = 34.59565 61.39492 63.12255
#
# Poissons Ratio (x) = -0.09881 -0.02080
# Poissons Ratio (y) = -0.05568 0.02638
# Poissons Ratio (z) = -0.01140 0.02566
#
# Static dielectric constant tensor:
#      x y z
#    x 1.746240 0.000000 -0.010220 
#    y 0.000000 1.742720 0.000000 
#    z -0.010220 0.000000 1.748510 
# 
# From -- ./inp_files/135489.got.cif
#   From: 2010.05.17/outbox.cif.g08.bks.cpg/sg12_68_cif.got.tgz:135489.got - 2010.06.03 13:09:07.
