data_PCOD9186013
_publ_section_title
;
Structure prediction by ZEFSAII (Michael W. Deem and Ramdas Pophale) SiO2 
 PCOD9186013
Probable space group: C 2/M
;
_chemical_formula_sum "Si O2"
_cell_formula_units_Z 58
_cell_length_a 28.589454
_cell_length_b 12.236886
_cell_length_c 8.037020
_cell_angle_alpha 90.000000
_cell_angle_beta 92.328167
_cell_angle_gamma 90.000000
_cell_volume 2809.397464
_symmetry_space_group_name_H-M "C 2/M"
_symmetry_group_IT_number 12
_symmetry_cell_setting 'monoclinic'
loop_
_space_group_symop_operation_xyz
x,y,z
-x,y,-z
-x,-y,-z
x,-y,z
1/2+x,1/2+y,z
1/2-x,1/2+y,-z
1/2-x,1/2-y,-z
1/2+x,1/2-y,z
loop_
_atom_site_type_symbol
_atom_site_label
_atom_site_fract_x
_atom_site_fract_y
_atom_site_fract_z
Si Si1 0.298995 0.621771 0.741382
Si Si2 0.986912 0.377368 0.195954
Si Si3 0.845376 0.708985 0.518355
Si Si4 0.088476 0.379493 0.208565
Si Si5 0.572553 0.677932 0.669808
Si Si6 0.500000 0.500000 0.500000
Si Si7 0.628983 0.300678 0.989957
Si Si8 0.305102 0.124363 0.175554
O O1 0.295969 0.500000 0.667870
O O2 0.308507 0.712760 0.604589
O O3 0.250578 0.641876 0.830974
O O4 0.342482 0.627652 0.874999
O O5 0.968008 0.500000 0.217276
O O6 0.038050 0.370501 0.287967
O O7 0.953967 0.285679 0.265560
O O8 0.000000 0.365668 0.000000
O O9 0.869418 0.631972 0.657178
O O10 0.887461 0.784692 0.453717
O O11 0.822618 0.641957 0.366452
O O12 0.089737 0.500000 0.128741
O O13 0.093987 0.278013 0.085955
O O14 0.535458 0.595193 0.585234
O O15 0.601548 0.639258 0.838261
O O16 0.666658 0.214825 0.921645
O O17 0.314775 0.000000 0.121828
#
# Coordination Sequence:
#
# PCOD9186013 Si02
#       8
#     8   8   8   8   8   2   8   8
#     4  10  22  39  61  85 119 159 204 250 299 356
#     4  10  20  37  63  92 123 150 194 252 315 366
#     4  10  22  38  59  86 122 158 203 245 299 364
#     4  10  19  34  58  90 123 156 189 244 302 366
#     4  11  24  42  61  86 119 166 209 257 304 359
#     4  12  28  44  60  84 128 164 222 262 296 352
#     4  10  21  37  61  89 120 153 204 249 303 358
#     4  10  20  37  61  92 123 156 191 246 311 373
#
# _framework density 20.644997
#
# number of rings (size 3 to 8) (size 9 to 14) (size 15 to 20)
#    0.000    1.793    1.379    2.483    1.931    2.759 
#    0.000    2.069    0.000    8.276    0.000    0.000 
#    0.000    0.000    0.000    0.000    0.000    0.000 
#
# Total GULP energy -161626.270455 kJ/mol
# GULP energy per Si atom -5573.319671 kJ/mol
# Density = 2.059801 g / cm^3
# Si number density = 20.644997 Si / 1000 Ang^3
#
#
#
# Elastic Constant Matrix: (Units=GPa)
#
#
# Indices 1 2 3 4 5 6 
#
# 1 65.7724 23.5830 0.5593 0.0000 9.0494 0.0000
# 2 23.5830 79.5654 6.8090 0.0000 -1.3642 0.0000
# 3 0.5593 6.8090 33.0470 0.0000 8.4751 0.0000
# 4 0.0000 0.0000 0.0000 0.5265 0.0000 1.2714
# 5 9.0494 -1.3642 8.4751 0.0000 28.8025 0.0000
# 6 0.0000 0.0000 0.0000 1.2714 0.0000 10.7592
#
#
#
# Elastic Compliance Matrix: (Units=1/GPa)
#
#
# Indices 1 2 3 4 5 6 
#
# 1 0.018161 -0.005721 0.002600 0.000000 -0.006742 0.000000
# 2 -0.005721 0.014656 -0.003853 0.000000 0.003625 0.000000
# 3 0.002600 -0.003853 0.033818 0.000000 -0.010950 0.000000
# 4 0.000000 0.000000 0.000000 2.658121 0.000000 -0.314116
# 5 -0.006742 0.003625 -0.010950 0.000000 0.040231 0.000000
# 6 0.000000 0.000000 0.000000 -0.314116 0.000000 0.130063
#
#
# Mechanical properties :
#
#
# Convention : Reuss Voigt Hill
#
# Bulk Modulus (GPa) = 18.97951 26.69858 22.83905
# Shear Modulus (GPa) = 1.70849 17.84653 9.77751
#
# Velocity S-wave (km/s) = 0.91069 2.94334 2.17860
# Velocity P-wave (km/s) = 3.21233 4.95089 4.17315
#
# Compressibility (1/GPa) = 0.05268840
#
# Stress axis : x y z
#
# Youngs Moduli (GPa) = 55.06395 68.23247 29.57003
#
# Poissons Ratio (x) = 0.39035 -0.07689
# Poissons Ratio (y) = 0.31502 0.11392
# Poissons Ratio (z) = -0.14319 0.26287
#
# Static dielectric constant tensor:
#      x y z
#    x 1.739740 0.000000 0.026220 
#    y 0.000000 1.696710 0.000000 
#    z 0.026220 0.000000 1.773070 
# 
# From -- ./inp_files/110053.got.cif
#   From: 2010.05.17/outbox.cif.g08.bks.cpg/sg12_56_cif.got.tgz:110053.got - 2010.06.03 13:09:07.
