data_PCOD9186592
_publ_section_title
;
Structure prediction by ZEFSAII (Michael W. Deem and Ramdas Pophale) SiO2 
 PCOD9186592
Probable space group: C 2/M
;
_chemical_formula_sum "Si O2"
_cell_formula_units_Z 48
_cell_length_a 26.383457
_cell_length_b 11.556768
_cell_length_c 15.459776
_cell_angle_alpha 90.000000
_cell_angle_beta 28.815740
_cell_angle_gamma 90.000000
_cell_volume 2272.025890
_symmetry_space_group_name_H-M "C 2/M"
_symmetry_group_IT_number 12
_symmetry_cell_setting 'monoclinic'
loop_
_space_group_symop_operation_xyz
x,y,z
-x,y,-z
-x,-y,-z
x,-y,z
1/2+x,1/2+y,z
1/2-x,1/2+y,-z
1/2-x,1/2-y,-z
1/2+x,1/2-y,z
loop_
_atom_site_type_symbol
_atom_site_label
_atom_site_fract_x
_atom_site_fract_y
_atom_site_fract_z
Si Si1 0.743262 0.723531 0.280823
Si Si2 0.904949 0.807858 0.818711
Si Si3 0.767023 0.120596 0.880563
Si Si4 0.445023 0.867288 0.487920
Si Si5 0.186392 0.860628 0.556176
Si Si6 0.557792 0.372449 0.046557
O O1 0.724075 0.628896 0.235043
O O2 0.675992 0.831274 0.341783
O O3 0.700789 0.668919 0.432818
O O4 0.862642 0.773800 0.107677
O O5 0.873191 0.870067 0.777326
O O6 0.923852 0.877406 0.877086
O O7 0.998670 0.721153 0.659692
O O8 0.806533 0.726679 0.987256
O O9 0.715262 0.000000 0.984861
O O10 0.500000 0.852595 0.500000
O O11 0.458728 0.000000 0.443412
O O12 0.250000 0.750000 0.500000
O O13 0.067188 0.849524 0.771250
O O14 0.215327 0.000000 0.526458
O O15 0.581069 0.500000 0.974142
#
# Coordination Sequence:
#
# PCOD9186592 Si02
#       6
#     8   8   8   8   8   8
#     4  11  22  41  64  94 127 168 218 264 324 385
#     4  10  19  35  54  86 125 168 215 252 309 372
#     4  10  20  33  54  84 123 166 208 257 307 368
#     4  11  21  34  54  87 131 174 218 266 312 371
#     4  11  26  49  73  99 130 164 215 278 345 410
#     4  10  22  41  67  96 131 171 214 266 321 393
#
# _framework density 21.126518999999998
#
# number of rings (size 3 to 8) (size 9 to 14) (size 15 to 20)
#    0.000    1.500    3.333    2.000    0.000    2.000 
#    0.000    5.000    0.000    0.000    0.000    0.000 
#    0.000    0.000    0.000    0.000    0.000    0.000 
#
# Total GULP energy -133639.493635 kJ/mol
# GULP energy per Si atom -5568.312235 kJ/mol
# Density = 2.107843 g / cm^3
# Si number density = 21.126519 Si / 1000 Ang^3
#
#
#
# Elastic Constant Matrix: (Units=GPa)
#
#
# Indices 1 2 3 4 5 6 
#
# 1 61.6145 30.4208 9.8480 0.0000 -6.8361 0.0000
# 2 30.4208 117.4704 12.4643 0.0000 -8.1444 0.0000
# 3 9.8480 12.4643 61.0273 0.0000 -6.2550 0.0000
# 4 0.0000 0.0000 0.0000 50.7422 0.0000 2.0706
# 5 -6.8361 -8.1444 -6.2550 0.0000 26.6040 0.0000
# 6 0.0000 0.0000 0.0000 2.0706 0.0000 13.5004
#
#
#
# Elastic Compliance Matrix: (Units=1/GPa)
#
#
# Indices 1 2 3 4 5 6 
#
# 1 0.019108 -0.004539 -0.001840 0.000000 0.003088 0.000000
# 2 -0.004539 0.009919 -0.001129 0.000000 0.001605 0.000000
# 3 -0.001840 -0.001129 0.017245 0.000000 0.003236 0.000000
# 4 0.000000 0.000000 0.000000 0.019832 0.000000 -0.003042
# 5 0.003088 0.001605 0.003236 0.000000 0.039634 0.000000
# 6 0.000000 0.000000 0.000000 -0.003042 0.000000 0.074539
#
#
# Mechanical properties :
#
#
# Convention : Reuss Voigt Hill
#
# Bulk Modulus (GPa) = 31.99325 38.39759 35.19542
# Shear Modulus (GPa) = 24.30599 30.66125 27.48362
#
# Velocity S-wave (km/s) = 3.39558 3.81375 3.61072
# Velocity P-wave (km/s) = 5.52718 6.13249 5.83769
#
# Compressibility (1/GPa) = 0.03125660
#
# Stress axis : x y z
#
# Youngs Moduli (GPa) = 52.33526 100.81392 57.98685
#
# Poissons Ratio (x) = 0.45758 0.10669
# Poissons Ratio (y) = 0.23754 0.06547
# Poissons Ratio (z) = 0.09629 0.11382
#
# Static dielectric constant tensor:
#      x y z
#    x 1.843270 0.000000 -0.008460 
#    y 0.000000 1.778290 0.000000 
#    z -0.008460 0.000000 1.799710 
# 
# From -- ./inp_files/213531.got.cif
#   From: 2010.05.17/outbox.cif.g08.bks.cpg/sg12_107_cif.got.tgz:213531.got - 2010.06.03 13:09:07.
