data_PCOD9186637
_publ_section_title
;
Structure prediction by ZEFSAII (Michael W. Deem and Ramdas Pophale) SiO2 
 PCOD9186637
Probable space group: C 2/M
;
_chemical_formula_sum "Si O2"
_cell_formula_units_Z 36
_cell_length_a 17.244726
_cell_length_b 12.824394
_cell_length_c 10.521575
_cell_angle_alpha 90.000000
_cell_angle_beta 43.195037
_cell_angle_gamma 90.000000
_cell_volume 1592.711739
_symmetry_space_group_name_H-M "C 2/M"
_symmetry_group_IT_number 12
_symmetry_cell_setting 'monoclinic'
loop_
_space_group_symop_operation_xyz
x,y,z
-x,y,-z
-x,-y,-z
x,-y,z
1/2+x,1/2+y,z
1/2-x,1/2+y,-z
1/2-x,1/2-y,-z
1/2+x,1/2-y,z
loop_
_atom_site_type_symbol
_atom_site_label
_atom_site_fract_x
_atom_site_fract_y
_atom_site_fract_z
Si Si1 0.591722 0.841464 0.638175
Si Si2 0.500000 0.187758 0.000000
Si Si3 0.328780 0.614225 0.458654
Si Si4 0.363679 0.883449 0.789100
Si Si5 0.771366 0.699897 0.167053
O O1 0.541686 0.879546 0.831996
O O2 0.592500 0.715285 0.648481
O O3 0.722908 0.873629 0.487028
O O4 0.499263 0.875608 0.647495
O O5 0.389030 0.246030 0.081713
O O6 0.380039 0.500000 0.382897
O O7 0.278361 0.628163 0.661676
O O8 0.316115 0.791880 0.757901
O O9 0.334328 0.000000 0.782805
O O10 0.304553 0.859282 0.997477
#
# Coordination Sequence:
#
# PCOD9186637 Si02
#       5
#     8   4   8   8   8
#     4   9  19  34  55  80 105 133 178 218 256 317
#     4   8  16  36  54  72 104 134 164 216 254 296
#     4  10  19  35  55  78 106 140 174 219 266 306
#     4  10  19  35  55  78 106 140 174 219 266 306
#     4   9  19  34  55  80 105 133 178 218 256 317
#
# _framework density 22.602958999999998
#
# number of rings (size 3 to 8) (size 9 to 14) (size 15 to 20)
#    0.000    2.667    0.000    1.333    0.000    0.889 
#    0.000   32.222    0.000    0.000    0.000    0.000 
#    0.000    0.000    0.000    0.000    0.000    0.000 
#
# Total GULP energy -100427.399218 kJ/mol
# GULP energy per Si atom -5579.299957 kJ/mol
# Density = 2.255151 g / cm^3
# Si number density = 22.602959 Si / 1000 Ang^3
#
#
#
# Elastic Constant Matrix: (Units=GPa)
#
#
# Indices 1 2 3 4 5 6 
#
# 1 99.5766 22.9804 -3.2189 0.0000 0.2794 0.0000
# 2 22.9804 154.9303 1.7684 0.0000 -7.4819 0.0000
# 3 -3.2189 1.7684 55.3272 0.0000 5.8695 0.0000
# 4 0.0000 0.0000 0.0000 11.9215 0.0000 -0.2247
# 5 0.2794 -7.4819 5.8695 0.0000 26.8487 0.0000
# 6 0.0000 0.0000 0.0000 -0.2247 0.0000 6.8270
#
#
#
# Elastic Compliance Matrix: (Units=1/GPa)
#
#
# Indices 1 2 3 4 5 6 
#
# 1 0.010435 -0.001591 0.000734 0.000000 -0.000712 0.000000
# 2 -0.001591 0.006794 -0.000524 0.000000 0.002025 0.000000
# 3 0.000734 -0.000524 0.018581 0.000000 -0.004216 0.000000
# 4 0.000000 0.000000 0.000000 0.083934 0.000000 0.002762
# 5 -0.000712 0.002025 -0.004216 0.000000 0.038739 0.000000
# 6 0.000000 0.000000 0.000000 0.002762 0.000000 0.146568
#
#
# Mechanical properties :
#
#
# Convention : Reuss Voigt Hill
#
# Bulk Modulus (GPa) = 30.25960 39.21043 34.73502
# Shear Modulus (GPa) = 15.68230 28.33972 22.01101
#
# Velocity S-wave (km/s) = 2.63690 3.54475 3.12398
# Velocity P-wave (km/s) = 4.76314 5.84285 5.33040
#
# Compressibility (1/GPa) = 0.03304736
#
# Stress axis : x y z
#
# Youngs Moduli (GPa) = 95.82847 147.18433 53.81843
#
# Poissons Ratio (x) = 0.23411 -0.03948
# Poissons Ratio (y) = 0.15243 0.02823
# Poissons Ratio (z) = -0.07029 0.07720
#
# Static dielectric constant tensor:
#      x y z
#    x 1.856620 0.000000 0.050560 
#    y 0.000000 1.788380 0.000000 
#    z 0.050560 0.000000 1.919330 
# 
# From -- ./inp_files/153209.got.cif
#   From: 2010.05.17/outbox.cif.g08.bks.cpg/sg12_77_cif.got.tgz:153209.got - 2010.06.03 13:09:07.
