data_PCOD9186664
_publ_section_title
;
Structure prediction by ZEFSAII (Michael W. Deem and Ramdas Pophale) SiO2 
 PCOD9186664
Probable space group: C 2/M
;
_chemical_formula_sum "Si O2"
_cell_formula_units_Z 56
_cell_length_a 14.643859
_cell_length_b 25.549891
_cell_length_c 11.262727
_cell_angle_alpha 90.000000
_cell_angle_beta 133.273247
_cell_angle_gamma 90.000000
_cell_volume 3068.138407
_symmetry_space_group_name_H-M "C 2/M"
_symmetry_group_IT_number 12
_symmetry_cell_setting 'monoclinic'
loop_
_space_group_symop_operation_xyz
x,y,z
-x,y,-z
-x,-y,-z
x,-y,z
1/2+x,1/2+y,z
1/2-x,1/2+y,-z
1/2-x,1/2-y,-z
1/2+x,1/2-y,z
loop_
_atom_site_type_symbol
_atom_site_label
_atom_site_fract_x
_atom_site_fract_y
_atom_site_fract_z
Si Si1 0.762187 0.134700 0.614156
Si Si2 0.402822 0.141217 0.105256
Si Si3 0.363225 0.794704 0.674630
Si Si4 0.460174 0.937868 0.600031
Si Si5 0.990495 0.184293 0.733278
Si Si6 0.214718 0.809726 0.115823
Si Si7 0.781420 0.809209 0.229003
O O1 0.667915 0.178493 0.477390
O O2 0.683339 0.082285 0.524272
O O3 0.892200 0.137322 0.658684
O O4 0.788956 0.154682 0.770551
O O5 0.522379 0.173336 0.167019
O O6 0.456950 0.090347 0.222793
O O7 0.336990 0.174262 0.150937
O O8 0.298503 0.144733 0.907860
O O9 0.409817 0.736274 0.692842
O O10 0.245266 0.805776 0.655033
O O11 0.500000 0.923133 0.500000
O O12 0.470589 0.000000 0.621559
O O13 0.076653 0.188346 0.692910
O O14 0.093370 0.179513 0.928780
O O15 0.224316 0.747416 0.141347
#
# Coordination Sequence:
#
# PCOD9186664 Si02
#       7
#     8   8   8   8   8   8   8
#     4  11  23  34  53  81 110 149 185 230 277 327
#     4  10  19  35  55  80 107 147 184 225 277 326
#     4  11  21  33  49  79 114 153 190 222 260 327
#     4  10  21  39  62  84 108 138 183 246 294 321
#     4  11  21  34  49  75 114 159 185 212 270 328
#     4  11  19  33  53  78 116 155 183 216 268 340
#     4  11  21  33  52  77 118 158 185 213 263 338
#
# _framework density 18.252109999999998
#
# number of rings (size 3 to 8) (size 9 to 14) (size 15 to 20)
#    0.000    1.286    5.714    2.143    0.000    0.571 
#    0.000    0.000    0.000   12.000    0.000    4.000 
#    0.000    0.000    0.000    0.000    0.000    0.000 
#
# Total GULP energy -156040.167156 kJ/mol
# GULP energy per Si atom -5572.863113 kJ/mol
# Density = 1.821057 g / cm^3
# Si number density = 18.252110 Si / 1000 Ang^3
#
#
#
# Elastic Constant Matrix: (Units=GPa)
#
#
# Indices 1 2 3 4 5 6 
#
# 1 86.3250 2.8552 9.5039 0.0000 -2.2139 0.0000
# 2 2.8552 52.6515 14.4727 0.0000 -5.7421 0.0000
# 3 9.5039 14.4727 54.2544 0.0000 -12.1768 0.0000
# 4 0.0000 0.0000 0.0000 13.0018 0.0000 2.0550
# 5 -2.2139 -5.7421 -12.1768 0.0000 25.3502 0.0000
# 6 0.0000 0.0000 0.0000 2.0550 0.0000 17.1209
#
#
#
# Elastic Compliance Matrix: (Units=1/GPa)
#
#
# Indices 1 2 3 4 5 6 
#
# 1 0.011812 -0.000076 -0.002041 0.000000 0.000034 0.000000
# 2 -0.000076 0.020612 -0.004975 0.000000 0.002273 0.000000
# 3 -0.002041 -0.004975 0.022219 0.000000 0.009367 0.000000
# 4 0.000000 0.000000 0.000000 0.078400 0.000000 -0.009410
# 5 0.000034 0.002273 0.009367 0.000000 0.044465 0.000000
# 6 0.000000 0.000000 0.000000 -0.009410 0.000000 0.059538
#
#
# Mechanical properties :
#
#
# Convention : Reuss Voigt Hill
#
# Bulk Modulus (GPa) = 24.71645 27.43272 26.07459
# Shear Modulus (GPa) = 18.88812 22.18784 20.53798
#
# Velocity S-wave (km/s) = 3.22039 3.49037 3.35810
# Velocity P-wave (km/s) = 5.23440 5.59519 5.41780
#
# Compressibility (1/GPa) = 0.04045889
#
# Stress axis : x y z
#
# Youngs Moduli (GPa) = 84.65794 48.51469 45.00679
#
# Poissons Ratio (x) = 0.00367 0.09188
# Poissons Ratio (y) = 0.00641 0.22392
# Poissons Ratio (z) = 0.17282 0.24137
#
# Static dielectric constant tensor:
#      x y z
#    x 1.701630 0.000000 -0.009230 
#    y 0.000000 1.602210 0.000000 
#    z -0.009230 0.000000 1.676120 
# 
# From -- ./inp_files/149480.got.cif
#   From: 2010.05.17/outbox.cif.g08.bks.cpg/sg12_75_cif.got.tgz:149480.got - 2010.06.03 13:09:07.
