data_PCOD9186139
_publ_section_title
;
Structure prediction by ZEFSAII (Michael W. Deem and Ramdas Pophale) SiO2 
 PCOD9186139
Probable space group: C 2/M
;
_chemical_formula_sum "Si O2"
_cell_formula_units_Z 48
_cell_length_a 5.695959
_cell_length_b 27.612337
_cell_length_c 13.584025
_cell_angle_alpha 90.000000
_cell_angle_beta 104.084791
_cell_angle_gamma 90.000000
_cell_volume 2072.248629
_symmetry_space_group_name_H-M "C 2/M"
_symmetry_group_IT_number 12
_symmetry_cell_setting 'monoclinic'
loop_
_space_group_symop_operation_xyz
x,y,z
-x,y,-z
-x,-y,-z
x,-y,z
1/2+x,1/2+y,z
1/2-x,1/2+y,-z
1/2-x,1/2-y,-z
1/2+x,1/2-y,z
loop_
_atom_site_type_symbol
_atom_site_label
_atom_site_fract_x
_atom_site_fract_y
_atom_site_fract_z
Si Si1 0.876688 0.263194 0.848577
Si Si2 0.331824 0.127622 0.789678
Si Si3 0.613799 0.446172 0.905283
Si Si4 0.114734 0.874071 0.404000
Si Si5 0.302568 0.772802 0.381008
Si Si6 0.331452 0.054117 0.293007
O O1 0.640504 0.259703 0.895089
O O2 0.920890 0.319640 0.828782
O O3 0.776946 0.236084 0.740540
O O4 0.283095 0.095761 0.881794
O O5 0.498215 0.094200 0.738246
O O6 0.092189 0.135232 0.699174
O O7 0.728334 0.500000 0.919223
O O8 0.398011 0.448447 0.803510
O O9 0.500000 0.436381 0.000000
O O10 0.291524 0.828834 0.407636
O O11 0.241261 0.924206 0.387109
O O12 0.000000 0.874357 0.500000
O O13 0.576353 0.753091 0.413017
O O14 0.436983 0.000000 0.310425
#
# Coordination Sequence:
#
# PCOD9186139 Si02
#       6
#     8   8   8   8   8   8
#     4  10  19  34  59  87 121 165 207 256 307 366
#     4  11  21  37  62  87 121 160 205 250 312 368
#     4   9  20  39  64  95 123 147 189 253 319 379
#     4  11  24  38  56  84 121 164 210 256 304 362
#     4  10  19  36  56  86 120 160 206 263 314 363
#     4  10  22  40  62  87 118 157 202 252 310 372
#
# _framework density 23.163243000000001
#
# number of rings (size 3 to 8) (size 9 to 14) (size 15 to 20)
#    0.000    1.833    3.333    2.500    2.333    3.000 
#    0.000    3.333    0.000    1.000    0.000    0.000 
#    0.000    0.000    0.000    0.000    0.000    0.000 
#
# Total GULP energy -134168.475743 kJ/mol
# GULP energy per Si atom -5590.353156 kJ/mol
# Density = 2.311052 g / cm^3
# Si number density = 23.163243 Si / 1000 Ang^3
#
#
#
# Elastic Constant Matrix: (Units=GPa)
#
#
# Indices 1 2 3 4 5 6 
#
# 1 115.3213 44.6818 23.8085 0.0000 -6.0319 0.0000
# 2 44.6818 160.0814 35.9611 0.0000 -17.2219 0.0000
# 3 23.8085 35.9611 96.0704 0.0000 -5.7004 0.0000
# 4 0.0000 0.0000 0.0000 17.4778 0.0000 -4.9322
# 5 -6.0319 -17.2219 -5.7004 0.0000 14.9659 0.0000
# 6 0.0000 0.0000 0.0000 -4.9322 0.0000 -4.9235
#
#
#
# Elastic Compliance Matrix: (Units=1/GPa)
#
#
# Indices 1 2 3 4 5 6 
#
# 1 0.009938 -0.002351 -0.001540 0.000000 0.000713 0.000000
# 2 -0.002351 0.008186 -0.002025 0.000000 0.007702 0.000000
# 3 -0.001540 -0.002025 0.011637 0.000000 0.001482 0.000000
# 4 0.000000 0.000000 0.000000 0.044605 0.000000 -0.044685
# 5 0.000713 0.007702 0.001482 0.000000 0.076533 0.000000
# 6 0.000000 0.000000 0.000000 -0.044685 0.000000 -0.158344
#
#
# Mechanical properties :
#
#
# Convention : Reuss Voigt Hill
#
# Bulk Modulus (GPa) = 55.77764 64.48621 60.13192
# Shear Modulus (GPa) = 482.45541 23.30550 252.88046
#
# Velocity S-wave (km/s) = 14.44774 3.17541 10.45993
# Velocity P-wave (km/s) = 17.39105 6.42998 13.11094
#
# Compressibility (1/GPa) = 0.01792833
#
# Stress axis : x y z
#
# Youngs Moduli (GPa) = 100.62724 122.15312 85.93579
#
# Poissons Ratio (x) = 0.28719 0.13238
# Poissons Ratio (y) = 0.23658 0.17400
# Poissons Ratio (z) = 0.15501 0.24733
#
# Static dielectric constant tensor:
#      x y z
#    x 1.930280 0.000000 -0.011800 
#    y 0.000000 1.865780 0.000000 
#    z -0.011800 0.000000 1.905790 
# 
# From -- ./inp_files/192073.got.cif
#   From: 2010.05.17/outbox.cif.g08.bks.cpg/sg12_97_cif.got.tgz:192073.got - 2010.06.03 13:09:07.
