data_PCOD9186628
_publ_section_title
;
Structure prediction by ZEFSAII (Michael W. Deem and Ramdas Pophale) SiO2 
 PCOD9186628
Probable space group: C 2/M
;
_chemical_formula_sum "Si O2"
_cell_formula_units_Z 64
_cell_length_a 15.082799
_cell_length_b 7.732459
_cell_length_c 30.773947
_cell_angle_alpha 90.000000
_cell_angle_beta 59.917815
_cell_angle_gamma 90.000000
_cell_volume 3105.654543
_symmetry_space_group_name_H-M "C 2/M"
_symmetry_group_IT_number 12
_symmetry_cell_setting 'monoclinic'
loop_
_space_group_symop_operation_xyz
x,y,z
-x,y,-z
-x,-y,-z
x,-y,z
1/2+x,1/2+y,z
1/2-x,1/2+y,-z
1/2-x,1/2-y,-z
1/2+x,1/2-y,z
loop_
_atom_site_type_symbol
_atom_site_label
_atom_site_fract_x
_atom_site_fract_y
_atom_site_fract_z
Si Si1 0.420148 0.288394 0.579033
Si Si2 0.147868 0.792581 0.498154
Si Si3 0.381688 0.202315 0.225576
Si Si4 0.441900 0.300696 0.116577
Si Si5 0.166996 0.791217 0.056664
Si Si6 0.842993 0.788421 0.691276
Si Si7 0.776868 0.202053 0.862163
Si Si8 0.444629 0.290137 0.752581
O O1 0.419344 0.500000 0.579495
O O2 0.539489 0.234486 0.545712
O O3 0.359364 0.232968 0.550447
O O4 0.371269 0.229299 0.636182
O O5 0.250000 0.750000 0.500000
O O6 0.143219 0.000000 0.498007
O O7 0.432382 0.290586 0.171266
O O8 0.268718 0.267988 0.264787
O O9 0.453547 0.224299 0.249524
O O10 0.372872 0.000000 0.216200
O O11 0.437599 0.500000 0.104196
O O12 0.551820 0.226890 0.075837
O O13 0.341066 0.216075 0.121812
O O14 0.200631 0.723878 0.095823
O O15 0.160246 0.000000 0.060586
O O16 0.250000 0.750000 0.000000
O O17 0.923939 0.736236 0.708318
O O18 0.840558 0.000000 0.690894
O O19 0.850003 0.271648 0.806146
O O20 0.802871 0.000000 0.858270
O O21 0.447107 0.500000 0.752266
#
# Coordination Sequence:
#
# PCOD9186628 Si02
#       8
#     8   8   8   8   8   8   8   8
#     4   8  16  32  51  74 105 145 183 215 263 327
#     4   9  17  31  54  78 103 139 184 224 265 320
#     4  11  21  34  54  81 107 141 183 220 264 321
#     4  11  22  38  59  83 110 141 177 221 268 318
#     4  10  23  41  59  80 111 142 175 221 269 318
#     4   9  18  33  53  76 108 144 179 221 267 318
#     4  10  20  38  59  81 109 142 179 217 265 321
#     4  10  19  35  55  77 107 142 178 218 266 319
#
# _framework density 20.607571
#
# number of rings (size 3 to 8) (size 9 to 14) (size 15 to 20)
#    0.000    2.250    2.500    1.500    0.000    3.500 
#    0.000    3.750    0.000    3.000    0.000    0.000 
#    0.000    0.000    0.000    0.000    0.000    0.000 
#
# Total GULP energy -178608.281335 kJ/mol
# GULP energy per Si atom -5581.508792 kJ/mol
# Density = 2.056067 g / cm^3
# Si number density = 20.607571 Si / 1000 Ang^3
#
#
#
# Elastic Constant Matrix: (Units=GPa)
#
#
# Indices 1 2 3 4 5 6 
#
# 1 95.9154 -7.1299 -0.6231 0.0000 2.3028 0.0000
# 2 -7.1299 29.7333 -0.0423 0.0001 0.6016 0.0001
# 3 -0.6231 -0.0423 57.5956 0.0000 9.0235 0.0000
# 4 0.0000 0.0001 0.0000 6.5112 0.0000 2.8913
# 5 2.3028 0.6016 9.0235 0.0000 23.5482 0.0000
# 6 0.0000 0.0001 0.0000 2.8913 0.0000 27.2969
#
#
#
# Elastic Compliance Matrix: (Units=1/GPa)
#
#
# Indices 1 2 3 4 5 6 
#
# 1 0.010649 0.002579 0.000309 0.000000 -0.001226 0.000000
# 2 0.002579 0.034276 0.000244 -0.000001 -0.001222 0.000000
# 3 0.000309 0.000244 0.018481 0.000000 -0.007118 0.000000
# 4 0.000000 -0.000001 0.000000 0.161161 0.000000 -0.017070
# 5 -0.001226 -0.001222 -0.007118 0.000000 0.045345 0.000000
# 6 0.000000 0.000000 0.000000 -0.017070 0.000000 0.038442
#
#
# Mechanical properties :
#
#
# Convention : Reuss Voigt Hill
#
# Bulk Modulus (GPa) = 14.35322 18.62819 16.49071
# Shear Modulus (GPa) = 15.36981 24.20725 19.78853
#
# Velocity S-wave (km/s) = 2.73396 3.43107 3.10216
# Velocity P-wave (km/s) = 4.11657 4.97549 4.56627
#
# Compressibility (1/GPa) = 0.06967076
#
# Stress axis : x y z
#
# Youngs Moduli (GPa) = 93.90565 29.17509 54.10908
#
# Poissons Ratio (x) = -0.07524 -0.01673
# Poissons Ratio (y) = -0.24217 -0.01323
# Poissons Ratio (z) = -0.02903 -0.00713
#
# Static dielectric constant tensor:
#      x y z
#    x 1.720480 0.000000 0.005540 
#    y 0.000000 1.763060 0.000000 
#    z 0.005540 0.000000 1.718690 
# 
# From -- ./inp_files/375449.got.cif
#   From: 2010.05.17/outbox.cif.g08.bks.cpg/sg12_188_cif.got.tgz:375449.got - 2010.06.03 13:09:07.
