data_PCOD9186009
_publ_section_title
;
Structure prediction by ZEFSAII (Michael W. Deem and Ramdas Pophale) SiO2 
 PCOD9186009
Probable space group: C 2/M
;
_chemical_formula_sum "Si O2"
_cell_formula_units_Z 36
_cell_length_a 5.222839
_cell_length_b 35.901046
_cell_length_c 10.520477
_cell_angle_alpha 90.000000
_cell_angle_beta 110.531411
_cell_angle_gamma 90.000000
_cell_volume 1847.343703
_symmetry_space_group_name_H-M "C 2/M"
_symmetry_group_IT_number 12
_symmetry_cell_setting 'monoclinic'
loop_
_space_group_symop_operation_xyz
x,y,z
-x,y,-z
-x,-y,-z
x,-y,z
1/2+x,1/2+y,z
1/2-x,1/2+y,-z
1/2-x,1/2-y,-z
1/2+x,1/2-y,z
loop_
_atom_site_type_symbol
_atom_site_label
_atom_site_fract_x
_atom_site_fract_y
_atom_site_fract_z
Si Si1 0.118330 0.772405 0.164123
Si Si2 0.500000 0.405197 0.000000
Si Si3 0.754452 0.357043 0.237606
Si Si4 0.743111 0.042821 0.146398
Si Si5 0.688597 0.394359 0.652668
O O1 0.370488 0.743719 0.203945
O O2 0.220200 0.813047 0.220888
O O3 0.000000 0.775414 0.000000
O O4 0.272280 0.376615 0.907376
O O5 0.530526 0.433970 0.889814
O O6 0.504420 0.372391 0.280155
O O7 0.049512 0.369679 0.338247
O O8 0.698619 0.067729 0.262773
O O9 0.808748 0.000000 0.184679
O O10 0.500000 0.043594 0.000000
O O11 0.500000 0.403076 0.500000
#
# Coordination Sequence:
#
# PCOD9186009 Si02
#       5
#     8   4   8   8   8
#     4  10  20  34  56  92 126 151 187 246 307 353
#     4  10  19  34  58  90 116 156 194 248 290 354
#     4  11  21  38  63  85 122 156 200 244 296 351
#     4  10  20  36  59  87 121 154 196 249 300 354
#     4  11  24  40  60  87 120 162 205 243 293 353
#
# _framework density 19.487441
#
# number of rings (size 3 to 8) (size 9 to 14) (size 15 to 20)
#    0.000    1.556    3.333    2.333    0.000    0.444 
#    0.000    0.000    0.000   17.333    0.000    0.000 
#    0.000    0.000    0.000    0.000    0.000    0.000 
#
# Total GULP energy -100313.271392 kJ/mol
# GULP energy per Si atom -5572.959522 kJ/mol
# Density = 1.944309 g / cm^3
# Si number density = 19.487441 Si / 1000 Ang^3
#
#
#
# Elastic Constant Matrix: (Units=GPa)
#
#
# Indices 1 2 3 4 5 6 
#
# 1 72.6705 31.2245 6.4982 0.0000 14.4349 0.0000
# 2 31.2245 167.0608 44.5291 0.0000 10.1371 0.0000
# 3 6.4982 44.5291 68.7966 0.0000 18.4551 0.0000
# 4 0.0000 0.0000 0.0000 19.7357 0.0000 7.3662
# 5 14.4349 10.1371 18.4551 0.0000 24.5054 0.0000
# 6 0.0000 0.0000 0.0000 7.3662 0.0000 24.7133
#
#
#
# Elastic Compliance Matrix: (Units=1/GPa)
#
#
# Indices 1 2 3 4 5 6 
#
# 1 0.017223 -0.003517 0.003735 0.000000 -0.011503 0.000000
# 2 -0.003517 0.007961 -0.005630 0.000000 0.003018 0.000000
# 3 0.003735 -0.005630 0.022297 0.000000 -0.016663 0.000000
# 4 0.000000 0.000000 0.000000 0.057012 0.000000 -0.016993
# 5 -0.011503 0.003018 -0.016663 0.000000 0.058884 0.000000
# 6 0.000000 0.000000 0.000000 -0.016993 0.000000 0.045529
#
#
# Mechanical properties :
#
#
# Convention : Reuss Voigt Hill
#
# Bulk Modulus (GPa) = 27.27983 52.55905 39.91944
# Shear Modulus (GPa) = 21.55663 28.87595 25.21629
#
# Velocity S-wave (km/s) = 3.32954 3.85356 3.60109
# Velocity P-wave (km/s) = 5.36751 6.84318 6.14977
#
# Compressibility (1/GPa) = 0.03665712
#
# Stress axis : x y z
#
# Youngs Moduli (GPa) = 58.06299 125.61802 44.84928
#
# Poissons Ratio (x) = 0.44175 -0.16752
# Poissons Ratio (y) = 0.20418 0.25251
# Poissons Ratio (z) = -0.21688 0.70725
#
# Static dielectric constant tensor:
#      x y z
#    x 1.789660 0.000000 -0.003650 
#    y 0.000000 1.643610 0.000000 
#    z -0.003650 0.000000 1.722570 
# 
# From -- ./inp_files/115807.got.cif
#   From: 2010.05.17/outbox.cif.g08.bks.cpg/sg12_58_cif.got.tgz:115807.got - 2010.06.03 13:09:07.
