data_PCOD9186240
_publ_section_title
;
Structure prediction by ZEFSAII (Michael W. Deem and Ramdas Pophale) SiO2 
 PCOD9186240
Probable space group: C 2/M
;
_chemical_formula_sum "Si O2"
_cell_formula_units_Z 48
_cell_length_a 14.416279
_cell_length_b 27.085665
_cell_length_c 8.114392
_cell_angle_alpha 90.000000
_cell_angle_beta 42.384225
_cell_angle_gamma 90.000000
_cell_volume 2135.858013
_symmetry_space_group_name_H-M "C 2/M"
_symmetry_group_IT_number 12
_symmetry_cell_setting 'monoclinic'
loop_
_space_group_symop_operation_xyz
x,y,z
-x,y,-z
-x,-y,-z
x,-y,z
1/2+x,1/2+y,z
1/2-x,1/2+y,-z
1/2-x,1/2-y,-z
1/2+x,1/2-y,z
loop_
_atom_site_type_symbol
_atom_site_label
_atom_site_fract_x
_atom_site_fract_y
_atom_site_fract_z
Si Si1 0.686467 0.441367 0.073609
Si Si2 0.414505 0.894425 0.944771
Si Si3 0.087894 0.056436 0.712281
Si Si4 0.326658 0.771008 0.562519
Si Si5 0.818140 0.610578 0.584424
Si Si6 0.906998 0.278877 0.953942
O O1 0.694951 0.500000 0.033643
O O2 0.777463 0.426468 0.110079
O O3 0.759183 0.411880 0.829293
O O4 0.524994 0.429059 0.275266
O O5 0.528809 0.907476 0.657421
O O6 0.378114 0.836827 0.968534
O O7 0.500000 0.899352 0.000000
O O8 0.214135 0.092236 0.578726
O O9 0.133734 0.000000 0.624807
O O10 0.000000 0.056437 0.000000
O O11 0.250000 0.750000 0.500000
O O12 0.318849 0.830268 0.581982
O O13 0.488079 0.759772 0.323568
O O14 0.234441 0.749387 0.829700
O O15 0.000000 0.275590 0.000000
#
# Coordination Sequence:
#
# PCOD9186240 Si02
#       6
#     8   8   8   8   8   8
#     4  10  21  37  58  85 113 144 192 247 293 348
#     4  10  21  37  55  79 115 153 189 238 298 353
#     4   8  16  32  54  81 109 135 174 232 286 332
#     4   9  17  30  53  84 115 151 193 237 289 350
#     4  10  19  34  60  86 110 148 194 238 287 349
#     4   8  16  31  51  78 112 148 189 236 286 344
#
# _framework density 22.473403999999999
#
# number of rings (size 3 to 8) (size 9 to 14) (size 15 to 20)
#    0.000    2.833    0.000    3.000    0.000    8.333 
#    0.000    1.667    0.000    6.000    0.000    0.000 
#    0.000    0.000    0.000    0.000    0.000    0.000 
#
# Total GULP energy -134056.681175 kJ/mol
# GULP energy per Si atom -5585.695049 kJ/mol
# Density = 2.242225 g / cm^3
# Si number density = 22.473404 Si / 1000 Ang^3
#
#
#
# Elastic Constant Matrix: (Units=GPa)
#
#
# Indices 1 2 3 4 5 6 
#
# 1 111.4335 33.9140 40.5901 0.0000 -21.3557 0.0000
# 2 33.9140 50.8771 44.2805 0.0000 -21.8226 0.0000
# 3 40.5901 44.2805 120.3016 0.0000 -20.1342 0.0000
# 4 0.0000 0.0000 0.0000 -5.2414 0.0000 18.6127
# 5 -21.3557 -21.8226 -20.1342 0.0000 43.0066 0.0000
# 6 0.0000 0.0000 0.0000 18.6127 0.0000 1.6293
#
#
#
# Elastic Compliance Matrix: (Units=1/GPa)
#
#
# Indices 1 2 3 4 5 6 
#
# 1 0.011627 -0.005421 -0.001542 0.000000 0.002301 0.000000
# 2 -0.005421 0.036612 -0.009753 0.000000 0.011320 0.000000
# 3 -0.001542 -0.009753 0.012441 0.000000 0.000110 0.000000
# 4 0.000000 0.000000 0.000000 -0.004590 0.000000 0.052434
# 5 0.002301 0.011320 0.000110 0.000000 0.030190 0.000000
# 6 0.000000 0.000000 0.000000 0.052434 0.000000 0.014766
#
#
# Mechanical properties :
#
#
# Convention : Reuss Voigt Hill
#
# Bulk Modulus (GPa) = 36.69991 57.79794 47.24893
# Shear Modulus (GPa) = 34.82850 18.80074 26.81462
#
# Velocity S-wave (km/s) = 3.94098 2.89550 3.45798
# Velocity P-wave (km/s) = 6.08886 6.07888 6.08387
#
# Compressibility (1/GPa) = 0.02724802
#
# Stress axis : x y z
#
# Youngs Moduli (GPa) = 86.01035 27.31309 80.37939
#
# Poissons Ratio (x) = 0.14806 0.12399
# Poissons Ratio (y) = 0.46625 0.78391
# Poissons Ratio (z) = 0.13267 0.26638
#
# Static dielectric constant tensor:
#      x y z
#    x 1.957190 0.000000 0.083180 
#    y 0.000000 1.738840 0.000000 
#    z 0.083180 0.000000 1.871650 
# 
# From -- ./inp_files/68053.got.cif
#   From: 2010.05.17/outbox.cif.g08.bks.cpg/sg12_35_cif.got.tgz:68053.got - 2010.06.03 13:09:07.
