data_PCOD9186684
_publ_section_title
;
Structure prediction by ZEFSAII (Michael W. Deem and Ramdas Pophale) SiO2 
 PCOD9186684
Probable space group: C 2/M
;
_chemical_formula_sum "Si O2"
_cell_formula_units_Z 48
_cell_length_a 20.809872
_cell_length_b 13.607215
_cell_length_c 19.360211
_cell_angle_alpha 90.000000
_cell_angle_beta 23.406362
_cell_angle_gamma 90.000000
_cell_volume 2177.772063
_symmetry_space_group_name_H-M "C 2/M"
_symmetry_group_IT_number 12
_symmetry_cell_setting 'monoclinic'
loop_
_space_group_symop_operation_xyz
x,y,z
-x,y,-z
-x,-y,-z
x,-y,z
1/2+x,1/2+y,z
1/2-x,1/2+y,-z
1/2-x,1/2-y,-z
1/2+x,1/2-y,z
loop_
_atom_site_type_symbol
_atom_site_label
_atom_site_fract_x
_atom_site_fract_y
_atom_site_fract_z
Si Si1 0.222471 0.639457 0.549906
Si Si2 0.962733 0.394785 0.399834
Si Si3 0.256817 0.886907 0.212073
Si Si4 0.905623 0.692319 0.935660
Si Si5 0.584542 0.669221 0.514751
Si Si6 0.801424 0.888372 0.980994
O O1 0.250000 0.750000 0.500000
O O2 0.173018 0.595426 0.525765
O O3 0.368813 0.620780 0.457826
O O4 0.062002 0.634783 0.755175
O O5 0.962329 0.500000 0.439581
O O6 0.936824 0.288053 0.459671
O O7 0.136411 0.387222 0.189719
O O8 0.226222 0.851782 0.319944
O O9 0.079383 0.876383 0.352519
O O10 0.308405 0.000000 0.159584
O O11 0.370864 0.823090 0.050100
O O12 0.756705 0.648748 0.036949
O O13 0.915678 0.806025 0.902095
O O14 0.862136 0.000000 0.919586
#
# Coordination Sequence:
#
# PCOD9186684 Si02
#       6
#     8   8   8   8   8   8
#     4   9  20  36  57  83 115 146 177 230 288 323
#     4   9  17  33  57  84 112 142 183 230 279 329
#     4  11  23  38  57  80 111 151 191 231 275 332
#     4  10  19  35  55  81 114 143 185 230 270 336
#     4  10  20  38  54  80 117 152 186 231 277 331
#     4   9  17  31  55  82 108 141 181 227 275 325
#
# _framework density 22.040873000000001
#
# number of rings (size 3 to 8) (size 9 to 14) (size 15 to 20)
#    0.000    2.333    1.667    1.500    2.333    2.667 
#    0.000    6.667    0.000    0.000    0.000    5.833 
#    0.000    0.000    0.000    0.000    0.000    0.000 
#
# Total GULP energy -133881.487775 kJ/mol
# GULP energy per Si atom -5578.395324 kJ/mol
# Density = 2.199071 g / cm^3
# Si number density = 22.040873 Si / 1000 Ang^3
#
#
#
# Elastic Constant Matrix: (Units=GPa)
#
#
# Indices 1 2 3 4 5 6 
#
# 1 52.7964 5.3337 2.2380 0.0010 0.7343 -0.0002
# 2 5.3337 145.7054 -2.0180 0.0019 7.5053 -0.0008
# 3 2.2380 -2.0180 49.4035 0.0009 9.4747 -0.0003
# 4 0.0010 0.0019 0.0009 -0.5583 -0.0013 10.1620
# 5 0.7343 7.5053 9.4747 -0.0013 32.0204 0.0005
# 6 -0.0002 -0.0008 -0.0003 10.1620 0.0005 7.7636
#
#
#
# Elastic Compliance Matrix: (Units=1/GPa)
#
#
# Indices 1 2 3 4 5 6 
#
# 1 0.019050 -0.000709 -0.000891 0.000001 -0.000007 -0.000002
# 2 -0.000709 0.006992 0.000667 0.000002 -0.001820 -0.000001
# 3 -0.000891 0.000667 0.021559 0.000003 -0.006515 -0.000003
# 4 0.000001 0.000002 0.000003 -0.072152 -0.000006 0.094442
# 5 -0.000007 -0.001820 -0.006515 -0.000006 0.033585 0.000005
# 6 -0.000002 -0.000001 -0.000003 0.094442 0.000005 0.005188
#
#
# Mechanical properties :
#
#
# Convention : Reuss Voigt Hill
#
# Bulk Modulus (GPa) = 21.86531 28.77918 25.32224
# Shear Modulus (GPa) = 159.57671 24.00194 91.78932
#
# Velocity S-wave (km/s) = 8.51807 3.30354 6.46030
# Velocity P-wave (km/s) = 10.32886 5.25706 8.19518
#
# Compressibility (1/GPa) = 0.04573455
#
# Stress axis : x y z
#
# Youngs Moduli (GPa) = 52.49291 143.01839 46.38535
#
# Poissons Ratio (x) = 0.10145 0.04131
# Poissons Ratio (y) = 0.03723 -0.03093
# Poissons Ratio (z) = 0.04675 -0.09536
#
# Static dielectric constant tensor:
#      x y z
#    x 1.817120 -0.000010 -0.021880 
#    y -0.000010 2.677640 0.000000 
#    z -0.021880 0.000000 1.852110 
# 
# From -- ./inp_files/283991.got.cif
#   From: 2010.05.17/outbox.cif.g08.bks.cpg/sg12_142_cif.got.tgz:283991.got - 2010.06.03 13:09:07.
