data_PCOD9186595
_publ_section_title
;
Structure prediction by ZEFSAII (Michael W. Deem and Ramdas Pophale) SiO2 
 PCOD9186595
Probable space group: C 2/M
;
_chemical_formula_sum "Si O2"
_cell_formula_units_Z 56
_cell_length_a 12.398731
_cell_length_b 19.243475
_cell_length_c 11.815678
_cell_angle_alpha 90.000000
_cell_angle_beta 89.327727
_cell_angle_gamma 90.000000
_cell_volume 2818.963736
_symmetry_space_group_name_H-M "C 2/M"
_symmetry_group_IT_number 12
_symmetry_cell_setting 'monoclinic'
loop_
_space_group_symop_operation_xyz
x,y,z
-x,y,-z
-x,-y,-z
x,-y,z
1/2+x,1/2+y,z
1/2-x,1/2+y,-z
1/2-x,1/2-y,-z
1/2+x,1/2-y,z
loop_
_atom_site_type_symbol
_atom_site_label
_atom_site_fract_x
_atom_site_fract_y
_atom_site_fract_z
Si Si1 0.193731 0.836856 0.624587
Si Si2 0.567774 0.579464 0.156260
Si Si3 0.641687 0.358996 0.372755
Si Si4 0.183188 0.080474 0.848423
Si Si5 0.934377 0.291954 0.616378
Si Si6 0.136785 0.315856 0.727650
Si Si7 0.253409 0.828852 0.041814
O O1 0.134629 0.858175 0.509114
O O2 0.191435 0.894655 0.719915
O O3 0.318503 0.823877 0.593194
O O4 0.153156 0.764450 0.683410
O O5 0.597618 0.500000 0.123502
O O6 0.581881 0.586779 0.292588
O O7 0.444148 0.591475 0.123020
O O8 0.647644 0.636989 0.103036
O O9 0.592940 0.284392 0.336746
O O10 0.768471 0.357780 0.337674
O O11 0.207078 0.000000 0.860382
O O12 0.259977 0.124890 0.928992
O O13 0.000000 0.285463 0.500000
O O14 0.014420 0.332999 0.697260
O O15 0.158758 0.327509 0.859470
O O16 0.250000 0.750000 0.000000
#
# Coordination Sequence:
#
# PCOD9186595 Si02
#       7
#     8   8   8   8   8   8   8
#     4  11  20  35  56  91 125 154 202 250 305 362
#     4  10  23  41  63  90 125 168 203 241 306 377
#     4  10  20  31  57  90 125 155 195 248 300 367
#     4  11  24  42  62  87 126 165 201 253 311 363
#     4  11  18  32  59  87 123 161 196 251 314 362
#     4  10  19  35  54  88 119 156 195 252 307 352
#     4  11  22  39  61  89 120 152 208 256 296 356
#
# _framework density 19.865455999999998
#
# number of rings (size 3 to 8) (size 9 to 14) (size 15 to 20)
#    0.000    1.429    4.286    2.571    0.000    1.714 
#    2.571    2.143    0.000    5.571    0.000    0.000 
#    0.000    0.000    0.000    0.000    0.000    0.000 
#
# Total GULP energy -156197.476127 kJ/mol
# GULP energy per Si atom -5578.481290 kJ/mol
# Density = 1.982024 g / cm^3
# Si number density = 19.865456 Si / 1000 Ang^3
#
#
#
# Elastic Constant Matrix: (Units=GPa)
#
#
# Indices 1 2 3 4 5 6 
#
# 1 69.4718 13.4099 9.8704 0.0000 12.9178 0.0000
# 2 13.4099 76.2424 29.9535 0.0000 6.4129 0.0000
# 3 9.8704 29.9535 113.0180 0.0000 32.6719 0.0000
# 4 0.0000 0.0000 0.0000 16.2833 0.0000 -3.3474
# 5 12.9178 6.4129 32.6719 0.0000 37.5396 0.0000
# 6 0.0000 0.0000 0.0000 -3.3474 0.0000 10.1325
#
#
#
# Elastic Compliance Matrix: (Units=1/GPa)
#
#
# Indices 1 2 3 4 5 6 
#
# 1 0.015866 -0.002701 0.001036 0.000000 -0.005900 0.000000
# 2 -0.002701 0.015139 -0.004406 0.000000 0.002178 0.000000
# 3 0.001036 -0.004406 0.013109 0.000000 -0.011013 0.000000
# 4 0.000000 0.000000 0.000000 0.065887 0.000000 0.021767
# 5 -0.005900 0.002178 -0.011013 0.000000 0.037881 0.000000
# 6 0.000000 0.000000 0.000000 0.021767 0.000000 0.105884
#
#
# Mechanical properties :
#
#
# Convention : Reuss Voigt Hill
#
# Bulk Modulus (GPa) = 31.27871 40.57777 35.92824
# Shear Modulus (GPa) = 18.07885 26.49097 22.28491
#
# Velocity S-wave (km/s) = 3.02000 3.65570 3.35295
# Velocity P-wave (km/s) = 5.28583 6.18785 5.75454
#
# Compressibility (1/GPa) = 0.03197062
#
# Stress axis : x y z
#
# Youngs Moduli (GPa) = 63.02967 66.05466 76.28259
#
# Poissons Ratio (x) = 0.17843 -0.07901
# Poissons Ratio (y) = 0.17026 0.33611
# Poissons Ratio (z) = -0.06528 0.29104
#
# Static dielectric constant tensor:
#      x y z
#    x 1.725250 0.000000 -0.014110 
#    y 0.000000 1.692110 0.000000 
#    z -0.014110 0.000000 1.787910 
# 
# From -- ./inp_files/133255.got.cif
#   From: 2010.05.17/outbox.cif.g08.bks.cpg/sg12_67_cif.got.tgz:133255.got - 2010.06.03 13:09:07.
