data_PCOD9186096
_publ_section_title
;
Structure prediction by ZEFSAII (Michael W. Deem and Ramdas Pophale) SiO2 
 PCOD9186096
Probable space group: C 2/M
;
_chemical_formula_sum "Si O2"
_cell_formula_units_Z 44
_cell_length_a 8.615149
_cell_length_b 17.159971
_cell_length_c 18.218735
_cell_angle_alpha 90.000000
_cell_angle_beta 52.239471
_cell_angle_gamma 90.000000
_cell_volume 2129.324090
_symmetry_space_group_name_H-M "C 2/M"
_symmetry_group_IT_number 12
_symmetry_cell_setting 'monoclinic'
loop_
_space_group_symop_operation_xyz
x,y,z
-x,y,-z
-x,-y,-z
x,-y,z
1/2+x,1/2+y,z
1/2-x,1/2+y,-z
1/2-x,1/2-y,-z
1/2+x,1/2-y,z
loop_
_atom_site_type_symbol
_atom_site_label
_atom_site_fract_x
_atom_site_fract_y
_atom_site_fract_z
Si Si1 0.973638 0.355968 0.693938
Si Si2 0.804927 0.338092 0.506287
Si Si3 0.765614 0.500000 0.835844
Si Si4 0.793186 0.000000 0.972704
Si Si5 0.500000 0.284931 0.000000
Si Si6 0.899844 0.185320 0.296872
Si Si7 0.676286 0.655034 0.093363
O O1 0.883654 0.424713 0.769813
O O2 0.794277 0.325228 0.695766
O O3 0.139691 0.381284 0.585451
O O4 0.055343 0.277924 0.709391
O O5 0.750000 0.250000 0.500000
O O6 0.634570 0.355927 0.614493
O O7 0.000000 0.339257 0.500000
O O8 0.530713 0.500000 0.884580
O O9 0.752255 0.500000 0.927850
O O10 0.711706 0.078135 0.961632
O O11 0.529208 0.331945 0.066604
O O12 0.311611 0.230266 0.060621
O O13 0.069313 0.146085 0.201034
#
# Coordination Sequence:
#
# PCOD9186096 Si02
#       7
#     8   8   4   4   4   8   8
#     4  10  20  36  60  84 114 146 190 232 281 336
#     4   8  16  31  52  84 111 137 179 229 274 327
#     4  11  22  38  54  85 112 158 182 233 290 344
#     4  11  24  37  55  78 122 150 189 236 292 334
#     4  10  24  36  60  84 112 146 204 234 272 336
#     4  10  19  34  59  86 111 148 187 234 279 333
#     4  11  22  39  57  84 113 151 189 240 282 336
#
# _framework density 20.663834000000001
#
# number of rings (size 3 to 8) (size 9 to 14) (size 15 to 20)
#    0.000    2.000    1.818    2.182    5.091    0.364 
#    0.000    5.000    0.000    1.091    0.000   57.273 
#    0.000    0.000    0.000    0.000    0.000    0.000 
#
# Total GULP energy -122574.955485 kJ/mol
# GULP energy per Si atom -5571.588886 kJ/mol
# Density = 2.061680 g / cm^3
# Si number density = 20.663834 Si / 1000 Ang^3
#
#
#
# Elastic Constant Matrix: (Units=GPa)
#
#
# Indices 1 2 3 4 5 6 
#
# 1 29.1776 21.3579 26.9096 0.0000 3.1384 0.0002
# 2 21.3579 90.0164 45.1220 0.0000 9.0918 0.0000
# 3 26.9096 45.1220 186.9849 0.0000 17.1398 0.0000
# 4 0.0000 0.0000 0.0000 37.5750 0.0000 -11.7292
# 5 3.1384 9.0918 17.1398 0.0000 16.6308 -0.0001
# 6 0.0002 0.0000 0.0000 -11.7292 -0.0001 24.8406
#
#
#
# Elastic Compliance Matrix: (Units=1/GPa)
#
#
# Indices 1 2 3 4 5 6 
#
# 1 0.044428 -0.008395 -0.004440 0.000000 0.000781 0.000000
# 2 -0.008395 0.014490 -0.001886 0.000000 -0.004394 0.000000
# 3 -0.004440 -0.001886 0.006925 0.000000 -0.005268 0.000000
# 4 0.000000 0.000000 0.000000 0.031214 0.000000 0.014739
# 5 0.000781 -0.004394 -0.005268 0.000000 0.067813 0.000000
# 6 0.000000 0.000000 0.000000 0.014739 0.000000 0.047216
#
#
# Mechanical properties :
#
#
# Convention : Reuss Voigt Hill
#
# Bulk Modulus (GPa) = 27.47036 54.77308 41.12172
# Shear Modulus (GPa) = 19.71134 29.99526 24.85330
#
# Velocity S-wave (km/s) = 3.09189 3.81410 3.47182
# Velocity P-wave (km/s) = 5.10579 6.77943 6.00124
#
# Compressibility (1/GPa) = 0.03640287
#
# Stress axis : x y z
#
# Youngs Moduli (GPa) = 22.50814 69.01346 144.40652
#
# Poissons Ratio (x) = 0.57935 0.64111
# Poissons Ratio (y) = 0.18895 0.27231
# Poissons Ratio (z) = 0.09993 0.13014
#
# Static dielectric constant tensor:
#      x y z
#    x 1.753880 0.000000 -0.024510 
#    y 0.000000 1.717560 0.000000 
#    z -0.024510 0.000000 1.821150 
# 
# From -- ./inp_files/256914.got.cif
#   From: 2010.05.17/outbox.cif.g08.bks.cpg/sg12_129_cif.got.tgz:256914.got - 2010.06.03 13:09:07.
