data_PCOD9186866
_publ_section_title
;
Structure prediction by ZEFSAII (Michael W. Deem and Ramdas Pophale) SiO2 
 PCOD9186866
Probable space group: C 2/M
;
_chemical_formula_sum "Si O2"
_cell_formula_units_Z 32
_cell_length_a 28.474178
_cell_length_b 14.283566
_cell_length_c 9.131218
_cell_angle_alpha 90.000000
_cell_angle_beta 31.000312
_cell_angle_gamma 90.000000
_cell_volume 1912.757109
_symmetry_space_group_name_H-M "C 2/M"
_symmetry_group_IT_number 12
_symmetry_cell_setting 'monoclinic'
loop_
_space_group_symop_operation_xyz
x,y,z
-x,y,-z
-x,-y,-z
x,-y,z
1/2+x,1/2+y,z
1/2-x,1/2+y,-z
1/2-x,1/2-y,-z
1/2+x,1/2-y,z
loop_
_atom_site_type_symbol
_atom_site_label
_atom_site_fract_x
_atom_site_fract_y
_atom_site_fract_z
Si Si1 0.548427 0.000000 0.711977
Si Si2 0.893474 0.000000 0.284658
Si Si3 0.776496 0.000000 0.322662
Si Si4 0.237307 0.860887 0.208156
Si Si5 0.215060 0.639829 0.253514
Si Si6 0.864314 0.500000 0.035960
O O1 0.615233 0.909532 0.522941
O O2 0.500000 0.000000 0.000000
O O3 0.470438 0.000000 0.794986
O O4 0.847472 0.912466 0.489851
O O5 0.860818 0.000000 0.204793
O O6 0.000000 0.000000 0.000000
O O7 0.770307 0.088165 0.233049
O O8 0.690404 0.000000 0.663655
O O9 0.222946 0.750138 0.260969
O O10 0.325432 0.909621 0.050847
O O11 0.245653 0.880090 0.013000
#
# Coordination Sequence:
#
# PCOD9186866 Si02
#       6
#     4   4   4   8   8   4
#     4  11  20  34  56  90 110 135 184 233 269 309
#     4  10  21  37  53  79 105 140 184 223 258 309
#     4   9  18  35  57  77 107 144 172 216 276 318
#     4   9  21  37  56  77 110 148 176 214 276 327
#     4  10  19  37  57  79 110 144 177 217 273 328
#     4  10  19  35  56  85 111 140 182 225 273 320
#
# _framework density 16.729776999999999
#
# number of rings (size 3 to 8) (size 9 to 14) (size 15 to 20)
#    0.000    2.500    2.500    3.000    0.000    7.000 
#    4.500    2.500    0.000    0.000    0.000    0.000 
#    0.000    0.000    0.000    0.000    0.000    0.000 
#
# Total GULP energy -89115.049747 kJ/mol
# GULP energy per Si atom -5569.690609 kJ/mol
# Density = 1.669170 g / cm^3
# Si number density = 16.729777 Si / 1000 Ang^3
#
#
#
# Elastic Constant Matrix: (Units=GPa)
#
#
# Indices 1 2 3 4 5 6 
#
# 1 162.0698 85.2952 86.8350 0.0000 -2.9051 0.0000
# 2 85.2952 148.3304 51.9383 0.0000 5.9496 0.0000
# 3 86.8350 51.9383 80.2801 0.0000 -3.3075 0.0000
# 4 0.0000 0.0000 0.0000 33.7546 0.0000 31.1613
# 5 -2.9051 5.9496 -3.3075 0.0000 44.6229 0.0000
# 6 0.0000 0.0000 0.0000 31.1613 0.0000 42.2285
#
#
#
# Elastic Compliance Matrix: (Units=1/GPa)
#
#
# Indices 1 2 3 4 5 6 
#
# 1 0.016471 -0.004217 -0.015067 0.000000 0.000518 0.000000
# 2 -0.004217 0.009909 -0.001921 0.000000 -0.001738 0.000000
# 3 -0.015067 -0.001921 0.030058 0.000000 0.001503 0.000000
# 4 0.000000 0.000000 0.000000 0.092936 0.000000 -0.068580
# 5 0.000518 -0.001738 0.001503 0.000000 0.022787 0.000000
# 6 0.000000 0.000000 0.000000 -0.068580 0.000000 0.074287
#
#
# Mechanical properties :
#
#
# Convention : Reuss Voigt Hill
#
# Bulk Modulus (GPa) = 71.28130 93.20194 82.24162
# Shear Modulus (GPa) = 17.03377 35.22864 26.13121
#
# Velocity S-wave (km/s) = 3.19434 4.59382 3.95645
# Velocity P-wave (km/s) = 7.50367 9.16344 8.37478
#
# Compressibility (1/GPa) = 0.01402893
#
# Stress axis : x y z
#
# Youngs Moduli (GPa) = 60.71199 100.91929 33.26856
#
# Poissons Ratio (x) = 0.42554 0.50125
# Poissons Ratio (y) = 0.25600 0.06392
# Poissons Ratio (z) = 0.91473 0.19391
#
# Static dielectric constant tensor:
#      x y z
#    x 1.577340 0.000000 0.000430 
#    y 0.000000 1.554350 0.000000 
#    z 0.000430 0.000000 1.550280 
# 
# From -- ./inp_files/111011.got.cif
#   From: 2010.05.17/outbox.cif.g08.bks.cpg/sg12_56_cif.got.tgz:111011.got - 2010.06.03 13:09:07.
