data_PCOD9186828
_publ_section_title
;
Structure prediction by ZEFSAII (Michael W. Deem and Ramdas Pophale) SiO2 
 PCOD9186828
Probable space group: C 2/M
;
_chemical_formula_sum "Si O2"
_cell_formula_units_Z 56
_cell_length_a 20.168935
_cell_length_b 9.176901
_cell_length_c 28.219049
_cell_angle_alpha 90.000000
_cell_angle_beta 149.583095
_cell_angle_gamma 90.000000
_cell_volume 2644.351684
_symmetry_space_group_name_H-M "C 2/M"
_symmetry_group_IT_number 12
_symmetry_cell_setting 'monoclinic'
loop_
_space_group_symop_operation_xyz
x,y,z
-x,y,-z
-x,-y,-z
x,-y,z
1/2+x,1/2+y,z
1/2-x,1/2+y,-z
1/2-x,1/2-y,-z
1/2+x,1/2-y,z
loop_
_atom_site_type_symbol
_atom_site_label
_atom_site_fract_x
_atom_site_fract_y
_atom_site_fract_z
Si Si1 0.909356 0.162191 0.711648
Si Si2 0.372178 0.837166 0.268670
Si Si3 0.615124 0.334777 0.415727
Si Si4 0.350018 0.823751 0.397614
Si Si5 0.952791 0.176751 0.025393
Si Si6 0.342551 0.161679 0.138564
Si Si7 0.690398 0.828305 0.215490
O O1 0.919340 0.152238 0.661123
O O2 0.761373 0.213405 0.631759
O O3 0.033645 0.253177 0.806344
O O4 0.920489 0.000000 0.738869
O O5 0.506891 0.771546 0.371319
O O6 0.378698 0.853172 0.216437
O O7 0.265081 0.715588 0.213395
O O8 0.341318 0.000000 0.268347
O O9 0.619061 0.500000 0.437639
O O10 0.750000 0.250000 0.500000
O O11 0.500000 0.776881 0.500000
O O12 0.284250 0.747482 0.311814
O O13 0.354102 0.000000 0.395178
O O14 0.052171 0.249691 0.123521
O O15 0.957522 0.000000 0.030705
O O16 0.805157 0.222594 0.948961
O O17 0.000000 0.212124 0.000000
O O18 0.335960 0.000000 0.113222
O O19 0.679725 0.000000 0.216219
#
# Coordination Sequence:
#
# PCOD9186828 Si02
#       7
#     8   8   8   8   8   8   8
#     4   9  20  38  58  83 115 151 198 248 296 355
#     4  10  19  35  56  81 116 158 196 239 293 355
#     4  10  20  33  52  84 117 149 191 244 306 365
#     4  10  23  44  67  85 110 161 214 253 297 357
#     4  10  19  37  62  90 123 161 203 241 292 366
#     4   9  18  34  60  89 117 154 193 236 293 353
#     4  12  25  38  57  91 126 156 198 253 308 359
#
# _framework density 21.177212999999998
#
# number of rings (size 3 to 8) (size 9 to 14) (size 15 to 20)
#    0.000    2.000    1.429    2.143    2.000    2.857 
#    0.000    0.714    0.000    0.000    0.000    0.000 
#    0.000    0.000    0.000    0.000    0.000    0.000 
#
# Total GULP energy -155979.289959 kJ/mol
# GULP energy per Si atom -5570.688927 kJ/mol
# Density = 2.112901 g / cm^3
# Si number density = 21.177213 Si / 1000 Ang^3
#
#
#
# Elastic Constant Matrix: (Units=GPa)
#
#
# Indices 1 2 3 4 5 6 
#
# 1 39.8004 11.3793 23.5311 0.0000 17.9431 0.0000
# 2 11.3793 56.4030 59.9331 0.0001 11.1019 0.0001
# 3 23.5311 59.9331 166.6308 0.0002 45.5875 0.0000
# 4 0.0000 0.0001 0.0002 24.3246 0.0000 6.9986
# 5 17.9431 11.1019 45.5875 0.0000 40.3051 0.0000
# 6 0.0000 0.0001 0.0000 6.9986 0.0000 16.5684
#
#
#
# Elastic Compliance Matrix: (Units=1/GPa)
#
#
# Indices 1 2 3 4 5 6 
#
# 1 0.032309 -0.004874 0.001098 0.000000 -0.014283 0.000000
# 2 -0.004874 0.030287 -0.012333 0.000000 0.007776 0.000000
# 3 0.001098 -0.012333 0.013737 0.000000 -0.012629 0.000000
# 4 0.000000 0.000000 0.000000 0.046798 0.000000 -0.019768
# 5 -0.014283 0.007776 -0.012629 0.000000 0.043312 0.000000
# 6 0.000000 0.000000 0.000000 -0.019768 0.000000 0.068706
#
#
# Mechanical properties :
#
#
# Convention : Reuss Voigt Hill
#
# Bulk Modulus (GPa) = 22.66756 50.28013 36.47384
# Shear Modulus (GPa) = 17.72610 27.43899 22.58255
#
# Velocity S-wave (km/s) = 2.89630 3.60347 3.26906
# Velocity P-wave (km/s) = 4.68099 6.41151 5.61334
#
# Compressibility (1/GPa) = 0.04411592
#
# Stress axis : x y z
#
# Youngs Moduli (GPa) = 30.95143 33.01794 72.79523
#
# Poissons Ratio (x) = 0.16091 -0.07992
# Poissons Ratio (y) = 0.15084 0.89775
# Poissons Ratio (z) = -0.03398 0.40719
#
# Static dielectric constant tensor:
#      x y z
#    x 1.882020 0.000000 0.020090 
#    y 0.000000 1.781910 0.000000 
#    z 0.020090 0.000000 1.826780 
# 
# From -- ./inp_files/380759.got.cif
#   From: 2010.05.17/outbox.cif.g08.bks.cpg/sg12_191_cif.got.tgz:380759.got - 2010.06.03 13:09:07.
