data_PCOD9186194
_publ_section_title
;
Structure prediction by ZEFSAII (Michael W. Deem and Ramdas Pophale) SiO2 
 PCOD9186194
Probable space group: C 2/M
;
_chemical_formula_sum "Si O2"
_cell_formula_units_Z 56
_cell_length_a 23.807270
_cell_length_b 8.903683
_cell_length_c 15.877625
_cell_angle_alpha 90.000000
_cell_angle_beta 55.875417
_cell_angle_gamma 90.000000
_cell_volume 2786.124965
_symmetry_space_group_name_H-M "C 2/M"
_symmetry_group_IT_number 12
_symmetry_cell_setting 'monoclinic'
loop_
_space_group_symop_operation_xyz
x,y,z
-x,y,-z
-x,-y,-z
x,-y,z
1/2+x,1/2+y,z
1/2-x,1/2+y,-z
1/2-x,1/2-y,-z
1/2+x,1/2-y,z
loop_
_atom_site_type_symbol
_atom_site_label
_atom_site_fract_x
_atom_site_fract_y
_atom_site_fract_z
Si Si1 0.580471 0.175507 0.449542
Si Si2 0.073574 0.679381 0.976350
Si Si3 0.788304 0.677745 0.388973
Si Si4 0.331278 0.321848 0.769429
Si Si5 0.207549 0.821739 0.791763
Si Si6 0.068016 0.677958 0.652111
Si Si7 0.568399 0.320891 0.164134
O O1 0.500000 0.186366 0.500000
O O2 0.621054 0.273465 0.348725
O O3 0.590948 0.218380 0.538070
O O4 0.600408 0.000000 0.422151
O O5 0.081954 0.500000 0.965199
O O6 0.133706 0.757127 0.874579
O O7 0.076633 0.735949 0.069444
O O8 0.000000 0.717024 0.000000
O O9 0.774519 0.500000 0.396112
O O10 0.750000 0.750000 0.500000
O O11 0.769576 0.756934 0.317719
O O12 0.868632 0.697866 0.339191
O O13 0.319637 0.500000 0.777102
O O14 0.260805 0.236423 0.816129
O O15 0.371940 0.283708 0.820129
O O16 0.206469 0.000000 0.790216
O O17 0.050221 0.500000 0.665261
O O18 0.002747 0.770313 0.734972
O O19 0.568464 0.500000 0.150460
#
# Coordination Sequence:
#
# PCOD9186194 Si02
#       7
#     8   8   8   8   8   8   8
#     4  10  19  34  59  90 127 169 212 256 307 369
#     4  11  25  46  71  96 124 161 206 258 316 378
#     4  11  23  40  63  93 129 169 213 259 311 374
#     4  11  24  41  62  92 130 168 212 261 314 379
#     4  12  26  44  67  93 126 168 212 262 320 375
#     4  10  21  37  59  89 125 166 209 256 312 372
#     4  11  24  40  63  95 126 161 207 258 313 374
#
# _framework density 20.099601
#
# number of rings (size 3 to 8) (size 9 to 14) (size 15 to 20)
#    0.000    1.143    1.429    4.714    0.000   10.000 
#    0.000    0.000    0.000    0.000    0.000    0.000 
#    0.000    0.000    0.000    0.000    0.000    0.000 
#
# Total GULP energy -156714.334300 kJ/mol
# GULP energy per Si atom -5596.940511 kJ/mol
# Density = 2.005385 g / cm^3
# Si number density = 20.099601 Si / 1000 Ang^3
#
#
#
# Elastic Constant Matrix: (Units=GPa)
#
#
# Indices 1 2 3 4 5 6 
#
# 1 113.0064 75.7889 47.7043 0.0000 2.4428 0.0000
# 2 75.7889 101.9324 53.1055 0.0000 -0.5391 0.0000
# 3 47.7043 53.1055 93.4541 0.0000 5.7790 0.0000
# 4 0.0000 0.0000 0.0000 35.1553 0.0000 -4.8308
# 5 2.4428 -0.5391 5.7790 0.0000 33.6804 0.0000
# 6 0.0000 0.0000 0.0000 -4.8308 0.0000 25.8119
#
#
#
# Elastic Compliance Matrix: (Units=1/GPa)
#
#
# Indices 1 2 3 4 5 6 
#
# 1 0.018019 -0.012285 -0.002147 0.000000 -0.001135 0.000000
# 2 -0.012285 0.022398 -0.006604 0.000000 0.002383 0.000000
# 3 -0.002147 -0.006604 0.015713 0.000000 -0.002646 0.000000
# 4 0.000000 0.000000 0.000000 0.029196 0.000000 0.005464
# 5 -0.001135 0.002383 -0.002646 0.000000 0.030265 0.000000
# 6 0.000000 0.000000 0.000000 0.005464 0.000000 0.039764
#
#
# Mechanical properties :
#
#
# Convention : Reuss Voigt Hill
#
# Bulk Modulus (GPa) = 71.13429 73.51004 72.32217
# Shear Modulus (GPa) = 24.73875 27.71583 26.22729
#
# Velocity S-wave (km/s) = 3.51209 3.71742 3.61621
# Velocity P-wave (km/s) = 7.20515 7.42145 7.31410
#
# Compressibility (1/GPa) = 0.01405792
#
# Stress axis : x y z
#
# Youngs Moduli (GPa) = 55.49741 44.64732 63.64349
#
# Poissons Ratio (x) = 0.54849 0.13662
# Poissons Ratio (y) = 0.68179 0.42030
# Poissons Ratio (z) = 0.11913 0.29485
#
# Static dielectric constant tensor:
#      x y z
#    x 1.715370 0.000000 0.001470 
#    y 0.000000 1.671590 0.000000 
#    z 0.001470 0.000000 1.688640 
# 
# From -- ./inp_files/238259.got.cif
#   From: 2010.05.17/outbox.cif.g08.bks.cpg/sg12_120_cif.got.tgz:238259.got - 2010.06.03 13:09:07.
