data_PCOD9186617
_publ_section_title
;
Structure prediction by ZEFSAII (Michael W. Deem and Ramdas Pophale) SiO2 
 PCOD9186617
Probable space group: C 2/M
;
_chemical_formula_sum "Si O2"
_cell_formula_units_Z 64
_cell_length_a 17.431046
_cell_length_b 9.068851
_cell_length_c 28.027016
_cell_angle_alpha 90.000000
_cell_angle_beta 135.363569
_cell_angle_gamma 90.000000
_cell_volume 3112.893141
_symmetry_space_group_name_H-M "C 2/M"
_symmetry_group_IT_number 12
_symmetry_cell_setting 'monoclinic'
loop_
_space_group_symop_operation_xyz
x,y,z
-x,y,-z
-x,-y,-z
x,-y,z
1/2+x,1/2+y,z
1/2-x,1/2+y,-z
1/2-x,1/2-y,-z
1/2+x,1/2-y,z
loop_
_atom_site_type_symbol
_atom_site_label
_atom_site_fract_x
_atom_site_fract_y
_atom_site_fract_z
Si Si1 0.511396 0.167835 0.228520
Si Si2 0.401254 0.670789 0.418673
Si Si3 0.008142 0.822234 0.363696
Si Si4 0.687737 0.676553 0.371630
Si Si5 0.888701 0.339135 0.829975
Si Si6 0.053568 0.171922 0.971266
Si Si7 0.773886 0.673276 0.109655
Si Si8 0.191944 0.331060 0.766862
O O1 0.593487 0.266659 0.294513
O O2 0.561909 0.145398 0.199685
O O3 0.394222 0.238904 0.164267
O O4 0.495599 0.000000 0.243048
O O5 0.500000 0.672102 0.500000
O O6 0.366071 0.500000 0.395053
O O7 0.457552 0.723669 0.393275
O O8 0.299559 0.753246 0.399662
O O9 0.921259 0.754105 0.287970
O O10 0.130684 0.782463 0.398339
O O11 0.004082 0.000000 0.361097
O O12 0.699851 0.500000 0.376566
O O13 0.859372 0.500000 0.837289
O O14 0.780082 0.246243 0.773419
O O15 0.978640 0.262689 0.902763
O O16 0.058031 0.000000 0.958184
O O17 0.176413 0.232212 0.034222
O O18 0.000000 0.173601 0.000000
O O19 0.784761 0.500000 0.101252
O O20 0.749483 0.676396 0.155414
O O21 0.174755 0.500000 0.746874
#
# Coordination Sequence:
#
# PCOD9186617 Si02
#       8
#     8   8   8   8   8   8   8   8
#     4  10  21  39  58  80 114 155 194 235 292 361
#     4  10  23  44  67  91 126 172 210 238 285 361
#     4  10  22  40  62  93 129 160 198 254 309 351
#     4  11  23  39  63  96 129 158 197 256 311 350
#     4  11  23  35  52  80 114 149 189 246 307 357
#     4  10  19  35  55  76 103 143 194 244 294 355
#     4   9  18  34  56  77 102 140 189 238 279 340
#     4  11  20  35  60  85 109 147 198 241 288 353
#
# _framework density 20.559653000000001
#
# number of rings (size 3 to 8) (size 9 to 14) (size 15 to 20)
#    0.000    1.750    2.500    1.875    0.000    6.500 
#    0.000    0.625    0.000    0.000    0.000    0.000 
#    0.000    0.000    0.000    0.000    0.000    0.000 
#
# Total GULP energy -178168.367363 kJ/mol
# GULP energy per Si atom -5567.761480 kJ/mol
# Density = 2.051286 g / cm^3
# Si number density = 20.559653 Si / 1000 Ang^3
#
#
#
# Elastic Constant Matrix: (Units=GPa)
#
#
# Indices 1 2 3 4 5 6 
#
# 1 137.4670 45.8822 44.6321 0.0000 24.4600 0.0000
# 2 45.8822 30.7022 15.0857 0.0000 3.3915 0.0000
# 3 44.6321 15.0857 57.6989 0.0000 13.9236 0.0000
# 4 0.0000 0.0000 0.0000 15.1303 0.0000 0.6436
# 5 24.4600 3.3915 13.9236 0.0000 30.8075 0.0000
# 6 0.0000 0.0000 0.0000 0.6436 0.0000 20.7210
#
#
#
# Elastic Compliance Matrix: (Units=1/GPa)
#
#
# Indices 1 2 3 4 5 6 
#
# 1 0.019213 -0.024657 -0.006049 0.000000 -0.009806 0.000000
# 2 -0.024657 0.069019 -0.002091 0.000000 0.012924 0.000000
# 3 -0.006049 -0.002091 0.023955 0.000000 -0.005794 0.000000
# 4 0.000000 0.000000 0.000000 0.066180 0.000000 -0.002056
# 5 -0.009806 0.012924 -0.005794 0.000000 0.041441 0.000000
# 6 0.000000 0.000000 0.000000 -0.002056 0.000000 0.048324
#
#
# Mechanical properties :
#
#
# Convention : Reuss Voigt Hill
#
# Bulk Modulus (GPa) = 21.46228 48.56313 35.01271
# Shear Modulus (GPa) = 14.31611 21.34965 17.83288
#
# Velocity S-wave (km/s) = 2.64165 3.22596 2.94831
# Velocity P-wave (km/s) = 4.44591 6.12761 5.35321
#
# Compressibility (1/GPa) = 0.04659338
#
# Stress axis : x y z
#
# Youngs Moduli (GPa) = 52.04818 14.48878 41.74459
#
# Poissons Ratio (x) = 0.35725 0.25250
# Poissons Ratio (y) = 1.28335 0.08729
# Poissons Ratio (z) = 0.31483 0.03030
#
# Static dielectric constant tensor:
#      x y z
#    x 1.877910 0.000000 0.012250 
#    y 0.000000 1.764260 0.000000 
#    z 0.012250 0.000000 1.712980 
# 
# From -- ./inp_files/378421.got.cif
#   From: 2010.05.17/outbox.cif.g08.bks.cpg/sg12_190_cif.got.tgz:378421.got - 2010.06.03 13:09:07.
