data_PCOD9186865
_publ_section_title
;
Structure prediction by ZEFSAII (Michael W. Deem and Ramdas Pophale) SiO2 
 PCOD9186865
Probable space group: C 2/M
;
_chemical_formula_sum "Si O2"
_cell_formula_units_Z 56
_cell_length_a 16.823758
_cell_length_b 20.634566
_cell_length_c 14.538126
_cell_angle_alpha 90.000000
_cell_angle_beta 32.682057
_cell_angle_gamma 90.000000
_cell_volume 2725.221779
_symmetry_space_group_name_H-M "C 2/M"
_symmetry_group_IT_number 12
_symmetry_cell_setting 'monoclinic'
loop_
_space_group_symop_operation_xyz
x,y,z
-x,y,-z
-x,-y,-z
x,-y,z
1/2+x,1/2+y,z
1/2-x,1/2+y,-z
1/2-x,1/2-y,-z
1/2+x,1/2-y,z
loop_
_atom_site_type_symbol
_atom_site_label
_atom_site_fract_x
_atom_site_fract_y
_atom_site_fract_z
Si Si1 0.345701 0.570102 0.600144
Si Si2 0.565865 0.128112 0.336929
Si Si3 0.157431 0.208239 0.863564
Si Si4 0.859321 0.649364 0.078597
Si Si5 0.774244 0.302921 0.556033
Si Si6 0.922324 0.075971 0.311006
Si Si7 0.733091 0.926492 0.010956
O O1 0.500000 0.564348 0.500000
O O2 0.266661 0.500000 0.688593
O O3 0.268982 0.628208 0.727478
O O4 0.376567 0.579466 0.462787
O O5 0.500000 0.105063 0.500000
O O6 0.713710 0.167371 0.217110
O O7 0.441532 0.173272 0.410551
O O8 0.625078 0.078043 0.203651
O O9 0.129624 0.273845 0.946268
O O10 0.217547 0.228271 0.705371
O O11 0.000000 0.174391 0.000000
O O12 0.831486 0.616208 0.008361
O O13 0.000000 0.627596 0.000000
O O14 0.750000 0.250000 0.500000
O O15 0.678274 0.368908 0.636968
O O16 0.900360 0.000000 0.302843
O O17 0.096737 0.091577 0.132013
O O18 0.742151 0.000000 0.968064
#
# Coordination Sequence:
#
# PCOD9186865 Si02
#       7
#     8   8   8   8   8   8   8
#     4  10  19  35  56  84 128 171 208 252 312 384
#     4  10  25  45  65  94 128 168 219 278 330 376
#     4  10  23  43  64  91 128 166 211 269 328 387
#     4  11  24  37  61  96 133 168 212 265 329 388
#     4  11  24  40  66  98 128 171 223 269 327 389
#     4  10  22  40  63  95 132 175 220 268 325 395
#     4  11  24  42  66  95 131 177 222 264 326 396
#
# _framework density 20.548786
#
# number of rings (size 3 to 8) (size 9 to 14) (size 15 to 20)
#    0.000    1.571    1.429    2.143    8.000    4.286 
#    0.000    2.143    0.000    7.714    0.000    0.000 
#    0.000    0.000    0.000    0.000    0.000    0.000 
#
# Total GULP energy -156202.939259 kJ/mol
# GULP energy per Si atom -5578.676402 kJ/mol
# Density = 2.050202 g / cm^3
# Si number density = 20.548786 Si / 1000 Ang^3
#
#
#
# Elastic Constant Matrix: (Units=GPa)
#
#
# Indices 1 2 3 4 5 6 
#
# 1 95.2835 48.3103 35.3654 -0.0022 -15.0817 0.0027
# 2 48.3103 69.3358 26.5459 -0.0010 -7.4264 0.0009
# 3 35.3654 26.5459 83.0749 0.0005 -11.0782 0.0017
# 4 -0.0022 -0.0010 0.0005 31.1319 0.0011 3.7701
# 5 -15.0817 -7.4264 -11.0782 0.0011 38.0613 -0.0005
# 6 0.0027 0.0009 0.0017 3.7701 -0.0005 36.0081
#
#
#
# Elastic Compliance Matrix: (Units=1/GPa)
#
#
# Indices 1 2 3 4 5 6 
#
# 1 0.017871 -0.010617 -0.003690 0.000001 0.003936 -0.000001
# 2 -0.010617 0.022853 -0.002860 0.000000 -0.000581 0.000000
# 3 -0.003690 -0.002860 0.014828 -0.000001 0.002296 0.000000
# 4 0.000001 0.000000 -0.000001 0.032534 -0.000001 -0.003406
# 5 0.003936 -0.000581 0.002296 -0.000001 0.028388 0.000000
# 6 -0.000001 0.000000 0.000000 -0.003406 0.000000 0.028128
#
#
# Mechanical properties :
#
#
# Convention : Reuss Voigt Hill
#
# Bulk Modulus (GPa) = 47.13191 52.01524 49.57357
# Shear Modulus (GPa) = 26.88041 30.20511 28.54276
#
# Velocity S-wave (km/s) = 3.62073 3.83812 3.73100
# Velocity P-wave (km/s) = 6.36128 6.70891 6.53741
#
# Compressibility (1/GPa) = 0.02121705
#
# Stress axis : x y z
#
# Youngs Moduli (GPa) = 55.95771 43.75794 67.43855
#
# Poissons Ratio (x) = 0.46458 0.24886
# Poissons Ratio (y) = 0.59411 0.19288
# Poissons Ratio (z) = 0.20649 0.12515
#
# Static dielectric constant tensor:
#      x y z
#    x 1.743710 0.000000 0.005960 
#    y 0.000000 1.775720 0.000000 
#    z 0.005960 0.000000 1.723600 
# 
# From -- ./inp_files/65755.got.cif
#   From: 2010.05.17/outbox.cif.g08.bks.cpg/sg12_33_cif.got.tgz:65755.got - 2010.06.03 13:09:07.
