data_PCOD9186757
_publ_section_title
;
Structure prediction by ZEFSAII (Michael W. Deem and Ramdas Pophale) SiO2 
 PCOD9186757
Probable space group: C 2/M
;
_chemical_formula_sum "Si O2"
_cell_formula_units_Z 52
_cell_length_a 11.883452
_cell_length_b 21.444520
_cell_length_c 11.608438
_cell_angle_alpha 90.000000
_cell_angle_beta 101.957197
_cell_angle_gamma 90.000000
_cell_volume 2894.049544
_symmetry_space_group_name_H-M "C 2/M"
_symmetry_group_IT_number 12
_symmetry_cell_setting 'monoclinic'
loop_
_space_group_symop_operation_xyz
x,y,z
-x,y,-z
-x,-y,-z
x,-y,z
1/2+x,1/2+y,z
1/2-x,1/2+y,-z
1/2-x,1/2-y,-z
1/2+x,1/2-y,z
loop_
_atom_site_type_symbol
_atom_site_label
_atom_site_fract_x
_atom_site_fract_y
_atom_site_fract_z
Si Si1 0.103428 0.200987 0.962571
Si Si2 0.412442 0.071539 0.755997
Si Si3 0.883882 0.761308 0.286049
Si Si4 0.276647 0.571949 0.488321
Si Si5 0.815011 0.680426 0.876323
Si Si6 0.093429 0.376697 0.621623
Si Si7 0.000000 0.843450 0.500000
O O1 0.069435 0.232305 0.833845
O O2 0.216643 0.162418 0.950240
O O3 0.868417 0.258348 0.946490
O O4 0.000000 0.164589 0.000000
O O5 0.307664 0.077930 0.640912
O O6 0.392403 0.123897 0.849523
O O7 0.527869 0.085640 0.707829
O O8 0.412404 0.000000 0.797517
O O9 0.759340 0.794278 0.248194
O O10 0.872929 0.690671 0.322844
O O11 0.965927 0.799188 0.387202
O O12 0.311613 0.500000 0.502874
O O13 0.200248 0.589966 0.583157
O O14 0.388284 0.614902 0.501876
O O15 0.000000 0.367534 0.500000
#
# Coordination Sequence:
#
# PCOD9186757 Si02
#       7
#     8   8   8   8   8   8   4
#     4   9  18  34  57  81 104 140 183 230 275 332
#     4  10  19  35  56  77 109 145 189 228 266 325
#     4  10  20  34  53  86 112 143 174 232 280 326
#     4  10  21  35  51  75 111 157 190 213 262 328
#     4   9  19  35  54  82 104 144 187 224 279 325
#     4  10  20  32  52  79 110 142 181 231 278 323
#     4  12  21  36  52  84 121 146 178 228 270 332
#
# _framework density 17.967901999999999
#
# number of rings (size 3 to 8) (size 9 to 14) (size 15 to 20)
#    0.923    1.231    2.308    1.615    0.000    4.923 
#    0.000    0.000    0.000    5.538    0.000    0.000 
#    0.000    0.000    0.000    0.000    0.000    0.000 
#
# Total GULP energy -144778.631280 kJ/mol
# GULP energy per Si atom -5568.408895 kJ/mol
# Density = 1.792701 g / cm^3
# Si number density = 17.967902 Si / 1000 Ang^3
#
#
#
# Elastic Constant Matrix: (Units=GPa)
#
#
# Indices 1 2 3 4 5 6 
#
# 1 59.2750 10.5071 11.6393 0.0000 -13.6583 0.0000
# 2 10.5071 82.7036 24.4143 0.0000 -4.3395 0.0000
# 3 11.6393 24.4143 49.7488 0.0000 -10.1010 0.0000
# 4 0.0000 0.0000 0.0000 -11.6451 0.0000 -20.1364
# 5 -13.6583 -4.3395 -10.1010 0.0000 29.6072 0.0000
# 6 0.0000 0.0000 0.0000 -20.1364 0.0000 -0.2909
#
#
#
# Elastic Compliance Matrix: (Units=1/GPa)
#
#
# Indices 1 2 3 4 5 6 
#
# 1 0.019394 -0.001385 -0.002238 0.000000 0.007981 0.000000
# 2 -0.001385 0.014241 -0.006845 0.000000 -0.000887 0.000000
# 3 -0.002238 -0.006845 0.025325 0.000000 0.006604 0.000000
# 4 0.000000 0.000000 0.000000 0.000723 0.000000 -0.050080
# 5 0.007981 -0.000887 0.006604 0.000000 0.039580 0.000000
# 6 0.000000 0.000000 0.000000 -0.050080 0.000000 0.028962
#
#
# Mechanical properties :
#
#
# Convention : Reuss Voigt Hill
#
# Bulk Modulus (GPa) = 26.29805 31.64988 28.97397
# Shear Modulus (GPa) = 30.89555 13.21203 22.05379
#
# Velocity S-wave (km/s) = 4.15117 2.71461 3.50723
# Velocity P-wave (km/s) = 6.13548 5.24198 5.70625
#
# Compressibility (1/GPa) = 0.03802563
#
# Stress axis : x y z
#
# Youngs Moduli (GPa) = 51.56173 70.21762 39.48717
#
# Poissons Ratio (x) = 0.09723 0.08836
# Poissons Ratio (y) = 0.07139 0.27029
# Poissons Ratio (z) = 0.11538 0.48065
#
# Static dielectric constant tensor:
#      x y z
#    x 1.676780 0.000000 -0.002580 
#    y 0.000000 1.580060 0.000000 
#    z -0.002580 0.000000 1.624660 
# 
# From -- ./inp_files/206991.got.cif
#   From: 2010.05.17/outbox.cif.g08.bks.cpg/sg12_104_cif.got.tgz:206991.got - 2010.06.03 13:09:07.
