data_PCOD9186808
_publ_section_title
;
Structure prediction by ZEFSAII (Michael W. Deem and Ramdas Pophale) SiO2 
 PCOD9186808
Probable space group: C 2/M
;
_chemical_formula_sum "Si O2"
_cell_formula_units_Z 64
_cell_length_a 22.539963
_cell_length_b 18.533806
_cell_length_c 7.186220
_cell_angle_alpha 90.000000
_cell_angle_beta 82.204923
_cell_angle_gamma 90.000000
_cell_volume 2974.312283
_symmetry_space_group_name_H-M "C 2/M"
_symmetry_group_IT_number 12
_symmetry_cell_setting 'monoclinic'
loop_
_space_group_symop_operation_xyz
x,y,z
-x,y,-z
-x,-y,-z
x,-y,z
1/2+x,1/2+y,z
1/2-x,1/2+y,-z
1/2-x,1/2-y,-z
1/2+x,1/2-y,z
loop_
_atom_site_type_symbol
_atom_site_label
_atom_site_fract_x
_atom_site_fract_y
_atom_site_fract_z
Si Si1 0.788882 0.185706 0.385254
Si Si2 0.726074 0.919212 0.842164
Si Si3 0.019223 0.235503 0.768953
Si Si4 0.517630 0.581742 0.212507
Si Si5 0.398519 0.802164 0.756828
Si Si6 0.187849 0.581344 0.289844
Si Si7 0.362015 0.199752 0.186951
Si Si8 0.854150 0.855659 0.710009
O O1 0.750000 0.250000 0.500000
O O2 0.744434 0.123299 0.345793
O O3 0.821193 0.228224 0.204030
O O4 0.838538 0.148990 0.497040
O O5 0.682038 0.865971 0.748651
O O6 0.793422 0.889131 0.817708
O O7 0.726507 0.000000 0.766272
O O8 0.701667 0.921264 0.062654
O O9 0.081625 0.275939 0.714739
O O10 0.019371 0.152050 0.703896
O O11 0.966048 0.278901 0.695269
O O12 0.000000 0.232744 0.000000
O O13 0.506126 0.500000 0.286130
O O14 0.586577 0.603981 0.236323
O O15 0.500000 0.578926 0.000000
O O16 0.369814 0.867882 0.658992
O O17 0.360786 0.728905 0.751545
O O18 0.391133 0.819485 0.977964
O O19 0.180210 0.500000 0.359395
#
# Coordination Sequence:
#
# PCOD9186808 Si02
#       8
#     8   8   8   8   8   8   8   8
#     4  12  22  36  54  84 115 153 189 224 284 347
#     4  10  20  34  55  84 111 146 191 240 291 338
#     4   8  16  31  55  80 102 140 186 230 280 326
#     4   9  18  33  54  81 109 140 182 234 282 326
#     4   9  17  34  57  78 104 145 196 233 274 332
#     4  10  21  35  52  78 114 147 184 239 294 332
#     4  10  19  35  56  80 113 146 186 239 277 334
#     4  11  20  34  57  82 112 146 191 231 275 351
#
# _framework density 21.517579999999999
#
# number of rings (size 3 to 8) (size 9 to 14) (size 15 to 20)
#    0.000    2.125    2.500    1.875    0.000    3.000 
#    0.000    5.000    0.000    4.500    0.000    0.875 
#    0.000    0.000    0.000    0.000    0.000    0.000 
#
# Total GULP energy -178488.831311 kJ/mol
# GULP energy per Si atom -5577.775978 kJ/mol
# Density = 2.146861 g / cm^3
# Si number density = 21.517580 Si / 1000 Ang^3
#
#
#
# Elastic Constant Matrix: (Units=GPa)
#
#
# Indices 1 2 3 4 5 6 
#
# 1 156.9296 106.4750 22.8556 0.0000 26.5553 0.0000
# 2 106.4750 192.7547 19.7458 0.0000 22.6384 0.0000
# 3 22.8556 19.7458 57.4262 0.0000 9.5129 0.0000
# 4 0.0000 0.0000 0.0000 11.1129 0.0000 5.4607
# 5 26.5553 22.6384 9.5129 0.0000 30.9033 0.0000
# 6 0.0000 0.0000 0.0000 5.4607 0.0000 18.6094
#
#
#
# Elastic Compliance Matrix: (Units=1/GPa)
#
#
# Indices 1 2 3 4 5 6 
#
# 1 0.011134 -0.005373 -0.001739 0.000000 -0.005095 0.000000
# 2 -0.005373 0.008368 -0.000514 0.000000 -0.001354 0.000000
# 3 -0.001739 -0.000514 0.018939 0.000000 -0.003958 0.000000
# 4 0.000000 0.000000 0.000000 0.105147 0.000000 -0.030854
# 5 -0.005095 -0.001354 -0.003958 0.000000 0.038948 0.000000
# 6 0.000000 0.000000 0.000000 -0.030854 0.000000 0.062790
#
#
# Mechanical properties :
#
#
# Convention : Reuss Voigt Hill
#
# Bulk Modulus (GPa) = 43.13018 78.36259 60.74639
# Shear Modulus (GPa) = 18.63533 29.32740 23.98137
#
# Velocity S-wave (km/s) = 2.94607 3.69582 3.34204
# Velocity P-wave (km/s) = 5.62673 7.39656 6.57150
#
# Compressibility (1/GPa) = 0.02318562
#
# Stress axis : x y z
#
# Youngs Moduli (GPa) = 89.81751 119.50434 52.80237
#
# Poissons Ratio (x) = 0.64215 0.09185
# Poissons Ratio (y) = 0.48263 0.02716
# Poissons Ratio (z) = 0.15624 0.06146
#
# Static dielectric constant tensor:
#      x y z
#    x 1.775530 0.000000 0.006080 
#    y 0.000000 1.758850 0.000000 
#    z 0.006080 0.000000 1.889580 
# 
# From -- ./inp_files/87953.got.cif
#   From: 2010.05.17/outbox.cif.g08.bks.cpg/sg12_44_cif.got.tgz:87953.got - 2010.06.03 13:09:07.
