data_PCOD9186823
_publ_section_title
;
Structure prediction by ZEFSAII (Michael W. Deem and Ramdas Pophale) SiO2 
 PCOD9186823
Probable space group: C 2/M
;
_chemical_formula_sum "Si O2"
_cell_formula_units_Z 56
_cell_length_a 24.371840
_cell_length_b 8.600709
_cell_length_c 16.086963
_cell_angle_alpha 90.000000
_cell_angle_beta 56.036304
_cell_angle_gamma 90.000000
_cell_volume 2796.767297
_symmetry_space_group_name_H-M "C 2/M"
_symmetry_group_IT_number 12
_symmetry_cell_setting 'monoclinic'
loop_
_space_group_symop_operation_xyz
x,y,z
-x,y,-z
-x,-y,-z
x,-y,z
1/2+x,1/2+y,z
1/2-x,1/2+y,-z
1/2-x,1/2-y,-z
1/2+x,1/2-y,z
loop_
_atom_site_type_symbol
_atom_site_label
_atom_site_fract_x
_atom_site_fract_y
_atom_site_fract_z
Si Si1 0.294641 0.813907 0.887716
Si Si2 0.069443 0.812453 0.673084
Si Si3 0.931351 0.810145 0.517019
Si Si4 0.669273 0.312396 0.729122
Si Si5 0.424766 0.313875 0.036672
Si Si6 0.292841 0.314282 0.709651
Si Si7 0.929937 0.315167 0.852255
O O1 0.273634 0.754118 0.815371
O O2 0.370402 0.764580 0.842230
O O3 0.291363 0.000000 0.891612
O O4 0.250000 0.750000 0.000000
O O5 0.073740 0.759097 0.574358
O O6 0.129723 0.760028 0.680715
O O7 0.999555 0.761759 0.770755
O O8 0.070738 0.000000 0.672390
O O9 0.866543 0.761097 0.622464
O O10 0.000000 0.757970 0.500000
O O11 0.931939 0.000000 0.516606
O O12 0.674887 0.500000 0.722362
O O13 0.623696 0.271265 0.847269
O O14 0.740467 0.239762 0.685112
O O15 0.420114 0.500000 0.027641
O O16 0.500000 0.278855 0.000000
O O17 0.410196 0.230536 0.962583
O O18 0.292451 0.500000 0.715211
O O19 0.936960 0.500000 0.840314
#
# Coordination Sequence:
#
# PCOD9186823 Si02
#       7
#     8   8   8   8   8   8   8
#     4  11  24  41  60  86 119 157 197 239 291 352
#     4  10  20  38  62  85 113 155 203 241 284 351
#     4   9  19  37  62  89 114 147 197 249 293 343
#     4  10  21  37  58  85 118 157 199 242 290 351
#     4  10  19  35  56  81 113 156 202 233 275 347
#     4  11  23  39  61  89 119 154 195 244 298 350
#     4  11  23  36  55  87 120 149 189 246 303 344
#
# _framework density 20.023118
#
# number of rings (size 3 to 8) (size 9 to 14) (size 15 to 20)
#    0.000    1.714    1.429    3.000    0.000    7.714 
#    0.000    1.429    0.000    3.857    0.000    0.000 
#    0.000    0.000    0.000    0.000    0.000    0.000 
#
# Total GULP energy -156512.453139 kJ/mol
# GULP energy per Si atom -5589.730469 kJ/mol
# Density = 1.997754 g / cm^3
# Si number density = 20.023118 Si / 1000 Ang^3
#
#
#
# Elastic Constant Matrix: (Units=GPa)
#
#
# Indices 1 2 3 4 5 6 
#
# 1 158.2335 26.6181 57.6855 0.0000 4.1718 0.0000
# 2 26.6181 13.0770 17.0384 -0.0001 1.0585 0.0000
# 3 57.6855 17.0384 107.1931 0.0000 8.8138 0.0000
# 4 0.0000 -0.0001 0.0000 10.1168 0.0000 -1.8645
# 5 4.1718 1.0585 8.8138 0.0000 37.8342 0.0000
# 6 0.0000 0.0000 0.0000 -1.8645 0.0000 27.1140
#
#
#
# Elastic Compliance Matrix: (Units=1/GPa)
#
#
# Indices 1 2 3 4 5 6 
#
# 1 0.010222 -0.017202 -0.002767 0.000000 -0.000001 0.000000
# 2 -0.017202 0.125422 -0.010752 0.000001 0.000893 0.000000
# 3 -0.002767 -0.010752 0.012721 0.000000 -0.002358 0.000000
# 4 0.000000 0.000001 0.000000 0.100114 0.000000 0.006884
# 5 -0.000001 0.000893 -0.002358 0.000000 0.026956 0.000000
# 6 0.000000 0.000000 0.000000 0.006884 0.000000 0.037355
#
#
# Mechanical properties :
#
#
# Convention : Reuss Voigt Hill
#
# Bulk Modulus (GPa) = 11.50439 53.46528 32.48483
# Shear Modulus (GPa) = 12.40063 26.82378 19.61220
#
# Velocity S-wave (km/s) = 2.49131 3.66408 3.13306
# Velocity P-wave (km/s) = 3.74613 6.68284 5.41728
#
# Compressibility (1/GPa) = 0.08692333
#
# Stress axis : x y z
#
# Youngs Moduli (GPa) = 97.82652 7.97307 78.61231
#
# Poissons Ratio (x) = 0.13716 0.21749
# Poissons Ratio (y) = 1.68285 0.84523
# Poissons Ratio (z) = 0.27065 0.08573
#
# Static dielectric constant tensor:
#      x y z
#    x 1.713740 0.000000 -0.000420 
#    y 0.000000 1.678170 0.000000 
#    z -0.000420 0.000000 1.681010 
# 
# From -- ./inp_files/238293.got.cif
#   From: 2010.05.17/outbox.cif.g08.bks.cpg/sg12_120_cif.got.tgz:238293.got - 2010.06.03 13:09:07.
