data_PCOD9186996
_publ_section_title
;
Structure prediction by ZEFSAII (Michael W. Deem and Ramdas Pophale) SiO2 
 PCOD9186996
Probable space group: C 2/M
;
_chemical_formula_sum "Si O2"
_cell_formula_units_Z 50
_cell_length_a 9.967432
_cell_length_b 14.601263
_cell_length_c 14.475655
_cell_angle_alpha 90.000000
_cell_angle_beta 115.028812
_cell_angle_gamma 90.000000
_cell_volume 1908.911245
_symmetry_space_group_name_H-M "C 2/M"
_symmetry_group_IT_number 12
_symmetry_cell_setting 'monoclinic'
loop_
_space_group_symop_operation_xyz
x,y,z
-x,y,-z
-x,-y,-z
x,-y,z
1/2+x,1/2+y,z
1/2-x,1/2+y,-z
1/2-x,1/2-y,-z
1/2+x,1/2-y,z
loop_
_atom_site_type_symbol
_atom_site_label
_atom_site_fract_x
_atom_site_fract_y
_atom_site_fract_z
Si Si1 0.097076 0.101580 0.715130
Si Si2 0.000000 0.000000 0.000000
Si Si3 0.960742 0.699226 0.273595
Si Si4 0.835366 0.394026 0.406514
Si Si5 0.759013 0.891686 0.429117
Si Si6 0.712442 0.648347 0.077936
Si Si7 0.161938 0.636666 0.075561
O O1 0.028066 0.192429 0.738576
O O2 0.113991 0.117562 0.610111
O O3 0.261527 0.101810 0.809371
O O4 0.033859 0.000000 0.711680
O O5 0.905439 0.920346 0.916480
O O6 0.847649 0.674653 0.324806
O O7 0.879642 0.650054 0.165230
O O8 0.116728 0.658816 0.346973
O O9 0.810272 0.500000 0.370822
O O10 0.727103 0.365397 0.459012
O O11 0.000000 0.392037 0.500000
O O12 0.725724 0.000000 0.423701
O O13 0.661099 0.752502 0.075935
O O14 0.728205 0.614280 0.977042
O O15 0.000000 0.604240 0.000000
#
# Coordination Sequence:
#
# PCOD9186996 Si02
#       7
#     8   2   8   8   8   8   8
#     4  10  22  36  53  81 109 145 185 229 282 324
#     4  12  24  40  54  88 116 154 184 234 294 342
#     4  10  19  35  57  82 108 147 189 223 278 337
#     4   8  15  29  54  84 111 137 178 231 279 327
#     4   9  18  35  58  84 113 140 178 237 279 326
#     4  10  23  36  58  83 120 151 182 240 284 338
#     4  10  20  41  58  81 110 151 198 234 283 337
#
# _framework density 26.192941999999999
#
# number of rings (size 3 to 8) (size 9 to 14) (size 15 to 20)
#    0.000    2.400    0.800    2.400    3.360    0.960 
#    0.000    0.000    0.000    6.240    0.000    0.000 
#    0.000    0.000    0.000    0.000    0.000    0.000 
#
# Total GULP energy -139647.886749 kJ/mol
# GULP energy per Si atom -5585.915470 kJ/mol
# Density = 2.613333 g / cm^3
# Si number density = 26.192942 Si / 1000 Ang^3
#
#
#
# Elastic Constant Matrix: (Units=GPa)
#
#
# Indices 1 2 3 4 5 6 
#
# 1 80.1719 16.2662 17.5398 0.0000 5.1929 0.0000
# 2 16.2662 104.8520 17.2329 0.0000 -0.6010 0.0000
# 3 17.5398 17.2329 98.4802 0.0000 -7.1060 0.0000
# 4 0.0000 0.0000 0.0000 21.0119 0.0000 15.2039
# 5 5.1929 -0.6010 -7.1060 0.0000 44.9074 0.0000
# 6 0.0000 0.0000 0.0000 15.2039 0.0000 24.6074
#
#
#
# Elastic Compliance Matrix: (Units=1/GPa)
#
#
# Indices 1 2 3 4 5 6 
#
# 1 0.013437 -0.001729 -0.002230 0.000000 -0.001930 0.000000
# 2 -0.001729 0.010043 -0.001442 0.000000 0.000106 0.000000
# 3 -0.002230 -0.001442 0.010946 0.000000 0.001971 0.000000
# 4 0.000000 0.000000 0.000000 0.086072 0.000000 -0.053180
# 5 -0.001930 0.000106 0.001971 0.000000 0.022804 0.000000
# 6 0.000000 0.000000 0.000000 -0.053180 0.000000 0.073496
#
#
# Mechanical properties :
#
#
# Convention : Reuss Voigt Hill
#
# Bulk Modulus (GPa) = 42.32912 42.84245 42.58579
# Shear Modulus (GPa) = 21.23366 33.60303 27.41834
#
# Velocity S-wave (km/s) = 2.85030 3.58565 3.23891
# Velocity P-wave (km/s) = 5.19884 5.79090 5.50284
#
# Compressibility (1/GPa) = 0.02362440
#
# Stress axis : x y z
#
# Youngs Moduli (GPa) = 74.42218 99.57118 91.35789
#
# Poissons Ratio (x) = 0.17217 0.20371
# Poissons Ratio (y) = 0.12868 0.13172
# Poissons Ratio (z) = 0.16595 0.14356
#
# Static dielectric constant tensor:
#      x y z
#    x 2.195090 0.000000 -0.041590 
#    y 0.000000 1.981400 0.000000 
#    z -0.041590 0.000000 2.061290 
# 
# From -- ./inp_files/205074.got.cif
#   From: 2010.05.17/outbox.cif.g08.bks.cpg/sg12_103_cif.got.tgz:205074.got - 2010.06.03 13:09:07.
