data_PCOD9186795
_publ_section_title
;
Structure prediction by ZEFSAII (Michael W. Deem and Ramdas Pophale) SiO2 
 PCOD9186795
Probable space group: C 2/M
;
_chemical_formula_sum "Si O2"
_cell_formula_units_Z 48
_cell_length_a 27.431576
_cell_length_b 7.523379
_cell_length_c 10.376853
_cell_angle_alpha 90.000000
_cell_angle_beta 89.487235
_cell_angle_gamma 90.000000
_cell_volume 2141.469890
_symmetry_space_group_name_H-M "C 2/M"
_symmetry_group_IT_number 12
_symmetry_cell_setting 'monoclinic'
loop_
_space_group_symop_operation_xyz
x,y,z
-x,y,-z
-x,-y,-z
x,-y,z
1/2+x,1/2+y,z
1/2-x,1/2+y,-z
1/2-x,1/2-y,-z
1/2+x,1/2-y,z
loop_
_atom_site_type_symbol
_atom_site_label
_atom_site_fract_x
_atom_site_fract_y
_atom_site_fract_z
Si Si1 0.138493 0.715742 0.484626
Si Si2 0.032097 0.792412 0.382214
Si Si3 0.850880 0.718024 0.958154
Si Si4 0.540192 0.205817 0.094045
Si Si5 0.670487 0.206290 0.754978
Si Si6 0.717311 0.215385 0.274984
O O1 0.139010 0.500000 0.485975
O O2 0.088501 0.771551 0.419118
O O3 0.143153 0.782252 0.630922
O O4 0.184601 0.771850 0.397351
O O5 0.023648 0.711673 0.242212
O O6 0.000000 0.717217 0.500000
O O7 0.020184 0.000000 0.370079
O O8 0.849500 0.500000 0.955191
O O9 0.839366 0.780612 0.102908
O O10 0.905047 0.779088 0.917898
O O11 0.811095 0.773349 0.853604
O O12 0.545499 0.000000 0.054324
O O13 0.500000 0.286710 0.000000
O O14 0.727905 0.216382 0.724737
O O15 0.655638 0.000000 0.763017
O O16 0.719534 0.000000 0.275503
#
# Coordination Sequence:
#
# PCOD9186795 Si02
#       6
#     8   8   8   8   8   8
#     4  10  21  38  60  84 113 151 195 242 285 335
#     4  11  25  42  60  86 121 155 189 238 295 351
#     4   9  18  35  55  83 118 144 184 239 283 334
#     4  10  21  39  66  92 114 149 194 241 292 346
#     4  10  21  34  55  86 116 149 191 237 283 339
#     4  10  19  35  56  79 115 154 190 237 285 337
#
# _framework density 22.414511000000001
#
# number of rings (size 3 to 8) (size 9 to 14) (size 15 to 20)
#    0.000    2.000    1.667    1.500    2.333    3.000 
#    0.000    0.833    0.000    0.000    0.000    0.000 
#    0.000    0.000    0.000    0.000    0.000    0.000 
#
# Total GULP energy -134145.828977 kJ/mol
# GULP energy per Si atom -5589.409541 kJ/mol
# Density = 2.236349 g / cm^3
# Si number density = 22.414511 Si / 1000 Ang^3
#
#
#
# Elastic Constant Matrix: (Units=GPa)
#
#
# Indices 1 2 3 4 5 6 
#
# 1 53.6662 -16.9411 13.8792 0.0000 6.1383 0.0000
# 2 -16.9411 53.6783 -9.5846 0.0000 2.0773 0.0000
# 3 13.8792 -9.5846 123.1934 0.0000 11.5562 0.0000
# 4 0.0000 0.0000 0.0000 11.5022 0.0000 -3.3438
# 5 6.1383 2.0773 11.5562 0.0000 48.3909 0.0000
# 6 0.0000 0.0000 0.0000 -3.3438 0.0000 10.3696
#
#
#
# Elastic Compliance Matrix: (Units=1/GPa)
#
#
# Indices 1 2 3 4 5 6 
#
# 1 0.021435 0.006569 -0.001659 0.000000 -0.002605 0.000000
# 2 0.006569 0.020972 0.001078 0.000000 -0.001991 0.000000
# 3 -0.001659 0.001078 0.008565 0.000000 -0.001881 0.000000
# 4 0.000000 0.000000 0.000000 0.095933 0.000000 0.030935
# 5 -0.002605 -0.001991 -0.001881 0.000000 0.021530 0.000000
# 6 0.000000 0.000000 0.000000 0.030935 0.000000 0.106411
#
#
# Mechanical properties :
#
#
# Convention : Reuss Voigt Hill
#
# Bulk Modulus (GPa) = 15.88608 22.80498 19.34553
# Shear Modulus (GPa) = 17.61485 30.26485 23.93985
#
# Velocity S-wave (km/s) = 2.80638 3.67854 3.27165
# Velocity P-wave (km/s) = 4.19569 5.31399 4.78760
#
# Compressibility (1/GPa) = 0.06294821
#
# Stress axis : x y z
#
# Youngs Moduli (GPa) = 46.65356 47.68164 116.75929
#
# Poissons Ratio (x) = -0.31324 0.19375
# Poissons Ratio (y) = -0.30648 -0.12591
# Poissons Ratio (z) = 0.07742 -0.05142
#
# Static dielectric constant tensor:
#      x y z
#    x 1.776510 0.000000 -0.003480 
#    y 0.000000 1.853130 0.000000 
#    z -0.003480 0.000000 1.815340 
# 
# From -- ./inp_files/108767.got.cif
#   From: 2010.05.17/outbox.cif.g08.bks.cpg/sg12_55_cif.got.tgz:108767.got - 2010.06.03 13:09:07.
