data_PCOD9186523
_publ_section_title
;
Structure prediction by ZEFSAII (Michael W. Deem and Ramdas Pophale) SiO2 
 PCOD9186523
Probable space group: C 2/M
;
_chemical_formula_sum "Si O2"
_cell_formula_units_Z 56
_cell_length_a 12.667857
_cell_length_b 21.095061
_cell_length_c 11.811401
_cell_angle_alpha 90.000000
_cell_angle_beta 123.018810
_cell_angle_gamma 90.000000
_cell_volume 2646.574539
_symmetry_space_group_name_H-M "C 2/M"
_symmetry_group_IT_number 12
_symmetry_cell_setting 'monoclinic'
loop_
_space_group_symop_operation_xyz
x,y,z
-x,y,-z
-x,-y,-z
x,-y,z
1/2+x,1/2+y,z
1/2-x,1/2+y,-z
1/2-x,1/2-y,-z
1/2+x,1/2-y,z
loop_
_atom_site_type_symbol
_atom_site_label
_atom_site_fract_x
_atom_site_fract_y
_atom_site_fract_z
Si Si1 0.736562 0.071626 0.809930
Si Si2 0.933325 0.427663 0.644674
Si Si3 0.772122 0.660157 0.398353
Si Si4 0.457082 0.237079 0.165521
Si Si5 0.114198 0.635958 0.145635
Si Si6 0.911606 0.217258 0.539896
Si Si7 0.217779 0.849559 0.962055
O O1 0.584603 0.074379 0.733371
O O2 0.772373 0.126172 0.741227
O O3 0.792076 0.089700 0.964500
O O4 0.769871 0.000000 0.794376
O O5 0.894223 0.500000 0.603783
O O6 0.878671 0.384465 0.513839
O O7 0.883698 0.402036 0.736362
O O8 0.824698 0.731901 0.422788
O O9 0.665681 0.667985 0.431312
O O10 0.567066 0.206560 0.153752
O O11 0.509572 0.241789 0.322817
O O12 0.336669 0.191040 0.081508
O O13 0.404631 0.305791 0.103570
O O14 0.237781 0.637328 0.140614
O O15 0.000000 0.610149 0.000000
O O16 0.000000 0.185855 0.500000
#
# Coordination Sequence:
#
# PCOD9186523 Si02
#       7
#     8   8   8   8   8   8   8
#     4  11  22  39  61  89 121 156 203 247 296 361
#     4  11  21  36  58  85 118 154 194 244 299 359
#     4  11  23  38  59  89 120 156 194 246 304 352
#     4  10  20  36  55  89 121 153 187 244 297 361
#     4  10  19  35  53  86 120 150 193 238 292 354
#     4  11  23  37  62  87 124 152 198 247 298 361
#     4  10  21  35  60  84 122 156 194 237 300 351
#
# _framework density 21.159426
#
# number of rings (size 3 to 8) (size 9 to 14) (size 15 to 20)
#    0.000    1.429    4.286    2.571    2.000    6.571 
#    0.000    0.000    0.000    4.286    0.000    0.000 
#    0.000    0.000    0.000    0.000    0.000    0.000 
#
# Total GULP energy -156468.980023 kJ/mol
# GULP energy per Si atom -5588.177858 kJ/mol
# Density = 2.111127 g / cm^3
# Si number density = 21.159426 Si / 1000 Ang^3
#
#
#
# Elastic Constant Matrix: (Units=GPa)
#
#
# Indices 1 2 3 4 5 6 
#
# 1 70.5108 41.5951 25.0513 0.0000 -29.0811 0.0000
# 2 41.5951 72.0044 14.4864 0.0000 -16.2757 0.0000
# 3 25.0513 14.4864 51.9215 0.0000 -20.6339 0.0000
# 4 0.0000 0.0000 0.0000 22.6689 0.0000 0.4587
# 5 -29.0811 -16.2757 -20.6339 0.0000 32.7314 0.0000
# 6 0.0000 0.0000 0.0000 0.4587 0.0000 7.2213
#
#
#
# Elastic Compliance Matrix: (Units=1/GPa)
#
#
# Indices 1 2 3 4 5 6 
#
# 1 0.030746 -0.012794 -0.003919 0.000000 0.018484 0.000000
# 2 -0.012794 0.021084 -0.000081 0.000000 -0.000934 0.000000
# 3 -0.003919 -0.000081 0.026383 0.000000 0.013110 0.000000
# 4 0.000000 0.000000 0.000000 0.044170 0.000000 -0.002806
# 5 0.018484 -0.000934 0.013110 0.000000 0.054774 0.000000
# 6 0.000000 0.000000 0.000000 -0.002806 0.000000 0.138658
#
#
# Mechanical properties :
#
#
# Convention : Reuss Voigt Hill
#
# Bulk Modulus (GPa) = 22.40907 39.63359 31.02133
# Shear Modulus (GPa) = 13.72577 20.07791 16.90184
#
# Velocity S-wave (km/s) = 2.54969 3.08374 2.82935
# Velocity P-wave (km/s) = 4.39107 5.60811 5.03649
#
# Compressibility (1/GPa) = 0.04462479
#
# Stress axis : x y z
#
# Youngs Moduli (GPa) = 32.52494 47.42922 37.90307
#
# Poissons Ratio (x) = 0.60683 0.14853
# Poissons Ratio (y) = 0.41614 0.00306
# Poissons Ratio (z) = 0.12746 0.00383
#
# Static dielectric constant tensor:
#      x y z
#    x 1.798110 0.000000 0.009110 
#    y 0.000000 1.755870 0.000000 
#    z 0.009110 0.000000 1.786640 
# 
# From -- ./inp_files/133283.got.cif
#   From: 2010.05.17/outbox.cif.g08.bks.cpg/sg12_67_cif.got.tgz:133283.got - 2010.06.03 13:09:07.
