data_PCOD9186440
_publ_section_title
;
Structure prediction by ZEFSAII (Michael W. Deem and Ramdas Pophale) SiO2 
 PCOD9186440
Probable space group: C 2/M
;
_chemical_formula_sum "Si O2"
_cell_formula_units_Z 56
_cell_length_a 20.789943
_cell_length_b 16.001868
_cell_length_c 17.448480
_cell_angle_alpha 90.000000
_cell_angle_beta 150.269023
_cell_angle_gamma 90.000000
_cell_volume 2878.726502
_symmetry_space_group_name_H-M "C 2/M"
_symmetry_group_IT_number 12
_symmetry_cell_setting 'monoclinic'
loop_
_space_group_symop_operation_xyz
x,y,z
-x,y,-z
-x,-y,-z
x,-y,z
1/2+x,1/2+y,z
1/2-x,1/2+y,-z
1/2-x,1/2-y,-z
1/2+x,1/2-y,z
loop_
_atom_site_type_symbol
_atom_site_label
_atom_site_fract_x
_atom_site_fract_y
_atom_site_fract_z
Si Si1 0.549186 0.241739 0.876492
Si Si2 0.355903 0.909097 0.121000
Si Si3 0.529033 0.315662 0.446338
Si Si4 0.440382 0.408294 0.211386
Si Si5 0.722418 0.737095 0.378895
Si Si6 0.644985 0.400189 0.187182
Si Si7 0.296864 0.183191 0.209048
O O1 0.569921 0.169378 0.836235
O O2 0.531301 0.330376 0.814594
O O3 0.416701 0.220083 0.781927
O O4 0.678060 0.257540 0.058596
O O5 0.323071 0.889286 0.174641
O O6 0.417132 0.000000 0.174413
O O7 0.214225 0.908743 0.936144
O O8 0.500000 0.352542 0.500000
O O9 0.502674 0.385742 0.356057
O O10 0.664230 0.275351 0.556726
O O11 0.423821 0.240279 0.338808
O O12 0.477110 0.500000 0.219050
O O13 0.750000 0.750000 0.500000
O O14 0.688372 0.644082 0.311714
O O15 0.651297 0.500000 0.199438
O O16 0.748375 0.361940 0.234710
O O17 0.500000 0.380793 0.000000
#
# Coordination Sequence:
#
# PCOD9186440 Si02
#       7
#     8   8   8   8   8   8   8
#     4  11  20  38  65  90 126 167 215 263 324 390
#     4  10  19  34  63  96 120 156 211 268 318 379
#     4  12  23  39  63  86 123 166 212 257 322 384
#     4  10  20  36  61  90 119 159 215 266 311 375
#     4  12  24  41  61  94 132 173 210 259 336 396
#     4  11  24  41  66 101 131 168 224 277 325 394
#     4  11  19  39  63  92 121 169 213 259 322 390
#
# _framework density 19.453047000000002
#
# number of rings (size 3 to 8) (size 9 to 14) (size 15 to 20)
#    0.000    1.000    7.143    1.286    0.000    1.429 
#    0.000    5.000    0.000    0.000    0.000    3.000 
#    0.000    0.000    0.000    0.000    0.000    0.000 
#
# Total GULP energy -155941.703762 kJ/mol
# GULP energy per Si atom -5569.346563 kJ/mol
# Density = 1.940877 g / cm^3
# Si number density = 19.453047 Si / 1000 Ang^3
#
#
#
# Elastic Constant Matrix: (Units=GPa)
#
#
# Indices 1 2 3 4 5 6 
#
# 1 99.9978 35.3294 33.2655 0.0000 24.3171 0.0000
# 2 35.3294 111.7279 22.6728 0.0000 6.4292 0.0000
# 3 33.2655 22.6728 51.0642 0.0000 11.7460 0.0000
# 4 0.0000 0.0000 0.0000 8.6058 0.0000 0.5175
# 5 24.3171 6.4292 11.7460 0.0000 33.3853 0.0000
# 6 0.0000 0.0000 0.0000 0.5175 0.0000 3.7129
#
#
#
# Elastic Compliance Matrix: (Units=1/GPa)
#
#
# Indices 1 2 3 4 5 6 
#
# 1 0.015296 -0.002996 -0.006751 0.000000 -0.008189 0.000000
# 2 -0.002996 0.010428 -0.002958 0.000000 0.001214 0.000000
# 3 -0.006751 -0.002958 0.026148 0.000000 -0.003713 0.000000
# 4 0.000000 0.000000 0.000000 0.117183 0.000000 -0.016334
# 5 -0.008189 0.001214 -0.003713 0.000000 0.036991 0.000000
# 6 0.000000 0.000000 0.000000 -0.016334 0.000000 0.271607
#
#
# Mechanical properties :
#
#
# Convention : Reuss Voigt Hill
#
# Bulk Modulus (GPa) = 37.78757 49.48058 43.63407
# Shear Modulus (GPa) = 9.76787 20.57561 15.17174
#
# Velocity S-wave (km/s) = 2.24325 3.25577 2.79573
# Velocity P-wave (km/s) = 5.11632 6.29480 5.73590
#
# Compressibility (1/GPa) = 0.02646373
#
# Stress axis : x y z
#
# Youngs Moduli (GPa) = 65.37840 95.89658 38.24343
#
# Poissons Ratio (x) = 0.28726 0.25816
# Poissons Ratio (y) = 0.19584 0.11312
# Poissons Ratio (z) = 0.44134 0.28366
#
# Static dielectric constant tensor:
#      x y z
#    x 1.738400 0.000000 -0.031910 
#    y 0.000000 1.682420 0.000000 
#    z -0.031910 0.000000 1.758390 
# 
# From -- ./inp_files/284602.got.cif
#   From: 2010.05.17/outbox.cif.g08.bks.cpg/sg12_143_cif.got.tgz:284602.got - 2010.06.03 13:09:07.
