data_PCOD9186980
_publ_section_title
;
Structure prediction by ZEFSAII (Michael W. Deem and Ramdas Pophale) SiO2 
 PCOD9186980
Probable space group: C 2/M
;
_chemical_formula_sum "Si O2"
_cell_formula_units_Z 40
_cell_length_a 19.681111
_cell_length_b 14.376072
_cell_length_c 20.094510
_cell_angle_alpha 90.000000
_cell_angle_beta 20.886491
_cell_angle_gamma 90.000000
_cell_volume 2026.975027
_symmetry_space_group_name_H-M "C 2/M"
_symmetry_group_IT_number 12
_symmetry_cell_setting 'monoclinic'
loop_
_space_group_symop_operation_xyz
x,y,z
-x,y,-z
-x,-y,-z
x,-y,z
1/2+x,1/2+y,z
1/2-x,1/2+y,-z
1/2-x,1/2-y,-z
1/2+x,1/2-y,z
loop_
_atom_site_type_symbol
_atom_site_label
_atom_site_fract_x
_atom_site_fract_y
_atom_site_fract_z
Si Si1 0.870154 0.296723 0.807376
Si Si2 0.544067 0.697825 0.881682
Si Si3 0.765633 0.896885 0.941922
Si Si4 0.410396 0.107546 0.510502
Si Si5 0.064551 0.598804 0.864277
O O1 0.903287 0.190695 0.801506
O O2 0.009611 0.331317 0.622695
O O3 0.656494 0.300209 0.972422
O O4 0.860384 0.364651 0.879640
O O5 0.685222 0.620997 0.724639
O O6 0.648471 0.798462 0.776743
O O7 0.500000 0.683949 0.000000
O O8 0.848947 0.000000 0.876232
O O9 0.622703 0.902845 0.010315
O O10 0.500000 0.135273 0.500000
O O11 0.461822 0.000000 0.451762
O O12 0.169456 0.500000 0.755847
O O13 0.000000 0.598874 0.000000
#
# Coordination Sequence:
#
# PCOD9186980 Si02
#       5
#     8   8   8   8   8
#     4  10  20  37  58  82 116 150 183 229 278 326
#     4  10  19  35  57  81 111 146 186 230 274 327
#     4   9  18  34  58  84 113 150 186 225 277 331
#     4  11  23  36  54  82 114 148 188 231 276 328
#     4   8  15  30  55  82 106 139 182 225 273 327
#
# _framework density 19.733840000000001
#
# number of rings (size 3 to 8) (size 9 to 14) (size 15 to 20)
#    0.000    2.400    2.000    0.600    0.000    2.000 
#    0.000   10.000    0.000    6.000    0.000    0.000 
#    0.000    0.000    0.000    0.000    0.000    0.000 
#
# Total GULP energy -111397.494224 kJ/mol
# GULP energy per Si atom -5569.874711 kJ/mol
# Density = 1.968892 g / cm^3
# Si number density = 19.733840 Si / 1000 Ang^3
#
#
#
# Elastic Constant Matrix: (Units=GPa)
#
#
# Indices 1 2 3 4 5 6 
#
# 1 65.6087 16.6184 8.1603 -0.0046 16.6425 0.0021
# 2 16.6184 98.2320 25.2170 -0.0038 21.5760 0.0003
# 3 8.1603 25.2170 59.9255 0.0010 17.4405 0.0029
# 4 -0.0046 -0.0038 0.0010 13.9708 -0.0046 5.8189
# 5 16.6425 21.5760 17.4405 -0.0046 25.9567 0.0032
# 6 0.0021 0.0003 0.0029 5.8189 0.0032 31.9149
#
#
#
# Elastic Compliance Matrix: (Units=1/GPa)
#
#
# Indices 1 2 3 4 5 6 
#
# 1 0.018317 -0.000813 0.001329 0.000002 -0.011961 0.000000
# 2 -0.000813 0.012871 -0.002913 0.000000 -0.008220 0.000001
# 3 0.001329 -0.002913 0.021475 -0.000006 -0.012860 0.000000
# 4 0.000002 0.000000 -0.000006 0.077460 0.000018 -0.014123
# 5 -0.011961 -0.008220 -0.012860 0.000018 0.061668 -0.000007
# 6 0.000000 0.000001 0.000000 -0.014123 -0.000007 0.033908
#
#
# Mechanical properties :
#
#
# Convention : Reuss Voigt Hill
#
# Bulk Modulus (GPa) = 20.89046 35.97307 28.43176
# Shear Modulus (GPa) = 20.28820 25.95319 23.12069
#
# Velocity S-wave (km/s) = 3.20987 3.63045 3.42662
# Velocity P-wave (km/s) = 4.93424 5.98684 5.48585
#
# Compressibility (1/GPa) = 0.04786874
#
# Stress axis : x y z
#
# Youngs Moduli (GPa) = 54.59541 77.69533 46.56587
#
# Poissons Ratio (x) = 0.06314 -0.06188
# Poissons Ratio (y) = 0.04437 0.13565
# Poissons Ratio (z) = -0.07255 0.22633
#
# Static dielectric constant tensor:
#      x y z
#    x 1.712400 -0.000010 -0.018500 
#    y -0.000010 1.799450 0.000010 
#    z -0.018500 0.000010 1.644360 
# 
# From -- ./inp_files/84555.got.cif
#   From: 2010.05.17/outbox.cif.g08.bks.cpg/sg12_43_cif.got.tgz:84555.got - 2010.06.03 13:09:07.
