data_PCOD9186517
_publ_section_title
;
Structure prediction by ZEFSAII (Michael W. Deem and Ramdas Pophale) SiO2 
 PCOD9186517
Probable space group: C 2/M
;
_chemical_formula_sum "Si O2"
_cell_formula_units_Z 36
_cell_length_a 17.428461
_cell_length_b 13.911599
_cell_length_c 13.756991
_cell_angle_alpha 90.000000
_cell_angle_beta 34.332281
_cell_angle_gamma 90.000000
_cell_volume 1881.187212
_symmetry_space_group_name_H-M "C 2/M"
_symmetry_group_IT_number 12
_symmetry_cell_setting 'monoclinic'
loop_
_space_group_symop_operation_xyz
x,y,z
-x,y,-z
-x,-y,-z
x,-y,z
1/2+x,1/2+y,z
1/2-x,1/2+y,-z
1/2-x,1/2-y,-z
1/2+x,1/2-y,z
loop_
_atom_site_type_symbol
_atom_site_label
_atom_site_fract_x
_atom_site_fract_y
_atom_site_fract_z
Si Si1 0.795316 0.311497 0.659765
Si Si2 0.157400 0.103463 0.363177
Si Si3 0.500000 0.269597 0.000000
Si Si4 0.602640 0.890744 0.036128
Si Si5 0.560734 0.111026 0.303933
O O1 0.807168 0.199768 0.616844
O O2 0.635306 0.330637 0.836377
O O3 0.861067 0.324730 0.698677
O O4 0.898974 0.370753 0.484760
O O5 0.000000 0.107048 0.500000
O O6 0.185361 0.000000 0.381985
O O7 0.250624 0.107137 0.169318
O O8 0.473882 0.195243 0.938565
O O9 0.606834 0.871803 0.146057
O O10 0.544971 0.000000 0.082410
O O11 0.589103 0.000000 0.299190
#
# Coordination Sequence:
#
# PCOD9186517 Si02
#       5
#     8   8   4   8   8
#     4  10  19  35  53  82 106 141 175 217 266 311
#     4   9  16  29  49  76 105 133 167 214 262 303
#     4  10  21  32  53  80 110 136 168 222 278 312
#     4   9  19  34  55  78 105 142 179 214 260 319
#     4  10  20  37  58  76 101 144 189 216 249 312
#
# _framework density 19.136852000000001
#
# number of rings (size 3 to 8) (size 9 to 14) (size 15 to 20)
#    0.000    2.444    2.222    1.667    0.000    5.333 
#    0.000    2.222    0.000    0.000    0.000    1.556 
#    0.000    0.000    0.000    0.000    0.000    0.000 
#
# Total GULP energy -100243.066280 kJ/mol
# GULP energy per Si atom -5569.059238 kJ/mol
# Density = 1.909330 g / cm^3
# Si number density = 19.136852 Si / 1000 Ang^3
#
#
#
# Elastic Constant Matrix: (Units=GPa)
#
#
# Indices 1 2 3 4 5 6 
#
# 1 31.7678 4.5718 27.8190 0.0000 -10.9994 0.0000
# 2 4.5718 57.1428 1.7954 0.0000 -1.0293 0.0000
# 3 27.8190 1.7954 60.0149 0.0000 -27.9827 0.0000
# 4 0.0000 0.0000 0.0000 15.1371 0.0000 5.7936
# 5 -10.9994 -1.0293 -27.9827 0.0000 38.5417 0.0000
# 6 0.0000 0.0000 0.0000 5.7936 0.0000 5.9001
#
#
#
# Elastic Compliance Matrix: (Units=1/GPa)
#
#
# Indices 1 2 3 4 5 6 
#
# 1 0.054132 -0.003560 -0.026950 0.000000 -0.004213 0.000000
# 2 -0.003560 0.017751 0.001310 0.000000 0.000409 0.000000
# 3 -0.026950 0.001310 0.038619 0.000000 0.020383 0.000000
# 4 0.000000 0.000000 0.000000 0.105841 0.000000 -0.103931
# 5 -0.004213 0.000409 0.020383 0.000000 0.039553 0.000000
# 6 0.000000 0.000000 0.000000 -0.103931 0.000000 0.271544
#
#
# Mechanical properties :
#
#
# Convention : Reuss Voigt Hill
#
# Bulk Modulus (GPa) = 19.19304 24.14420 21.66862
# Shear Modulus (GPa) = 8.28901 19.56507 13.92704
#
# Velocity S-wave (km/s) = 2.08347 3.20093 2.70063
# Velocity P-wave (km/s) = 3.97981 5.12887 4.59044
#
# Compressibility (1/GPa) = 0.05210222
#
# Stress axis : x y z
#
# Youngs Moduli (GPa) = 18.47339 56.33465 25.89387
#
# Poissons Ratio (x) = 0.20056 0.69784
# Poissons Ratio (y) = 0.06577 -0.03392
# Poissons Ratio (z) = 0.49785 -0.07379
#
# Static dielectric constant tensor:
#      x y z
#    x 1.656850 0.000000 -0.019310 
#    y 0.000000 1.717970 0.000000 
#    z -0.019310 0.000000 1.674700 
# 
# From -- ./inp_files/233032.got.cif
#   From: 2010.05.17/outbox.cif.g08.bks.cpg/sg12_117_cif.got.tgz:233032.got - 2010.06.03 13:09:07.
