data_PCOD9186658
_publ_section_title
;
Structure prediction by ZEFSAII (Michael W. Deem and Ramdas Pophale) SiO2 
 PCOD9186658
Probable space group: C 2/M
;
_chemical_formula_sum "Si O2"
_cell_formula_units_Z 56
_cell_length_a 30.942706
_cell_length_b 9.035925
_cell_length_c 12.115828
_cell_angle_alpha 90.000000
_cell_angle_beta 63.189098
_cell_angle_gamma 90.000000
_cell_volume 3023.376534
_symmetry_space_group_name_H-M "C 2/M"
_symmetry_group_IT_number 12
_symmetry_cell_setting 'monoclinic'
loop_
_space_group_symop_operation_xyz
x,y,z
-x,y,-z
-x,-y,-z
x,-y,z
1/2+x,1/2+y,z
1/2-x,1/2+y,-z
1/2-x,1/2-y,-z
1/2+x,1/2-y,z
loop_
_atom_site_type_symbol
_atom_site_label
_atom_site_fract_x
_atom_site_fract_y
_atom_site_fract_z
Si Si1 0.087503 0.177516 0.715656
Si Si2 0.860897 0.823095 0.569225
Si Si3 0.792411 0.674143 0.807424
Si Si4 0.950757 0.825814 0.626637
Si Si5 0.016605 0.324582 0.193378
Si Si6 0.319121 0.674704 0.002732
Si Si7 0.398052 0.176404 0.067944
O O1 0.122085 0.217152 0.573129
O O2 0.104564 0.247223 0.810539
O O3 0.033829 0.238335 0.752918
O O4 0.085762 0.000000 0.724906
O O5 0.814846 0.738560 0.670071
O O6 0.905714 0.789875 0.599972
O O7 0.852871 0.000000 0.582169
O O8 0.802528 0.500000 0.805735
O O9 0.734721 0.694896 0.884866
O O10 0.816443 0.759747 0.882696
O O11 0.954364 0.729085 0.732129
O O12 0.000000 0.805582 0.500000
O O13 0.947729 0.000000 0.660268
O O14 0.007493 0.500000 0.209512
O O15 0.049792 0.294679 0.048597
O O16 0.329880 0.500000 0.985616
O O17 0.357909 0.758115 0.032429
O O18 0.392533 0.000000 0.084300
#
# Coordination Sequence:
#
# PCOD9186658 Si02
#       7
#     8   8   8   8   8   8   8
#     4  11  23  40  59  81 112 154 198 236 278 338
#     4  10  21  37  58  84 115 152 192 233 283 341
#     4  10  21  37  61  91 119 146 183 233 287 340
#     4  10  19  35  55  79 113 148 187 232 276 331
#     4  11  23  37  55  83 116 150 190 237 288 338
#     4  10  21  39  62  88 116 149 188 231 282 340
#     4  11  24  40  58  84 115 149 192 241 287 334
#
# _framework density 18.522335999999999
#
# number of rings (size 3 to 8) (size 9 to 14) (size 15 to 20)
#    0.000    1.571    1.429    3.429    0.000   10.000 
#    0.000    0.714    0.000    0.000    0.000    0.000 
#    0.000    0.000    0.000    0.000    0.000    0.000 
#
# Total GULP energy -156540.002137 kJ/mol
# GULP energy per Si atom -5590.714362 kJ/mol
# Density = 1.848018 g / cm^3
# Si number density = 18.522336 Si / 1000 Ang^3
#
#
#
# Elastic Constant Matrix: (Units=GPa)
#
#
# Indices 1 2 3 4 5 6 
#
# 1 31.0217 28.5664 40.0531 0.0000 7.0310 0.0000
# 2 28.5664 68.9642 75.6733 0.0000 -3.0603 0.0000
# 3 40.0531 75.6733 151.4453 0.0000 1.5118 0.0000
# 4 0.0000 0.0000 0.0000 33.7102 0.0000 0.3435
# 5 7.0310 -3.0603 1.5118 0.0000 20.7521 0.0000
# 6 0.0000 0.0000 0.0000 0.3435 0.0000 20.7743
#
#
#
# Elastic Compliance Matrix: (Units=1/GPa)
#
#
# Indices 1 2 3 4 5 6 
#
# 1 0.065913 -0.021155 -0.006612 0.000000 -0.024970 0.000000
# 2 -0.021155 0.039631 -0.014348 0.000000 0.014057 0.000000
# 3 -0.006612 -0.014348 0.015531 0.000000 -0.001007 0.000000
# 4 0.000000 0.000000 0.000000 0.029670 0.000000 -0.000491
# 5 -0.024970 0.014057 -0.001007 0.000000 0.058794 0.000000
# 6 0.000000 0.000000 0.000000 -0.000491 0.000000 0.048145
#
#
# Mechanical properties :
#
#
# Convention : Reuss Voigt Hill
#
# Bulk Modulus (GPa) = 27.14116 60.00186 43.57151
# Shear Modulus (GPa) = 14.11654 22.18988 18.15321
#
# Velocity S-wave (km/s) = 2.76368 3.46498 3.13401
# Velocity P-wave (km/s) = 4.98687 6.96224 6.05564
#
# Compressibility (1/GPa) = 0.03684441
#
# Stress axis : x y z
#
# Youngs Moduli (GPa) = 15.17154 25.23308 64.38714
#
# Poissons Ratio (x) = 0.53381 0.42574
# Poissons Ratio (y) = 0.32095 0.92381
# Poissons Ratio (z) = 0.10032 0.36204
#
# Static dielectric constant tensor:
#      x y z
#    x 1.617220 0.000000 -0.012320 
#    y 0.000000 1.613190 0.000000 
#    z -0.012320 0.000000 1.636180 
# 
# From -- ./inp_files/187166.got.cif
#   From: 2010.05.17/outbox.cif.g08.bks.cpg/sg12_94_cif.got.tgz:187166.got - 2010.06.03 13:09:07.
