data_PCOD9186183
_publ_section_title
;
Structure prediction by ZEFSAII (Michael W. Deem and Ramdas Pophale) SiO2 
 PCOD9186183
Probable space group: C 2/M
;
_chemical_formula_sum "Si O2"
_cell_formula_units_Z 64
_cell_length_a 32.356421
_cell_length_b 8.474598
_cell_length_c 24.952388
_cell_angle_alpha 90.000000
_cell_angle_beta 27.736722
_cell_angle_gamma 90.000000
_cell_volume 3184.394497
_symmetry_space_group_name_H-M "C 2/M"
_symmetry_group_IT_number 12
_symmetry_cell_setting 'monoclinic'
loop_
_space_group_symop_operation_xyz
x,y,z
-x,y,-z
-x,-y,-z
x,-y,z
1/2+x,1/2+y,z
1/2-x,1/2+y,-z
1/2-x,1/2-y,-z
1/2+x,1/2-y,z
loop_
_atom_site_type_symbol
_atom_site_label
_atom_site_fract_x
_atom_site_fract_y
_atom_site_fract_z
Si Si1 0.747518 0.691217 0.735298
Si Si2 0.443243 0.187449 0.014056
Si Si3 0.657964 0.315395 0.081220
Si Si4 0.593817 0.807658 0.368605
Si Si5 0.645031 0.184324 0.490159
Si Si6 0.846723 0.184357 0.403018
Si Si7 0.942476 0.315029 0.705714
Si Si8 0.027410 0.808848 0.139252
O O1 0.738587 0.500000 0.747658
O O2 0.657479 0.771526 0.855867
O O3 0.825318 0.738208 0.686786
O O4 0.780628 0.732309 0.637671
O O5 0.456439 0.000000 0.994681
O O6 0.500000 0.246577 0.000000
O O7 0.465718 0.260787 0.930503
O O8 0.672727 0.500000 0.055930
O O9 0.586072 0.283204 0.210253
O O10 0.610867 0.252984 0.080613
O O11 0.750000 0.250000 0.000000
O O12 0.500000 0.752210 0.500000
O O13 0.604545 0.759900 0.294593
O O14 0.590327 0.000000 0.372070
O O15 0.641457 0.284183 0.547730
O O16 0.547925 0.192584 0.574725
O O17 0.659637 0.000000 0.487769
O O18 0.750000 0.250000 0.500000
O O19 0.933705 0.249336 0.272157
O O20 0.844691 0.000000 0.393561
O O21 0.920904 0.500000 0.740663
O O22 0.028050 0.000000 0.141767
#
# Coordination Sequence:
#
# PCOD9186183 Si02
#       8
#     8   8   8   8   8   8   8   8
#     4  10  21  38  63  92 124 164 210 253 297 364
#     4  11  27  47  65  89 122 162 209 265 323 370
#     4  11  24  42  62  89 124 164 209 255 310 370
#     4   9  16  31  56  88 122 157 196 239 285 346
#     4  10  20  36  61  94 126 162 206 251 307 368
#     4  11  24  42  65  94 124 157 199 254 315 374
#     4  10  19  34  59  89 124 161 202 250 302 361
#     4  10  24  46  68  91 123 165 212 257 307 376
#
# _framework density 20.098011
#
# number of rings (size 3 to 8) (size 9 to 14) (size 15 to 20)
#    0.000    1.750    2.500    1.125    3.500    3.500 
#    0.000    0.000    0.000    0.750    0.000    0.000 
#    0.000    0.000    0.000    0.000    0.000    0.000 
#
# Total GULP energy -178641.924600 kJ/mol
# GULP energy per Si atom -5582.560144 kJ/mol
# Density = 2.005227 g / cm^3
# Si number density = 20.098011 Si / 1000 Ang^3
#
#
#
# Elastic Constant Matrix: (Units=GPa)
#
#
# Indices 1 2 3 4 5 6 
#
# 1 141.0525 16.2678 67.3001 0.0041 -2.5603 -0.0026
# 2 16.2678 10.7573 13.2300 -0.0027 -7.6387 -0.0031
# 3 67.3001 13.2300 96.7193 0.0029 -3.7628 -0.0003
# 4 0.0041 -0.0027 0.0029 27.1482 0.0020 1.8280
# 5 -2.5603 -7.6387 -3.7628 0.0020 33.8084 0.0017
# 6 -0.0026 -0.0031 -0.0003 1.8280 0.0017 23.2898
#
#
#
# Elastic Compliance Matrix: (Units=1/GPa)
#
#
# Indices 1 2 3 4 5 6 
#
# 1 0.011429 -0.010867 -0.006556 -0.000002 -0.002320 0.000000
# 2 -0.010867 0.144744 -0.011045 0.000014 0.030651 0.000014
# 3 -0.006556 -0.011045 0.016367 -0.000002 -0.001170 -0.000002
# 4 -0.000002 0.000014 -0.000002 0.037031 0.000001 -0.002906
# 5 -0.002320 0.030651 -0.001170 0.000001 0.036198 0.000001
# 6 0.000000 0.000014 -0.000002 -0.002906 0.000001 0.043165
#
#
# Mechanical properties :
#
#
# Convention : Reuss Voigt Hill
#
# Bulk Modulus (GPa) = 8.65033 49.12499 28.88766
# Shear Modulus (GPa) = 13.00710 26.96468 19.98589
#
# Velocity S-wave (km/s) = 2.54674 3.66684 3.15687
# Velocity P-wave (km/s) = 3.60018 6.51332 5.26235
#
# Compressibility (1/GPa) = 0.11560249
#
# Stress axis : x y z
#
# Youngs Moduli (GPa) = 87.49635 6.90873 61.10004
#
# Poissons Ratio (x) = 0.07508 0.40059
# Poissons Ratio (y) = 0.95086 0.67485
# Poissons Ratio (z) = 0.57366 0.07631
#
# Static dielectric constant tensor:
#      x y z
#    x 1.734510 0.000000 -0.023100 
#    y 0.000000 1.708450 0.000010 
#    z -0.023100 0.000010 1.700100 
# 
# From -- ./inp_files/353417.got.cif
#   From: 2010.05.17/outbox.cif.g08.bks.cpg/sg12_177_cif.got.tgz:353417.got - 2010.06.03 13:09:07.
