data_PCOD9186417
_publ_section_title
;
Structure prediction by ZEFSAII (Michael W. Deem and Ramdas Pophale) SiO2 
 PCOD9186417
Probable space group: C 2/M
;
_chemical_formula_sum "Si O2"
_cell_formula_units_Z 58
_cell_length_a 30.544336
_cell_length_b 20.521471
_cell_length_c 17.085742
_cell_angle_alpha 90.000000
_cell_angle_beta 164.006155
_cell_angle_gamma 90.000000
_cell_volume 2950.858338
_symmetry_space_group_name_H-M "C 2/M"
_symmetry_group_IT_number 12
_symmetry_cell_setting 'monoclinic'
loop_
_space_group_symop_operation_xyz
x,y,z
-x,y,-z
-x,-y,-z
x,-y,z
1/2+x,1/2+y,z
1/2-x,1/2+y,-z
1/2-x,1/2-y,-z
1/2+x,1/2-y,z
loop_
_atom_site_type_symbol
_atom_site_label
_atom_site_fract_x
_atom_site_fract_y
_atom_site_fract_z
Si Si1 0.842430 0.420797 0.184820
Si Si2 0.509308 0.889367 0.148317
Si Si3 0.087005 0.829609 0.333237
Si Si4 0.302084 0.076779 0.939169
Si Si5 0.500000 0.000000 0.000000
Si Si6 0.900779 0.747981 0.903557
Si Si7 0.508437 0.576743 0.689150
Si Si8 0.335418 0.573353 0.671281
O O1 0.847490 0.500000 0.189926
O O2 0.000000 0.398241 0.500000
O O3 0.833645 0.397357 0.080175
O O4 0.682699 0.405717 0.957776
O O5 0.693246 0.904189 0.482578
O O6 0.404030 0.892480 0.044793
O O7 0.489385 0.819090 0.076562
O O8 0.463438 0.942788 0.004397
O O9 0.220421 0.774178 0.578019
O O10 0.155789 0.878233 0.385795
O O11 0.047342 0.874176 0.339244
O O12 0.931865 0.796525 0.028596
O O13 0.118112 0.081925 0.598681
O O14 0.343011 0.000000 0.008694
O O15 0.000000 0.775441 0.000000
O O16 0.507163 0.500000 0.712702
O O17 0.292127 0.500000 0.567511
O O18 0.500000 0.570359 0.000000
#
# Coordination Sequence:
#
# PCOD9186417 Si02
#       8
#     8   8   8   8   2   8   8   8
#     4   9  19  37  60  94 135 163 192 252 330 397
#     4  12  22  36  63  93 126 168 213 262 315 371
#     4  12  25  42  62  89 125 168 220 263 312 380
#     4  10  19  34  62  94 126 158 205 259 319 377
#     4  12  20  36  62  92 136 156 216 274 306 370
#     4  12  25  42  62  87 125 176 220 261 311 373
#     4  10  21  38  65  98 123 159 206 263 320 376
#     4  11  24  39  58  89 130 168 208 267 322 371
#
# _framework density 19.655297000000001
#
# number of rings (size 3 to 8) (size 9 to 14) (size 15 to 20)
#    0.000    1.103    4.828    1.655    1.931    2.759 
#    0.000    2.759    0.000    0.828    0.000    0.000 
#    0.000    0.000    0.000    0.000    0.000    0.000 
#
# Total GULP energy -161814.704150 kJ/mol
# GULP energy per Si atom -5579.817384 kJ/mol
# Density = 1.961056 g / cm^3
# Si number density = 19.655297 Si / 1000 Ang^3
#
#
#
# Elastic Constant Matrix: (Units=GPa)
#
#
# Indices 1 2 3 4 5 6 
#
# 1 115.1777 21.3814 57.3313 0.0000 -3.4743 0.0000
# 2 21.3814 54.1152 11.4789 0.0000 -14.0225 0.0000
# 3 57.3313 11.4789 108.3856 0.0000 5.9565 0.0000
# 4 0.0000 0.0000 0.0000 17.9019 0.0000 -3.8781
# 5 -3.4743 -14.0225 5.9565 0.0000 28.6331 0.0000
# 6 0.0000 0.0000 0.0000 -3.8781 0.0000 14.0060
#
#
#
# Elastic Compliance Matrix: (Units=1/GPa)
#
#
# Indices 1 2 3 4 5 6 
#
# 1 0.012471 -0.003269 -0.006318 0.000000 0.001226 0.000000
# 2 -0.003269 0.022926 -0.001309 0.000000 0.011103 0.000000
# 3 -0.006318 -0.001309 0.012932 0.000000 -0.004098 0.000000
# 4 0.000000 0.000000 0.000000 0.059424 0.000000 0.016454
# 5 0.001226 0.011103 -0.004098 0.000000 0.041363 0.000000
# 6 0.000000 0.000000 0.000000 0.016454 0.000000 0.075954
#
#
# Mechanical properties :
#
#
# Convention : Reuss Voigt Hill
#
# Bulk Modulus (GPa) = 37.68403 50.89575 44.28989
# Shear Modulus (GPa) = 19.55361 24.60733 22.08047
#
# Velocity S-wave (km/s) = 3.15751 3.54212 3.35533
# Velocity P-wave (km/s) = 5.70151 6.53293 6.13133
#
# Compressibility (1/GPa) = 0.02653644
#
# Stress axis : x y z
#
# Youngs Moduli (GPa) = 80.18681 43.61954 77.32816
#
# Poissons Ratio (x) = 0.14261 0.48853
# Poissons Ratio (y) = 0.26217 0.10120
# Poissons Ratio (z) = 0.50659 0.05709
#
# Static dielectric constant tensor:
#      x y z
#    x 1.666830 0.000000 -0.040270 
#    y 0.000000 1.684310 0.000000 
#    z -0.040270 0.000000 1.843730 
# 
# From -- ./inp_files/247316.got.cif
#   From: 2010.05.17/outbox.cif.g08.bks.cpg/sg12_124_cif.got.tgz:247316.got - 2010.06.03 13:09:07.
