data_PCOD9186012
_publ_section_title
;
Structure prediction by ZEFSAII (Michael W. Deem and Ramdas Pophale) SiO2 
 PCOD9186012
Probable space group: C 2/M
;
_chemical_formula_sum "Si O2"
_cell_formula_units_Z 48
_cell_length_a 16.600148
_cell_length_b 13.678804
_cell_length_c 12.441741
_cell_angle_alpha 90.000000
_cell_angle_beta 55.756470
_cell_angle_gamma 90.000000
_cell_volume 2335.418120
_symmetry_space_group_name_H-M "C 2/M"
_symmetry_group_IT_number 12
_symmetry_cell_setting 'monoclinic'
loop_
_space_group_symop_operation_xyz
x,y,z
-x,y,-z
-x,-y,-z
x,-y,z
1/2+x,1/2+y,z
1/2-x,1/2+y,-z
1/2-x,1/2-y,-z
1/2+x,1/2-y,z
loop_
_atom_site_type_symbol
_atom_site_label
_atom_site_fract_x
_atom_site_fract_y
_atom_site_fract_z
Si Si1 0.761385 0.881262 0.328342
Si Si2 0.145036 0.720037 0.041120
Si Si3 0.609124 0.881436 0.614352
Si Si4 0.487624 0.387784 0.137723
Si Si5 0.892399 0.389823 0.133507
Si Si6 0.902022 0.614765 0.716955
O O1 0.705899 0.851718 0.478831
O O2 0.875688 0.856954 0.242288
O O3 0.688006 0.847592 0.287531
O O4 0.762860 0.000000 0.319871
O O5 0.116898 0.631887 0.142355
O O6 0.066801 0.807464 0.114237
O O7 0.250000 0.750000 0.000000
O O8 0.155872 0.685630 0.910755
O O9 0.606942 0.859967 0.742690
O O10 0.512434 0.845035 0.623961
O O11 0.605125 0.000000 0.612015
O O12 0.503678 0.500000 0.165899
O O13 0.500000 0.391548 0.000000
O O14 0.851621 0.500000 0.157754
O O15 0.000000 0.393028 0.000000
O O16 0.907254 0.500000 0.688727
#
# Coordination Sequence:
#
# PCOD9186012 Si02
#       6
#     8   8   8   8   8   8
#     4   9  18  35  61  89 118 154 193 235 289 349
#     4  12  24  36  58  83 117 154 197 246 295 347
#     4   9  17  32  60  92 119 151 188 236 295 349
#     4  10  22  40  60  81 112 155 201 244 287 344
#     4  10  19  35  60  88 118 150 188 237 294 351
#     4  10  19  34  58  90 123 152 187 235 292 351
#
# _framework density 20.553066000000001
#
# number of rings (size 3 to 8) (size 9 to 14) (size 15 to 20)
#    0.000    2.000    1.667    2.500    0.000    4.667 
#    0.000    0.833    3.667    0.000    0.000    4.667 
#    0.000    1.333    0.000    0.000    0.000    0.000 
#
# Total GULP energy -133820.721069 kJ/mol
# GULP energy per Si atom -5575.863378 kJ/mol
# Density = 2.050629 g / cm^3
# Si number density = 20.553066 Si / 1000 Ang^3
#
#
#
# Elastic Constant Matrix: (Units=GPa)
#
#
# Indices 1 2 3 4 5 6 
#
# 1 170.9017 55.7926 78.1475 0.0000 -15.9409 0.0000
# 2 55.7926 78.6760 20.3624 0.0000 -3.4792 0.0000
# 3 78.1475 20.3624 129.8271 0.0000 -9.1333 0.0000
# 4 0.0000 0.0000 0.0000 -4.3417 0.0000 -7.0624
# 5 -15.9409 -3.4792 -9.1333 0.0000 39.2970 0.0000
# 6 0.0000 0.0000 0.0000 -7.0624 0.0000 23.5501
#
#
#
# Elastic Compliance Matrix: (Units=1/GPa)
#
#
# Indices 1 2 3 4 5 6 
#
# 1 0.010360 -0.005908 -0.005134 0.000000 0.002486 0.000000
# 2 -0.005908 0.016636 0.000896 0.000000 -0.000715 0.000000
# 3 -0.005134 0.000896 0.010686 0.000000 0.000480 0.000000
# 4 0.000000 0.000000 0.000000 -0.154808 0.000000 -0.046425
# 5 0.002486 -0.000715 0.000480 0.000000 0.026504 0.000000
# 6 0.000000 0.000000 0.000000 -0.046425 0.000000 0.028540
#
#
# Mechanical properties :
#
#
# Convention : Reuss Voigt Hill
#
# Bulk Modulus (GPa) = 57.50135 76.44553 66.97344
# Shear Modulus (GPa) = -138.91166 26.70792 -56.10187
#
# Velocity S-wave (km/s) = -8.23004 3.60872 -5.23024
# Velocity P-wave (km/s) = 7.89137 7.39180 1.95383
#
# Compressibility (1/GPa) = 0.01739089
#
# Stress axis : x y z
#
# Youngs Moduli (GPa) = 96.52915 60.11032 93.57806
#
# Poissons Ratio (x) = 0.35511 0.48046
# Poissons Ratio (y) = 0.57026 -0.08389
# Poissons Ratio (z) = 0.49561 -0.05389
#
# Static dielectric constant tensor:
#      x y z
#    x 1.781300 0.000000 -0.025490 
#    y 0.000000 1.793410 0.000000 
#    z -0.025490 0.000000 1.775820 
# 
# From -- ./inp_files/143542.got.cif
#   From: 2010.05.17/outbox.cif.g08.bks.cpg/sg12_72_cif.got.tgz:143542.got - 2010.06.03 13:09:07.
