data_PCOD9186942
_publ_section_title
;
Structure prediction by ZEFSAII (Michael W. Deem and Ramdas Pophale) SiO2 
 PCOD9186942
Probable space group: C 2/M
;
_chemical_formula_sum "Si O2"
_cell_formula_units_Z 64
_cell_length_a 29.445476
_cell_length_b 9.056438
_cell_length_c 14.821718
_cell_angle_alpha 90.000000
_cell_angle_beta 61.619263
_cell_angle_gamma 90.000000
_cell_volume 3477.464156
_symmetry_space_group_name_H-M "C 2/M"
_symmetry_group_IT_number 12
_symmetry_cell_setting 'monoclinic'
loop_
_space_group_symop_operation_xyz
x,y,z
-x,y,-z
-x,-y,-z
x,-y,z
1/2+x,1/2+y,z
1/2-x,1/2+y,-z
1/2-x,1/2-y,-z
1/2+x,1/2-y,z
loop_
_atom_site_type_symbol
_atom_site_label
_atom_site_fract_x
_atom_site_fract_y
_atom_site_fract_z
Si Si1 0.082021 0.675742 0.612410
Si Si2 0.082085 0.324469 0.054694
Si Si3 0.561584 0.672221 0.446311
Si Si4 0.682468 0.176842 0.839625
Si Si5 0.480526 0.327676 0.183429
Si Si6 0.613637 0.172799 0.230821
Si Si7 0.236284 0.325682 0.107891
Si Si8 0.134655 0.173253 0.719230
O O1 0.082964 0.500000 0.616732
O O2 0.082140 0.733380 0.511035
O O3 0.127884 0.747552 0.628949
O O4 0.000000 0.810158 0.500000
O O5 0.072875 0.500000 0.055258
O O6 0.029132 0.238851 0.086729
O O7 0.097553 0.291460 0.143651
O O8 0.131024 0.288129 0.946651
O O9 0.573188 0.500000 0.450717
O O10 0.468882 0.761660 0.287221
O O11 0.585690 0.728111 0.330659
O O12 0.730416 0.248654 0.845883
O O13 0.672686 0.245468 0.750796
O O14 0.687658 0.000000 0.831007
O O15 0.488601 0.500000 0.195928
O O16 0.424776 0.314143 0.187524
O O17 0.675223 0.189635 0.180775
O O18 0.600799 0.000000 0.258611
O O19 0.248399 0.500000 0.092146
O O20 0.250000 0.250000 0.000000
O O21 0.146091 0.000000 0.699164
#
# Coordination Sequence:
#
# PCOD9186942 Si02
#       8
#     8   8   8   8   8   8   8   8
#     4  10  19  35  57  79 109 150 188 232 286 342
#     4  10  20  34  52  78 115 152 191 239 287 345
#     4  11  23  37  57  88 121 154 194 240 292 352
#     4  11  22  37  58  85 113 150 198 243 294 354
#     4   9  19  33  51  77 112 148 189 236 285 342
#     4  10  22  39  57  84 118 156 198 240 291 352
#     4  11  22  40  62  85 117 156 199 249 300 348
#     4   9  20  37  55  81 113 151 195 242 291 346
#
# _framework density 18.404216000000002
#
# number of rings (size 3 to 8) (size 9 to 14) (size 15 to 20)
#    0.750    1.125    1.250    3.375    0.000    6.000 
#    0.000    2.500    0.000    0.750    0.000    0.000 
#    0.000    0.000    0.000    0.000    0.000    0.000 
#
# Total GULP energy -178549.021437 kJ/mol
# GULP energy per Si atom -5579.656920 kJ/mol
# Density = 1.836233 g / cm^3
# Si number density = 18.404216 Si / 1000 Ang^3
#
#
#
# Elastic Constant Matrix: (Units=GPa)
#
#
# Indices 1 2 3 4 5 6 
#
# 1 49.3773 40.6919 3.8160 0.0000 20.6429 0.0000
# 2 40.6919 97.4202 33.8087 0.0000 11.7857 0.0000
# 3 3.8160 33.8087 46.4464 0.0000 14.2792 0.0000
# 4 0.0000 0.0000 0.0000 22.6165 0.0000 -0.8165
# 5 20.6429 11.7857 14.2792 0.0000 28.1248 0.0000
# 6 0.0000 0.0000 0.0000 -0.8165 0.0000 23.7233
#
#
#
# Elastic Compliance Matrix: (Units=1/GPa)
#
#
# Indices 1 2 3 4 5 6 
#
# 1 0.068965 -0.034869 0.036479 0.000000 -0.054527 0.000000
# 2 -0.034869 0.031380 -0.028205 0.000000 0.026763 0.000000
# 3 0.036479 -0.028205 0.051737 0.000000 -0.041223 0.000000
# 4 0.000000 0.000000 0.000000 0.044271 0.000000 0.001524
# 5 -0.054527 0.026763 -0.041223 0.000000 0.085292 0.000000
# 6 0.000000 0.000000 0.000000 0.001524 0.000000 0.042205
#
#
# Mechanical properties :
#
#
# Convention : Reuss Voigt Hill
#
# Bulk Modulus (GPa) = 10.11209 38.87525 24.49367
# Shear Modulus (GPa) = 12.19503 22.55476 17.37489
#
# Velocity S-wave (km/s) = 2.57694 3.50454 3.07591
# Velocity P-wave (km/s) = 3.78953 6.12737 5.09437
#
# Compressibility (1/GPa) = 0.09889154
#
# Stress axis : x y z
#
# Youngs Moduli (GPa) = 14.50013 31.86744 19.32858
#
# Poissons Ratio (x) = 1.11120 -0.70509
# Poissons Ratio (y) = 0.50561 0.54516
# Poissons Ratio (z) = -0.52895 0.89882
#
# Static dielectric constant tensor:
#      x y z
#    x 1.633290 0.000000 0.005510 
#    y 0.000000 1.614070 0.000000 
#    z 0.005510 0.000000 1.625950 
# 
# From -- ./inp_files/243927.got.cif
#   From: 2010.05.17/outbox.cif.g08.bks.cpg/sg12_122_cif.got.tgz:243927.got - 2010.06.03 13:09:07.
