data_PCOD9186020
_publ_section_title
;
Structure prediction by ZEFSAII (Michael W. Deem and Ramdas Pophale) SiO2 
 PCOD9186020
Probable space group: C 2/M
;
_chemical_formula_sum "Si O2"
_cell_formula_units_Z 56
_cell_length_a 20.707534
_cell_length_b 8.788960
_cell_length_c 30.524222
_cell_angle_alpha 90.000000
_cell_angle_beta 146.269232
_cell_angle_gamma 90.000000
_cell_volume 3084.829707
_symmetry_space_group_name_H-M "C 2/M"
_symmetry_group_IT_number 12
_symmetry_cell_setting 'monoclinic'
loop_
_space_group_symop_operation_xyz
x,y,z
-x,y,-z
-x,-y,-z
x,-y,z
1/2+x,1/2+y,z
1/2-x,1/2+y,-z
1/2-x,1/2-y,-z
1/2+x,1/2-y,z
loop_
_atom_site_type_symbol
_atom_site_label
_atom_site_fract_x
_atom_site_fract_y
_atom_site_fract_z
Si Si1 0.676016 0.819087 0.734953
Si Si2 0.313057 0.318465 0.161708
Si Si3 0.451746 0.317519 0.758962
Si Si4 0.073555 0.818726 0.997104
Si Si5 0.784768 0.182153 0.586177
Si Si6 0.588868 0.819078 0.169398
Si Si7 0.569057 0.319259 0.419075
O O1 0.679859 0.763667 0.787480
O O2 0.783412 0.741975 0.770804
O O3 0.552549 0.766585 0.646027
O O4 0.688449 0.000000 0.740175
O O5 0.308746 0.500000 0.166764
O O6 0.427399 0.285227 0.197696
O O7 0.197199 0.262449 0.072214
O O8 0.446542 0.500000 0.763562
O O9 0.347846 0.277067 0.666876
O O10 0.441847 0.231655 0.798933
O O11 0.000789 0.755489 0.915410
O O12 0.089368 0.000000 0.001883
O O13 0.000000 0.790304 0.000000
O O14 0.664930 0.266514 0.508202
O O15 0.873005 0.216004 0.595723
O O16 0.765346 0.000000 0.574469
O O17 0.585307 0.000000 0.162813
O O18 0.550192 0.500000 0.410454
#
# Coordination Sequence:
#
# PCOD9186020 Si02
#       7
#     8   8   8   8   8   8   8
#     4  12  23  38  61  90 122 160 203 250 301 359
#     4  11  22  39  65  93 121 158 201 251 300 354
#     4  10  22  42  63  88 126 163 199 245 303 363
#     4  11  23  40  63  92 122 158 201 249 300 358
#     4   9  18  35  58  88 123 161 197 243 302 356
#     4  12  26  42  63  89 121 161 203 250 304 361
#     4  10  19  34  58  91 123 156 201 252 297 351
#
# _framework density 18.153352000000002
#
# number of rings (size 3 to 8) (size 9 to 14) (size 15 to 20)
#    0.000    1.286    2.857    3.857    0.000    3.429 
#    0.000    0.714    0.000    4.286    0.000    0.000 
#    0.000    0.000    0.000    0.000    0.000    0.000 
#
# Total GULP energy -156548.680824 kJ/mol
# GULP energy per Si atom -5591.024315 kJ/mol
# Density = 1.811203 g / cm^3
# Si number density = 18.153352 Si / 1000 Ang^3
#
#
#
# Elastic Constant Matrix: (Units=GPa)
#
#
# Indices 1 2 3 4 5 6 
#
# 1 57.9857 27.1336 23.8284 0.0001 -5.8235 -0.0002
# 2 27.1336 44.7459 19.5774 0.0002 -6.7062 -0.0004
# 3 23.8284 19.5774 102.0370 0.0000 -1.8799 0.0000
# 4 0.0001 0.0002 0.0000 34.4589 0.0000 0.5774
# 5 -5.8235 -6.7062 -1.8799 0.0000 26.7798 0.0000
# 6 -0.0002 -0.0004 0.0000 0.5774 0.0000 27.2685
#
#
#
# Elastic Compliance Matrix: (Units=1/GPa)
#
#
# Indices 1 2 3 4 5 6 
#
# 1 0.025085 -0.013522 -0.003230 0.000000 0.001842 0.000000
# 2 -0.013522 0.032616 -0.003008 0.000000 0.005016 0.000000
# 3 -0.003230 -0.003008 0.011119 0.000000 -0.000675 0.000000
# 4 0.000000 0.000000 0.000000 0.029030 0.000000 -0.000615
# 5 0.001842 0.005016 -0.000675 0.000000 0.038951 0.000000
# 6 0.000000 0.000000 0.000000 -0.000615 0.000000 0.036685
#
#
# Mechanical properties :
#
#
# Convention : Reuss Voigt Hill
#
# Bulk Modulus (GPa) = 34.12841 38.42748 36.27795
# Shear Modulus (GPa) = 22.44428 26.65005 24.54717
#
# Velocity S-wave (km/s) = 3.52002 3.83567 3.68123
# Velocity P-wave (km/s) = 5.94656 6.38989 6.17221
#
# Compressibility (1/GPa) = 0.02930110
#
# Stress axis : x y z
#
# Youngs Moduli (GPa) = 39.86374 30.65979 89.93439
#
# Poissons Ratio (x) = 0.41460 0.29046
# Poissons Ratio (y) = 0.53906 0.27049
# Poissons Ratio (z) = 0.12875 0.09221
#
# Static dielectric constant tensor:
#      x y z
#    x 1.594130 0.000000 0.001310 
#    y 0.000000 1.603710 0.000000 
#    z 0.001310 0.000000 1.608520 
# 
# From -- ./inp_files/320240.got.cif
#   From: 2010.05.17/outbox.cif.g08.bks.cpg/sg12_161_cif.got.tgz:320240.got - 2010.06.03 13:09:07.
