data_PCOD9186686
_publ_section_title
;
Structure prediction by ZEFSAII (Michael W. Deem and Ramdas Pophale) SiO2 
 PCOD9186686
Probable space group: C 2/M
;
_chemical_formula_sum "Si O2"
_cell_formula_units_Z 64
_cell_length_a 23.878254
_cell_length_b 11.538491
_cell_length_c 13.264635
_cell_angle_alpha 90.000000
_cell_angle_beta 69.580095
_cell_angle_gamma 90.000000
_cell_volume 3425.003492
_symmetry_space_group_name_H-M "C 2/M"
_symmetry_group_IT_number 12
_symmetry_cell_setting 'monoclinic'
loop_
_space_group_symop_operation_xyz
x,y,z
-x,y,-z
-x,-y,-z
x,-y,z
1/2+x,1/2+y,z
1/2-x,1/2+y,-z
1/2-x,1/2-y,-z
1/2+x,1/2-y,z
loop_
_atom_site_type_symbol
_atom_site_label
_atom_site_fract_x
_atom_site_fract_y
_atom_site_fract_z
Si Si1 0.517829 0.127951 0.371692
Si Si2 0.833101 0.139871 0.960852
Si Si3 0.031623 0.126876 0.676173
Si Si4 0.967094 0.865979 0.925314
Si Si5 0.352545 0.870455 0.640015
Si Si6 0.256991 0.256630 0.826900
Si Si7 0.778684 0.627615 0.354319
Si Si8 0.659109 0.698772 0.536807
O O1 0.500000 0.122406 0.500000
O O2 0.492870 0.250288 0.349084
O O3 0.589545 0.135356 0.325596
O O4 0.499899 0.000000 0.339234
O O5 0.902370 0.178398 0.929448
O O6 0.802462 0.181240 0.875947
O O7 0.829657 0.000000 0.966784
O O8 0.794559 0.197183 0.074728
O O9 0.101745 0.128808 0.608278
O O10 0.013288 0.131631 0.804369
O O11 0.007586 0.000000 0.653534
O O12 0.953986 0.000000 0.962127
O O13 0.000000 0.809163 0.000000
O O14 0.294678 0.837230 0.740183
O O15 0.359725 0.783450 0.542769
O O16 0.347669 0.000000 0.602262
O O17 0.232523 0.341673 0.755430
O O18 0.805047 0.500000 0.347896
O O19 0.715507 0.631657 0.454291
O O20 0.817970 0.724727 0.384162
#
# Coordination Sequence:
#
# PCOD9186686 Si02
#       8
#     8   8   8   8   8   8   8   8
#     4  10  20  35  55  81 117 159 195 228 280 346
#     4  10  20  37  57  81 113 145 186 241 295 345
#     4  11  22  37  59  88 114 148 196 245 290 338
#     4   9  20  37  58  82 112 150 188 238 297 349
#     4  10  19  35  55  81 115 153 192 230 279 348
#     4  10  21  34  57  86 108 144 195 240 291 341
#     4  10  21  37  54  79 115 151 185 234 293 348
#     4  10  21  35  54  82 113 149 188 233 285 348
#
# _framework density 18.686112000000001
#
# number of rings (size 3 to 8) (size 9 to 14) (size 15 to 20)
#    0.000    2.000    1.250    2.250    1.750    0.750 
#    0.000    1.875    0.000    1.125    0.000    0.000 
#    0.000    0.000    0.000    0.000    0.000    0.000 
#
# Total GULP energy -178286.322165 kJ/mol
# GULP energy per Si atom -5571.447568 kJ/mol
# Density = 1.864358 g / cm^3
# Si number density = 18.686112 Si / 1000 Ang^3
#
#
#
# Elastic Constant Matrix: (Units=GPa)
#
#
# Indices 1 2 3 4 5 6 
#
# 1 57.2555 27.7350 32.4853 0.0000 4.7455 0.0000
# 2 27.7350 113.2140 23.7508 0.0000 11.0375 0.0000
# 3 32.4853 23.7508 84.7061 0.0000 3.9613 0.0000
# 4 0.0000 0.0000 0.0000 1.5116 0.0000 -7.9541
# 5 4.7455 11.0375 3.9613 0.0000 28.9649 0.0000
# 6 0.0000 0.0000 0.0000 -7.9541 0.0000 19.1012
#
#
#
# Elastic Compliance Matrix: (Units=1/GPa)
#
#
# Indices 1 2 3 4 5 6 
#
# 1 0.024119 -0.004096 -0.008041 0.000000 -0.001291 0.000000
# 2 -0.004096 0.010392 -0.001197 0.000000 -0.003125 0.000000
# 3 -0.008041 -0.001197 0.015239 0.000000 -0.000311 0.000000
# 4 0.000000 0.000000 0.000000 -0.555339 0.000000 -0.231255
# 5 -0.001291 -0.003125 -0.000311 0.000000 0.035970 0.000000
# 6 0.000000 0.000000 0.000000 -0.231255 0.000000 -0.043946
#
#
# Mechanical properties :
#
#
# Convention : Reuss Voigt Hill
#
# Bulk Modulus (GPa) = 43.32202 47.01309 45.16756
# Shear Modulus (GPa) = -10.43396 21.32917 5.44760
#
# Velocity S-wave (km/s) = -2.36557 3.38219 1.70928
# Velocity P-wave (km/s) = 3.97155 6.36131 5.30280
#
# Compressibility (1/GPa) = 0.02308295
#
# Stress axis : x y z
#
# Youngs Moduli (GPa) = 41.46139 96.22778 65.61947
#
# Poissons Ratio (x) = 0.39414 0.52764
# Poissons Ratio (y) = 0.16982 0.07854
# Poissons Ratio (z) = 0.33339 0.11517
#
# Static dielectric constant tensor:
#      x y z
#    x 1.678820 0.000000 0.000650 
#    y 0.000000 1.669900 0.000000 
#    z 0.000650 0.000000 1.618140 
# 
# From -- ./inp_files/175240.got.cif
#   From: 2010.05.17/outbox.cif.g08.bks.cpg/sg12_88_cif.got.tgz:175240.got - 2010.06.03 13:09:07.
