data_PCOD9186355
_publ_section_title
;
Structure prediction by ZEFSAII (Michael W. Deem and Ramdas Pophale) SiO2 
 PCOD9186355
Probable space group: C 2/M
;
_chemical_formula_sum "Si O2"
_cell_formula_units_Z 40
_cell_length_a 11.960042
_cell_length_b 24.886892
_cell_length_c 7.304282
_cell_angle_alpha 90.000000
_cell_angle_beta 117.866101
_cell_angle_gamma 90.000000
_cell_volume 1922.002544
_symmetry_space_group_name_H-M "C 2/M"
_symmetry_group_IT_number 12
_symmetry_cell_setting 'monoclinic'
loop_
_space_group_symop_operation_xyz
x,y,z
-x,y,-z
-x,-y,-z
x,-y,z
1/2+x,1/2+y,z
1/2-x,1/2+y,-z
1/2-x,1/2-y,-z
1/2+x,1/2-y,z
loop_
_atom_site_type_symbol
_atom_site_label
_atom_site_fract_x
_atom_site_fract_y
_atom_site_fract_z
Si Si1 0.861385 0.058762 0.982031
Si Si2 0.816023 0.743094 0.745568
Si Si3 0.484043 0.149216 0.787495
Si Si4 0.361511 0.941858 0.488634
Si Si5 0.768322 0.168169 0.988535
O O1 0.754116 0.060579 0.741353
O O2 0.837036 0.112136 0.079513
O O3 0.848387 0.000000 0.063600
O O4 0.000000 0.061424 0.000000
O O5 0.750000 0.750000 0.500000
O O6 0.939474 0.709937 0.782836
O O7 0.830433 0.797866 0.871392
O O8 0.744527 0.704357 0.838569
O O9 0.377923 0.113035 0.612539
O O10 0.624410 0.153799 0.814588
O O11 0.500000 0.123859 0.000000
O O12 0.500000 0.944359 0.500000
O O13 0.348273 0.000000 0.578037
#
# Coordination Sequence:
#
# PCOD9186355 Si02
#       5
#     8   8   8   8   8
#     4  10  21  37  61  92 126 164 204 255 314 371
#     4  10  22  36  56  87 119 159 201 250 304 364
#     4  10  21  37  58  88 120 153 205 263 303 353
#     4  10  19  34  61  89 115 157 204 246 302 363
#     4  10  21  39  60  84 121 159 201 254 306 366
#
# _framework density 20.811626
#
# number of rings (size 3 to 8) (size 9 to 14) (size 15 to 20)
#    0.000    2.000    2.000    1.200    0.000    4.400 
#    0.000    5.000    0.000    4.800    0.000   30.800 
#    0.000    0.000    0.000    0.000    0.000    0.000 
#
# Total GULP energy -111405.287320 kJ/mol
# GULP energy per Si atom -5570.264366 kJ/mol
# Density = 2.076426 g / cm^3
# Si number density = 20.811626 Si / 1000 Ang^3
#
#
#
# Elastic Constant Matrix: (Units=GPa)
#
#
# Indices 1 2 3 4 5 6 
#
# 1 67.6936 34.3366 11.7415 0.0000 14.9649 0.0000
# 2 34.3366 139.3711 15.3538 0.0000 -4.1757 0.0000
# 3 11.7415 15.3538 73.8331 0.0000 5.1675 0.0000
# 4 0.0000 0.0000 0.0000 24.4866 0.0000 26.8724
# 5 14.9649 -4.1757 5.1675 0.0000 27.7129 0.0000
# 6 0.0000 0.0000 0.0000 26.8724 0.0000 -42.9449
#
#
#
# Elastic Compliance Matrix: (Units=1/GPa)
#
#
# Indices 1 2 3 4 5 6 
#
# 1 0.020140 -0.005157 -0.001332 0.000000 -0.011404 0.000000
# 2 -0.005157 0.008718 -0.001297 0.000000 0.004340 0.000000
# 3 -0.001332 -0.001297 0.014174 0.000000 -0.002119 0.000000
# 4 0.000000 0.000000 0.000000 0.024212 0.000000 0.015150
# 5 -0.011404 0.004340 -0.002119 0.000000 0.043292 0.000000
# 6 0.000000 0.000000 0.000000 0.015150 0.000000 -0.013805
#
#
# Mechanical properties :
#
#
# Convention : Reuss Voigt Hill
#
# Bulk Modulus (GPa) = 36.41530 44.86240 40.63885
# Shear Modulus (GPa) = 41.16694 16.48196 28.82445
#
# Velocity S-wave (km/s) = 4.45238 2.81723 3.72562
# Velocity P-wave (km/s) = 6.63077 5.67323 6.17061
#
# Compressibility (1/GPa) = 0.02746098
#
# Stress axis : x y z
#
# Youngs Moduli (GPa) = 49.65138 114.69911 70.55231
#
# Poissons Ratio (x) = 0.59149 0.09400
# Poissons Ratio (y) = 0.25605 0.09149
# Poissons Ratio (z) = 0.06615 0.14873
#
# Static dielectric constant tensor:
#      x y z
#    x 1.783010 0.000000 0.004740 
#    y 0.000000 1.845290 0.000000 
#    z 0.004740 0.000000 1.809280 
# 
# From -- ./inp_files/50960.got.cif
#   From: 2010.05.17/outbox.cif.g08.bks.cpg/sg12_26_cif.got.tgz:50960.got - 2010.06.03 13:09:07.
