data_PCOD9186439
_publ_section_title
;
Structure prediction by ZEFSAII (Michael W. Deem and Ramdas Pophale) SiO2 
 PCOD9186439
Probable space group: C 2/M
;
_chemical_formula_sum "Si O2"
_cell_formula_units_Z 42
_cell_length_a 11.933536
_cell_length_b 13.006932
_cell_length_c 14.307652
_cell_angle_alpha 90.000000
_cell_angle_beta 53.526984
_cell_angle_gamma 90.000000
_cell_volume 1785.839324
_symmetry_space_group_name_H-M "C 2/M"
_symmetry_group_IT_number 12
_symmetry_cell_setting 'monoclinic'
loop_
_space_group_symop_operation_xyz
x,y,z
-x,y,-z
-x,-y,-z
x,-y,z
1/2+x,1/2+y,z
1/2-x,1/2+y,-z
1/2-x,1/2-y,-z
1/2+x,1/2-y,z
loop_
_atom_site_type_symbol
_atom_site_label
_atom_site_fract_x
_atom_site_fract_y
_atom_site_fract_z
Si Si1 0.550910 0.326949 0.763746
Si Si2 0.000000 0.500000 0.000000
Si Si3 0.601023 0.381372 0.528673
Si Si4 0.656511 0.885808 0.732279
Si Si5 0.751596 0.340453 0.116224
Si Si6 0.163660 0.887427 0.894329
O O1 0.596662 0.336493 0.633894
O O2 0.547788 0.205463 0.786324
O O3 0.396316 0.371467 0.852735
O O4 0.658862 0.374819 0.783536
O O5 0.884652 0.409117 0.027605
O O6 0.500000 0.332888 0.500000
O O7 0.555276 0.500000 0.562845
O O8 0.753808 0.383571 0.406286
O O9 0.760773 0.862420 0.765900
O O10 0.598408 0.000000 0.781515
O O11 0.773587 0.217734 0.095880
O O12 0.222598 0.000000 0.889675
O O13 0.000000 0.885930 0.000000
#
# Coordination Sequence:
#
# PCOD9186439 Si02
#       6
#     8   2   8   8   8   8
#     4  11  23  38  66  91 120 167 207 249 318 369
#     4  12  24  40  66  90 130 152 220 270 298 354
#     4  10  19  34  63  95 121 158 202 259 310 365
#     4  10  21  39  61  92 130 155 206 260 308 370
#     4  11  23  41  63  90 122 165 205 265 307 360
#     4  10  23  43  58  86 124 161 207 253 303 368
#
# _framework density 23.518353999999999
#
# number of rings (size 3 to 8) (size 9 to 14) (size 15 to 20)
#    0.000    1.524    3.810    1.143    2.667    1.524 
#    0.000    0.000    0.000    0.571    0.000    0.000 
#    0.000    0.000    0.000    0.000    0.000    0.000 
#
# Total GULP energy -117137.968869 kJ/mol
# GULP energy per Si atom -5577.998518 kJ/mol
# Density = 2.346483 g / cm^3
# Si number density = 23.518354 Si / 1000 Ang^3
#
#
#
# Elastic Constant Matrix: (Units=GPa)
#
#
# Indices 1 2 3 4 5 6 
#
# 1 67.1036 22.5870 3.7996 0.0000 -0.7787 0.0000
# 2 22.5870 173.6431 5.8058 0.0000 -5.8465 0.0000
# 3 3.7996 5.8058 79.6011 0.0000 22.2436 0.0000
# 4 0.0000 0.0000 0.0000 31.7263 0.0000 -1.9393
# 5 -0.7787 -5.8465 22.2436 0.0000 35.8672 0.0000
# 6 0.0000 0.0000 0.0000 -1.9393 0.0000 15.7266
#
#
#
# Elastic Compliance Matrix: (Units=1/GPa)
#
#
# Indices 1 2 3 4 5 6 
#
# 1 0.015620 -0.001992 -0.000731 0.000000 0.000468 0.000000
# 2 -0.001992 0.006090 -0.000743 0.000000 0.001410 0.000000
# 3 -0.000731 -0.000743 0.015350 0.000000 -0.009657 0.000000
# 4 0.000000 0.000000 0.000000 0.031759 0.000000 0.003916
# 5 0.000468 0.001410 -0.009657 0.000000 0.034109 0.000000
# 6 0.000000 0.000000 0.000000 0.003916 0.000000 0.064070
#
#
# Mechanical properties :
#
#
# Convention : Reuss Voigt Hill
#
# Bulk Modulus (GPa) = 33.19138 42.74805 37.96972
# Shear Modulus (GPa) = 27.17799 35.87440 31.52619
#
# Velocity S-wave (km/s) = 3.40311 3.90985 3.66525
# Velocity P-wave (km/s) = 5.43922 6.21277 5.83882
#
# Compressibility (1/GPa) = 0.03012830
#
# Stress axis : x y z
#
# Youngs Moduli (GPa) = 64.02251 164.19467 65.14577
#
# Poissons Ratio (x) = 0.32700 0.04762
# Poissons Ratio (y) = 0.12750 0.04842
# Poissons Ratio (z) = 0.04680 0.12204
#
# Static dielectric constant tensor:
#      x y z
#    x 1.829050 0.000000 -0.026180 
#    y 0.000000 1.898410 0.000000 
#    z -0.026180 0.000000 1.862730 
# 
# From -- ./inp_files/212458.got.cif
#   From: 2010.05.17/outbox.cif.g08.bks.cpg/sg12_107_cif.got.tgz:212458.got - 2010.06.03 13:09:07.
