data_PCOD9186550
_publ_section_title
;
Structure prediction by ZEFSAII (Michael W. Deem and Ramdas Pophale) SiO2 
 PCOD9186550
Probable space group: C 2/M
;
_chemical_formula_sum "Si O2"
_cell_formula_units_Z 56
_cell_length_a 19.079049
_cell_length_b 11.966146
_cell_length_c 24.459400
_cell_angle_alpha 90.000000
_cell_angle_beta 145.625874
_cell_angle_gamma 90.000000
_cell_volume 3152.777605
_symmetry_space_group_name_H-M "C 2/M"
_symmetry_group_IT_number 12
_symmetry_cell_setting 'monoclinic'
loop_
_space_group_symop_operation_xyz
x,y,z
-x,y,-z
-x,-y,-z
x,-y,z
1/2+x,1/2+y,z
1/2-x,1/2+y,-z
1/2-x,1/2-y,-z
1/2+x,1/2-y,z
loop_
_atom_site_type_symbol
_atom_site_label
_atom_site_fract_x
_atom_site_fract_y
_atom_site_fract_z
Si Si1 0.227072 0.292785 0.901488
Si Si2 0.864506 0.874170 0.885741
Si Si3 0.140189 0.629113 0.572719
Si Si4 0.242019 0.871619 0.465067
Si Si5 0.099041 0.376515 0.924908
Si Si6 0.509047 0.622646 0.767329
Si Si7 0.627263 0.267174 0.224512
O O1 0.268962 0.350569 0.873035
O O2 0.178777 0.369293 0.920214
O O3 0.111065 0.211727 0.816918
O O4 0.340192 0.217456 0.997347
O O5 0.858366 0.794421 0.829749
O O6 0.846617 0.000000 0.853528
O O7 0.000000 0.866083 0.000000
O O8 0.172183 0.500000 0.609905
O O9 0.156529 0.632374 0.518011
O O10 0.238350 0.715554 0.661716
O O11 0.000000 0.651220 0.500000
O O12 0.250000 0.750000 0.500000
O O13 0.109561 0.871847 0.348546
O O14 0.252562 0.000000 0.497386
O O15 0.108848 0.500000 0.954582
O O16 0.955171 0.344322 0.821804
O O17 0.564651 0.500000 0.801199
O O18 0.458715 0.646650 0.796067
#
# Coordination Sequence:
#
# PCOD9186550 Si02
#       7
#     8   8   8   8   8   8   8
#     4  10  20  34  51  78 102 133 177 218 261 307
#     4  11  21  33  50  77 108 134 168 220 272 310
#     4   9  18  34  57  82 105 136 180 223 267 321
#     4   9  18  34  56  84 110 139 176 225 277 325
#     4  10  20  35  53  73 102 140 178 215 256 311
#     4   9  18  34  56  77 103 140 181 215 257 319
#     4  10  19  35  54  76 105 139 174 214 265 316
#
# _framework density 17.762115999999999
#
# number of rings (size 3 to 8) (size 9 to 14) (size 15 to 20)
#    0.000    2.286    1.429    3.000    0.000    1.143 
#    0.000   10.714    0.000    1.714    0.000    0.000 
#    0.000    0.000    0.000    0.000    0.000    0.000 
#
# Total GULP energy -155882.177041 kJ/mol
# GULP energy per Si atom -5567.220609 kJ/mol
# Density = 1.772169 g / cm^3
# Si number density = 17.762116 Si / 1000 Ang^3
#
#
#
# Elastic Constant Matrix: (Units=GPa)
#
#
# Indices 1 2 3 4 5 6 
#
# 1 78.4851 12.8226 20.6523 0.0000 7.4731 0.0000
# 2 12.8226 73.6739 22.0825 0.0000 0.2596 0.0000
# 3 20.6523 22.0825 36.4916 -0.0001 10.1052 0.0000
# 4 0.0000 0.0000 -0.0001 16.1342 0.0000 -2.8545
# 5 7.4731 0.2596 10.1052 0.0000 30.7891 0.0000
# 6 0.0000 0.0000 0.0000 -2.8545 0.0000 12.1681
#
#
#
# Elastic Compliance Matrix: (Units=1/GPa)
#
#
# Indices 1 2 3 4 5 6 
#
# 1 0.014997 -0.000176 -0.008111 0.000000 -0.000977 0.000000
# 2 -0.000176 0.016927 -0.011127 0.000000 0.003552 0.000000
# 3 -0.008111 -0.011127 0.041971 0.000000 -0.011713 0.000000
# 4 0.000000 0.000000 0.000000 0.064664 0.000000 0.015169
# 5 -0.000977 0.003552 -0.011713 0.000000 0.036530 0.000000
# 6 0.000000 0.000000 0.000000 0.015169 0.000000 0.085740
#
#
# Mechanical properties :
#
#
# Convention : Reuss Voigt Hill
#
# Bulk Modulus (GPa) = 28.51665 33.30727 30.91196
# Shear Modulus (GPa) = 16.05934 20.69118 18.37526
#
# Velocity S-wave (km/s) = 3.01015 3.41677 3.21988
# Velocity P-wave (km/s) = 5.30763 5.86160 5.59148
#
# Compressibility (1/GPa) = 0.03506723
#
# Stress axis : x y z
#
# Youngs Moduli (GPa) = 66.67890 59.07886 23.82611
#
# Poissons Ratio (x) = 0.01038 0.19325
# Poissons Ratio (y) = 0.01171 0.26511
# Poissons Ratio (z) = 0.54083 0.65737
#
# Static dielectric constant tensor:
#      x y z
#    x 1.594080 0.000000 0.003620 
#    y 0.000000 1.622610 0.000000 
#    z 0.003620 0.000000 1.621690 
# 
# From -- ./inp_files/213396.got.cif
#   From: 2010.05.17/outbox.cif.g08.bks.cpg/sg12_107_cif.got.tgz:213396.got - 2010.06.03 13:09:07.
