data_PCOD9186515
_publ_section_title
;
Structure prediction by ZEFSAII (Michael W. Deem and Ramdas Pophale) SiO2 
 PCOD9186515
Probable space group: C 2/M
;
_chemical_formula_sum "Si O2"
_cell_formula_units_Z 58
_cell_length_a 17.806053
_cell_length_b 12.984725
_cell_length_c 13.619534
_cell_angle_alpha 90.000000
_cell_angle_beta 113.046664
_cell_angle_gamma 90.000000
_cell_volume 2897.600041
_symmetry_space_group_name_H-M "C 2/M"
_symmetry_group_IT_number 12
_symmetry_cell_setting 'monoclinic'
loop_
_space_group_symop_operation_xyz
x,y,z
-x,y,-z
-x,-y,-z
x,-y,z
1/2+x,1/2+y,z
1/2-x,1/2+y,-z
1/2-x,1/2-y,-z
1/2+x,1/2-y,z
loop_
_atom_site_type_symbol
_atom_site_label
_atom_site_fract_x
_atom_site_fract_y
_atom_site_fract_z
Si Si1 0.293680 0.683054 0.168485
Si Si2 0.999631 0.338069 0.149172
Si Si3 0.810527 0.611034 0.062916
Si Si4 0.021223 0.881496 0.789734
Si Si5 0.595480 0.881468 0.395225
Si Si6 0.500000 0.000000 0.000000
Si Si7 0.567506 0.332548 0.456516
Si Si8 0.259756 0.381420 0.366105
O O1 0.287715 0.798576 0.124725
O O2 0.386768 0.643271 0.201681
O O3 0.267738 0.677664 0.267712
O O4 0.236930 0.621520 0.063723
O O5 0.906695 0.377451 0.093409
O O6 0.000158 0.213367 0.147396
O O7 0.033355 0.370327 0.272525
O O8 0.042705 0.407709 0.089922
O O9 0.793102 0.500000 0.097535
O O10 0.961522 0.868500 0.665688
O O11 0.017847 0.000000 0.823727
O O12 0.572468 0.792074 0.458685
O O13 0.683681 0.852128 0.395037
O O14 0.596688 0.000000 0.430452
O O15 0.500000 0.367133 0.500000
O O16 0.655863 0.372020 0.532311
O O17 0.246553 0.500000 0.331573
#
# Coordination Sequence:
#
# PCOD9186515 Si02
#       8
#     8   8   8   8   8   2   8   8
#     4  10  21  32  55  85 111 149 191 239 296 345
#     4  10  22  34  59  86 112 153 195 240 286 343
#     4  10  19  35  53  81 115 148 191 240 289 345
#     4  10  20  38  57  83 118 150 193 243 297 345
#     4  10  22  40  57  83 119 154 192 244 297 352
#     4  12  20  36  58  88 110 144 198 238 274 348
#     4  11  22  37  60  88 114 152 198 243 297 350
#     4  11  22  36  58  86 114 148 195 248 289 351
#
# _framework density 20.016566000000001
#
# number of rings (size 3 to 8) (size 9 to 14) (size 15 to 20)
#    0.000    1.655    2.759    2.069    1.931    0.828 
#    0.000    1.034    0.000    4.138    0.000    0.000 
#    0.000    0.000    0.000    0.000    0.000    0.000 
#
# Total GULP energy -161613.806029 kJ/mol
# GULP energy per Si atom -5572.889863 kJ/mol
# Density = 1.997101 g / cm^3
# Si number density = 20.016566 Si / 1000 Ang^3
#
#
#
# Elastic Constant Matrix: (Units=GPa)
#
#
# Indices 1 2 3 4 5 6 
#
# 1 60.7108 15.1917 25.3977 0.0000 16.8892 0.0000
# 2 15.1917 153.4378 11.1407 0.0000 -9.7134 0.0000
# 3 25.3977 11.1407 70.4816 0.0000 19.4302 0.0000
# 4 0.0000 0.0000 0.0000 11.8525 0.0000 -0.3988
# 5 16.8892 -9.7134 19.4302 0.0000 27.7939 0.0000
# 6 0.0000 0.0000 0.0000 -0.3988 0.0000 50.9103
#
#
#
# Elastic Compliance Matrix: (Units=1/GPa)
#
#
# Indices 1 2 3 4 5 6 
#
# 1 0.022102 -0.002573 -0.004468 0.000000 -0.011206 0.000000
# 2 -0.002573 0.007225 -0.001662 0.000000 0.005251 0.000000
# 3 -0.004468 -0.001662 0.019166 0.000000 -0.011265 0.000000
# 4 0.000000 0.000000 0.000000 0.084393 0.000000 0.000661
# 5 -0.011206 0.005251 -0.011265 0.000000 0.052499 0.000000
# 6 0.000000 0.000000 0.000000 0.000661 0.000000 0.019648
#
#
# Mechanical properties :
#
#
# Convention : Reuss Voigt Hill
#
# Bulk Modulus (GPa) = 32.16905 43.12116 37.64510
# Shear Modulus (GPa) = 21.47743 33.63801 27.55772
#
# Velocity S-wave (km/s) = 3.27920 4.10385 3.71448
# Velocity P-wave (km/s) = 5.51757 6.63663 6.10281
#
# Compressibility (1/GPa) = 0.03108578
#
# Stress axis : x y z
#
# Youngs Moduli (GPa) = 45.24442 138.40496 52.17467
#
# Poissons Ratio (x) = 0.35615 0.23314
# Poissons Ratio (y) = 0.11643 0.08673
# Poissons Ratio (z) = 0.20217 0.23007
#
# Static dielectric constant tensor:
#      x y z
#    x 1.784250 0.000000 -0.012130 
#    y 0.000000 1.730730 0.000000 
#    z -0.012130 0.000000 1.689040 
# 
# From -- ./inp_files/232575.got.cif
#   From: 2010.05.17/outbox.cif.g08.bks.cpg/sg12_117_cif.got.tgz:232575.got - 2010.06.03 13:09:07.
