data_PCOD9186232
_publ_section_title
;
Structure prediction by ZEFSAII (Michael W. Deem and Ramdas Pophale) SiO2 
 PCOD9186232
Probable space group: C 2/M
;
_chemical_formula_sum "Si O2"
_cell_formula_units_Z 48
_cell_length_a 30.514552
_cell_length_b 9.083024
_cell_length_c 19.721690
_cell_angle_alpha 90.000000
_cell_angle_beta 149.102464
_cell_angle_gamma 90.000000
_cell_volume 2806.892082
_symmetry_space_group_name_H-M "C 2/M"
_symmetry_group_IT_number 12
_symmetry_cell_setting 'monoclinic'
loop_
_space_group_symop_operation_xyz
x,y,z
-x,y,-z
-x,-y,-z
x,-y,z
1/2+x,1/2+y,z
1/2-x,1/2+y,-z
1/2-x,1/2-y,-z
1/2+x,1/2-y,z
loop_
_atom_site_type_symbol
_atom_site_label
_atom_site_fract_x
_atom_site_fract_y
_atom_site_fract_z
Si Si1 0.757531 0.175714 0.082501
Si Si2 0.717148 0.324466 0.388228
Si Si3 0.901618 0.822590 0.381666
Si Si4 0.138345 0.676428 0.046743
Si Si5 0.718613 0.176376 0.671946
Si Si6 0.038114 0.326893 0.126024
O O1 0.841146 0.218479 0.237543
O O2 0.677360 0.210337 0.025019
O O3 0.760521 0.000000 0.077553
O O4 0.750000 0.250000 0.000000
O O5 0.718605 0.500000 0.397112
O O6 0.750000 0.250000 0.500000
O O7 0.773575 0.285296 0.396917
O O8 0.621492 0.269123 0.246937
O O9 0.860446 0.747135 0.392870
O O10 0.000000 0.783710 0.500000
O O11 0.895524 0.000000 0.381267
O O12 0.148499 0.500000 0.071690
O O13 0.197253 0.760006 0.179103
O O14 0.039482 0.711244 0.926532
O O15 0.716732 0.000000 0.676020
O O16 0.059832 0.500000 0.163491
O O17 0.000000 0.309422 0.000000
#
# Coordination Sequence:
#
# PCOD9186232 Si02
#       6
#     8   8   8   8   8   8
#     4   9  18  33  53  77 107 138 170 213 265 314
#     4  11  24  39  55  79 114 149 183 227 276 324
#     4   9  19  37  59  79 103 139 183 222 263 325
#     4   9  18  34  56  81 107 142 181 218 265 324
#     4  10  20  34  55  82 109 139 179 228 273 317
#     4  10  19  34  60  85 107 140 182 224 270 327
#
# _framework density 17.100764999999999
#
# number of rings (size 3 to 8) (size 9 to 14) (size 15 to 20)
#    0.000    2.333    1.667    2.000    0.000    6.000 
#    3.000    0.000    0.000    0.000    0.000    0.000 
#    0.000    0.000    0.000    0.000    0.000    0.000 
#
# Total GULP energy -133878.105049 kJ/mol
# GULP energy per Si atom -5578.254377 kJ/mol
# Density = 1.706184 g / cm^3
# Si number density = 17.100765 Si / 1000 Ang^3
#
#
#
# Elastic Constant Matrix: (Units=GPa)
#
#
# Indices 1 2 3 4 5 6 
#
# 1 173.7004 63.0236 88.2414 0.0000 -4.8682 0.0000
# 2 63.0236 41.3379 41.6653 0.0000 -5.1940 0.0000
# 3 88.2414 41.6653 79.6006 0.0000 -0.0157 0.0000
# 4 0.0000 0.0000 0.0000 23.5582 0.0000 -5.7009
# 5 -4.8682 -5.1940 -0.0157 0.0000 33.0665 0.0000
# 6 0.0000 0.0000 0.0000 -5.7009 0.0000 29.2454
#
#
#
# Elastic Compliance Matrix: (Units=1/GPa)
#
#
# Indices 1 2 3 4 5 6 
#
# 1 0.016297 -0.013997 -0.010739 0.000000 0.000196 0.000000
# 2 -0.013997 0.065452 -0.018742 0.000000 0.008211 0.000000
# 3 -0.010739 -0.018742 0.034277 0.000000 -0.004509 0.000000
# 4 0.000000 0.000000 0.000000 0.044550 0.000000 0.008684
# 5 0.000196 0.008211 -0.004509 0.000000 0.031559 0.000000
# 6 0.000000 0.000000 0.000000 0.008684 0.000000 0.035886
#
#
# Mechanical properties :
#
#
# Convention : Reuss Voigt Hill
#
# Bulk Modulus (GPa) = 34.39973 75.61104 55.00538
# Shear Modulus (GPa) = 15.40044 23.95458 19.67751
#
# Velocity S-wave (km/s) = 3.00421 3.74677 3.39585
# Velocity P-wave (km/s) = 5.67391 7.93906 6.90007
#
# Compressibility (1/GPa) = 0.02907000
#
# Stress axis : x y z
#
# Youngs Moduli (GPa) = 61.36232 15.27831 29.17424
#
# Poissons Ratio (x) = 0.21385 0.31331
# Poissons Ratio (y) = 0.85888 0.54677
# Poissons Ratio (z) = 0.65899 0.28634
#
# Static dielectric constant tensor:
#      x y z
#    x 1.588270 0.000000 0.007720 
#    y 0.000000 1.570930 0.000000 
#    z 0.007720 0.000000 1.552320 
# 
# From -- ./inp_files/280794.got.cif
#   From: 2010.05.17/outbox.cif.g08.bks.cpg/sg12_141_cif.got.tgz:280794.got - 2010.06.03 13:09:07.
