data_PCOD9186289
_publ_section_title
;
Structure prediction by ZEFSAII (Michael W. Deem and Ramdas Pophale) SiO2 
 PCOD9186289
Probable space group: C 2/M
;
_chemical_formula_sum "Si O2"
_cell_formula_units_Z 58
_cell_length_a 25.811793
_cell_length_b 8.952394
_cell_length_c 27.652846
_cell_angle_alpha 90.000000
_cell_angle_beta 153.484445
_cell_angle_gamma 90.000000
_cell_volume 2852.732394
_symmetry_space_group_name_H-M "C 2/M"
_symmetry_group_IT_number 12
_symmetry_cell_setting 'monoclinic'
loop_
_space_group_symop_operation_xyz
x,y,z
-x,y,-z
-x,-y,-z
x,-y,z
1/2+x,1/2+y,z
1/2-x,1/2+y,-z
1/2-x,1/2-y,-z
1/2+x,1/2-y,z
loop_
_atom_site_type_symbol
_atom_site_label
_atom_site_fract_x
_atom_site_fract_y
_atom_site_fract_z
Si Si1 0.319142 0.328411 0.752065
Si Si2 0.965416 0.320136 0.727820
Si Si3 0.217326 0.330629 0.764581
Si Si4 0.580092 0.735413 0.996030
Si Si5 0.513734 0.180617 0.660435
Si Si6 0.650275 0.319651 0.950205
Si Si7 0.500000 0.000000 0.000000
Si Si8 0.249637 0.680938 0.588108
O O1 0.280096 0.500000 0.716381
O O2 0.255855 0.257881 0.745999
O O3 0.456430 0.333010 0.877112
O O4 0.286905 0.265002 0.672965
O O5 0.975481 0.500000 0.742063
O O6 0.019065 0.274774 0.720952
O O7 0.832658 0.267748 0.620528
O O8 0.032432 0.231247 0.825516
O O9 0.178867 0.500000 0.721398
O O10 0.114585 0.258096 0.709969
O O11 0.330380 0.342276 0.892794
O O12 0.648243 0.748949 0.002293
O O13 0.540893 0.874229 0.994851
O O14 0.385304 0.212197 0.533622
O O15 0.526373 0.000000 0.672106
O O16 0.659932 0.500000 0.961841
O O17 0.750000 0.250000 0.000000
O O18 0.267149 0.500000 0.598359
#
# Coordination Sequence:
#
# PCOD9186289 Si02
#       8
#     8   8   8   8   8   8   2   8
#     4  10  19  34  60  90 114 152 206 262 319 380
#     4  11  22  38  60  89 125 168 215 266 324 385
#     4  10  19  35  59  86 117 157 204 264 322 380
#     4  12  23  41  61  90 130 167 220 262 331 393
#     4   9  20  37  58  87 122 163 213 268 321 383
#     4  12  26  43  67 100 136 177 219 272 336 402
#     4  12  28  40  66  96 130 188 214 278 324 392
#     4  10  20  37  61  87 120 162 216 269 317 384
#
# _framework density 20.331385000000001
#
# number of rings (size 3 to 8) (size 9 to 14) (size 15 to 20)
#    0.000    1.379    2.759    3.310    1.931    2.759 
#    0.000    3.448    1.517    0.000    0.000    1.931 
#    0.000    0.000    0.000    0.000    0.000    0.000 
#
# Total GULP energy -161439.976634 kJ/mol
# GULP energy per Si atom -5566.895746 kJ/mol
# Density = 2.028511 g / cm^3
# Si number density = 20.331385 Si / 1000 Ang^3
#
#
#
# Elastic Constant Matrix: (Units=GPa)
#
#
# Indices 1 2 3 4 5 6 
#
# 1 164.0810 38.0213 9.9478 0.0000 4.7580 0.0000
# 2 38.0213 57.8117 13.3390 0.0000 3.1808 0.0001
# 3 9.9478 13.3390 33.9623 0.0000 0.2792 0.0000
# 4 0.0000 0.0000 0.0000 16.4571 0.0000 5.8729
# 5 4.7580 3.1808 0.2792 0.0000 25.4535 0.0000
# 6 0.0000 0.0001 0.0000 5.8729 0.0000 29.2574
#
#
#
# Elastic Compliance Matrix: (Units=1/GPa)
#
#
# Indices 1 2 3 4 5 6 
#
# 1 0.007207 -0.004632 -0.000285 0.000000 -0.000765 0.000000
# 2 -0.004632 0.022133 -0.007321 0.000000 -0.001820 0.000000
# 3 -0.000285 -0.007321 0.032399 0.000000 0.000613 0.000000
# 4 0.000000 0.000000 0.000000 0.065452 0.000000 -0.013138
# 5 -0.000765 -0.001820 0.000613 0.000000 0.039651 0.000000
# 6 0.000000 0.000000 0.000000 -0.013138 0.000000 0.036817
#
#
# Mechanical properties :
#
#
# Convention : Reuss Voigt Hill
#
# Bulk Modulus (GPa) = 26.83749 42.05237 34.44493
# Shear Modulus (GPa) = 20.78502 27.20341 23.99421
#
# Velocity S-wave (km/s) = 3.20083 3.66184 3.43907
# Velocity P-wave (km/s) = 5.18547 6.21346 5.72260
#
# Compressibility (1/GPa) = 0.03726131
#
# Stress axis : x y z
#
# Youngs Moduli (GPa) = 138.74565 45.18059 30.86562
#
# Poissons Ratio (x) = 0.20928 0.00881
# Poissons Ratio (y) = 0.64269 0.22598
# Poissons Ratio (z) = 0.03961 0.33078
#
# Static dielectric constant tensor:
#      x y z
#    x 1.779550 0.000000 0.014440 
#    y 0.000000 1.721460 0.000000 
#    z 0.014440 0.000000 1.747120 
# 
# From -- ./inp_files/367620.got.cif
#   From: 2010.05.17/outbox.cif.g08.bks.cpg/sg12_184_cif.got.tgz:367620.got - 2010.06.03 13:09:07.
