data_PCOD9186154
_publ_section_title
;
Structure prediction by ZEFSAII (Michael W. Deem and Ramdas Pophale) SiO2 
 PCOD9186154
Probable space group: C 2/M
;
_chemical_formula_sum "Si O2"
_cell_formula_units_Z 48
_cell_length_a 10.520631
_cell_length_b 14.151747
_cell_length_c 23.139445
_cell_angle_alpha 90.000000
_cell_angle_beta 42.852305
_cell_angle_gamma 90.000000
_cell_volume 2343.065766
_symmetry_space_group_name_H-M "C 2/M"
_symmetry_group_IT_number 12
_symmetry_cell_setting 'monoclinic'
loop_
_space_group_symop_operation_xyz
x,y,z
-x,y,-z
-x,-y,-z
x,-y,z
1/2+x,1/2+y,z
1/2-x,1/2+y,-z
1/2-x,1/2-y,-z
1/2+x,1/2-y,z
loop_
_atom_site_type_symbol
_atom_site_label
_atom_site_fract_x
_atom_site_fract_y
_atom_site_fract_z
Si Si1 0.700843 0.358473 0.007370
Si Si2 0.217910 0.239530 0.442559
Si Si3 0.784366 0.822529 0.124634
Si Si4 0.830635 0.890285 0.311899
Si Si5 0.748087 0.396543 0.119928
Si Si6 0.460279 0.888277 0.691557
O O1 0.477407 0.370238 0.079879
O O2 0.768692 0.404159 0.043769
O O3 0.750000 0.250000 0.000000
O O4 0.768179 0.371117 0.919107
O O5 0.250000 0.250000 0.500000
O O6 0.311955 0.324030 0.373878
O O7 0.330134 0.146037 0.387212
O O8 0.000000 0.236969 0.500000
O O9 0.825788 0.708926 0.107677
O O10 0.625578 0.839280 0.223763
O O11 0.670544 0.861310 0.319402
O O12 0.031368 0.886503 0.212747
O O13 0.799091 0.000000 0.338287
O O14 0.812140 0.500000 0.122580
O O15 0.445791 0.000000 0.702998
#
# Coordination Sequence:
#
# PCOD9186154 Si02
#       6
#     8   8   8   8   8   8
#     4   9  19  33  53  84 121 163 201 249 299 356
#     4  12  25  43  68  95 127 164 204 267 328 380
#     4  10  19  35  58  85 123 162 205 252 305 358
#     4  10  21  39  65  94 122 162 210 254 307 384
#     4  10  19  34  59  88 119 158 205 250 300 365
#     4  11  23  40  64  92 125 166 211 259 314 380
#
# _framework density 20.485980999999999
#
# number of rings (size 3 to 8) (size 9 to 14) (size 15 to 20)
#    0.000    1.667    5.000    0.000    0.000    2.000 
#    0.000    8.333    0.000   10.000    0.000    0.000 
#    0.000    0.000    0.000    0.000    0.000    0.000 
#
# Total GULP energy -133824.866300 kJ/mol
# GULP energy per Si atom -5576.036096 kJ/mol
# Density = 2.043935 g / cm^3
# Si number density = 20.485981 Si / 1000 Ang^3
#
#
#
# Elastic Constant Matrix: (Units=GPa)
#
#
# Indices 1 2 3 4 5 6 
#
# 1 58.4436 9.3267 40.8290 0.0000 6.4305 0.0001
# 2 9.3267 78.3405 35.2567 0.0000 10.4609 0.0001
# 3 40.8290 35.2567 119.8238 -0.0001 12.0340 0.0001
# 4 0.0000 0.0000 -0.0001 3.8374 0.0000 6.9498
# 5 6.4305 10.4609 12.0340 0.0000 32.6973 -0.0001
# 6 0.0001 0.0001 0.0001 6.9498 -0.0001 17.0733
#
#
#
# Elastic Compliance Matrix: (Units=1/GPa)
#
#
# Indices 1 2 3 4 5 6 
#
# 1 0.022622 0.001089 -0.007836 0.000000 -0.001913 0.000000
# 2 0.001089 0.015102 -0.004473 0.000001 -0.003399 0.000000
# 3 -0.007836 -0.004473 0.012495 0.000001 -0.001627 0.000000
# 4 0.000000 0.000001 0.000001 0.991566 -0.000002 -0.403622
# 5 -0.001913 -0.003399 -0.001627 -0.000002 0.032646 0.000001
# 6 0.000000 0.000000 0.000000 -0.403622 0.000001 0.222867
#
#
# Mechanical properties :
#
#
# Convention : Reuss Voigt Hill
#
# Bulk Modulus (GPa) = 35.99981 47.49253 41.74617
# Shear Modulus (GPa) = 3.76223 22.13465 12.94844
#
# Velocity S-wave (km/s) = 1.35664 3.29063 2.51681
# Velocity P-wave (km/s) = 4.47940 6.13766 5.37289
#
# Compressibility (1/GPa) = 0.02777792
#
# Stress axis : x y z
#
# Youngs Moduli (GPa) = 44.20505 66.21526 80.02960
#
# Poissons Ratio (x) = -0.07211 0.62715
# Poissons Ratio (y) = -0.04814 0.35800
# Poissons Ratio (z) = 0.34641 0.29620
#
# Static dielectric constant tensor:
#      x y z
#    x 1.757290 0.000000 0.002030 
#    y 0.000000 1.759400 0.000000 
#    z 0.002030 0.000000 1.727920 
# 
# From -- ./inp_files/204274.got.cif
#   From: 2010.05.17/outbox.cif.g08.bks.cpg/sg12_103_cif.got.tgz:204274.got - 2010.06.03 13:09:07.
