data_PCOD9186692
_publ_section_title
;
Structure prediction by ZEFSAII (Michael W. Deem and Ramdas Pophale) SiO2 
 PCOD9186692
Probable space group: C 2/M
;
_chemical_formula_sum "Si O2"
_cell_formula_units_Z 48
_cell_length_a 23.870873
_cell_length_b 19.346919
_cell_length_c 8.206365
_cell_angle_alpha 90.000000
_cell_angle_beta 36.936739
_cell_angle_gamma 90.000000
_cell_volume 2277.492246
_symmetry_space_group_name_H-M "C 2/M"
_symmetry_group_IT_number 12
_symmetry_cell_setting 'monoclinic'
loop_
_space_group_symop_operation_xyz
x,y,z
-x,y,-z
-x,-y,-z
x,-y,z
1/2+x,1/2+y,z
1/2-x,1/2+y,-z
1/2-x,1/2-y,-z
1/2+x,1/2-y,z
loop_
_atom_site_type_symbol
_atom_site_label
_atom_site_fract_x
_atom_site_fract_y
_atom_site_fract_z
Si Si1 0.705180 0.858967 0.063642
Si Si2 0.134392 0.417520 0.775059
Si Si3 0.780365 0.779154 0.179094
Si Si4 0.104056 0.215228 0.770310
Si Si5 0.681784 0.579812 0.482310
Si Si6 0.958054 0.582399 0.361630
O O1 0.762912 0.840828 0.093068
O O2 0.604224 0.885071 0.353767
O O3 0.697103 0.788359 0.980925
O O4 0.763237 0.911373 0.815861
O O5 0.133820 0.500000 0.801448
O O6 0.239254 0.397159 0.569263
O O7 0.097395 0.407655 0.679994
O O8 0.060519 0.389478 0.078450
O O9 0.859787 0.789606 0.128732
O O10 0.682114 0.760817 0.496507
O O11 0.105764 0.139547 0.680314
O O12 0.000000 0.244016 0.000000
O O13 0.653983 0.500000 0.570755
O O14 0.963840 0.500000 0.378398
#
# Coordination Sequence:
#
# PCOD9186692 Si02
#       6
#     8   8   8   8   8   8
#     4  10  19  35  55  81 120 151 181 235 285 342
#     4   8  16  30  47  75 115 151 184 224 265 333
#     4   9  21  41  57  82 114 148 193 233 285 331
#     4  10  21  42  65  81 109 148 195 247 274 327
#     4  10  20  35  57  84 115 148 185 233 290 339
#     4   9  16  29  50  79 114 151 190 228 280 338
#
# _framework density 21.075814000000001
#
# number of rings (size 3 to 8) (size 9 to 14) (size 15 to 20)
#    0.000    2.667    0.000    2.500    0.000    1.000 
#   15.000   10.000    0.000    1.000    0.000    0.000 
#    0.000    0.000    0.000    0.000    0.000    0.000 
#
# Total GULP energy -134074.077179 kJ/mol
# GULP energy per Si atom -5586.419882 kJ/mol
# Density = 2.102784 g / cm^3
# Si number density = 21.075814 Si / 1000 Ang^3
#
#
#
# Elastic Constant Matrix: (Units=GPa)
#
#
# Indices 1 2 3 4 5 6 
#
# 1 84.0970 2.4499 20.7403 0.0000 6.4246 0.0000
# 2 2.4499 68.6567 6.4403 0.0000 -3.0811 0.0000
# 3 20.7403 6.4403 78.2410 0.0000 -1.6660 0.0000
# 4 0.0000 0.0000 0.0000 23.2359 0.0000 3.0480
# 5 6.4246 -3.0811 -1.6660 0.0000 28.2883 0.0000
# 6 0.0000 0.0000 0.0000 3.0480 0.0000 21.0723
#
#
#
# Elastic Compliance Matrix: (Units=1/GPa)
#
#
# Indices 1 2 3 4 5 6 
#
# 1 0.013004 -0.000280 -0.003492 0.000000 -0.003190 0.000000
# 2 -0.000280 0.014751 -0.001106 0.000000 0.001605 0.000000
# 3 -0.003492 -0.001106 0.013829 0.000000 0.001487 0.000000
# 4 0.000000 0.000000 0.000000 0.043869 0.000000 -0.006345
# 5 -0.003190 0.001605 0.001487 0.000000 0.036337 0.000000
# 6 0.000000 0.000000 0.000000 -0.006345 0.000000 0.048373
#
#
# Mechanical properties :
#
#
# Convention : Reuss Voigt Hill
#
# Bulk Modulus (GPa) = 31.41759 32.25064 31.83411
# Shear Modulus (GPa) = 26.24272 27.94359 27.09316
#
# Velocity S-wave (km/s) = 3.53251 3.64519 3.58929
# Velocity P-wave (km/s) = 5.61938 5.74908 5.68460
#
# Compressibility (1/GPa) = 0.03182931
#
# Stress axis : x y z
#
# Youngs Moduli (GPa) = 76.89905 67.79220 72.30975
#
# Poissons Ratio (x) = 0.01895 0.25251
# Poissons Ratio (y) = 0.02150 0.07997
# Poissons Ratio (z) = 0.26853 0.07497
#
# Static dielectric constant tensor:
#      x y z
#    x 1.784420 0.000000 0.006310 
#    y 0.000000 1.781020 0.000000 
#    z 0.006310 0.000000 1.759830 
# 
# From -- ./inp_files/106510.got.cif
#   From: 2010.05.17/outbox.cif.g08.bks.cpg/sg12_54_cif.got.tgz:106510.got - 2010.06.03 13:09:07.
