data_PCOD9186179
_publ_section_title
;
Structure prediction by ZEFSAII (Michael W. Deem and Ramdas Pophale) SiO2 
 PCOD9186179
Probable space group: C 2/M
;
_chemical_formula_sum "Si O2"
_cell_formula_units_Z 64
_cell_length_a 28.718609
_cell_length_b 9.301498
_cell_length_c 15.278181
_cell_angle_alpha 90.000000
_cell_angle_beta 50.285341
_cell_angle_gamma 90.000000
_cell_volume 3139.406892
_symmetry_space_group_name_H-M "C 2/M"
_symmetry_group_IT_number 12
_symmetry_cell_setting 'monoclinic'
loop_
_space_group_symop_operation_xyz
x,y,z
-x,y,-z
-x,-y,-z
x,-y,z
1/2+x,1/2+y,z
1/2-x,1/2+y,-z
1/2-x,1/2-y,-z
1/2+x,1/2-y,z
loop_
_atom_site_type_symbol
_atom_site_label
_atom_site_fract_x
_atom_site_fract_y
_atom_site_fract_z
Si Si1 0.852036 0.835300 0.141949
Si Si2 0.020988 0.265044 0.068326
Si Si3 0.146910 0.828235 0.481457
Si Si4 0.433497 0.162052 0.801613
Si Si5 0.739298 0.328905 0.226998
Si Si6 0.466349 0.169893 0.448283
Si Si7 0.888448 0.171011 0.284773
Si Si8 0.694520 0.174488 0.115329
O O1 0.807111 0.733652 0.142548
O O2 0.854280 0.777327 0.238858
O O3 0.830101 0.000000 0.164634
O O4 0.922113 0.833975 0.027246
O O5 0.049782 0.345007 0.116733
O O6 0.959482 0.199791 0.182201
O O7 0.000000 0.332658 0.000000
O O8 0.210794 0.803508 0.357409
O O9 0.095412 0.755815 0.484678
O O10 0.136615 0.772719 0.592898
O O11 0.137556 0.000000 0.493823
O O12 0.488436 0.229180 0.681068
O O13 0.367764 0.221462 0.857289
O O14 0.430625 0.000000 0.769483
O O15 0.738316 0.500000 0.209408
O O16 0.698970 0.239272 0.207151
O O17 0.500000 0.184413 0.500000
O O18 0.453526 0.000000 0.449242
O O19 0.880426 0.000000 0.294674
O O20 0.700080 0.000000 0.107518
O O21 0.750000 0.250000 0.000000
#
# Coordination Sequence:
#
# PCOD9186179 Si02
#       8
#     8   8   8   8   8   8   8   8
#     4  10  21  37  61  89 117 156 208 253 301 365
#     4  10  19  34  59  89 121 155 193 246 304 365
#     4  10  21  38  60  84 117 158 199 249 303 356
#     4  10  21  36  55  84 119 153 192 240 298 361
#     4  11  24  41  59  86 123 160 202 250 301 361
#     4  10  20  36  58  83 113 151 195 243 297 356
#     4   9  18  36  59  86 119 154 197 253 308 358
#     4  11  23  41  64  87 119 161 204 249 299 353
#
# _framework density 20.386018
#
# number of rings (size 3 to 8) (size 9 to 14) (size 15 to 20)
#    0.000    1.875    1.250    2.625    0.000    6.000 
#    0.000    5.625    0.000    0.000    0.000    0.000 
#    0.000    0.000    0.000    0.000    0.000    0.000 
#
# Total GULP energy -178317.305345 kJ/mol
# GULP energy per Si atom -5572.415792 kJ/mol
# Density = 2.033962 g / cm^3
# Si number density = 20.386018 Si / 1000 Ang^3
#
#
#
# Elastic Constant Matrix: (Units=GPa)
#
#
# Indices 1 2 3 4 5 6 
#
# 1 106.5121 23.9022 26.4638 0.0000 -0.7668 0.0000
# 2 23.9022 45.0478 21.1013 0.0000 -0.7403 0.0001
# 3 26.4638 21.1013 104.2259 0.0000 7.9976 0.0000
# 4 0.0000 0.0000 0.0000 17.5021 0.0000 6.1763
# 5 -0.7668 -0.7403 7.9976 0.0000 33.8567 0.0000
# 6 0.0000 0.0001 0.0000 6.1763 0.0000 11.8204
#
#
#
# Elastic Compliance Matrix: (Units=1/GPa)
#
#
# Indices 1 2 3 4 5 6 
#
# 1 0.010957 -0.004950 -0.001824 0.000000 0.000571 0.000000
# 2 -0.004950 0.026862 -0.004296 0.000000 0.001490 0.000000
# 3 -0.001824 -0.004296 0.011140 0.000000 -0.002767 0.000000
# 4 0.000000 0.000000 0.000000 0.070053 0.000000 -0.036604
# 5 0.000571 0.001490 -0.002767 0.000000 0.030235 0.000000
# 6 0.000000 0.000000 0.000000 -0.036604 0.000000 0.103726
#
#
# Mechanical properties :
#
#
# Convention : Reuss Voigt Hill
#
# Bulk Modulus (GPa) = 37.28675 44.30226 40.79451
# Shear Modulus (GPa) = 17.60247 24.92373 21.26310
#
# Velocity S-wave (km/s) = 2.94165 3.50035 3.23309
# Velocity P-wave (km/s) = 5.46515 6.17377 5.83023
#
# Compressibility (1/GPa) = 0.02681918
#
# Stress axis : x y z
#
# Youngs Moduli (GPa) = 91.26906 37.22752 89.76980
#
# Poissons Ratio (x) = 0.18427 0.16370
# Poissons Ratio (y) = 0.45178 0.38564
# Poissons Ratio (z) = 0.16644 0.15993
#
# Static dielectric constant tensor:
#      x y z
#    x 1.727370 0.000000 0.023440 
#    y 0.000000 1.699430 0.000000 
#    z 0.023440 0.000000 1.792830 
# 
# From -- ./inp_files/249810.got.cif
#   From: 2010.05.17/outbox.cif.g08.bks.cpg/sg12_125_cif.got.tgz:249810.got - 2010.06.03 13:09:07.
