data_PCOD9186811
_publ_section_title
;
Structure prediction by ZEFSAII (Michael W. Deem and Ramdas Pophale) SiO2 
 PCOD9186811
Probable space group: C 2/M
;
_chemical_formula_sum "Si O2"
_cell_formula_units_Z 40
_cell_length_a 13.525309
_cell_length_b 20.154633
_cell_length_c 12.843584
_cell_angle_alpha 90.000000
_cell_angle_beta 143.788473
_cell_angle_gamma 90.000000
_cell_volume 2068.355979
_symmetry_space_group_name_H-M "C 2/M"
_symmetry_group_IT_number 12
_symmetry_cell_setting 'monoclinic'
loop_
_space_group_symop_operation_xyz
x,y,z
-x,y,-z
-x,-y,-z
x,-y,z
1/2+x,1/2+y,z
1/2-x,1/2+y,-z
1/2-x,1/2-y,-z
1/2+x,1/2-y,z
loop_
_atom_site_type_symbol
_atom_site_label
_atom_site_fract_x
_atom_site_fract_y
_atom_site_fract_z
Si Si1 0.696695 0.079194 0.178183
Si Si2 0.920681 0.077613 0.168710
Si Si3 0.627533 0.301322 0.015297
Si Si4 0.007531 0.727351 0.705639
Si Si5 0.290256 0.646783 0.471409
O O1 0.793247 0.096308 0.154128
O O2 0.765698 0.117942 0.335956
O O3 0.719499 0.000000 0.214237
O O4 0.500000 0.092681 0.000000
O O5 0.883583 0.124474 0.040043
O O6 0.102998 0.095857 0.368592
O O7 0.904185 0.000000 0.133063
O O8 0.566380 0.254711 0.868525
O O9 0.500000 0.291782 0.000000
O O10 0.819914 0.286855 0.206606
O O11 0.885736 0.665685 0.624562
O O12 0.897931 0.785371 0.560892
#
# Coordination Sequence:
#
# PCOD9186811 Si02
#       5
#     8   8   8   8   8
#     4  10  20  33  54  83 111 143 182 224 272 322
#     4  10  21  36  54  80 111 144 184 224 267 320
#     4  10  21  38  58  79 107 142 183 225 266 319
#     4   9  21  37  55  83 110 141 180 221 270 323
#     4  10  19  35  56  80 114 145 174 220 276 324
#
# _framework density 19.339032
#
# number of rings (size 3 to 8) (size 9 to 14) (size 15 to 20)
#    0.000    2.200    0.000    2.400    0.000    9.200 
#    0.000    9.000    0.000    1.200    0.000    0.000 
#    0.000    0.000    0.000    0.000    0.000    0.000 
#
# Total GULP energy -111799.697935 kJ/mol
# GULP energy per Si atom -5589.984897 kJ/mol
# Density = 1.929502 g / cm^3
# Si number density = 19.339032 Si / 1000 Ang^3
#
#
#
# Elastic Constant Matrix: (Units=GPa)
#
#
# Indices 1 2 3 4 5 6 
#
# 1 119.1223 24.9357 42.3572 0.0000 32.0204 0.0000
# 2 24.9357 30.4535 17.0534 0.0000 7.7609 0.0000
# 3 42.3572 17.0534 73.0136 0.0000 20.8185 0.0000
# 4 0.0000 0.0000 0.0000 12.5145 0.0000 -1.8839
# 5 32.0204 7.7609 20.8185 0.0000 31.9721 0.0000
# 6 0.0000 0.0000 0.0000 -1.8839 0.0000 27.9201
#
#
#
# Elastic Compliance Matrix: (Units=1/GPa)
#
#
# Indices 1 2 3 4 5 6 
#
# 1 0.013701 -0.006719 -0.003600 0.000000 -0.009747 0.000000
# 2 -0.006719 0.041539 -0.005953 0.000000 0.000522 0.000000
# 3 -0.003600 -0.005953 0.019322 0.000000 -0.007531 0.000000
# 4 0.000000 0.000000 0.000000 0.080727 0.000000 0.005447
# 5 -0.009747 0.000522 -0.007531 0.000000 0.045816 0.000000
# 6 0.000000 0.000000 0.000000 0.005447 0.000000 0.036184
#
#
# Mechanical properties :
#
#
# Convention : Reuss Voigt Hill
#
# Bulk Modulus (GPa) = 23.79904 43.47580 33.63742
# Shear Modulus (GPa) = 17.61553 23.69755 20.65654
#
# Velocity S-wave (km/s) = 3.02135 3.50433 3.27177
# Velocity P-wave (km/s) = 4.95019 6.23726 5.63062
#
# Compressibility (1/GPa) = 0.04201850
#
# Stress axis : x y z
#
# Youngs Moduli (GPa) = 72.98588 24.07372 51.75346
#
# Poissons Ratio (x) = 0.16175 0.18631
# Poissons Ratio (y) = 0.49039 0.30810
# Poissons Ratio (z) = 0.26275 0.14332
#
# Static dielectric constant tensor:
#      x y z
#    x 1.661180 0.000000 0.025320 
#    y 0.000000 1.681930 0.000000 
#    z 0.025320 0.000000 1.671600 
# 
# From -- ./inp_files/48494.got.cif
#   From: 2010.05.17/outbox.cif.g08.bks.cpg/sg12_25_cif.got.tgz:48494.got - 2010.06.03 13:09:07.
