data_PCOD9186361
_publ_section_title
;
Structure prediction by ZEFSAII (Michael W. Deem and Ramdas Pophale) SiO2 
 PCOD9186361
Probable space group: C 2/M
;
_chemical_formula_sum "Si O2"
_cell_formula_units_Z 56
_cell_length_a 22.401343
_cell_length_b 14.778683
_cell_length_c 9.905774
_cell_angle_alpha 90.000000
_cell_angle_beta 114.587030
_cell_angle_gamma 90.000000
_cell_volume 2982.084027
_symmetry_space_group_name_H-M "C 2/M"
_symmetry_group_IT_number 12
_symmetry_cell_setting 'monoclinic'
loop_
_space_group_symop_operation_xyz
x,y,z
-x,y,-z
-x,-y,-z
x,-y,z
1/2+x,1/2+y,z
1/2-x,1/2+y,-z
1/2-x,1/2-y,-z
1/2+x,1/2-y,z
loop_
_atom_site_type_symbol
_atom_site_label
_atom_site_fract_x
_atom_site_fract_y
_atom_site_fract_z
Si Si1 0.214971 0.102638 0.970460
Si Si2 0.187133 0.192770 0.225752
Si Si3 0.632044 0.896552 0.820214
Si Si4 0.018824 0.098207 0.858561
Si Si5 0.433076 0.216251 0.020809
Si Si6 0.328871 0.266873 0.309288
Si Si7 0.378838 0.396396 0.582554
O O1 0.187939 0.174972 0.839728
O O2 0.197965 0.000000 0.918188
O O3 0.192419 0.127341 0.100437
O O4 0.294113 0.109442 0.049589
O O5 0.258018 0.239321 0.304434
O O6 0.166837 0.136800 0.337547
O O7 0.128471 0.262817 0.135357
O O8 0.583726 0.863099 0.891945
O O9 0.633679 0.823970 0.700866
O O10 0.620365 0.000000 0.768113
O O11 0.952701 0.105621 0.710029
O O12 0.058085 0.190949 0.884202
O O13 0.049876 0.000000 0.856977
O O14 0.000000 0.095804 0.000000
O O15 0.500000 0.202100 0.000000
O O16 0.368414 0.328846 0.449487
O O17 0.363506 0.500000 0.530792
#
# Coordination Sequence:
#
# PCOD9186361 Si02
#       7
#     8   8   8   8   8   8   8
#     4  10  19  34  61  90 119 155 199 246 302 366
#     4  11  19  36  58  90 119 161 198 240 292 364
#     4  10  21  39  61  85 115 156 211 255 290 348
#     4   9  18  33  55  84 116 150 190 231 284 359
#     4  11  19  35  63  87 116 155 203 251 291 336
#     4  11  21  38  58  89 126 156 196 248 314 356
#     4  11  22  36  58  93 129 155 188 244 311 370
#
# _framework density 18.778814000000001
#
# number of rings (size 3 to 8) (size 9 to 14) (size 15 to 20)
#    0.000    1.571    5.714    2.143    0.000    1.429 
#    0.000    0.714    0.000    4.286    0.000    0.000 
#    0.000    0.000    0.000    0.000    0.000    0.000 
#
# Total GULP energy -156318.672422 kJ/mol
# GULP energy per Si atom -5582.809729 kJ/mol
# Density = 1.873607 g / cm^3
# Si number density = 18.778814 Si / 1000 Ang^3
#
#
#
# Elastic Constant Matrix: (Units=GPa)
#
#
# Indices 1 2 3 4 5 6 
#
# 1 87.2934 29.1627 17.0064 0.0000 -3.6984 0.0000
# 2 29.1627 141.6561 61.5458 0.0000 -7.8599 0.0000
# 3 17.0064 61.5458 71.8915 0.0000 -1.5293 0.0000
# 4 0.0000 0.0000 0.0000 72.3767 0.0000 -1.0529
# 5 -3.6984 -7.8599 -1.5293 0.0000 17.0262 0.0000
# 6 0.0000 0.0000 0.0000 -1.0529 0.0000 12.8127
#
#
#
# Elastic Compliance Matrix: (Units=1/GPa)
#
#
# Indices 1 2 3 4 5 6 
#
# 1 0.012413 -0.001912 -0.001263 0.000000 0.001700 0.000000
# 2 -0.001912 0.011863 -0.009614 0.000000 0.004197 0.000000
# 3 -0.001263 -0.009614 0.022382 0.000000 -0.002702 0.000000
# 4 0.000000 0.000000 0.000000 0.013833 0.000000 0.001137
# 5 0.001700 0.004197 -0.002702 0.000000 0.060797 0.000000
# 6 0.000000 0.000000 0.000000 0.001137 0.000000 0.078141
#
#
# Mechanical properties :
#
#
# Convention : Reuss Voigt Hill
#
# Bulk Modulus (GPa) = 47.44203 57.36343 52.40273
# Shear Modulus (GPa) = 21.54861 33.31820 27.43340
#
# Velocity S-wave (km/s) = 3.39115 4.21675 3.82628
# Velocity P-wave (km/s) = 6.37586 7.37029 6.89104
#
# Compressibility (1/GPa) = 0.02107836
#
# Stress axis : x y z
#
# Youngs Moduli (GPa) = 80.56359 84.29536 44.67921
#
# Poissons Ratio (x) = 0.16120 0.05643
# Poissons Ratio (y) = 0.15406 0.42956
# Poissons Ratio (z) = 0.10175 0.81043
#
# Static dielectric constant tensor:
#      x y z
#    x 1.682410 0.000000 0.014760 
#    y 0.000000 1.666530 0.000000 
#    z 0.014760 0.000000 1.628070 
# 
# From -- ./inp_files/96299.got.cif
#   From: 2010.05.17/outbox.cif.g08.bks.cpg/sg12_49_cif.got.tgz:96299.got - 2010.06.03 13:09:07.
