data_PCOD9186776
_publ_section_title
;
Structure prediction by ZEFSAII (Michael W. Deem and Ramdas Pophale) SiO2 
 PCOD9186776
Probable space group: C 2/M
;
_chemical_formula_sum "Si O2"
_cell_formula_units_Z 48
_cell_length_a 29.064060
_cell_length_b 7.541008
_cell_length_c 10.314202
_cell_angle_alpha 90.000000
_cell_angle_beta 90.651950
_cell_angle_gamma 90.000000
_cell_volume 2260.441125
_symmetry_space_group_name_H-M "C 2/M"
_symmetry_group_IT_number 12
_symmetry_cell_setting 'monoclinic'
loop_
_space_group_symop_operation_xyz
x,y,z
-x,y,-z
-x,-y,-z
x,-y,z
1/2+x,1/2+y,z
1/2-x,1/2+y,-z
1/2-x,1/2-y,-z
1/2+x,1/2-y,z
loop_
_atom_site_type_symbol
_atom_site_label
_atom_site_fract_x
_atom_site_fract_y
_atom_site_fract_z
Si Si1 0.202298 0.714176 0.849918
Si Si2 0.609282 0.795781 0.291407
Si Si3 0.049201 0.206455 0.048287
Si Si4 0.448086 0.217579 0.468824
Si Si5 0.303482 0.791323 0.853734
Si Si6 0.602551 0.214632 0.790699
O O1 0.251778 0.772875 0.799482
O O2 0.155753 0.769007 0.776606
O O3 0.296441 0.000000 0.147855
O O4 0.197679 0.780228 0.999020
O O5 0.571930 0.793171 0.174488
O O6 0.585960 0.719322 0.418749
O O7 0.655947 0.714963 0.233472
O O8 0.620078 0.000000 0.324991
O O9 0.042564 0.000000 0.080859
O O10 0.083361 0.222903 0.927840
O O11 0.000000 0.279984 0.000000
O O12 0.500000 0.274205 0.500000
O O13 0.429451 0.273618 0.328302
O O14 0.448284 0.000000 0.470202
O O15 0.313998 0.000000 0.868603
O O16 0.601585 0.000000 0.794218
#
# Coordination Sequence:
#
# PCOD9186776 Si02
#       6
#     8   8   8   8   8   8
#     4   9  17  30  49  75 104 135 170 211 262 311
#     4  10  19  35  56  79 105 136 178 220 260 310
#     4  11  23  35  50  77 108 137 174 219 266 313
#     4   9  18  32  54  81 105 135 175 219 266 309
#     4   9  17  30  49  75 104 135 170 211 262 311
#     4  10  19  35  56  79 105 136 178 220 260 310
#
# _framework density 21.234791999999999
#
# number of rings (size 3 to 8) (size 9 to 14) (size 15 to 20)
#    0.000    2.333    1.667    1.500    0.000    4.000 
#    0.000    1.667    0.000    3.000    0.000    0.000 
#    0.000    0.000    0.000    0.000    0.000    0.000 
#
# Total GULP energy -133987.792184 kJ/mol
# GULP energy per Si atom -5582.824674 kJ/mol
# Density = 2.118646 g / cm^3
# Si number density = 21.234792 Si / 1000 Ang^3
#
#
#
# Elastic Constant Matrix: (Units=GPa)
#
#
# Indices 1 2 3 4 5 6 
#
# 1 71.2238 -7.3888 -28.8204 0.0000 0.9625 0.0000
# 2 -7.3888 51.3271 -8.2036 0.0000 -3.2026 0.0000
# 3 -28.8204 -8.2036 38.9815 0.0000 -0.2737 0.0000
# 4 0.0000 0.0000 0.0000 5.0343 0.0000 -1.2076
# 5 0.9625 -3.2026 -0.2737 0.0000 35.5843 0.0000
# 6 0.0000 0.0000 0.0000 -1.2076 0.0000 14.1824
#
#
#
# Elastic Compliance Matrix: (Units=1/GPa)
#
#
# Indices 1 2 3 4 5 6 
#
# 1 0.021614 0.005868 0.017215 0.000000 0.000076 0.000000
# 2 0.005868 0.021876 0.008955 0.000000 0.001879 0.000000
# 3 0.017215 0.008955 0.040270 0.000000 0.000650 0.000000
# 4 0.000000 0.000000 0.000000 0.202780 0.000000 0.017266
# 5 0.000076 0.001879 0.000650 0.000000 0.028274 0.000000
# 6 0.000000 0.000000 0.000000 0.017266 0.000000 0.071980
#
#
# Mechanical properties :
#
#
# Convention : Reuss Voigt Hill
#
# Bulk Modulus (GPa) = 6.76418 8.07854 7.42136
# Shear Modulus (GPa) = 13.44096 24.68987 19.06541
#
# Velocity S-wave (km/s) = 2.51862 3.41355 2.99965
# Velocity P-wave (km/s) = 3.41325 4.39876 3.93696
#
# Compressibility (1/GPa) = 0.14783748
#
# Stress axis : x y z
#
# Youngs Moduli (GPa) = 46.26604 45.71194 24.83215
#
# Poissons Ratio (x) = -0.26823 -0.42750
# Poissons Ratio (y) = -0.27148 -0.22238
# Poissons Ratio (z) = -0.79649 -0.40936
#
# Static dielectric constant tensor:
#      x y z
#    x 1.783230 0.000000 -0.010260 
#    y 0.000000 1.793420 0.000000 
#    z -0.010260 0.000000 1.722310 
# 
# From -- ./inp_files/108776.got.cif
#   From: 2010.05.17/outbox.cif.g08.bks.cpg/sg12_55_cif.got.tgz:108776.got - 2010.06.03 13:09:07.
