data_PCOD9186315
_publ_section_title
;
Structure prediction by ZEFSAII (Michael W. Deem and Ramdas Pophale) SiO2 
 PCOD9186315
Probable space group: C 2/M
;
_chemical_formula_sum "Si O2"
_cell_formula_units_Z 48
_cell_length_a 21.619067
_cell_length_b 9.366728
_cell_length_c 12.194729
_cell_angle_alpha 90.000000
_cell_angle_beta 80.906527
_cell_angle_gamma 90.000000
_cell_volume 2438.395381
_symmetry_space_group_name_H-M "C 2/M"
_symmetry_group_IT_number 12
_symmetry_cell_setting 'monoclinic'
loop_
_space_group_symop_operation_xyz
x,y,z
-x,y,-z
-x,-y,-z
x,-y,z
1/2+x,1/2+y,z
1/2-x,1/2+y,-z
1/2-x,1/2-y,-z
1/2+x,1/2-y,z
loop_
_atom_site_type_symbol
_atom_site_label
_atom_site_fract_x
_atom_site_fract_y
_atom_site_fract_z
Si Si1 0.925534 0.831466 0.517043
Si Si2 0.814462 0.669216 0.971519
Si Si3 0.484060 0.662326 0.125031
Si Si4 0.867462 0.331166 0.193027
Si Si5 0.612983 0.658095 0.220518
Si Si6 0.310873 0.827869 0.432009
O O1 0.899390 0.822165 0.648255
O O2 0.876084 0.737185 0.461739
O O3 0.000000 0.791495 0.500000
O O4 0.923169 0.000000 0.483230
O O5 0.806888 0.500000 0.972436
O O6 0.847490 0.723543 0.852507
O O7 0.750000 0.750000 0.000000
O O8 0.851102 0.708618 0.072948
O O9 0.461315 0.500000 0.114244
O O10 0.431223 0.750154 0.200789
O O11 0.546136 0.658404 0.179183
O O12 0.500000 0.722704 0.000000
O O13 0.878303 0.500000 0.193236
O O14 0.815320 0.300795 0.299426
O O15 0.641916 0.500000 0.195518
O O16 0.250000 0.750000 0.500000
O O17 0.307859 0.000000 0.450601
#
# Coordination Sequence:
#
# PCOD9186315 Si02
#       6
#     8   8   8   8   8   8
#     4  10  22  42  67  93 126 168 210 256 314 371
#     4  11  24  40  59  86 119 158 201 245 303 362
#     4  10  19  34  60  92 121 153 196 240 289 357
#     4  10  23  41  61  86 121 159 195 247 305 360
#     4  10  21  38  61  91 125 157 195 247 301 358
#     4  11  25  44  65  92 124 164 214 262 313 369
#
# _framework density 19.685077
#
# number of rings (size 3 to 8) (size 9 to 14) (size 15 to 20)
#    0.000    1.667    1.667    2.000    2.333    5.333 
#    0.000    0.000    0.000    0.000    0.000    0.000 
#    0.000    0.000    0.000    0.000    0.000    0.000 
#
# Total GULP energy -133953.644959 kJ/mol
# GULP energy per Si atom -5581.401873 kJ/mol
# Density = 1.964027 g / cm^3
# Si number density = 19.685077 Si / 1000 Ang^3
#
#
#
# Elastic Constant Matrix: (Units=GPa)
#
#
# Indices 1 2 3 4 5 6 
#
# 1 72.2493 41.3730 11.8319 0.0000 -20.8325 0.0000
# 2 41.3730 48.2172 32.8643 0.0000 -9.7638 0.0000
# 3 11.8319 32.8643 78.3734 0.0000 -14.1254 0.0000
# 4 0.0000 0.0000 0.0000 28.2445 0.0000 -5.8702
# 5 -20.8325 -9.7638 -14.1254 0.0000 32.6716 0.0000
# 6 0.0000 0.0000 0.0000 -5.8702 0.0000 31.8672
#
#
#
# Elastic Compliance Matrix: (Units=1/GPa)
#
#
# Indices 1 2 3 4 5 6 
#
# 1 0.040410 -0.040506 0.014475 0.000000 0.019920 0.000000
# 2 -0.040506 0.070061 -0.026185 0.000000 -0.016212 0.000000
# 3 0.014475 -0.026185 0.023650 0.000000 0.011630 0.000000
# 4 0.000000 0.000000 0.000000 0.036815 0.000000 0.006782
# 5 0.019920 -0.016212 0.011630 0.000000 0.043492 0.000000
# 6 0.000000 0.000000 0.000000 0.006782 0.000000 0.032629
#
#
# Mechanical properties :
#
#
# Convention : Reuss Voigt Hill
#
# Bulk Modulus (GPa) = 33.68354 41.21980 37.45167
# Shear Modulus (GPa) = 13.83563 26.07471 19.95517
#
# Velocity S-wave (km/s) = 2.65401 3.64344 3.18735
# Velocity P-wave (km/s) = 5.15170 6.21970 5.71072
#
# Compressibility (1/GPa) = 0.02968809
#
# Stress axis : x y z
#
# Youngs Moduli (GPa) = 24.74661 14.27333 42.28248
#
# Poissons Ratio (x) = 0.57816 -0.61204
# Poissons Ratio (y) = 1.00239 1.10718
# Poissons Ratio (z) = -0.35821 0.37375
#
# Static dielectric constant tensor:
#      x y z
#    x 1.752140 0.000000 -0.004520 
#    y 0.000000 1.675220 0.000000 
#    z -0.004520 0.000000 1.767420 
# 
# From -- ./inp_files/172939.got.cif
#   From: 2010.05.17/outbox.cif.g08.bks.cpg/sg12_87_cif.got.tgz:172939.got - 2010.06.03 13:09:07.
