data_PCOD9186389
_publ_section_title
;
Structure prediction by ZEFSAII (Michael W. Deem and Ramdas Pophale) SiO2 
 PCOD9186389
Probable space group: C 2/M
;
_chemical_formula_sum "Si O2"
_cell_formula_units_Z 36
_cell_length_a 9.490042
_cell_length_b 20.966483
_cell_length_c 11.768707
_cell_angle_alpha 90.000000
_cell_angle_beta 136.782908
_cell_angle_gamma 90.000000
_cell_volume 1603.480678
_symmetry_space_group_name_H-M "C 2/M"
_symmetry_group_IT_number 12
_symmetry_cell_setting 'monoclinic'
loop_
_space_group_symop_operation_xyz
x,y,z
-x,y,-z
-x,-y,-z
x,-y,z
1/2+x,1/2+y,z
1/2-x,1/2+y,-z
1/2-x,1/2-y,-z
1/2+x,1/2-y,z
loop_
_atom_site_type_symbol
_atom_site_label
_atom_site_fract_x
_atom_site_fract_y
_atom_site_fract_z
Si Si1 0.816111 0.747649 0.313450
Si Si2 0.455366 0.320061 0.200760
Si Si3 0.924606 0.400197 0.331122
Si Si4 0.000000 0.107826 0.000000
Si Si5 0.641149 0.427266 0.472070
O O1 0.615838 0.737027 0.271374
O O2 0.884804 0.675943 0.319038
O O3 0.000000 0.773963 0.500000
O O4 0.786692 0.790862 0.185404
O O5 0.412223 0.349035 0.052251
O O6 0.568947 0.375936 0.337178
O O7 0.703158 0.426868 0.165003
O O8 0.000000 0.422039 0.500000
O O9 0.116840 0.414928 0.363307
O O10 0.500000 0.421185 0.500000
O O11 0.617841 0.500000 0.416868
#
# Coordination Sequence:
#
# PCOD9186389 Si02
#       5
#     8   8   8   4   8
#     4  10  19  34  61  96 124 172 208 260 321 377
#     4  11  22  38  63  94 134 167 217 262 321 387
#     4  10  20  42  65  94 130 168 219 262 318 386
#     4  10  22  42  63 100 134 168 217 258 328 386
#     4  11  24  43  67  95 130 173 218 270 326 382
#
# _framework density 22.451160000000002
#
# number of rings (size 3 to 8) (size 9 to 14) (size 15 to 20)
#    0.000    1.556    6.667    1.333    3.111    4.000 
#    0.000    3.333    0.000    2.667    0.000    0.000 
#    0.000    0.000    0.000    0.000    0.000    0.000 
#
# Total GULP energy -100539.793638 kJ/mol
# GULP energy per Si atom -5585.544091 kJ/mol
# Density = 2.240006 g / cm^3
# Si number density = 22.451160 Si / 1000 Ang^3
#
#
#
# Elastic Constant Matrix: (Units=GPa)
#
#
# Indices 1 2 3 4 5 6 
#
# 1 128.4327 24.9535 46.9826 0.0000 0.4603 0.0000
# 2 24.9535 92.3684 19.9799 0.0000 -8.8508 0.0000
# 3 46.9826 19.9799 136.6634 0.0000 3.9221 0.0000
# 4 0.0000 0.0000 0.0000 -5.8025 0.0000 -3.0618
# 5 0.4603 -8.8508 3.9221 0.0000 37.6080 0.0000
# 6 0.0000 0.0000 0.0000 -3.0618 0.0000 8.4590
#
#
#
# Elastic Compliance Matrix: (Units=1/GPa)
#
#
# Indices 1 2 3 4 5 6 
#
# 1 0.009208 -0.001889 -0.002882 0.000000 -0.000257 0.000000
# 2 -0.001889 0.011871 -0.001171 0.000000 0.002939 0.000000
# 3 -0.002882 -0.001171 0.008512 0.000000 -0.001128 0.000000
# 4 0.000000 0.000000 0.000000 -0.144703 0.000000 -0.052377
# 5 -0.000257 0.002939 -0.001128 0.000000 0.027403 0.000000
# 6 0.000000 0.000000 0.000000 -0.052377 0.000000 0.099259
#
#
# Mechanical properties :
#
#
# Convention : Reuss Voigt Hill
#
# Bulk Modulus (GPa) = 56.47112 60.14406 58.30759
# Shear Modulus (GPa) = 170.43903 25.75614 98.09758
#
# Velocity S-wave (km/s) = 8.72240 3.39072 6.61730
# Velocity P-wave (km/s) = 11.25379 6.49433 9.18760
#
# Compressibility (1/GPa) = 0.01770817
#
# Stress axis : x y z
#
# Youngs Moduli (GPa) = 108.59606 84.23679 117.48670
#
# Poissons Ratio (x) = 0.15911 0.33862
# Poissons Ratio (y) = 0.20512 0.13753
# Poissons Ratio (z) = 0.31300 0.09860
#
# Static dielectric constant tensor:
#      x y z
#    x 1.846560 0.000000 0.011230 
#    y 0.000000 1.833190 0.000000 
#    z 0.011230 0.000000 1.874380 
# 
# From -- ./inp_files/122253.got.cif
#   From: 2010.05.17/outbox.cif.g08.bks.cpg/sg12_62_cif.got.tgz:122253.got - 2010.06.03 13:09:07.
