data_PCOD9186543
_publ_section_title
;
Structure prediction by ZEFSAII (Michael W. Deem and Ramdas Pophale) SiO2 
 PCOD9186543
Probable space group: C 2/M
;
_chemical_formula_sum "Si O2"
_cell_formula_units_Z 64
_cell_length_a 31.538983
_cell_length_b 7.516080
_cell_length_c 20.329040
_cell_angle_alpha 90.000000
_cell_angle_beta 36.537712
_cell_angle_gamma 90.000000
_cell_volume 2868.993656
_symmetry_space_group_name_H-M "C 2/M"
_symmetry_group_IT_number 12
_symmetry_cell_setting 'monoclinic'
loop_
_space_group_symop_operation_xyz
x,y,z
-x,y,-z
-x,-y,-z
x,-y,z
1/2+x,1/2+y,z
1/2-x,1/2+y,-z
1/2-x,1/2-y,-z
1/2+x,1/2-y,z
loop_
_atom_site_type_symbol
_atom_site_label
_atom_site_fract_x
_atom_site_fract_y
_atom_site_fract_z
Si Si1 0.855985 0.781778 0.018975
Si Si2 0.704193 0.798183 0.160074
Si Si3 0.601653 0.291499 0.175764
Si Si4 0.313418 0.286904 0.327374
Si Si5 0.418152 0.714772 0.587028
Si Si6 0.157933 0.787044 0.562012
Si Si7 0.048395 0.782379 0.594861
Si Si8 0.419638 0.717746 0.079937
O O1 0.774121 0.722907 0.108802
O O2 0.893218 0.724268 0.040329
O O3 0.857047 0.000000 0.020235
O O4 0.892780 0.721418 0.905153
O O5 0.671996 0.723436 0.132527
O O6 0.639735 0.790985 0.292036
O O7 0.722954 0.000000 0.120385
O O8 0.588372 0.500000 0.184290
O O9 0.533094 0.220516 0.300228
O O10 0.321849 0.500000 0.317612
O O11 0.229147 0.250466 0.431415
O O12 0.335826 0.216620 0.371629
O O13 0.362344 0.223014 0.206548
O O14 0.500000 0.760688 0.500000
O O15 0.412629 0.500000 0.600387
O O16 0.409294 0.771950 0.522793
O O17 0.089531 0.723491 0.608184
O O18 0.152536 0.000000 0.573959
O O19 0.048177 0.000000 0.592158
O O20 0.419832 0.500000 0.079171
O O21 0.500000 0.771816 0.000000
#
# Coordination Sequence:
#
# PCOD9186543 Si02
#       8
#     8   8   8   8   8   8   8   8
#     4   9  20  34  52  78 106 138 177 218 264 312
#     4  11  22  35  52  79 112 140 169 216 269 320
#     4  10  19  36  58  76 101 141 183 223 258 299
#     4   9  18  32  52  77 106 135 167 212 263 311
#     4  10  19  35  54  75 102 137 178 215 252 303
#     4   9  18  32  51  77 104 135 173 212 256 309
#     4   9  18  31  52  77 101 131 177 223 253 295
#     4   9  18  32  52  80 108 134 170 218 264 307
#
# _framework density 22.307475
#
# number of rings (size 3 to 8) (size 9 to 14) (size 15 to 20)
#    0.000    2.500    1.250    0.750    3.500    0.250 
#    0.000    1.250    0.000    1.125    0.000    0.000 
#    0.000    0.000    0.000    0.000    0.000    0.000 
#
# Total GULP energy -178564.490075 kJ/mol
# GULP energy per Si atom -5580.140315 kJ/mol
# Density = 2.225670 g / cm^3
# Si number density = 22.307475 Si / 1000 Ang^3
#
#
#
# Elastic Constant Matrix: (Units=GPa)
#
#
# Indices 1 2 3 4 5 6 
#
# 1 157.7686 0.2721 65.9653 0.0010 8.4641 -0.0113
# 2 0.2721 50.9640 -0.8068 -0.0068 3.3287 -0.0137
# 3 65.9653 -0.8068 108.2604 0.0106 18.8017 0.0120
# 4 0.0010 -0.0068 0.0106 5.2614 -0.0054 -5.7383
# 5 8.4641 3.3287 18.8017 -0.0054 27.0997 0.0073
# 6 -0.0113 -0.0137 0.0120 -5.7383 0.0073 3.0855
#
#
#
# Elastic Compliance Matrix: (Units=1/GPa)
#
#
# Indices 1 2 3 4 5 6 
#
# 1 0.008535 -0.000203 -0.005393 -0.000062 0.001101 -0.000066
# 2 -0.000203 0.019825 0.000777 -0.000117 -0.002911 -0.000127
# 3 -0.005393 0.000777 0.013932 0.000088 -0.008077 0.000112
# 4 -0.000062 -0.000117 0.000088 -0.184830 0.000029 -0.343740
# 5 0.001101 -0.002911 -0.008077 0.000029 0.042518 -0.000025
# 6 -0.000066 -0.000127 0.000112 -0.343740 -0.000025 -0.315176
#
#
# Mechanical properties :
#
#
# Convention : Reuss Voigt Hill
#
# Bulk Modulus (GPa) = 30.62477 49.76156 40.19316
# Shear Modulus (GPa) = -12.66866 23.86015 5.59574
#
# Velocity S-wave (km/s) = -2.38567 3.27403 1.58553
# Velocity P-wave (km/s) = 2.48389 6.05375 4.62696
#
# Compressibility (1/GPa) = 0.03265331
#
# Stress axis : x y z
#
# Youngs Moduli (GPa) = 117.17056 50.44101 71.77971
#
# Poissons Ratio (x) = 0.01023 0.38711
# Poissons Ratio (y) = 0.02377 -0.05577
# Poissons Ratio (z) = 0.63190 -0.03919
#
# Static dielectric constant tensor:
#      x y z
#    x 1.823750 -0.000010 0.002820 
#    y -0.000010 1.863000 0.000030 
#    z 0.002820 0.000030 1.806660 
# 
# From -- ./inp_files/295647.got.cif
#   From: 2010.05.17/outbox.cif.g08.bks.cpg/sg12_148_cif.got.tgz:295647.got - 2010.06.03 13:09:07.
