data_PCOD9186663
_publ_section_title
;
Structure prediction by ZEFSAII (Michael W. Deem and Ramdas Pophale) SiO2 
 PCOD9186663
Probable space group: C 2/M
;
_chemical_formula_sum "Si O2"
_cell_formula_units_Z 48
_cell_length_a 12.924921
_cell_length_b 15.484067
_cell_length_c 28.535414
_cell_angle_alpha 90.000000
_cell_angle_beta 151.981691
_cell_angle_gamma 90.000000
_cell_volume 2682.670380
_symmetry_space_group_name_H-M "C 2/M"
_symmetry_group_IT_number 12
_symmetry_cell_setting 'monoclinic'
loop_
_space_group_symop_operation_xyz
x,y,z
-x,y,-z
-x,-y,-z
x,-y,z
1/2+x,1/2+y,z
1/2-x,1/2+y,-z
1/2-x,1/2-y,-z
1/2+x,1/2-y,z
loop_
_atom_site_type_symbol
_atom_site_label
_atom_site_fract_x
_atom_site_fract_y
_atom_site_fract_z
Si Si1 0.875854 0.334274 0.291614
Si Si2 0.668827 0.000000 0.403109
Si Si3 0.568910 0.811944 0.950767
Si Si4 0.858484 0.256528 0.184648
Si Si5 0.929880 0.099280 0.153878
Si Si6 0.169351 0.000000 0.638093
Si Si7 0.174054 0.337999 0.240085
O O1 0.933706 0.299882 0.262956
O O2 0.631891 0.375535 0.200224
O O3 0.841159 0.244485 0.306443
O O4 0.041815 0.412734 0.368529
O O5 0.691180 0.000000 0.354950
O O6 0.914930 0.000000 0.521354
O O7 0.401387 0.753769 0.913412
O O8 0.413508 0.851781 0.847865
O O9 0.750000 0.750000 0.000000
O O10 0.703692 0.878123 0.036522
O O11 0.942074 0.160687 0.204297
O O12 0.954475 0.311700 0.180719
O O13 0.942115 0.000000 0.171089
O O14 0.222980 0.917481 0.691551
#
# Coordination Sequence:
#
# PCOD9186663 Si02
#       7
#     8   4   8   8   8   4   8
#     4  10  20  39  62  85 116 156 190 244 297 350
#     4  11  22  40  69  86 109 146 203 254 300 359
#     4  11  20  33  54  82 117 163 195 228 282 348
#     4  10  19  35  55  79 122 155 188 241 284 333
#     4  11  22  34  55  88 118 158 206 234 284 347
#     4  11  24  40  61  92 113 148 199 252 302 347
#     4  10  22  37  57  87 122 154 190 241 297 343
#
# _framework density 17.892619
#
# number of rings (size 3 to 8) (size 9 to 14) (size 15 to 20)
#    0.000    1.500    7.500    0.500    1.167    2.000 
#    4.500    0.000    0.000    3.000    0.000    9.333 
#    0.000    0.000    0.000    0.000    0.000    0.000 
#
# Total GULP energy -133626.951321 kJ/mol
# GULP energy per Si atom -5567.789638 kJ/mol
# Density = 1.785189 g / cm^3
# Si number density = 17.892619 Si / 1000 Ang^3
#
#
#
# Elastic Constant Matrix: (Units=GPa)
#
#
# Indices 1 2 3 4 5 6 
#
# 1 91.2017 28.1618 28.8727 0.0000 7.9956 0.0000
# 2 28.1618 124.4663 47.2945 -0.0002 0.7077 0.0000
# 3 28.8727 47.2945 69.3269 -0.0012 1.9156 0.0000
# 4 0.0000 -0.0002 -0.0012 18.1512 0.0001 3.2077
# 5 7.9956 0.7077 1.9156 0.0001 22.9024 0.0000
# 6 0.0000 0.0000 0.0000 3.2077 0.0000 24.4781
#
#
#
# Elastic Compliance Matrix: (Units=1/GPa)
#
#
# Indices 1 2 3 4 5 6 
#
# 1 0.013141 -0.001234 -0.004516 0.000000 -0.004172 0.000000
# 2 -0.001234 0.010963 -0.006984 0.000000 0.000676 0.000000
# 3 -0.004516 -0.006984 0.021069 0.000001 0.000030 0.000000
# 4 0.000000 0.000000 0.000001 0.056399 0.000000 -0.007391
# 5 -0.004172 0.000676 0.000030 0.000000 0.045097 0.000000
# 6 0.000000 0.000000 0.000000 -0.007391 0.000000 0.041821
#
#
# Mechanical properties :
#
#
# Convention : Reuss Voigt Hill
#
# Bulk Modulus (GPa) = 50.74629 54.85031 52.79830
# Shear Modulus (GPa) = 22.67306 25.15075 23.91190
#
# Velocity S-wave (km/s) = 3.56360 3.75327 3.65966
# Velocity P-wave (km/s) = 6.73465 7.03594 6.88694
#
# Compressibility (1/GPa) = 0.01970588
#
# Stress axis : x y z
#
# Youngs Moduli (GPa) = 76.09731 91.21278 47.46330
#
# Poissons Ratio (x) = 0.11252 0.21435
# Poissons Ratio (y) = 0.09387 0.33149
# Poissons Ratio (z) = 0.34366 0.63704
#
# Static dielectric constant tensor:
#      x y z
#    x 1.654060 0.000000 -0.005590 
#    y 0.000000 1.625300 0.000000 
#    z -0.005590 0.000000 1.603460 
# 
# From -- ./inp_files/358520.got.cif
#   From: 2010.05.17/outbox.cif.g08.bks.cpg/sg12_180_cif.got.tgz:358520.got - 2010.06.03 13:09:07.
