data_PCOD9186773
_publ_section_title
;
Structure prediction by ZEFSAII (Michael W. Deem and Ramdas Pophale) SiO2 
 PCOD9186773
Probable space group: C 2/M
;
_chemical_formula_sum "Si O2"
_cell_formula_units_Z 40
_cell_length_a 13.877223
_cell_length_b 19.510711
_cell_length_c 11.903955
_cell_angle_alpha 90.000000
_cell_angle_beta 42.026727
_cell_angle_gamma 90.000000
_cell_volume 2157.757949
_symmetry_space_group_name_H-M "C 2/M"
_symmetry_group_IT_number 12
_symmetry_cell_setting 'monoclinic'
loop_
_space_group_symop_operation_xyz
x,y,z
-x,y,-z
-x,-y,-z
x,-y,z
1/2+x,1/2+y,z
1/2-x,1/2+y,-z
1/2-x,1/2-y,-z
1/2+x,1/2-y,z
loop_
_atom_site_type_symbol
_atom_site_label
_atom_site_fract_x
_atom_site_fract_y
_atom_site_fract_z
Si Si1 0.809517 0.721712 0.285869
Si Si2 0.104811 0.582313 0.208561
Si Si3 0.648987 0.580937 0.830557
Si Si4 0.352881 0.795548 0.988323
Si Si5 0.707776 0.858329 0.487320
O O1 0.720772 0.787214 0.406311
O O2 0.763913 0.660108 0.407904
O O3 0.981396 0.731100 0.160195
O O4 0.799290 0.707659 0.162930
O O5 0.108802 0.500000 0.188434
O O6 0.219056 0.603398 0.205505
O O7 0.141067 0.627475 0.067405
O O8 0.946877 0.605747 0.385017
O O9 0.642166 0.500000 0.853197
O O10 0.678105 0.595366 0.675793
O O11 0.500000 0.613377 0.000000
O O12 0.250000 0.750000 0.000000
#
# Coordination Sequence:
#
# PCOD9186773 Si02
#       5
#     8   8   8   8   8
#     4   9  21  36  54  87 116 143 200 230 282 358
#     4  10  21  37  58  86 115 150 199 242 291 351
#     4  10  21  34  55  82 110 148 190 236 290 342
#     4  10  20  36  60  85 117 157 191 242 292 341
#     4  10  19  35  56  78 117 145 179 249 281 334
#
# _framework density 18.537759999999999
#
# number of rings (size 3 to 8) (size 9 to 14) (size 15 to 20)
#    0.000    2.200    0.000    2.400    5.600    3.200 
#    0.000   12.000    0.000    0.000    0.000    4.200 
#    0.000    0.000    0.000    0.000    0.000    0.000 
#
# Total GULP energy -111530.007743 kJ/mol
# GULP energy per Si atom -5576.500387 kJ/mol
# Density = 1.849557 g / cm^3
# Si number density = 18.537760 Si / 1000 Ang^3
#
#
#
# Elastic Constant Matrix: (Units=GPa)
#
#
# Indices 1 2 3 4 5 6 
#
# 1 102.1606 45.3417 61.2871 -0.0001 20.0491 0.0005
# 2 45.3417 79.1560 33.9636 -0.0002 -0.9295 0.0002
# 3 61.2871 33.9636 109.1191 -0.0009 24.1493 0.0004
# 4 -0.0001 -0.0002 -0.0009 33.3073 0.0004 -1.7024
# 5 20.0491 -0.9295 24.1493 0.0004 27.3125 -0.0003
# 6 0.0005 0.0002 0.0004 -1.7024 -0.0003 13.7051
#
#
#
# Elastic Compliance Matrix: (Units=1/GPa)
#
#
# Indices 1 2 3 4 5 6 
#
# 1 0.018809 -0.008279 -0.006054 0.000000 -0.008736 -0.000001
# 2 -0.008279 0.018949 -0.003401 0.000000 0.009730 0.000000
# 3 -0.006054 -0.003401 0.015747 0.000000 -0.009595 0.000000
# 4 0.000000 0.000000 0.000000 0.030215 -0.000001 0.003753
# 5 -0.008736 0.009730 -0.009595 -0.000001 0.051841 0.000002
# 6 -0.000001 0.000000 0.000000 0.003753 0.000002 0.073432
#
#
# Mechanical properties :
#
#
# Convention : Reuss Voigt Hill
#
# Bulk Modulus (GPa) = 55.44364 63.51336 59.47850
# Shear Modulus (GPa) = 19.96209 24.85452 22.40831
#
# Velocity S-wave (km/s) = 3.28508 3.66560 3.48054
# Velocity P-wave (km/s) = 6.66051 7.22852 6.95032
#
# Compressibility (1/GPa) = 0.01803633
#
# Stress axis : x y z
#
# Youngs Moduli (GPa) = 53.16481 52.77207 63.50571
#
# Poissons Ratio (x) = 0.43692 0.38446
# Poissons Ratio (y) = 0.44017 0.21600
# Poissons Ratio (z) = 0.32186 0.17949
#
# Static dielectric constant tensor:
#      x y z
#    x 1.633320 0.000000 -0.006620 
#    y 0.000000 1.670620 0.000000 
#    z -0.006620 0.000000 1.671730 
# 
# From -- ./inp_files/63169.got.cif
#   From: 2010.05.17/outbox.cif.g08.bks.cpg/sg12_32_cif.got.tgz:63169.got - 2010.06.03 13:09:07.
