data_PCOD9186494
_publ_section_title
;
Structure prediction by ZEFSAII (Michael W. Deem and Ramdas Pophale) SiO2 
 PCOD9186494
Probable space group: C 2/M
;
_chemical_formula_sum "Si O2"
_cell_formula_units_Z 64
_cell_length_a 27.291390
_cell_length_b 14.869620
_cell_length_c 14.616605
_cell_angle_alpha 90.000000
_cell_angle_beta 37.672118
_cell_angle_gamma 90.000000
_cell_volume 3625.050989
_symmetry_space_group_name_H-M "C 2/M"
_symmetry_group_IT_number 12
_symmetry_cell_setting 'monoclinic'
loop_
_space_group_symop_operation_xyz
x,y,z
-x,y,-z
-x,-y,-z
x,-y,z
1/2+x,1/2+y,z
1/2-x,1/2+y,-z
1/2-x,1/2-y,-z
1/2+x,1/2-y,z
loop_
_atom_site_type_symbol
_atom_site_label
_atom_site_fract_x
_atom_site_fract_y
_atom_site_fract_z
Si Si1 0.308425 0.098290 0.797744
Si Si2 0.066561 0.685120 0.254130
Si Si3 0.141559 0.394601 0.612373
Si Si4 0.175861 0.896125 0.330126
Si Si5 0.187696 0.832676 0.105288
Si Si6 0.173299 0.606878 0.759436
Si Si7 0.117795 0.711768 0.464709
Si Si8 0.048205 0.605139 0.085552
O O1 0.377762 0.117917 0.770125
O O2 0.323095 0.173655 0.700145
O O3 0.320348 0.000000 0.739132
O O4 0.222737 0.103643 0.974802
O O5 0.102121 0.784744 0.218841
O O6 0.073741 0.659778 0.137273
O O7 0.973070 0.678024 0.417437
O O8 0.161202 0.500000 0.560974
O O9 0.186928 0.360226 0.636159
O O10 0.147304 0.329610 0.516818
O O11 0.047482 0.393013 0.779306
O O12 0.192348 0.876183 0.198591
O O13 0.255096 0.882207 0.274650
O O14 0.117173 0.819186 0.455027
O O15 0.150291 0.000000 0.377674
O O16 0.250000 0.750000 0.000000
O O17 0.161931 0.500000 0.761948
O O18 0.093822 0.639797 0.928683
O O19 0.071310 0.500000 0.065054
#
# Coordination Sequence:
#
# PCOD9186494 Si02
#       8
#     8   8   8   8   8   8   8   8
#     4  11  21  33  54  79 106 138 171 212 266 319
#     4  10  20  33  52  74 109 142 175 211 257 314
#     4   9  18  32  49  76 111 136 162 209 267 323
#     4  11  22  36  53  72  99 138 185 223 254 299
#     4  10  19  35  53  74 104 136 174 218 251 305
#     4   9  17  30  51  75 101 135 173 213 261 311
#     4  11  22  35  51  77 109 138 175 215 263 319
#     4   9  16  27  49  79 107 135 167 205 257 318
#
# _framework density 17.654924000000001
#
# number of rings (size 3 to 8) (size 9 to 14) (size 15 to 20)
#    0.000    2.000    2.500    3.375    0.000    5.000 
#    0.000    1.875    0.000    0.000    0.000    0.000 
#    0.000    2.250    0.000    0.000    0.000    0.000 
#
# Total GULP energy -178261.430579 kJ/mol
# GULP energy per Si atom -5570.669706 kJ/mol
# Density = 1.761474 g / cm^3
# Si number density = 17.654924 Si / 1000 Ang^3
#
#
#
# Elastic Constant Matrix: (Units=GPa)
#
#
# Indices 1 2 3 4 5 6 
#
# 1 76.9083 15.0128 17.9576 0.0000 24.1282 0.0000
# 2 15.0128 73.5125 7.8439 0.0000 7.5215 0.0000
# 3 17.9576 7.8439 44.4964 0.0000 17.1215 0.0000
# 4 0.0000 0.0000 0.0000 19.8829 0.0000 2.3689
# 5 24.1282 7.5215 17.1215 0.0000 18.9786 0.0000
# 6 0.0000 0.0000 0.0000 2.3689 0.0000 19.1609
#
#
#
# Elastic Compliance Matrix: (Units=1/GPa)
#
#
# Indices 1 2 3 4 5 6 
#
# 1 0.022080 -0.001751 0.002959 0.000000 -0.030047 0.000000
# 2 -0.001751 0.014325 -0.000751 0.000000 -0.002773 0.000000
# 3 0.002959 -0.000751 0.034838 0.000000 -0.034894 0.000000
# 4 0.000000 0.000000 0.000000 0.051046 0.000000 -0.006311
# 5 -0.030047 -0.002773 -0.034894 0.000000 0.123469 0.000000
# 6 0.000000 0.000000 0.000000 -0.006311 0.000000 0.052970
#
#
# Mechanical properties :
#
#
# Convention : Reuss Voigt Hill
#
# Bulk Modulus (GPa) = 13.85865 30.72731 22.29298
# Shear Modulus (GPa) = 15.53443 21.87801 18.70622
#
# Velocity S-wave (km/s) = 2.96952 3.52405 3.25860
# Velocity P-wave (km/s) = 4.42991 5.83101 5.17807
#
# Compressibility (1/GPa) = 0.07215711
#
# Stress axis : x y z
#
# Youngs Moduli (GPa) = 45.29041 69.81001 28.70393
#
# Poissons Ratio (x) = 0.12221 -0.08494
# Poissons Ratio (y) = 0.07929 0.02157
# Poissons Ratio (z) = -0.13403 0.05246
#
# Static dielectric constant tensor:
#      x y z
#    x 1.629820 0.000000 0.009300 
#    y 0.000000 1.643340 0.000000 
#    z 0.009300 0.000000 1.626350 
# 
# From -- ./inp_files/246316.got.cif
#   From: 2010.05.17/outbox.cif.g08.bks.cpg/sg12_124_cif.got.tgz:246316.got - 2010.06.03 13:09:07.
