data_PCOD9186124
_publ_section_title
;
Structure prediction by ZEFSAII (Michael W. Deem and Ramdas Pophale) SiO2 
 PCOD9186124
Probable space group: C 2/M
;
_chemical_formula_sum "Si O2"
_cell_formula_units_Z 56
_cell_length_a 19.410811
_cell_length_b 8.541805
_cell_length_c 20.165168
_cell_angle_alpha 90.000000
_cell_angle_beta 114.099548
_cell_angle_gamma 90.000000
_cell_volume 3052.028627
_symmetry_space_group_name_H-M "C 2/M"
_symmetry_group_IT_number 12
_symmetry_cell_setting 'monoclinic'
loop_
_space_group_symop_operation_xyz
x,y,z
-x,y,-z
-x,-y,-z
x,-y,z
1/2+x,1/2+y,z
1/2-x,1/2+y,-z
1/2-x,1/2-y,-z
1/2+x,1/2-y,z
loop_
_atom_site_type_symbol
_atom_site_label
_atom_site_fract_x
_atom_site_fract_y
_atom_site_fract_z
Si Si1 0.879198 0.185954 0.263280
Si Si2 0.162305 0.321599 0.287184
Si Si3 0.212829 0.179512 0.176346
Si Si4 0.993984 0.681589 0.201418
Si Si5 0.578879 0.689667 0.568656
Si Si6 0.050192 0.810424 0.082427
Si Si7 0.771119 0.313753 0.436860
O O1 0.794309 0.240365 0.211819
O O2 0.933073 0.239296 0.224658
O O3 0.908672 0.238877 0.348568
O O4 0.879054 0.000000 0.266291
O O5 0.174875 0.500000 0.266921
O O6 0.182398 0.196512 0.239141
O O7 0.216687 0.283145 0.367626
O O8 0.074771 0.308702 0.270025
O O9 0.137943 0.243850 0.109382
O O10 0.224318 0.000000 0.161056
O O11 0.973914 0.500000 0.184981
O O12 0.012059 0.751451 0.135716
O O13 0.500000 0.724896 0.500000
O O14 0.587893 0.500000 0.570431
O O15 0.644734 0.771098 0.552697
O O16 0.052702 0.000000 0.086373
O O17 0.000000 0.763176 0.000000
O O18 0.758828 0.500000 0.427100
O O19 0.750000 0.250000 0.500000
#
# Coordination Sequence:
#
# PCOD9186124 Si02
#       7
#     8   8   8   8   8   8   8
#     4  11  22  37  59  84 118 156 194 242 291 344
#     4  10  20  37  57  81 111 146 189 237 285 337
#     4  10  19  34  59  87 114 149 189 230 282 340
#     4  10  22  37  58  87 119 151 193 240 283 340
#     4  10  23  42  60  83 115 153 196 244 297 346
#     4   9  19  38  63  90 120 152 189 233 284 345
#     4  12  25  39  58  82 112 148 191 242 292 345
#
# _framework density 18.34845
#
# number of rings (size 3 to 8) (size 9 to 14) (size 15 to 20)
#    0.000    1.714    1.429    3.000    2.000    3.429 
#    0.000    0.714    0.000    0.000    0.000    0.000 
#    0.000    0.000    0.000    0.000    0.000    0.000 
#
# Total GULP energy -156055.296412 kJ/mol
# GULP energy per Si atom -5573.403443 kJ/mol
# Density = 1.830669 g / cm^3
# Si number density = 18.348450 Si / 1000 Ang^3
#
#
#
# Elastic Constant Matrix: (Units=GPa)
#
#
# Indices 1 2 3 4 5 6 
#
# 1 142.7584 42.5745 69.2391 0.0000 7.4230 0.0000
# 2 42.5745 44.1617 19.3769 0.0000 5.5044 0.0000
# 3 69.2391 19.3769 97.3476 0.0000 24.5727 0.0000
# 4 0.0000 0.0000 0.0000 20.4468 0.0000 -0.5545
# 5 7.4230 5.5044 24.5727 0.0000 25.1689 0.0000
# 6 0.0000 0.0000 0.0000 -0.5545 0.0000 29.6418
#
#
#
# Elastic Compliance Matrix: (Units=1/GPa)
#
#
# Indices 1 2 3 4 5 6 
#
# 1 0.014895 -0.010766 -0.010532 0.000000 0.008245 0.000000
# 2 -0.010766 0.032605 0.002874 0.000000 -0.006762 0.000000
# 3 -0.010532 0.002874 0.021984 0.000000 -0.018986 0.000000
# 4 0.000000 0.000000 0.000000 0.048932 0.000000 0.000915
# 5 0.008245 -0.006762 -0.018986 0.000000 0.057315 0.000000
# 6 0.000000 0.000000 0.000000 0.000915 0.000000 0.033753
#
#
# Mechanical properties :
#
#
# Convention : Reuss Voigt Hill
#
# Bulk Modulus (GPa) = 30.64138 60.73877 45.69007
# Shear Modulus (GPa) = 19.43926 25.25664 22.34795
#
# Velocity S-wave (km/s) = 3.25845 3.71415 3.49374
# Velocity P-wave (km/s) = 5.55811 7.18108 6.42108
#
# Compressibility (1/GPa) = 0.03263560
#
# Stress axis : x y z
#
# Youngs Moduli (GPa) = 67.13540 30.67024 45.48765
#
# Poissons Ratio (x) = 0.33020 0.47910
# Poissons Ratio (y) = 0.72279 -0.13075
# Poissons Ratio (z) = 0.70710 -0.08816
#
# Static dielectric constant tensor:
#      x y z
#    x 1.635360 0.000000 0.027710 
#    y 0.000000 1.655990 0.000000 
#    z 0.027710 0.000000 1.703410 
# 
# From -- ./inp_files/275003.got.cif
#   From: 2010.05.17/outbox.cif.g08.bks.cpg/sg12_138_cif.got.tgz:275003.got - 2010.06.03 13:09:07.
