data_PCOD9186475
_publ_section_title
;
Structure prediction by ZEFSAII (Michael W. Deem and Ramdas Pophale) SiO2 
 PCOD9186475
Probable space group: C 2/M
;
_chemical_formula_sum "Si O2"
_cell_formula_units_Z 56
_cell_length_a 8.644633
_cell_length_b 24.211404
_cell_length_c 19.339361
_cell_angle_alpha 90.000000
_cell_angle_beta 126.780894
_cell_angle_gamma 90.000000
_cell_volume 3241.931253
_symmetry_space_group_name_H-M "C 2/M"
_symmetry_group_IT_number 12
_symmetry_cell_setting 'monoclinic'
loop_
_space_group_symop_operation_xyz
x,y,z
-x,y,-z
-x,-y,-z
x,-y,z
1/2+x,1/2+y,z
1/2-x,1/2+y,-z
1/2-x,1/2-y,-z
1/2+x,1/2-y,z
loop_
_atom_site_type_symbol
_atom_site_label
_atom_site_fract_x
_atom_site_fract_y
_atom_site_fract_z
Si Si1 0.648606 0.293229 0.319411
Si Si2 0.497157 0.392257 0.815422
Si Si3 0.703804 0.804251 0.090073
Si Si4 0.966013 0.772178 0.564278
Si Si5 0.307331 0.608719 0.908801
Si Si6 0.511789 0.790785 0.831128
Si Si7 0.788921 0.000000 0.143347
Si Si8 0.662789 0.000000 0.948742
O O1 0.607986 0.346120 0.260141
O O2 0.542157 0.302350 0.364137
O O3 0.564093 0.237975 0.259210
O O4 0.873510 0.276582 0.388783
O O5 0.686972 0.360760 0.894334
O O6 0.367395 0.405920 0.846734
O O7 0.583563 0.446594 0.803622
O O8 0.659897 0.797996 0.160033
O O9 0.841033 0.755599 0.101694
O O10 0.500000 0.803377 0.000000
O O11 0.750000 0.750000 0.500000
O O12 0.000000 0.802755 0.500000
O O13 0.137979 0.654132 0.859564
O O14 0.238207 0.554642 0.930756
O O15 0.500000 0.630505 0.000000
O O16 0.570974 0.000000 0.113989
O O17 0.749299 0.000000 0.049608
#
# Coordination Sequence:
#
# PCOD9186475 Si02
#       8
#     8   8   8   8   8   8   4   4
#     4  10  19  35  51  83 113 139 169 212 264 325
#     4  11  22  34  55  73 106 140 185 234 280 311
#     4  11  21  33  45  71  99 145 187 232 268 321
#     4   9  18  33  57  82 110 138 163 193 247 332
#     4  12  21  35  50  73  97 146 191 238 273 307
#     4  11  21  32  50  71 108 141 177 223 277 318
#     4  11  23  40  53  74  95 145 194 240 286 303
#     4  11  24  37  54  67 100 138 205 256 268 311
#
# _framework density 17.273654000000001
#
# number of rings (size 3 to 8) (size 9 to 14) (size 15 to 20)
#    0.000    1.286    1.429    7.500    2.000    0.000 
#    0.000    0.000    0.000    0.000    0.000    5.000 
#    0.000    4.571    0.000    1.429    0.000    0.000 
#
# Total GULP energy -156197.618523 kJ/mol
# GULP energy per Si atom -5578.486376 kJ/mol
# Density = 1.723434 g / cm^3
# Si number density = 17.273654 Si / 1000 Ang^3
#
#
#
# Elastic Constant Matrix: (Units=GPa)
#
#
# Indices 1 2 3 4 5 6 
#
# 1 103.6234 23.7343 24.8378 0.0000 -10.1719 0.0000
# 2 23.7343 80.7430 15.0639 0.0000 9.3572 0.0000
# 3 24.8378 15.0639 78.1621 0.0000 -0.8588 0.0000
# 4 0.0000 0.0000 0.0000 9.2787 0.0000 0.6064
# 5 -10.1719 9.3572 -0.8588 0.0000 36.2231 0.0000
# 6 0.0000 0.0000 0.0000 0.6064 0.0000 26.3686
#
#
#
# Elastic Compliance Matrix: (Units=1/GPa)
#
#
# Indices 1 2 3 4 5 6 
#
# 1 0.011513 -0.003293 -0.002980 0.000000 0.004013 0.000000
# 2 -0.003293 0.014216 -0.001744 0.000000 -0.004638 0.000000
# 3 -0.002980 -0.001744 0.014076 0.000000 -0.000052 0.000000
# 4 0.000000 0.000000 0.000000 0.107936 0.000000 -0.002482
# 5 0.004013 -0.004638 -0.000052 0.000000 0.029931 0.000000
# 6 0.000000 0.000000 0.000000 -0.002482 0.000000 0.037981
#
#
# Mechanical properties :
#
#
# Convention : Reuss Voigt Hill
#
# Bulk Modulus (GPa) = 42.06856 43.31117 42.68987
# Shear Modulus (GPa) = 20.86719 27.63356 24.25037
#
# Velocity S-wave (km/s) = 3.47945 4.00403 3.75092
# Velocity P-wave (km/s) = 6.36782 6.81941 6.59748
#
# Compressibility (1/GPa) = 0.02377072
#
# Stress axis : x y z
#
# Youngs Moduli (GPa) = 86.86000 70.34320 71.04108
#
# Poissons Ratio (x) = 0.23166 0.21168
# Poissons Ratio (y) = 0.28606 0.12391
# Poissons Ratio (z) = 0.25881 0.12270
#
# Static dielectric constant tensor:
#      x y z
#    x 1.627150 0.000000 -0.027920 
#    y 0.000000 1.571450 0.000000 
#    z -0.027920 0.000000 1.646110 
# 
# From -- ./inp_files/302171.got.cif
#   From: 2010.05.17/outbox.cif.g08.bks.cpg/sg12_152_cif.got.tgz:302171.got - 2010.06.03 13:09:07.
