data_PCOD9186893
_publ_section_title
;
Structure prediction by ZEFSAII (Michael W. Deem and Ramdas Pophale) SiO2 
 PCOD9186893
Probable space group: C 2/M
;
_chemical_formula_sum "Si O2"
_cell_formula_units_Z 64
_cell_length_a 17.485881
_cell_length_b 7.518388
_cell_length_c 20.447835
_cell_angle_alpha 90.000000
_cell_angle_beta 100.108888
_cell_angle_gamma 90.000000
_cell_volume 2646.456150
_symmetry_space_group_name_H-M "C 2/M"
_symmetry_group_IT_number 12
_symmetry_cell_setting 'monoclinic'
loop_
_space_group_symop_operation_xyz
x,y,z
-x,y,-z
-x,-y,-z
x,-y,z
1/2+x,1/2+y,z
1/2-x,1/2+y,-z
1/2-x,1/2-y,-z
1/2+x,1/2-y,z
loop_
_atom_site_type_symbol
_atom_site_label
_atom_site_fract_x
_atom_site_fract_y
_atom_site_fract_z
Si Si1 0.415417 0.717196 0.014707
Si Si2 0.547184 0.709930 0.837166
Si Si3 0.180242 0.713069 0.778292
Si Si4 0.711914 0.301181 0.102458
Si Si5 0.480265 0.216217 0.422307
Si Si6 0.302260 0.213967 0.364645
Si Si7 0.121850 0.299010 0.212559
Si Si8 0.130957 0.712648 0.360739
O O1 0.413060 0.500000 0.009171
O O2 0.342220 0.781854 0.961063
O O3 0.500000 0.770899 0.000000
O O4 0.412367 0.770134 0.089560
O O5 0.590778 0.747865 0.776143
O O6 0.466719 0.806939 0.820631
O O7 0.966387 0.000000 0.158541
O O8 0.190572 0.500000 0.781786
O O9 0.216481 0.792397 0.850576
O O10 0.209163 0.775626 0.712574
O O11 0.733773 0.500000 0.083529
O O12 0.660279 0.311253 0.160590
O O13 0.500000 0.259727 0.500000
O O14 0.390344 0.275359 0.395816
O O15 0.555760 0.277220 0.390828
O O16 0.478290 0.000000 0.415444
O O17 0.222815 0.258211 0.392612
O O18 0.305724 0.000000 0.365337
O O19 0.153527 0.500000 0.216767
O O20 0.125668 0.219090 0.285491
O O21 0.121858 0.500000 0.356982
#
# Coordination Sequence:
#
# PCOD9186893 Si02
#       8
#     8   8   8   8   8   8   8   8
#     4   9  17  32  53  75 101 136 182 230 279 338
#     4  11  22  35  55  78 105 144 188 232 284 345
#     4  10  21  36  54  79 112 143 180 232 285 336
#     4  10  19  35  57  76 102 142 181 222 278 337
#     4   9  19  37  60  87 122 162 196 229 279 344
#     4  10  20  37  62  89 118 154 197 238 285 346
#     4  11  21  34  54  81 111 139 180 234 284 332
#     4  10  21  37  60  88 119 153 194 242 290 339
#
# _framework density 24.183281999999998
#
# number of rings (size 3 to 8) (size 9 to 14) (size 15 to 20)
#    0.000    2.000    2.500    1.500    0.000    4.500 
#    0.000    2.500    0.000    0.750    0.000    0.000 
#    0.000    0.000    0.000    0.000    0.000    0.000 
#
# Total GULP energy -178406.019949 kJ/mol
# GULP energy per Si atom -5575.188123 kJ/mol
# Density = 2.412824 g / cm^3
# Si number density = 24.183282 Si / 1000 Ang^3
#
#
#
# Elastic Constant Matrix: (Units=GPa)
#
#
# Indices 1 2 3 4 5 6 
#
# 1 144.6822 7.6487 68.2934 0.0000 -4.0199 0.0000
# 2 7.6487 77.5920 5.3818 0.0000 4.5423 0.0000
# 3 68.2934 5.3818 89.3869 0.0000 2.3654 0.0000
# 4 0.0000 0.0000 0.0000 -45.1287 0.0000 -10.8203
# 5 -4.0199 4.5423 2.3654 0.0000 42.7967 0.0000
# 6 0.0000 0.0000 0.0000 -10.8203 0.0000 18.9911
#
#
#
# Elastic Compliance Matrix: (Units=1/GPa)
#
#
# Indices 1 2 3 4 5 6 
#
# 1 0.010930 -0.000589 -0.008357 0.000000 0.001551 0.000000
# 2 -0.000589 0.013050 -0.000298 0.000000 -0.001424 0.000000
# 3 -0.008357 -0.000298 0.017636 0.000000 -0.001728 0.000000
# 4 0.000000 0.000000 0.000000 -0.019496 0.000000 -0.011108
# 5 0.001551 -0.001424 -0.001728 0.000000 0.023759 0.000000
# 6 0.000000 0.000000 0.000000 -0.011108 0.000000 0.046328
#
#
# Mechanical properties :
#
#
# Convention : Reuss Voigt Hill
#
# Bulk Modulus (GPa) = 43.23601 52.70100 47.96851
# Shear Modulus (GPa) = 42.22836 18.68762 30.45799
#
# Velocity S-wave (km/s) = 4.18327 2.78285 3.55274
# Velocity P-wave (km/s) = 6.42263 5.67145 6.05869
#
# Compressibility (1/GPa) = 0.02312887
#
# Stress axis : x y z
#
# Youngs Moduli (GPa) = 91.48727 76.62839 56.70309
#
# Poissons Ratio (x) = 0.04511 0.47385
# Poissons Ratio (y) = 0.05385 0.01691
# Poissons Ratio (z) = 0.76453 0.02286
#
# Static dielectric constant tensor:
#      x y z
#    x 2.043650 0.000000 0.041230 
#    y 0.000000 1.886600 0.000000 
#    z 0.041230 0.000000 1.908120 
# 
# From -- ./inp_files/313986.got.cif
#   From: 2010.05.17/outbox.cif.g08.bks.cpg/sg12_157_cif.got.tgz:313986.got - 2010.06.03 13:09:07.
