data_PCOD9186772
_publ_section_title
;
Structure prediction by ZEFSAII (Michael W. Deem and Ramdas Pophale) SiO2 
 PCOD9186772
Probable space group: C 2/M
;
_chemical_formula_sum "Si O2"
_cell_formula_units_Z 48
_cell_length_a 24.176320
_cell_length_b 7.703452
_cell_length_c 12.497365
_cell_angle_alpha 90.000000
_cell_angle_beta 68.574294
_cell_angle_gamma 90.000000
_cell_volume 2166.672829
_symmetry_space_group_name_H-M "C 2/M"
_symmetry_group_IT_number 12
_symmetry_cell_setting 'monoclinic'
loop_
_space_group_symop_operation_xyz
x,y,z
-x,y,-z
-x,-y,-z
x,-y,z
1/2+x,1/2+y,z
1/2-x,1/2+y,-z
1/2-x,1/2-y,-z
1/2+x,1/2-y,z
loop_
_atom_site_type_symbol
_atom_site_label
_atom_site_fract_x
_atom_site_fract_y
_atom_site_fract_z
Si Si1 0.699384 0.794241 0.783401
Si Si2 0.494980 0.209044 0.877337
Si Si3 0.173994 0.792073 0.245023
Si Si4 0.862630 0.708652 0.957374
Si Si5 0.431899 0.713334 0.534869
Si Si6 0.110259 0.199187 0.664339
O O1 0.766593 0.725480 0.738795
O O2 0.662199 0.772646 0.701840
O O3 0.704216 0.000000 0.798082
O O4 0.663185 0.724284 0.912011
O O5 0.429806 0.271502 0.889229
O O6 0.549131 0.288292 0.774182
O O7 0.499457 0.000000 0.860880
O O8 0.500000 0.244834 0.000000
O O9 0.176536 0.751666 0.117645
O O10 0.112736 0.727743 0.340432
O O11 0.172272 0.000000 0.257817
O O12 0.867015 0.500000 0.963271
O O13 0.500000 0.770442 0.500000
O O14 0.433503 0.500000 0.532482
O O15 0.404039 0.774119 0.442050
O O16 0.126411 0.000000 0.635485
#
# Coordination Sequence:
#
# PCOD9186772 Si02
#       6
#     8   8   8   8   8   8
#     4  10  21  38  56  79 114 152 185 225 284 339
#     4  10  19  35  56  78 112 150 178 217 281 336
#     4  10  21  37  59  81 107 151 195 226 272 336
#     4  10  20  35  56  81 113 147 180 230 286 327
#     4   9  19  37  57  80 113 145 178 231 287 326
#     4  11  22  35  57  86 113 144 188 235 273 322
#
# _framework density 22.153782
#
# number of rings (size 3 to 8) (size 9 to 14) (size 15 to 20)
#    0.000    2.000    1.667    2.000    0.000    4.333 
#    0.000    1.667    0.000    4.500    0.000    0.000 
#    0.000    0.000    0.000    0.000    0.000    0.000 
#
# Total GULP energy -134076.378302 kJ/mol
# GULP energy per Si atom -5586.515763 kJ/mol
# Density = 2.210336 g / cm^3
# Si number density = 22.153782 Si / 1000 Ang^3
#
#
#
# Elastic Constant Matrix: (Units=GPa)
#
#
# Indices 1 2 3 4 5 6 
#
# 1 160.6898 4.3945 36.6649 0.0000 9.3927 0.0000
# 2 4.3945 25.4642 -1.8603 0.0000 -5.5564 0.0000
# 3 36.6649 -1.8603 67.1668 0.0000 23.9932 0.0000
# 4 0.0000 0.0000 0.0000 0.4970 0.0000 10.4863
# 5 9.3927 -5.5564 23.9932 0.0000 30.0172 0.0000
# 6 0.0000 0.0000 0.0000 10.4863 0.0000 21.1522
#
#
#
# Elastic Compliance Matrix: (Units=1/GPa)
#
#
# Indices 1 2 3 4 5 6 
#
# 1 0.007185 -0.001350 -0.004293 0.000000 0.000933 0.000000
# 2 -0.001350 0.041411 -0.001407 0.000000 0.009213 0.000000
# 3 -0.004293 -0.001407 0.023522 0.000000 -0.017719 0.000000
# 4 0.000000 0.000000 0.000000 -0.212695 0.000000 0.105444
# 5 0.000933 0.009213 -0.017719 0.000000 0.048890 0.000000
# 6 0.000000 0.000000 0.000000 0.105444 0.000000 -0.004998
#
#
# Mechanical properties :
#
#
# Convention : Reuss Voigt Hill
#
# Bulk Modulus (GPa) = 17.23584 36.85766 27.04675
# Shear Modulus (GPa) = -79.05874 24.60807 -27.22533
#
# Velocity S-wave (km/s) = -5.98029 3.33646 -3.50941
# Velocity P-wave (km/s) = 6.31570 5.61390 2.04599
#
# Compressibility (1/GPa) = 0.05801863
#
# Stress axis : x y z
#
# Youngs Moduli (GPa) = 139.17757 24.14810 42.51292
#
# Poissons Ratio (x) = 0.03260 0.18251
# Poissons Ratio (y) = 0.18788 0.05982
# Poissons Ratio (z) = 0.59748 0.03398
#
# Static dielectric constant tensor:
#      x y z
#    x 1.813160 0.000000 -0.003300 
#    y 0.000000 1.815740 0.000000 
#    z -0.003300 0.000000 1.790380 
# 
# From -- ./inp_files/172860.got.cif
#   From: 2010.05.17/outbox.cif.g08.bks.cpg/sg12_87_cif.got.tgz:172860.got - 2010.06.03 13:09:07.
