data_PCOD9186323
_publ_section_title
;
Structure prediction by ZEFSAII (Michael W. Deem and Ramdas Pophale) SiO2 
 PCOD9186323
Probable space group: C 2/M
;
_chemical_formula_sum "Si O2"
_cell_formula_units_Z 36
_cell_length_a 16.392245
_cell_length_b 24.094890
_cell_length_c 5.303481
_cell_angle_alpha 90.000000
_cell_angle_beta 63.321365
_cell_angle_gamma 90.000000
_cell_volume 1871.706948
_symmetry_space_group_name_H-M "C 2/M"
_symmetry_group_IT_number 12
_symmetry_cell_setting 'monoclinic'
loop_
_space_group_symop_operation_xyz
x,y,z
-x,y,-z
-x,-y,-z
x,-y,z
1/2+x,1/2+y,z
1/2-x,1/2+y,-z
1/2-x,1/2-y,-z
1/2+x,1/2-y,z
loop_
_atom_site_type_symbol
_atom_site_label
_atom_site_fract_x
_atom_site_fract_y
_atom_site_fract_z
Si Si1 0.802060 0.807126 0.375281
Si Si2 0.500000 0.663407 0.000000
Si Si3 0.248690 0.875776 0.058347
Si Si4 0.578387 0.559346 0.185335
Si Si5 0.440598 0.065263 0.835521
O O1 0.750000 0.750000 0.500000
O O2 0.779193 0.845726 0.644922
O O3 0.767293 0.835873 0.163138
O O4 0.913094 0.801679 0.214937
O O5 0.548928 0.618011 0.108956
O O6 0.180325 0.928145 0.133168
O O7 0.351407 0.897241 0.933607
O O8 0.500000 0.553138 0.500000
O O9 0.581328 0.500000 0.037442
O O10 0.500000 0.070948 0.500000
O O11 0.415111 0.000000 0.895770
O O12 0.500000 0.079802 0.000000
#
# Coordination Sequence:
#
# PCOD9186323 Si02
#       5
#     8   4   8   8   8
#     4  11  24  42  63  88 119 165 208 259 307 357
#     4  10  21  40  60  86 132 158 201 256 308 360
#     4  11  22  41  63  91 125 157 207 257 305 367
#     4  10  19  34  60  93 124 158 194 237 311 384
#     4  10  21  39  62  90 127 165 202 250 308 365
#
# _framework density 19.233781
#
# number of rings (size 3 to 8) (size 9 to 14) (size 15 to 20)
#    0.000    1.556    2.222    3.000    0.000    0.000 
#    6.000    2.222    0.000    0.000    0.000    0.000 
#    0.000    0.000    0.000    0.000    0.000    0.000 
#
# Total GULP energy -100237.628889 kJ/mol
# GULP energy per Si atom -5568.757160 kJ/mol
# Density = 1.919000 g / cm^3
# Si number density = 19.233781 Si / 1000 Ang^3
#
#
#
# Elastic Constant Matrix: (Units=GPa)
#
#
# Indices 1 2 3 4 5 6 
#
# 1 155.5691 56.0420 64.3894 0.0000 -23.8949 0.0000
# 2 56.0420 75.1563 28.3975 0.0000 -26.6786 0.0000
# 3 64.3894 28.3975 94.2457 0.0000 -9.4201 0.0000
# 4 0.0000 0.0000 0.0000 38.7802 0.0000 -6.3514
# 5 -23.8949 -26.6786 -9.4201 0.0000 41.6844 0.0000
# 6 0.0000 0.0000 0.0000 -6.3514 0.0000 33.5741
#
#
#
# Elastic Compliance Matrix: (Units=1/GPa)
#
#
# Indices 1 2 3 4 5 6 
#
# 1 0.011009 -0.005525 -0.005708 0.000000 0.001484 0.000000
# 2 -0.005525 0.021767 -0.001747 0.000000 0.010369 0.000000
# 3 -0.005708 -0.001747 0.014935 0.000000 -0.001015 0.000000
# 4 0.000000 0.000000 0.000000 0.026611 0.000000 0.005034
# 5 0.001484 0.010369 -0.001015 0.000000 0.031247 0.000000
# 6 0.000000 0.000000 0.000000 0.005034 0.000000 0.030737
#
#
# Mechanical properties :
#
#
# Convention : Reuss Voigt Hill
#
# Bulk Modulus (GPa) = 45.97817 69.18097 57.57957
# Shear Modulus (GPa) = 29.49537 34.55055 32.02296
#
# Velocity S-wave (km/s) = 3.92027 4.24293 4.08479
# Velocity P-wave (km/s) = 6.66694 7.74918 7.22835
#
# Compressibility (1/GPa) = 0.02174945
#
# Stress axis : x y z
#
# Youngs Moduli (GPa) = 90.83391 45.94203 66.95474
#
# Poissons Ratio (x) = 0.25385 0.38219
# Poissons Ratio (y) = 0.50189 0.11698
# Poissons Ratio (z) = 0.51850 0.08027
#
# Static dielectric constant tensor:
#      x y z
#    x 1.757310 0.000000 0.027950 
#    y 0.000000 1.744610 0.000000 
#    z 0.027950 0.000000 1.657340 
# 
# From -- ./inp_files/7402.got.cif
#   From: 2010.05.17/outbox.cif.g08.bks.cpg/sg12_4_cif.got.tgz:7402.got - 2010.06.03 13:09:07.
