data_PCOD9186307
_publ_section_title
;
Structure prediction by ZEFSAII (Michael W. Deem and Ramdas Pophale) SiO2 
 PCOD9186307
Probable space group: C 2/M
;
_chemical_formula_sum "Si O2"
_cell_formula_units_Z 48
_cell_length_a 21.144863
_cell_length_b 11.055369
_cell_length_c 14.704734
_cell_angle_alpha 90.000000
_cell_angle_beta 44.503543
_cell_angle_gamma 90.000000
_cell_volume 2409.486061
_symmetry_space_group_name_H-M "C 2/M"
_symmetry_group_IT_number 12
_symmetry_cell_setting 'monoclinic'
loop_
_space_group_symop_operation_xyz
x,y,z
-x,y,-z
-x,-y,-z
x,-y,z
1/2+x,1/2+y,z
1/2-x,1/2+y,-z
1/2-x,1/2-y,-z
1/2+x,1/2-y,z
loop_
_atom_site_type_symbol
_atom_site_label
_atom_site_fract_x
_atom_site_fract_y
_atom_site_fract_z
Si Si1 0.941409 0.000000 0.412668
Si Si2 0.871504 0.000000 0.691561
Si Si3 0.342111 0.257092 0.464500
Si Si4 0.705596 0.139325 0.103685
Si Si5 0.272819 0.743674 0.736596
Si Si6 0.905926 0.638082 0.046559
Si Si7 0.020938 0.359770 0.212453
O O1 0.892781 0.113768 0.416824
O O2 0.914042 0.000000 0.546667
O O3 0.050830 0.000000 0.309957
O O4 0.816055 0.874137 0.743896
O O5 0.250000 0.250000 0.500000
O O6 0.321070 0.227615 0.592169
O O7 0.421182 0.176822 0.340970
O O8 0.730342 0.154417 0.183575
O O9 0.596679 0.154310 0.211488
O O10 0.725533 0.000000 0.050833
O O11 0.750000 0.250000 0.000000
O O12 0.170356 0.706879 0.820416
O O13 0.872475 0.500000 0.069684
O O14 0.929961 0.698115 0.925393
O O15 0.000000 0.634016 0.000000
O O16 0.014885 0.500000 0.193547
#
# Coordination Sequence:
#
# PCOD9186307 Si02
#       7
#     4   4   8   8   8   8   8
#     4   9  20  38  56  92 120 166 217 259 333 378
#     4   9  18  34  65  92 123 152 212 283 324 385
#     4  11  24  40  61  91 130 175 217 265 322 397
#     4  11  24  42  67  98 131 168 220 273 336 391
#     4  11  21  38  65  93 128 167 218 272 335 383
#     4  10  19  34  60  91 122 162 216 269 319 387
#     4  10  22  40  61  90 125 167 210 265 325 385
#
# _framework density 19.921261000000001
#
# number of rings (size 3 to 8) (size 9 to 14) (size 15 to 20)
#    0.000    1.667    2.500    2.000    2.333    2.667 
#    1.500    1.667    0.000    0.500    0.000    0.000 
#    0.000    0.000    0.000    0.000    0.000    0.000 
#
# Total GULP energy -133651.885539 kJ/mol
# GULP energy per Si atom -5568.828564 kJ/mol
# Density = 1.987592 g / cm^3
# Si number density = 19.921261 Si / 1000 Ang^3
#
#
#
# Elastic Constant Matrix: (Units=GPa)
#
#
# Indices 1 2 3 4 5 6 
#
# 1 85.8910 18.2578 3.6581 0.0000 -16.1939 0.0000
# 2 18.2578 58.1931 4.9859 0.0000 -7.3727 0.0000
# 3 3.6581 4.9859 66.8901 0.0000 -13.8038 0.0000
# 4 0.0000 0.0000 0.0000 3.7649 0.0000 -5.5093
# 5 -16.1939 -7.3727 -13.8038 0.0000 39.2198 0.0000
# 6 0.0000 0.0000 0.0000 -5.5093 0.0000 27.2078
#
#
#
# Elastic Compliance Matrix: (Units=1/GPa)
#
#
# Indices 1 2 3 4 5 6 
#
# 1 0.013331 -0.003594 0.000577 0.000000 0.005032 0.000000
# 2 -0.003594 0.018601 -0.000835 0.000000 0.001719 0.000000
# 3 0.000577 -0.000835 0.016172 0.000000 0.005773 0.000000
# 4 0.000000 0.000000 0.000000 0.377454 0.000000 0.076430
# 5 0.005032 0.001719 0.005773 0.000000 0.029930 0.000000
# 6 0.000000 0.000000 0.000000 0.076430 0.000000 0.052230
#
#
# Mechanical properties :
#
#
# Convention : Reuss Voigt Hill
#
# Bulk Modulus (GPa) = 24.75302 29.41975 27.08639
# Shear Modulus (GPa) = 9.45376 26.31002 17.88189
#
# Velocity S-wave (km/s) = 2.18079 3.63809 2.99929
# Velocity P-wave (km/s) = 4.33515 5.69628 5.06168
#
# Compressibility (1/GPa) = 0.04039911
#
# Stress axis : x y z
#
# Youngs Moduli (GPa) = 75.01412 53.76002 61.83537
#
# Poissons Ratio (x) = 0.19324 -0.03570
# Poissons Ratio (y) = 0.26963 0.05165
# Poissons Ratio (z) = -0.04330 0.04490
#
# Static dielectric constant tensor:
#      x y z
#    x 1.794570 0.000000 0.021150 
#    y 0.000000 1.798160 0.000000 
#    z 0.021150 0.000000 1.707220 
# 
# From -- ./inp_files/232822.got.cif
#   From: 2010.05.17/outbox.cif.g08.bks.cpg/sg12_117_cif.got.tgz:232822.got - 2010.06.03 13:09:07.
