data_PCOD9186834
_publ_section_title
;
Structure prediction by ZEFSAII (Michael W. Deem and Ramdas Pophale) SiO2 
 PCOD9186834
Probable space group: C 2/M
;
_chemical_formula_sum "Si O2"
_cell_formula_units_Z 50
_cell_length_a 10.498416
_cell_length_b 14.515788
_cell_length_c 16.812043
_cell_angle_alpha 90.000000
_cell_angle_beta 122.621883
_cell_angle_gamma 90.000000
_cell_volume 2157.864319
_symmetry_space_group_name_H-M "C 2/M"
_symmetry_group_IT_number 12
_symmetry_cell_setting 'monoclinic'
loop_
_space_group_symop_operation_xyz
x,y,z
-x,y,-z
-x,-y,-z
x,-y,z
1/2+x,1/2+y,z
1/2-x,1/2+y,-z
1/2-x,1/2-y,-z
1/2+x,1/2-y,z
loop_
_atom_site_type_symbol
_atom_site_label
_atom_site_fract_x
_atom_site_fract_y
_atom_site_fract_z
Si Si1 0.906706 0.866736 0.720451
Si Si2 0.917571 0.357645 0.082703
Si Si3 0.437809 0.860141 0.394940
Si Si4 0.407541 0.143468 0.709640
Si Si5 0.434874 0.635409 0.391046
Si Si6 0.925484 0.137928 0.060081
Si Si7 0.500000 0.000000 0.000000
O O1 0.732800 0.893165 0.672788
O O2 0.903589 0.754997 0.713664
O O3 0.975778 0.895235 0.658254
O O4 0.997517 0.892849 0.831355
O O5 0.930454 0.249928 0.067354
O O6 0.953178 0.378134 0.185765
O O7 0.037784 0.418407 0.076742
O O8 0.750455 0.389985 0.001954
O O9 0.500000 0.889448 0.500000
O O10 0.549478 0.888352 0.362978
O O11 0.438581 0.747712 0.393111
O O12 0.241360 0.109984 0.676322
O O13 0.500000 0.607507 0.500000
O O14 0.000000 0.112248 0.000000
#
# Coordination Sequence:
#
# PCOD9186834 Si02
#       7
#     8   8   8   8   8   8   2
#     4   9  17  25  43  68 101 139 179 219 275 326
#     4  10  22  34  56  79 114 149 190 232 285 335
#     4   9  15  25  41  67 104 139 171 220 281 330
#     4   9  17  28  44  67 100 140 179 218 269 332
#     4   9  16  25  39  66 104 140 174 222 279 329
#     4  10  19  35  56  82 111 149 193 236 277 339
#     4  12  24  40  54  84 116 150 186 238 282 344
#
# _framework density 23.171059
#
# number of rings (size 3 to 8) (size 9 to 14) (size 15 to 20)
#    0.000    2.560    0.800    1.920    2.240    7.680 
#    0.000    0.400    0.000    0.000    0.000    1.120 
#    0.000    0.000    0.000    0.000    0.000    0.000 
#
# Total GULP energy -139329.424556 kJ/mol
# GULP energy per Si atom -5573.176982 kJ/mol
# Density = 2.311832 g / cm^3
# Si number density = 23.171059 Si / 1000 Ang^3
#
#
#
# Elastic Constant Matrix: (Units=GPa)
#
#
# Indices 1 2 3 4 5 6 
#
# 1 91.1549 -8.7842 12.3257 0.0000 -5.4666 0.0000
# 2 -8.7842 106.9676 -0.4555 0.0000 0.3922 0.0000
# 3 12.3257 -0.4555 110.7196 0.0000 -0.2279 0.0000
# 4 0.0000 0.0000 0.0000 -36.7808 0.0000 7.6127
# 5 -5.4666 0.3922 -0.2279 0.0000 48.6608 0.0000
# 6 0.0000 0.0000 0.0000 7.6127 0.0000 -27.2611
#
#
#
# Elastic Compliance Matrix: (Units=1/GPa)
#
#
# Indices 1 2 3 4 5 6 
#
# 1 0.011303 0.000918 -0.001252 0.000000 0.001257 0.000000
# 2 0.000918 0.009424 -0.000063 0.000000 0.000027 0.000000
# 3 -0.001252 -0.000063 0.009171 0.000000 -0.000097 0.000000
# 4 0.000000 0.000000 0.000000 -0.028856 0.000000 -0.008058
# 5 0.001257 0.000027 -0.000097 0.000000 0.020691 0.000000
# 6 0.000000 0.000000 0.000000 -0.008058 0.000000 -0.038932
#
#
# Mechanical properties :
#
#
# Convention : Reuss Voigt Hill
#
# Bulk Modulus (GPa) = 34.35985 35.00156 34.68070
# Shear Modulus (GPa) = -745.80246 17.30752 -364.24747
#
# Velocity S-wave (km/s) = -17.96015 2.73600 -12.55152
# Velocity P-wave (km/s) = 20.37715 5.01193 13.96619
#
# Compressibility (1/GPa) = 0.02910374
#
# Stress axis : x y z
#
# Youngs Moduli (GPa) = 88.46838 106.11579 109.04242
#
# Poissons Ratio (x) = -0.09745 0.13652
# Poissons Ratio (y) = -0.08124 0.00691
# Poissons Ratio (z) = 0.11076 0.00673
#
# Static dielectric constant tensor:
#      x y z
#    x 1.884210 0.000000 -0.054390 
#    y 0.000000 1.932520 0.000000 
#    z -0.054390 0.000000 1.902690 
# 
# From -- ./inp_files/206322.got.cif
#   From: 2010.05.17/outbox.cif.g08.bks.cpg/sg12_104_cif.got.tgz:206322.got - 2010.06.03 13:09:07.
