data_PCOD9186449
_publ_section_title
;
Structure prediction by ZEFSAII (Michael W. Deem and Ramdas Pophale) SiO2 
 PCOD9186449
Probable space group: C 2/M
;
_chemical_formula_sum "Si O2"
_cell_formula_units_Z 60
_cell_length_a 11.601274
_cell_length_b 27.563789
_cell_length_c 17.697777
_cell_angle_alpha 90.000000
_cell_angle_beta 151.248772
_cell_angle_gamma 90.000000
_cell_volume 2722.169859
_symmetry_space_group_name_H-M "C 2/M"
_symmetry_group_IT_number 12
_symmetry_cell_setting 'monoclinic'
loop_
_space_group_symop_operation_xyz
x,y,z
-x,y,-z
-x,-y,-z
x,-y,z
1/2+x,1/2+y,z
1/2-x,1/2+y,-z
1/2-x,1/2-y,-z
1/2+x,1/2-y,z
loop_
_atom_site_type_symbol
_atom_site_label
_atom_site_fract_x
_atom_site_fract_y
_atom_site_fract_z
Si Si1 0.500000 0.605310 0.500000
Si Si2 0.928268 0.945930 0.058092
Si Si3 0.987553 0.400588 0.731249
Si Si4 0.631052 0.876408 0.652053
Si Si5 0.277954 0.552945 0.141070
Si Si6 0.439393 0.706637 0.764771
Si Si7 0.977975 0.687390 0.132010
Si Si8 0.586216 0.347158 0.706536
O O1 0.497451 0.640354 0.425943
O O2 0.744640 0.575859 0.625742
O O3 0.791466 0.945939 0.059080
O O4 0.137019 0.908021 0.194048
O O5 0.022942 0.000000 0.099992
O O6 0.728894 0.931489 0.882358
O O7 0.971389 0.383482 0.635019
O O8 0.019632 0.354249 0.803857
O O9 0.500000 0.893304 0.500000
O O10 0.736484 0.823217 0.693286
O O11 0.374826 0.500000 0.222521
O O12 0.400865 0.600503 0.245261
O O13 0.000000 0.555469 0.000000
O O14 0.425756 0.763403 0.774183
O O15 0.442904 0.688867 0.679523
O O16 0.704993 0.692574 0.947468
O O17 0.149401 0.673777 0.160509
#
# Coordination Sequence:
#
# PCOD9186449 Si02
#       8
#     4   8   8   8   8   8   8   8
#     4  10  24  42  69  96 136 186 224 282 349 404
#     4  11  24  45  73 104 133 177 233 284 350 420
#     4  11  23  45  68  97 139 178 229 284 343 408
#     4  12  26  44  67 101 140 185 225 283 343 415
#     4  10  19  34  65  97 125 165 220 279 342 404
#     4  11  22  40  65  97 133 177 226 281 339 398
#     4  10  23  38  67 101 128 179 229 279 339 403
#     4  11  20  41  61  92 136 175 219 281 339 397
#
# _framework density 22.041240999999999
#
# number of rings (size 3 to 8) (size 9 to 14) (size 15 to 20)
#    0.000    1.200    2.667    4.000    1.867    1.333 
#    4.800    4.667    0.000    0.000    0.000    0.000 
#    0.000    0.000    0.000    0.000    0.000    0.000 
#
# Total GULP energy -167564.485170 kJ/mol
# GULP energy per Si atom -5585.482839 kJ/mol
# Density = 2.199107 g / cm^3
# Si number density = 22.041241 Si / 1000 Ang^3
#
#
#
# Elastic Constant Matrix: (Units=GPa)
#
#
# Indices 1 2 3 4 5 6 
#
# 1 113.3565 9.2019 9.7542 0.0039 -13.6349 -0.0008
# 2 9.2019 88.1810 4.5303 0.0021 -10.5368 -0.0005
# 3 9.7542 4.5303 68.7094 0.0056 -5.1209 -0.0013
# 4 0.0039 0.0021 0.0056 -11.9763 0.0049 -0.9426
# 5 -13.6349 -10.5368 -5.1209 0.0049 44.7598 -0.0001
# 6 -0.0008 -0.0005 -0.0013 -0.9426 -0.0001 12.0347
#
#
#
# Elastic Compliance Matrix: (Units=1/GPa)
#
#
# Indices 1 2 3 4 5 6 
#
# 1 0.009272 -0.000606 -0.001086 0.000003 0.002558 0.000001
# 2 -0.000606 0.011730 -0.000500 0.000003 0.002520 0.000001
# 3 -0.001086 -0.000500 0.014834 0.000007 0.001249 0.000002
# 4 0.000003 0.000003 0.000007 -0.082986 0.000011 -0.006500
# 5 0.002558 0.002520 0.001249 0.000011 0.023857 0.000001
# 6 0.000001 0.000001 0.000002 -0.006500 0.000001 0.082584
#
#
# Mechanical properties :
#
#
# Convention : Reuss Voigt Hill
#
# Bulk Modulus (GPa) = 31.79291 35.24664 33.51977
# Shear Modulus (GPa) = 67.42338 25.41433 46.41885
#
# Velocity S-wave (km/s) = 5.53679 3.39932 4.59410
# Velocity P-wave (km/s) = 7.43844 5.60652 6.58648
#
# Compressibility (1/GPa) = 0.03145356
#
# Stress axis : x y z
#
# Youngs Moduli (GPa) = 107.85172 85.24933 67.41182
#
# Poissons Ratio (x) = 0.05168 0.07319
# Poissons Ratio (y) = 0.06538 0.03368
# Poissons Ratio (z) = 0.11709 0.04259
#
# Static dielectric constant tensor:
#      x y z
#    x 1.907080 0.000000 0.095000 
#    y 0.000000 1.791020 0.000000 
#    z 0.095000 0.000000 1.929910 
# 
# From -- ./inp_files/266039.got.cif
#   From: 2010.05.17/outbox.cif.g08.bks.cpg/sg12_134_cif.got.tgz:266039.got - 2010.06.03 13:09:07.
