data_PCOD9186047
_publ_section_title
;
Structure prediction by ZEFSAII (Michael W. Deem and Ramdas Pophale) SiO2 
 PCOD9186047
Probable space group: C 2/M
;
_chemical_formula_sum "Si O2"
_cell_formula_units_Z 40
_cell_length_a 15.677598
_cell_length_b 23.935213
_cell_length_c 5.273957
_cell_angle_alpha 90.000000
_cell_angle_beta 91.923125
_cell_angle_gamma 90.000000
_cell_volume 1977.919997
_symmetry_space_group_name_H-M "C 2/M"
_symmetry_group_IT_number 12
_symmetry_cell_setting 'monoclinic'
loop_
_space_group_symop_operation_xyz
x,y,z
-x,y,-z
-x,-y,-z
x,-y,z
1/2+x,1/2+y,z
1/2-x,1/2+y,-z
1/2-x,1/2-y,-z
1/2+x,1/2-y,z
loop_
_atom_site_type_symbol
_atom_site_label
_atom_site_fract_x
_atom_site_fract_y
_atom_site_fract_z
Si Si1 0.779962 0.563598 0.620722
Si Si2 0.057871 0.636853 0.253472
Si Si3 0.369611 0.621174 0.642290
Si Si4 0.442173 0.263735 0.746097
Si Si5 0.605545 0.563277 0.852699
O O1 0.794555 0.500000 0.535658
O O2 0.865211 0.593823 0.712782
O O3 0.726976 0.599389 0.408568
O O4 0.709252 0.561042 0.836851
O O5 0.092413 0.700644 0.237175
O O6 0.000000 0.633530 0.500000
O O7 0.000000 0.626734 0.000000
O O8 0.375965 0.685898 0.710596
O O9 0.413693 0.605563 0.378606
O O10 0.412895 0.585944 0.871554
O O11 0.500000 0.265385 0.500000
O O12 0.500000 0.273693 0.000000
O O13 0.575216 0.500000 0.803039
#
# Coordination Sequence:
#
# PCOD9186047 Si02
#       5
#     8   8   8   8   8
#     4   9  21  37  59  83 113 146 184 230 274 325
#     4  10  23  39  56  82 114 148 186 226 274 329
#     4  10  19  34  59  83 106 148 187 224 276 327
#     4  10  21  39  58  80 114 148 182 229 277 326
#     4   9  18  33  54  81 112 141 178 226 270 319
#
# _framework density 20.223267
#
# number of rings (size 3 to 8) (size 9 to 14) (size 15 to 20)
#    1.200    1.200    0.000    2.400    2.800    1.600 
#    0.000    1.000    0.000   20.400    0.000    0.000 
#    0.000    0.000    0.000    0.000    0.000    0.000 
#
# Total GULP energy -111502.000464 kJ/mol
# GULP energy per Si atom -5575.100023 kJ/mol
# Density = 2.017724 g / cm^3
# Si number density = 20.223267 Si / 1000 Ang^3
#
#
#
# Elastic Constant Matrix: (Units=GPa)
#
#
# Indices 1 2 3 4 5 6 
#
# 1 71.2728 74.3632 28.3587 0.0000 23.2881 0.0000
# 2 74.3632 136.5646 25.0648 0.0000 28.7682 0.0000
# 3 28.3587 25.0648 129.1646 0.0000 9.9072 0.0000
# 4 0.0000 0.0000 0.0000 17.2959 0.0000 8.2351
# 5 23.2881 28.7682 9.9072 0.0000 28.9182 0.0000
# 6 0.0000 0.0000 0.0000 8.2351 0.0000 54.8479
#
#
#
# Elastic Compliance Matrix: (Units=1/GPa)
#
#
# Indices 1 2 3 4 5 6 
#
# 1 0.037264 -0.017114 -0.003969 0.000000 -0.011624 0.000000
# 2 -0.017114 0.017285 0.000683 0.000000 -0.003647 0.000000
# 3 -0.003969 0.000683 0.008512 0.000000 -0.000399 0.000000
# 4 0.000000 0.000000 0.000000 0.062269 0.000000 -0.009349
# 5 -0.011624 -0.003647 -0.000399 0.000000 0.047706 0.000000
# 6 0.000000 0.000000 0.000000 -0.009349 0.000000 0.019636
#
#
# Mechanical properties :
#
#
# Convention : Reuss Voigt Hill
#
# Bulk Modulus (GPa) = 44.92322 65.84171 55.38246
# Shear Modulus (GPa) = 20.75626 34.16007 27.45817
#
# Velocity S-wave (km/s) = 3.20715 4.11438 3.68877
# Velocity P-wave (km/s) = 5.99802 7.42960 6.75186
#
# Compressibility (1/GPa) = 0.02226020
#
# Stress axis : x y z
#
# Youngs Moduli (GPa) = 26.83529 57.85497 117.48784
#
# Poissons Ratio (x) = 0.99015 0.46629
# Poissons Ratio (y) = 0.45927 -0.08026
# Poissons Ratio (z) = 0.10651 -0.03952
#
# Static dielectric constant tensor:
#      x y z
#    x 1.728740 0.000000 -0.008830 
#    y 0.000000 1.706290 0.000000 
#    z -0.008830 0.000000 1.710470 
# 
# From -- ./inp_files/15301.got.cif
#   From: 2010.05.17/outbox.cif.g08.bks.cpg/sg12_8_cif.got.tgz:15301.got - 2010.06.03 13:09:07.
