data_PCOD9186817
_publ_section_title
;
Structure prediction by ZEFSAII (Michael W. Deem and Ramdas Pophale) SiO2 
 PCOD9186817
Probable space group: C 2/M
;
_chemical_formula_sum "Si O2"
_cell_formula_units_Z 56
_cell_length_a 24.029647
_cell_length_b 16.390422
_cell_length_c 8.986698
_cell_angle_alpha 90.000000
_cell_angle_beta 119.218087
_cell_angle_gamma 90.000000
_cell_volume 3089.132253
_symmetry_space_group_name_H-M "C 2/M"
_symmetry_group_IT_number 12
_symmetry_cell_setting 'monoclinic'
loop_
_space_group_symop_operation_xyz
x,y,z
-x,y,-z
-x,-y,-z
x,-y,z
1/2+x,1/2+y,z
1/2-x,1/2+y,-z
1/2-x,1/2-y,-z
1/2+x,1/2-y,z
loop_
_atom_site_type_symbol
_atom_site_label
_atom_site_fract_x
_atom_site_fract_y
_atom_site_fract_z
Si Si1 0.015730 0.820209 0.188031
Si Si2 0.219464 0.683946 0.623274
Si Si3 0.113000 0.000000 0.638098
Si Si4 0.894786 0.735898 0.112587
Si Si5 0.804234 0.157750 0.204526
Si Si6 0.852201 0.761619 0.719038
Si Si7 0.992971 0.000000 0.258341
Si Si8 0.680634 0.095550 0.863743
O O1 0.090197 0.801478 0.299192
O O2 0.999045 0.915114 0.181086
O O3 0.966698 0.768960 0.224270
O O4 0.000000 0.795253 0.000000
O O5 0.211779 0.772308 0.695942
O O6 0.176761 0.689655 0.419937
O O7 0.293074 0.677629 0.671834
O O8 0.198185 0.618822 0.717106
O O9 0.156419 0.080488 0.683666
O O10 0.054286 0.000000 0.447222
O O11 0.074643 0.000000 0.744615
O O12 0.847733 0.798199 0.136461
O O13 0.879924 0.648633 0.164436
O O14 0.875987 0.735466 0.913592
O O15 0.739730 0.126991 0.041851
O O16 0.672211 0.000000 0.871157
#
# Coordination Sequence:
#
# PCOD9186817 Si02
#       8
#     8   8   4   8   8   8   4   8
#     4  10  21  35  57  79 112 153 183 220 273 336
#     4  10  20  35  57  80 114 142 184 228 277 330
#     4  11  22  30  56  80 118 147 177 231 272 318
#     4  10  19  37  58  79 106 145 194 224 266 329
#     4  11  18  35  55  79 108 149 184 225 272 322
#     4  10  19  35  56  81 108 148 182 221 272 333
#     4  11  21  36  44  86 123 145 184 217 269 336
#     4  11  21  36  58  82 107 138 188 237 276 319
#
# _framework density 18.128069
#
# number of rings (size 3 to 8) (size 9 to 14) (size 15 to 20)
#    0.000    1.571    5.000    1.929    0.000    0.000 
#    1.286    0.714    4.714    5.571    0.000    0.000 
#    0.000    0.000    0.000    0.000    0.000    0.000 
#
# Total GULP energy -156174.254468 kJ/mol
# GULP energy per Si atom -5577.651945 kJ/mol
# Density = 1.808681 g / cm^3
# Si number density = 18.128069 Si / 1000 Ang^3
#
#
#
# Elastic Constant Matrix: (Units=GPa)
#
#
# Indices 1 2 3 4 5 6 
#
# 1 133.5505 51.5760 14.0876 0.0000 12.7529 0.0000
# 2 51.5760 108.3683 2.0454 0.0000 2.9808 0.0000
# 3 14.0876 2.0454 35.1382 0.0000 -3.5430 0.0000
# 4 0.0000 0.0000 0.0000 17.2896 0.0000 -5.1038
# 5 12.7529 2.9808 -3.5430 0.0000 19.2488 0.0000
# 6 0.0000 0.0000 0.0000 -5.1038 0.0000 9.1494
#
#
#
# Elastic Compliance Matrix: (Units=1/GPa)
#
#
# Indices 1 2 3 4 5 6 
#
# 1 0.010466 -0.004699 -0.004634 0.000000 -0.007059 0.000000
# 2 -0.004699 0.011394 0.001382 0.000000 0.001603 0.000000
# 3 -0.004634 0.001382 0.031102 0.000000 0.008581 0.000000
# 4 0.000000 0.000000 0.000000 0.069240 0.000000 0.038623
# 5 -0.007059 0.001603 0.008581 0.000000 0.057959 0.000000
# 6 0.000000 0.000000 0.000000 0.038623 0.000000 0.130841
#
#
# Mechanical properties :
#
#
# Convention : Reuss Voigt Hill
#
# Bulk Modulus (GPa) = 26.98358 45.83055 36.40706
# Shear Modulus (GPa) = 14.73812 23.09409 18.91610
#
# Velocity S-wave (km/s) = 2.85441 3.57310 3.23378
# Velocity P-wave (km/s) = 5.07748 6.50839 5.83695
#
# Compressibility (1/GPa) = 0.03705958
#
# Stress axis : x y z
#
# Youngs Moduli (GPa) = 95.55199 87.76456 32.15264
#
# Poissons Ratio (x) = 0.41243 0.14900
# Poissons Ratio (y) = 0.44902 -0.04445
# Poissons Ratio (z) = 0.44279 -0.12133
#
# Static dielectric constant tensor:
#      x y z
#    x 1.659850 0.000000 0.002880 
#    y 0.000000 1.591270 0.000000 
#    z 0.002880 0.000000 1.650100 
# 
# From -- ./inp_files/97009.got.cif
#   From: 2010.05.17/outbox.cif.g08.bks.cpg/sg12_49_cif.got.tgz:97009.got - 2010.06.03 13:09:07.
