data_PCOD9186853
_publ_section_title
;
Structure prediction by ZEFSAII (Michael W. Deem and Ramdas Pophale) SiO2 
 PCOD9186853
Probable space group: C 2/M
;
_chemical_formula_sum "Si O2"
_cell_formula_units_Z 40
_cell_length_a 14.339732
_cell_length_b 15.944521
_cell_length_c 11.682870
_cell_angle_alpha 90.000000
_cell_angle_beta 39.355523
_cell_angle_gamma 90.000000
_cell_volume 1693.872349
_symmetry_space_group_name_H-M "C 2/M"
_symmetry_group_IT_number 12
_symmetry_cell_setting 'monoclinic'
loop_
_space_group_symop_operation_xyz
x,y,z
-x,y,-z
-x,-y,-z
x,-y,z
1/2+x,1/2+y,z
1/2-x,1/2+y,-z
1/2-x,1/2-y,-z
1/2+x,1/2-y,z
loop_
_atom_site_type_symbol
_atom_site_label
_atom_site_fract_x
_atom_site_fract_y
_atom_site_fract_z
Si Si1 0.189435 0.118662 0.221781
Si Si2 0.731986 0.697623 0.841410
Si Si3 0.075829 0.233728 0.748381
Si Si4 0.643036 0.410800 0.519012
Si Si5 0.434187 0.905451 0.800507
O O1 0.176884 0.218452 0.221912
O O2 0.223738 0.096802 0.320612
O O3 0.030514 0.084316 0.344170
O O4 0.316662 0.091832 0.015829
O O5 0.671832 0.713802 0.770933
O O6 0.839232 0.623116 0.778927
O O7 0.586433 0.699330 0.059115
O O8 0.147881 0.174228 0.585466
O O9 0.041865 0.328791 0.736519
O O10 0.682352 0.500000 0.538076
O O11 0.492943 0.000000 0.730166
#
# Coordination Sequence:
#
# PCOD9186853 Si02
#       5
#     8   8   8   8   8
#     4  10  19  35  56  83 115 146 187 238 290 334
#     4  10  20  37  59  82 114 156 189 234 286 343
#     4  10  21  37  58  85 118 148 193 238 285 341
#     4  11  20  33  57  87 112 145 189 238 288 338
#     4  11  20  38  62  86 115 154 192 235 287 344
#
# _framework density 23.614529999999998
#
# number of rings (size 3 to 8) (size 9 to 14) (size 15 to 20)
#    0.000    1.600    4.000    3.600    0.000    1.600 
#    0.000   12.000    0.000    2.400    0.000    0.000 
#    0.000    0.000    0.000    0.000    0.000    0.000 
#
# Total GULP energy -111699.052166 kJ/mol
# GULP energy per Si atom -5584.952608 kJ/mol
# Density = 2.356078 g / cm^3
# Si number density = 23.614530 Si / 1000 Ang^3
#
#
#
# Elastic Constant Matrix: (Units=GPa)
#
#
# Indices 1 2 3 4 5 6 
#
# 1 159.2834 76.8901 44.3726 0.0000 8.5907 0.0000
# 2 76.8901 201.9893 48.9540 -0.0001 15.1259 0.0000
# 3 44.3726 48.9540 53.6381 0.0000 -2.7722 0.0000
# 4 0.0000 -0.0001 0.0000 -31.4153 0.0000 16.0961
# 5 8.5907 15.1259 -2.7722 0.0000 37.4405 0.0000
# 6 0.0000 0.0000 0.0000 16.0961 0.0000 -11.5199
#
#
#
# Elastic Compliance Matrix: (Units=1/GPa)
#
#
# Indices 1 2 3 4 5 6 
#
# 1 0.008862 -0.001859 -0.005723 0.000000 -0.001706 0.000000
# 2 -0.001859 0.007103 -0.005091 0.000000 -0.002820 0.000000
# 3 -0.005723 -0.005091 0.028307 0.000000 0.005466 0.000000
# 4 0.000000 0.000000 0.000000 -0.112043 0.000000 -0.156551
# 5 -0.001706 -0.002820 0.005466 0.000000 0.028645 0.000000
# 6 0.000000 0.000000 0.000000 -0.156551 0.000000 -0.305546
#
#
# Mechanical properties :
#
#
# Convention : Reuss Voigt Hill
#
# Bulk Modulus (GPa) = 52.83575 83.92713 68.38144
# Shear Modulus (GPa) = -15.97346 15.21401 -0.37972
#
# Velocity S-wave (km/s) = -2.60364 2.54099 -0.40144
# Velocity P-wave (km/s) = 3.65845 6.65030 5.36706
#
# Compressibility (1/GPa) = 0.01892658
#
# Stress axis : x y z
#
# Youngs Moduli (GPa) = 112.84764 140.77846 35.32721
#
# Poissons Ratio (x) = 0.26164 0.20217
# Poissons Ratio (y) = 0.20973 0.17986
# Poissons Ratio (z) = 0.64579 0.71675
#
# Static dielectric constant tensor:
#      x y z
#    x 1.940280 0.000000 0.016110 
#    y 0.000000 1.916960 0.000000 
#    z 0.016110 0.000000 1.866790 
# 
# From -- ./inp_files/155764.got.cif
#   From: 2010.05.17/outbox.cif.g08.bks.cpg/sg12_78_cif.got.tgz:155764.got - 2010.06.03 13:09:07.
