data_PCOD9186463
_publ_section_title
;
Structure prediction by ZEFSAII (Michael W. Deem and Ramdas Pophale) SiO2 
 PCOD9186463
Probable space group: C 2/M
;
_chemical_formula_sum "Si O2"
_cell_formula_units_Z 52
_cell_length_a 28.244916
_cell_length_b 19.058853
_cell_length_c 10.690748
_cell_angle_alpha 90.000000
_cell_angle_beta 27.577982
_cell_angle_gamma 90.000000
_cell_volume 2664.307434
_symmetry_space_group_name_H-M "C 2/M"
_symmetry_group_IT_number 12
_symmetry_cell_setting 'monoclinic'
loop_
_space_group_symop_operation_xyz
x,y,z
-x,y,-z
-x,-y,-z
x,-y,z
1/2+x,1/2+y,z
1/2-x,1/2+y,-z
1/2-x,1/2-y,-z
1/2+x,1/2-y,z
loop_
_atom_site_type_symbol
_atom_site_label
_atom_site_fract_x
_atom_site_fract_y
_atom_site_fract_z
Si Si1 0.680100 0.000000 0.738345
Si Si2 0.387670 0.243216 0.019271
Si Si3 0.559011 0.847896 0.493705
Si Si4 0.694822 0.228354 0.331352
Si Si5 0.466785 0.651039 0.223276
Si Si6 0.989334 0.500000 0.374760
Si Si7 0.909509 0.000000 0.315240
Si Si8 0.622947 0.143798 0.732505
O O1 0.659360 0.069909 0.704957
O O2 0.796073 0.000000 0.520093
O O3 0.596671 0.000000 0.047527
O O4 0.308549 0.247012 0.092363
O O5 0.347443 0.205335 0.238375
O O6 0.479998 0.192262 0.767198
O O7 0.434392 0.319548 0.936329
O O8 0.500000 0.847385 0.500000
O O9 0.662700 0.804716 0.273761
O O10 0.568259 0.927789 0.517554
O O11 0.622628 0.293843 0.537214
O O12 0.672832 0.167471 0.485658
O O13 0.428526 0.572948 0.342157
O O14 0.500000 0.654894 0.000000
O O15 0.000000 0.500000 0.500000
O O16 0.000000 0.000000 0.000000
O O17 0.500000 0.142596 0.000000
#
# Coordination Sequence:
#
# PCOD9186463 Si02
#       8
#     4   8   8   8   8   4   4   8
#     4  12  23  34  58  89 118 160 195 237 294 348
#     4  11  20  34  59  82 112 152 187 231 291 348
#     4  10  22  40  58  83 113 148 196 245 287 339
#     4  11  21  34  58  84 111 154 182 236 294 343
#     4  10  19  35  50  75 115 151 186 224 274 339
#     4  10  20  39  62  81 118 153 192 247 291 341
#     4  10  24  35  50  80 122 162 195 226 272 358
#     4  12  20  35  54  88 121 146 186 233 296 359
#
# _framework density 19.517267
#
# number of rings (size 3 to 8) (size 9 to 14) (size 15 to 20)
#    0.000    1.231    6.154    1.615    4.308    1.231 
#    0.000    0.769    0.000    0.000    0.000    8.615 
#    0.000    0.000    0.000    0.000    0.000    0.000 
#
# Total GULP energy -144984.198231 kJ/mol
# GULP energy per Si atom -5576.315317 kJ/mol
# Density = 1.947284 g / cm^3
# Si number density = 19.517267 Si / 1000 Ang^3
#
#
#
# Elastic Constant Matrix: (Units=GPa)
#
#
# Indices 1 2 3 4 5 6 
#
# 1 84.9104 53.1156 14.3233 0.0000 -21.7721 0.0000
# 2 53.1156 170.5213 30.0114 0.0000 -22.5581 0.0000
# 3 14.3233 30.0114 29.9213 0.0000 -20.9275 0.0000
# 4 0.0000 0.0000 0.0000 13.3703 0.0000 -1.5928
# 5 -21.7721 -22.5581 -20.9275 0.0000 36.1781 0.0000
# 6 0.0000 0.0000 0.0000 -1.5928 0.0000 27.4150
#
#
#
# Elastic Compliance Matrix: (Units=1/GPa)
#
#
# Indices 1 2 3 4 5 6 
#
# 1 0.016285 -0.004398 0.002607 0.000000 0.008566 0.000000
# 2 -0.004398 0.008315 -0.007490 0.000000 -0.001795 0.000000
# 3 0.002607 -0.007490 0.063009 0.000000 0.033347 0.000000
# 4 0.000000 0.000000 0.000000 0.075314 0.000000 0.004376
# 5 0.008566 -0.001795 0.033347 0.000000 0.050967 0.000000
# 6 0.000000 0.000000 0.000000 0.004376 0.000000 0.036731
#
#
# Mechanical properties :
#
#
# Convention : Reuss Voigt Hill
#
# Bulk Modulus (GPa) = 14.48297 53.36152 33.92225
# Shear Modulus (GPa) = 17.11165 27.91951 22.51558
#
# Velocity S-wave (km/s) = 2.96420 3.78630 3.40019
# Velocity P-wave (km/s) = 4.37630 6.82018 5.73004
#
# Compressibility (1/GPa) = 0.06904663
#
# Stress axis : x y z
#
# Youngs Moduli (GPa) = 61.40565 120.26154 15.87078
#
# Poissons Ratio (x) = 0.52895 -0.04138
# Poissons Ratio (y) = 0.27008 0.11887
# Poissons Ratio (z) = -0.16010 0.90078
#
# Static dielectric constant tensor:
#      x y z
#    x 1.750260 0.000000 -0.017580 
#    y 0.000000 1.704380 0.000000 
#    z -0.017580 0.000000 1.823990 
# 
# From -- ./inp_files/184331.got.cif
#   From: 2010.05.17/outbox.cif.g08.bks.cpg/sg12_93_cif.got.tgz:184331.got - 2010.06.03 13:09:07.
