data_PCOD9186506
_publ_section_title
;
Structure prediction by ZEFSAII (Michael W. Deem and Ramdas Pophale) SiO2 
 PCOD9186506
Probable space group: C 2/M
;
_chemical_formula_sum "Si O2"
_cell_formula_units_Z 48
_cell_length_a 7.254559
_cell_length_b 33.685915
_cell_length_c 18.724988
_cell_angle_alpha 90.000000
_cell_angle_beta 146.495911
_cell_angle_gamma 90.000000
_cell_volume 2525.906288
_symmetry_space_group_name_H-M "C 2/M"
_symmetry_group_IT_number 12
_symmetry_cell_setting 'monoclinic'
loop_
_space_group_symop_operation_xyz
x,y,z
-x,y,-z
-x,-y,-z
x,-y,z
1/2+x,1/2+y,z
1/2-x,1/2+y,-z
1/2-x,1/2-y,-z
1/2+x,1/2-y,z
loop_
_atom_site_type_symbol
_atom_site_label
_atom_site_fract_x
_atom_site_fract_y
_atom_site_fract_z
Si Si1 0.755492 0.203540 0.017916
Si Si2 0.480757 0.542660 0.408574
Si Si3 0.313588 0.854672 0.798418
Si Si4 0.306387 0.359543 0.770063
Si Si5 0.706996 0.924404 0.858763
Si Si6 0.246029 0.130139 0.479874
O O1 0.084981 0.179765 0.150418
O O2 0.500000 0.198089 0.000000
O O3 0.750000 0.250000 0.000000
O O4 0.573619 0.180388 0.895502
O O5 0.500000 0.542210 0.500000
O O6 0.606627 0.500000 0.421701
O O7 0.671202 0.582965 0.448974
O O8 0.093011 0.547753 0.262974
O O9 0.532817 0.893456 0.856639
O O10 0.066494 0.861273 0.786737
O O11 0.095505 0.849402 0.656058
O O12 0.326503 0.397354 0.829859
O O13 0.936831 0.360423 0.614930
O O14 0.000000 0.943468 0.000000
O O15 0.500000 0.141909 0.500000
#
# Coordination Sequence:
#
# PCOD9186506 Si02
#       6
#     8   8   8   8   8   8
#     4  10  21  34  52  77 109 138 171 223 267 312
#     4  10  20  34  51  80 112 136 176 225 267 314
#     4   9  20  34  52  81 103 133 183 223 252 320
#     4  10  19  35  53  79 105 135 179 223 258 312
#     4  11  20  32  58  77 104 147 181 212 263 320
#     4   9  18  35  58  77 101 140 180 221 264 311
#
# _framework density 19.003079
#
# number of rings (size 3 to 8) (size 9 to 14) (size 15 to 20)
#    0.000    2.167    3.333    0.000    2.333    0.667 
#    0.000    0.833    0.000    0.000    0.000    4.667 
#    0.000    0.000    0.000    0.000    0.000    0.000 
#
# Total GULP energy -133607.676778 kJ/mol
# GULP energy per Si atom -5566.986532 kJ/mol
# Density = 1.895983 g / cm^3
# Si number density = 19.003079 Si / 1000 Ang^3
#
#
#
# Elastic Constant Matrix: (Units=GPa)
#
#
# Indices 1 2 3 4 5 6 
#
# 1 60.0196 -2.7602 11.5106 0.0000 -12.2477 0.0000
# 2 -2.7602 92.2317 50.2327 0.0000 -2.6679 0.0000
# 3 11.5106 50.2327 181.5239 0.0000 -6.7265 0.0000
# 4 0.0000 0.0000 0.0000 53.4348 0.0000 -16.1027
# 5 -12.2477 -2.6679 -6.7265 0.0000 21.0205 0.0000
# 6 0.0000 0.0000 0.0000 -16.1027 0.0000 26.8810
#
#
#
# Elastic Compliance Matrix: (Units=1/GPa)
#
#
# Indices 1 2 3 4 5 6 
#
# 1 0.019217 0.001572 -0.001246 0.000000 0.010997 0.000000
# 2 0.001572 0.012900 -0.003618 0.000000 0.001395 0.000000
# 3 -0.001246 -0.003618 0.006624 0.000000 0.000934 0.000000
# 4 0.000000 0.000000 0.000000 0.022837 0.000000 0.013680
# 5 0.010997 0.001395 0.000934 0.000000 0.054457 0.000000
# 6 0.000000 0.000000 0.000000 0.013680 0.000000 0.045396
#
#
# Mechanical properties :
#
#
# Convention : Reuss Voigt Hill
#
# Bulk Modulus (GPa) = 31.09796 50.19348 40.64572
# Shear Modulus (GPa) = 27.97477 38.58672 33.28075
#
# Velocity S-wave (km/s) = 3.84098 4.51105 4.18943
# Velocity P-wave (km/s) = 6.00592 7.32144 6.69606
#
# Compressibility (1/GPa) = 0.03215645
#
# Stress axis : x y z
#
# Youngs Moduli (GPa) = 52.03831 77.51925 150.97346
#
# Poissons Ratio (x) = -0.12185 0.18811
# Poissons Ratio (y) = -0.08179 0.54618
# Poissons Ratio (z) = 0.06484 0.28045
#
# Static dielectric constant tensor:
#      x y z
#    x 1.693600 0.000000 -0.011000 
#    y 0.000000 1.707970 0.000000 
#    z -0.011000 0.000000 1.753460 
# 
# From -- ./inp_files/302902.got.cif
#   From: 2010.05.17/outbox.cif.g08.bks.cpg/sg12_152_cif.got.tgz:302902.got - 2010.06.03 13:09:07.
