data_PCOD9186383
_publ_section_title
;
Structure prediction by ZEFSAII (Michael W. Deem and Ramdas Pophale) SiO2 
 PCOD9186383
Probable space group: C 2/M
;
_chemical_formula_sum "Si O2"
_cell_formula_units_Z 40
_cell_length_a 8.518351
_cell_length_b 27.150730
_cell_length_c 8.188811
_cell_angle_alpha 90.000000
_cell_angle_beta 113.377531
_cell_angle_gamma 90.000000
_cell_volume 1738.433702
_symmetry_space_group_name_H-M "C 2/M"
_symmetry_group_IT_number 12
_symmetry_cell_setting 'monoclinic'
loop_
_space_group_symop_operation_xyz
x,y,z
-x,y,-z
-x,-y,-z
x,-y,z
1/2+x,1/2+y,z
1/2-x,1/2+y,-z
1/2-x,1/2-y,-z
1/2+x,1/2-y,z
loop_
_atom_site_type_symbol
_atom_site_label
_atom_site_fract_x
_atom_site_fract_y
_atom_site_fract_z
Si Si1 0.976565 0.500000 0.293721
Si Si2 0.853855 0.000000 0.300655
Si Si3 0.018639 0.701738 0.704884
Si Si4 0.149568 0.398889 0.695538
Si Si5 0.857013 0.195568 0.297516
Si Si6 0.974257 0.097965 0.182713
O O1 0.163371 0.500000 0.293372
O O2 0.000000 0.500000 0.500000
O O3 0.876828 0.449359 0.215019
O O4 0.000000 0.000000 0.500000
O O5 0.885470 0.950784 0.210925
O O6 0.831300 0.698278 0.704144
O O7 0.000000 0.703543 0.500000
O O8 0.125715 0.652114 0.783259
O O9 0.104505 0.753744 0.782685
O O10 0.328822 0.400250 0.675187
O O11 0.000000 0.398430 0.500000
O O12 0.000000 0.192120 0.500000
O O13 0.880356 0.146794 0.201885
O O14 0.000000 0.096823 0.000000
#
# Coordination Sequence:
#
# PCOD9186383 Si02
#       6
#     4   4   8   8   8   8
#     4  10  20  36  63  97 122 150 201 261 307 360
#     4  12  23  42  70  97 121 166 216 255 304 376
#     4  10  19  34  61  94 122 159 217 274 307 357
#     4  10  19  38  62  88 122 165 208 254 302 366
#     4  11  20  37  62  91 122 167 216 262 313 374
#     4  12  26  43  62  94 133 165 202 261 322 374
#
# _framework density 23.009218000000001
#
# number of rings (size 3 to 8) (size 9 to 14) (size 15 to 20)
#    0.000    1.200    0.000   11.100    0.000    0.000 
#    0.000    9.000    0.000    0.000    0.000    0.000 
#    0.000    0.000    0.000    0.000    0.000    0.000 
#
# Total GULP energy -111948.963611 kJ/mol
# GULP energy per Si atom -5597.448181 kJ/mol
# Density = 2.295685 g / cm^3
# Si number density = 23.009218 Si / 1000 Ang^3
#
#
#
# Elastic Constant Matrix: (Units=GPa)
#
#
# Indices 1 2 3 4 5 6 
#
# 1 198.8491 95.4274 25.9341 0.0000 -50.1295 0.0000
# 2 95.4274 299.2651 47.7998 0.0000 -43.8554 0.0000
# 3 25.9341 47.7998 70.5800 0.0000 -11.1875 0.0000
# 4 0.0000 0.0000 0.0000 -41.5135 0.0000 -17.1858
# 5 -50.1295 -43.8554 -11.1875 0.0000 39.3027 0.0000
# 6 0.0000 0.0000 0.0000 -17.1858 0.0000 38.1492
#
#
#
# Elastic Compliance Matrix: (Units=1/GPa)
#
#
# Indices 1 2 3 4 5 6 
#
# 1 0.007807 -0.001124 -0.000762 0.000000 0.008487 0.000000
# 2 -0.001124 0.004475 -0.002151 0.000000 0.002948 0.000000
# 3 -0.000762 -0.002151 0.016097 0.000000 0.001210 0.000000
# 4 0.000000 0.000000 0.000000 -0.020302 0.000000 -0.009146
# 5 0.008487 0.002948 0.001210 0.000000 0.039902 0.000000
# 6 0.000000 0.000000 0.000000 -0.009146 0.000000 0.022093
#
#
# Mechanical properties :
#
#
# Convention : Reuss Voigt Hill
#
# Bulk Modulus (GPa) = 49.24785 100.77964 75.01375
# Shear Modulus (GPa) = 58.88293 33.82322 46.35308
#
# Velocity S-wave (km/s) = 5.06424 3.83820 4.49324
# Velocity P-wave (km/s) = 7.45959 7.97102 7.71954
#
# Compressibility (1/GPa) = 0.02030545
#
# Stress axis : x y z
#
# Youngs Moduli (GPa) = 128.08553 223.43959 62.12453
#
# Poissons Ratio (x) = 0.25117 0.04735
# Poissons Ratio (y) = 0.14398 0.13361
# Poissons Ratio (z) = 0.09763 0.48054
#
# Static dielectric constant tensor:
#      x y z
#    x 1.852090 0.000000 0.093070 
#    y 0.000000 1.916680 0.000000 
#    z 0.093070 0.000000 1.936970 
# 
# From -- ./inp_files/40447.got.cif
#   From: 2010.05.17/outbox.cif.g08.bks.cpg/sg12_21_cif.got.tgz:40447.got - 2010.06.03 13:09:07.
