data_PCOD9186603
_publ_section_title
;
Structure prediction by ZEFSAII (Michael W. Deem and Ramdas Pophale) SiO2 
 PCOD9186603
Probable space group: C 2/M
;
_chemical_formula_sum "Si O2"
_cell_formula_units_Z 64
_cell_length_a 19.610501
_cell_length_b 12.023405
_cell_length_c 16.540413
_cell_angle_alpha 90.000000
_cell_angle_beta 90.000035
_cell_angle_gamma 90.000000
_cell_volume 3899.981209
_symmetry_space_group_name_H-M "C 2/M"
_symmetry_group_IT_number 12
_symmetry_cell_setting 'monoclinic'
loop_
_space_group_symop_operation_xyz
x,y,z
-x,y,-z
-x,-y,-z
x,-y,z
1/2+x,1/2+y,z
1/2-x,1/2+y,-z
1/2-x,1/2-y,-z
1/2+x,1/2-y,z
loop_
_atom_site_type_symbol
_atom_site_label
_atom_site_fract_x
_atom_site_fract_y
_atom_site_fract_z
Si Si1 0.858217 0.130879 0.406294
Si Si2 0.643022 0.869148 0.176137
Si Si3 0.856979 0.630852 0.176137
Si Si4 0.750000 0.750000 0.708583
Si Si5 0.000000 0.368927 0.238344
Si Si6 1.000000 0.736466 0.407235
Si Si7 0.141783 0.869121 0.406294
Si Si8 0.704486 0.865510 1.000000
O O1 0.800501 0.179116 0.347955
O O2 0.931269 0.191101 0.396798
O O3 0.837415 0.147044 0.500000
O O4 0.867048 0.000000 0.392086
O O5 0.701379 0.819856 0.232703
O O6 0.569292 0.820851 0.200364
O O7 0.661318 0.855822 0.082222
O O8 0.641052 0.000000 0.193095
O O9 0.858949 0.500000 0.193096
O O10 0.798621 0.680144 0.232704
O O11 0.930708 0.679149 0.200364
O O12 0.838681 0.644178 0.082223
O O13 0.800502 0.820883 0.652045
O O14 0.000000 0.500000 0.220254
O O15 0.000000 0.351142 0.334626
O O16 0.000000 0.693371 0.500000
O O17 0.068731 0.808900 0.396798
O O18 0.132953 0.000000 0.392085
O O19 0.730646 0.000000 1.000000
O O20 0.750000 0.750000 0.000000
#
# Coordination Sequence:
#
# PCOD9186603 Si02
#       8
#     8   8   8   8   8   8   8   8
#     4  10  21  35  52  76 106 142 184 228 272 325
#     4  10  21  35  56  82 109 141 181 226 274 328
#     4  10  21  35  56  82 109 141 181 226 274 328
#     4  12  19  33  56  78 110 138 180 219 283 328
#     4  10  20  37  55  78 109 140 182 230 267 323
#     4  10  19  35  55  74 102 143 184 226 271 325
#     4  10  21  35  52  76 106 142 184 228 272 325
#     4  10  20  37  59  89 117 149 184 226 284 338
#
# _framework density 16.410335
#
# number of rings (size 3 to 8) (size 9 to 14) (size 15 to 20)
#    0.000    1.750    3.750    1.500    0.000    2.250 
#    0.000    2.500    0.000    0.000    0.000    0.875 
#    0.000    0.000    0.000    0.000    0.000    0.000 
#
# Total GULP energy -178172.876647 kJ/mol
# GULP energy per Si atom -5567.902395 kJ/mol
# Density = 1.637298 g / cm^3
# Si number density = 16.410335 Si / 1000 Ang^3
#
#
#
# Elastic Constant Matrix: (Units=GPa)
#
#
# Indices 1 2 3 4 5 6 
#
# 1 128.6663 29.3927 55.5193 0.0000 -0.0009 0.0000
# 2 29.3927 36.3973 18.1536 0.0000 -0.0002 0.0000
# 3 55.5193 18.1536 78.2636 0.0000 -0.0003 0.0000
# 4 0.0000 0.0000 0.0000 24.0016 0.0000 -0.0001
# 5 -0.0009 -0.0002 -0.0003 0.0000 15.8107 0.0000
# 6 0.0000 0.0000 0.0000 -0.0001 0.0000 17.6247
#
#
#
# Elastic Compliance Matrix: (Units=1/GPa)
#
#
# Indices 1 2 3 4 5 6 
#
# 1 0.012375 -0.006350 -0.007306 0.000000 0.000000 0.000000
# 2 -0.006350 0.034327 -0.003458 0.000000 0.000000 0.000000
# 3 -0.007306 -0.003458 0.018762 0.000000 0.000000 0.000000
# 4 0.000000 0.000000 0.000000 0.041664 0.000000 0.000000
# 5 0.000000 0.000000 0.000000 0.000000 0.063248 0.000000
# 6 0.000000 0.000000 0.000000 0.000000 0.000000 0.056738
#
#
# Mechanical properties :
#
#
# Convention : Reuss Voigt Hill
#
# Bulk Modulus (GPa) = 32.01313 49.93983 40.97648
# Shear Modulus (GPa) = 18.39901 20.83818 19.61860
#
# Velocity S-wave (km/s) = 3.35204 3.56732 3.46135
# Velocity P-wave (km/s) = 5.87638 6.88954 6.40303
#
# Compressibility (1/GPa) = 0.03123718
#
# Stress axis : x y z
#
# Youngs Moduli (GPa) = 80.80784 29.13167 53.29880
#
# Poissons Ratio (x) = 0.18497 0.38940
# Poissons Ratio (y) = 0.51310 0.18431
# Poissons Ratio (z) = 0.59037 0.10074
#
# Static dielectric constant tensor:
#      x y z
#    x 1.569520 0.000000 0.000000 
#    y 0.000000 1.552970 0.000000 
#    z 0.000000 0.000000 1.532260 
# 
# From -- ./inp_files/223823.got.cif
#   From: 2010.05.17/outbox.cif.g08.bks.cpg/sg12_112_cif.got.tgz:223823.got - 2010.06.03 13:09:07.
