data_PCOD9186349
_publ_section_title
;
Structure prediction by ZEFSAII (Michael W. Deem and Ramdas Pophale) SiO2 
 PCOD9186349
Probable space group: C 2/M
;
_chemical_formula_sum "Si O2"
_cell_formula_units_Z 52
_cell_length_a 16.265292
_cell_length_b 30.083424
_cell_length_c 5.253542
_cell_angle_alpha 90.000000
_cell_angle_beta 73.606918
_cell_angle_gamma 90.000000
_cell_volume 2466.138927
_symmetry_space_group_name_H-M "C 2/M"
_symmetry_group_IT_number 12
_symmetry_cell_setting 'monoclinic'
loop_
_space_group_symop_operation_xyz
x,y,z
-x,y,-z
-x,-y,-z
x,-y,z
1/2+x,1/2+y,z
1/2-x,1/2+y,-z
1/2-x,1/2-y,-z
1/2+x,1/2-y,z
loop_
_atom_site_type_symbol
_atom_site_label
_atom_site_fract_x
_atom_site_fract_y
_atom_site_fract_z
Si Si1 0.258423 0.598752 0.030409
Si Si2 0.100595 0.410960 0.481522
Si Si3 0.941069 0.680327 0.299212
Si Si4 0.558978 0.277985 0.697231
Si Si5 0.597280 0.549565 0.817799
Si Si6 0.169513 0.865101 0.542076
Si Si7 0.059997 0.500000 0.701947
O O1 0.161921 0.584773 0.183369
O O2 0.329547 0.560621 0.032413
O O3 0.279761 0.633213 0.237909
O O4 0.275905 0.622548 0.751721
O O5 0.112626 0.364247 0.613774
O O6 0.114767 0.454940 0.637230
O O7 0.000000 0.410783 0.500000
O O8 0.898717 0.728982 0.308128
O O9 0.000000 0.683056 0.500000
O O10 0.000000 0.674183 0.000000
O O11 0.500000 0.275724 0.500000
O O12 0.621317 0.318708 0.586134
O O13 0.500000 0.285893 0.000000
O O14 0.614241 0.500000 0.698651
O O15 0.607166 0.591652 0.622377
O O16 0.500000 0.550145 0.000000
O O17 0.000000 0.500000 0.500000
O O18 0.000000 0.500000 0.000000
#
# Coordination Sequence:
#
# PCOD9186349 Si02
#       7
#     8   8   8   8   8   8   4
#     4  10  24  38  58  87 121 156 196 247 296 348
#     4  10  22  42  63  88 121 159 201 247 298 356
#     4   9  19  35  58  88 116 153 197 243 294 356
#     4  10  19  34  61  88 116 156 200 241 298 352
#     4   9  21  40  61  86 120 160 197 241 298 356
#     4  10  22  37  57  88 119 152 197 249 290 355
#     4  10  22  38  62  92 109 151 201 245 292 348
#
# _framework density 21.085591999999998
#
# number of rings (size 3 to 8) (size 9 to 14) (size 15 to 20)
#    0.923    1.385    0.000    1.846    3.231    5.538 
#    0.000    3.077    0.000    0.000    0.000    0.000 
#    0.000    0.000    0.000    0.000    0.000    0.000 
#
# Total GULP energy -144765.913737 kJ/mol
# GULP energy per Si atom -5567.919759 kJ/mol
# Density = 2.103760 g / cm^3
# Si number density = 21.085592 Si / 1000 Ang^3
#
#
#
# Elastic Constant Matrix: (Units=GPa)
#
#
# Indices 1 2 3 4 5 6 
#
# 1 61.7865 23.7292 29.7570 0.0000 -13.5542 0.0000
# 2 23.7292 197.3081 63.2532 0.0000 -21.8226 0.0000
# 3 29.7570 63.2532 161.7221 0.0000 -3.4129 0.0000
# 4 0.0000 0.0000 0.0000 -101.8111 0.0000 105.9957
# 5 -13.5542 -21.8226 -3.4129 0.0000 32.0063 0.0000
# 6 0.0000 0.0000 0.0000 105.9957 0.0000 -91.1695
#
#
#
# Elastic Compliance Matrix: (Units=1/GPa)
#
#
# Indices 1 2 3 4 5 6 
#
# 1 0.019612 -0.000467 -0.003265 0.000000 0.007639 0.000000
# 2 -0.000467 0.006284 -0.002291 0.000000 0.003842 0.000000
# 3 -0.003265 -0.002291 0.007635 0.000000 -0.002130 0.000000
# 4 0.000000 0.000000 0.000000 0.046681 0.000000 0.054273
# 5 0.007639 0.003842 -0.002130 0.000000 0.036871 0.000000
# 6 0.000000 0.000000 0.000000 0.054273 0.000000 0.052130
#
#
# Mechanical properties :
#
#
# Convention : Reuss Voigt Hill
#
# Bulk Modulus (GPa) = 46.54204 72.69947 59.62076
# Shear Modulus (GPa) = 26.53634 -11.92303 7.30665
#
# Velocity S-wave (km/s) = 3.55139 -2.38052 1.86353
# Velocity P-wave (km/s) = 6.23998 5.19589 5.74172
#
# Compressibility (1/GPa) = 0.02148595
#
# Stress axis : x y z
#
# Youngs Moduli (GPa) = 50.98856 159.14193 130.97354
#
# Poissons Ratio (x) = 0.07435 0.42759
# Poissons Ratio (y) = 0.02382 0.30001
# Poissons Ratio (z) = 0.16646 0.36454
#
# Static dielectric constant tensor:
#      x y z
#    x 1.787600 0.000000 -0.009250 
#    y 0.000000 1.821730 0.000000 
#    z -0.009250 0.000000 1.747330 
# 
# From -- ./inp_files/22747.got.cif
#   From: 2010.05.17/outbox.cif.g08.bks.cpg/sg12_12_cif.got.tgz:22747.got - 2010.06.03 13:09:07.
