data_PCOD9186932
_publ_section_title
;
Structure prediction by ZEFSAII (Michael W. Deem and Ramdas Pophale) SiO2 
 PCOD9186932
Probable space group: C 2/M
;
_chemical_formula_sum "Si O2"
_cell_formula_units_Z 64
_cell_length_a 31.269452
_cell_length_b 7.729476
_cell_length_c 19.089565
_cell_angle_alpha 90.000000
_cell_angle_beta 140.510277
_cell_angle_gamma 90.000000
_cell_volume 2934.150359
_symmetry_space_group_name_H-M "C 2/M"
_symmetry_group_IT_number 12
_symmetry_cell_setting 'monoclinic'
loop_
_space_group_symop_operation_xyz
x,y,z
-x,y,-z
-x,-y,-z
x,-y,z
1/2+x,1/2+y,z
1/2-x,1/2+y,-z
1/2-x,1/2-y,-z
1/2+x,1/2-y,z
loop_
_atom_site_type_symbol
_atom_site_label
_atom_site_fract_x
_atom_site_fract_y
_atom_site_fract_z
Si Si1 0.898842 0.211602 0.566674
Si Si2 0.608949 0.789513 0.182336
Si Si3 0.225808 0.200879 0.066440
Si Si4 0.995347 0.787940 0.413789
Si Si5 0.247452 0.207503 0.578832
Si Si6 0.357979 0.700271 0.170975
Si Si7 0.985679 0.798681 0.809420
Si Si8 0.378550 0.198775 0.957819
O O1 0.822228 0.272952 0.476478
O O2 0.940799 0.267261 0.688352
O O3 0.940164 0.263357 0.550474
O O4 0.897271 0.000000 0.566241
O O5 0.683752 0.732757 0.298914
O O6 0.556960 0.720437 0.173477
O O7 0.598932 0.733187 0.089617
O O8 0.603484 0.000000 0.178701
O O9 0.298099 0.290042 0.152308
O O10 0.185208 0.214279 0.086823
O O11 0.238276 0.000000 0.066243
O O12 0.176764 0.274452 0.943161
O O13 0.927208 0.726990 0.288788
O O14 0.000000 0.731019 0.500000
O O15 0.993202 0.000000 0.411874
O O16 0.250000 0.250000 0.500000
O O17 0.247112 0.000000 0.585300
O O18 0.372631 0.500000 0.172458
O O19 0.999869 0.000000 0.813912
O O20 0.057176 0.710625 0.910649
O O21 0.359353 0.000000 0.923064
#
# Coordination Sequence:
#
# PCOD9186932 Si02
#       8
#     8   8   8   8   8   8   8   8
#     4   9  18  32  52  80 109 140 180 226 272 319
#     4  10  22  37  54  78 110 145 182 228 278 329
#     4  10  20  35  56  81 108 142 183 227 272 329
#     4   9  17  30  52  81 110 141 180 224 270 324
#     4  10  19  35  57  79 107 141 181 229 275 324
#     4   9  18  34  56  81 110 142 180 227 274 326
#     4  11  21  35  56  79 107 145 185 227 275 331
#     4  11  23  37  53  79 113 145 180 226 278 331
#
# _framework density 21.812106
#
# number of rings (size 3 to 8) (size 9 to 14) (size 15 to 20)
#    0.000    2.125    1.250    2.250    0.000    6.000 
#    0.000    3.750    0.000    1.125    0.000    0.000 
#    0.000    0.000    0.000    0.000    0.000    0.000 
#
# Total GULP energy -178758.186315 kJ/mol
# GULP energy per Si atom -5586.193322 kJ/mol
# Density = 2.176246 g / cm^3
# Si number density = 21.812106 Si / 1000 Ang^3
#
#
#
# Elastic Constant Matrix: (Units=GPa)
#
#
# Indices 1 2 3 4 5 6 
#
# 1 140.3260 -4.6679 20.1539 0.0000 14.0930 0.0000
# 2 -4.6679 34.8586 -0.0280 0.0000 -3.3179 0.0000
# 3 20.1539 -0.0280 53.7692 0.0000 21.6485 0.0000
# 4 0.0000 0.0000 0.0000 13.1054 0.0000 3.4603
# 5 14.0930 -3.3179 21.6485 0.0000 31.6341 0.0000
# 6 0.0000 0.0000 0.0000 3.4603 0.0000 18.2587
#
#
#
# Elastic Compliance Matrix: (Units=1/GPa)
#
#
# Indices 1 2 3 4 5 6 
#
# 1 0.007646 0.000844 -0.002111 0.000000 -0.001873 0.000000
# 2 0.000844 0.029179 -0.001907 0.000000 0.003990 0.000000
# 3 -0.002111 -0.001907 0.026351 0.000000 -0.017292 0.000000
# 4 0.000000 0.000000 0.000000 0.080324 0.000000 -0.015223
# 5 -0.001873 0.003990 -0.017292 0.000000 0.044698 0.000000
# 6 0.000000 0.000000 0.000000 -0.015223 0.000000 0.057653
#
#
# Mechanical properties :
#
#
# Convention : Reuss Voigt Hill
#
# Bulk Modulus (GPa) = 17.59790 28.87442 23.23616
# Shear Modulus (GPa) = 18.44056 26.83270 22.63663
#
# Velocity S-wave (km/s) = 2.91078 3.51119 3.22499
# Velocity P-wave (km/s) = 4.40253 5.45018 4.95413
#
# Compressibility (1/GPa) = 0.05682497
#
# Stress axis : x y z
#
# Youngs Moduli (GPa) = 130.79331 34.27175 37.94992
#
# Poissons Ratio (x) = -0.02892 0.08012
# Poissons Ratio (y) = -0.11037 0.07239
# Poissons Ratio (z) = 0.27614 0.06537
#
# Static dielectric constant tensor:
#      x y z
#    x 1.775050 0.000000 -0.012800 
#    y 0.000000 1.796560 0.000000 
#    z -0.012800 0.000000 1.762270 
# 
# From -- ./inp_files/295817.got.cif
#   From: 2010.05.17/outbox.cif.g08.bks.cpg/sg12_148_cif.got.tgz:295817.got - 2010.06.03 13:09:07.
