data_PCOD9186615
_publ_section_title
;
Structure prediction by ZEFSAII (Michael W. Deem and Ramdas Pophale) SiO2 
 PCOD9186615
Probable space group: C 2/M
;
_chemical_formula_sum "Si O2"
_cell_formula_units_Z 48
_cell_length_a 10.285186
_cell_length_b 19.199940
_cell_length_c 14.817374
_cell_angle_alpha 90.000000
_cell_angle_beta 79.902457
_cell_angle_gamma 90.000000
_cell_volume 2880.737623
_symmetry_space_group_name_H-M "C 2/M"
_symmetry_group_IT_number 12
_symmetry_cell_setting 'monoclinic'
loop_
_space_group_symop_operation_xyz
x,y,z
-x,y,-z
-x,-y,-z
x,-y,z
1/2+x,1/2+y,z
1/2-x,1/2+y,-z
1/2-x,1/2-y,-z
1/2+x,1/2-y,z
loop_
_atom_site_type_symbol
_atom_site_label
_atom_site_fract_x
_atom_site_fract_y
_atom_site_fract_z
Si Si1 0.720497 0.419329 0.731255
Si Si2 0.356985 0.836176 0.558854
Si Si3 0.676237 0.689653 0.890240
Si Si4 0.138672 0.173917 0.432168
Si Si5 0.371737 0.684627 0.895128
Si Si6 0.909133 0.919043 0.733112
O O1 0.750286 0.500000 0.745048
O O2 0.814705 0.386550 0.644345
O O3 0.723655 0.372697 0.820710
O O4 0.569239 0.415118 0.713623
O O5 0.500000 0.850251 0.500000
O O6 0.252846 0.841244 0.490043
O O7 0.353540 0.755867 0.593422
O O8 0.525891 0.707900 0.878878
O O9 0.775513 0.754558 0.872376
O O10 0.667487 0.668821 0.996709
O O11 0.143697 0.125028 0.344720
O O12 0.000000 0.163231 0.500000
O O13 0.364188 0.618498 0.830534
O O14 0.871627 0.000000 0.733601
#
# Coordination Sequence:
#
# PCOD9186615 Si02
#       6
#     8   8   8   8   8   8
#     4  10  20  34  52  77 108 139 170 210 260 309
#     4  10  21  35  54  77 103 135 174 219 257 300
#     4   9  18  34  57  80 103 135 172 213 257 302
#     4  10  19  35  55  76 100 135 177 214 257 301
#     4   9  18  34  56  81 105 132 172 215 255 302
#     4  10  20  33  53  79 106 137 173 212 254 306
#
# _framework density 16.662399000000001
#
# number of rings (size 3 to 8) (size 9 to 14) (size 15 to 20)
#    0.000    2.333    1.667    1.000    0.000    2.000 
#    3.000    3.333    0.000    0.000    0.000    4.667 
#    0.000    0.000    0.000    0.000    0.000    0.000 
#
# Total GULP energy -133861.697377 kJ/mol
# GULP energy per Si atom -5577.570724 kJ/mol
# Density = 1.662447 g / cm^3
# Si number density = 16.662399 Si / 1000 Ang^3
#
#
#
# Elastic Constant Matrix: (Units=GPa)
#
#
# Indices 1 2 3 4 5 6 
#
# 1 86.7696 62.0940 52.1893 0.0000 -5.3700 0.0000
# 2 62.0940 136.8919 94.4009 0.0000 -5.1517 0.0000
# 3 52.1893 94.4009 94.6174 0.0000 -4.0248 0.0000
# 4 0.0000 0.0000 0.0000 4.9219 0.0000 -1.5304
# 5 -5.3700 -5.1517 -4.0248 0.0000 18.5114 0.0000
# 6 0.0000 0.0000 0.0000 -1.5304 0.0000 10.9738
#
#
#
# Elastic Compliance Matrix: (Units=1/GPa)
#
#
# Indices 1 2 3 4 5 6 
#
# 1 0.018124 -0.004178 -0.005707 0.000000 0.002854 0.000000
# 2 -0.004178 0.024417 -0.022023 0.000000 0.000795 0.000000
# 3 -0.005707 -0.022023 0.035688 0.000000 -0.000025 0.000000
# 4 0.000000 0.000000 0.000000 0.212383 0.000000 0.029619
# 5 0.002854 0.000795 -0.000025 0.000000 0.055064 0.000000
# 6 0.000000 0.000000 0.000000 0.029619 0.000000 0.095257
#
#
# Mechanical properties :
#
#
# Convention : Reuss Voigt Hill
#
# Bulk Modulus (GPa) = 69.37980 81.73860 75.55920
# Shear Modulus (GPa) = 9.81251 14.18773 12.00012
#
# Velocity S-wave (km/s) = 2.42936 2.92118 2.68655
# Velocity P-wave (km/s) = 7.04258 7.78074 7.42085
#
# Compressibility (1/GPa) = 0.01441342
#
# Stress axis : x y z
#
# Youngs Moduli (GPa) = 55.17594 40.95465 28.02041
#
# Poissons Ratio (x) = 0.17111 0.15991
# Poissons Ratio (y) = 0.23053 0.61709
# Poissons Ratio (z) = 0.31488 0.90195
#
# Static dielectric constant tensor:
#      x y z
#    x 1.556560 0.000000 0.001890 
#    y 0.000000 1.536910 0.000000 
#    z 0.001890 0.000000 1.546680 
# 
# From -- ./inp_files/131792.got.cif
#   From: 2010.05.17/outbox.cif.g08.bks.cpg/sg12_66_cif.got.tgz:131792.got - 2010.06.03 13:09:07.
