data_PCOD9186703
_publ_section_title
;
Structure prediction by ZEFSAII (Michael W. Deem and Ramdas Pophale) SiO2 
 PCOD9186703
Probable space group: C 2/M
;
_chemical_formula_sum "Si O2"
_cell_formula_units_Z 52
_cell_length_a 13.987613
_cell_length_b 16.643691
_cell_length_c 21.690860
_cell_angle_alpha 90.000000
_cell_angle_beta 155.347805
_cell_angle_gamma 90.000000
_cell_volume 2106.296427
_symmetry_space_group_name_H-M "C 2/M"
_symmetry_group_IT_number 12
_symmetry_cell_setting 'monoclinic'
loop_
_space_group_symop_operation_xyz
x,y,z
-x,y,-z
-x,-y,-z
x,-y,z
1/2+x,1/2+y,z
1/2-x,1/2+y,-z
1/2-x,1/2-y,-z
1/2+x,1/2-y,z
loop_
_atom_site_type_symbol
_atom_site_label
_atom_site_fract_x
_atom_site_fract_y
_atom_site_fract_z
Si Si1 0.965003 0.339950 0.234058
Si Si2 0.305439 0.500000 0.083878
Si Si3 0.242927 0.000000 0.260971
Si Si4 0.678201 0.341792 0.661353
Si Si5 0.827108 0.331237 0.341727
Si Si6 0.836212 0.093138 0.544564
Si Si7 0.786738 0.000000 0.931915
Si Si8 0.570183 0.660080 0.799254
O O1 0.084867 0.347588 0.236580
O O2 0.163500 0.354005 0.401618
O O3 0.855844 0.251073 0.172532
O O4 0.801880 0.415956 0.145454
O O5 0.584252 0.500000 0.230833
O O6 0.263100 0.583647 0.094300
O O7 0.204578 0.500000 0.956360
O O8 0.371202 0.084206 0.335432
O O9 0.058512 0.000000 0.098979
O O10 0.500000 0.345511 0.500000
O O11 0.656357 0.254406 0.680931
O O12 0.583481 0.404443 0.654417
O O13 0.570128 0.333496 0.218742
O O14 0.000000 0.326709 0.500000
O O15 0.888704 0.132981 0.640742
O O16 0.765285 0.000000 0.505796
#
# Coordination Sequence:
#
# PCOD9186703 Si02
#       8
#     8   4   4   8   8   8   4   8
#     4  10  20  33  54  82 111 147 188 221 268 332
#     4   8  18  34  50  77 105 136 182 225 267 307
#     4   8  17  30  50  76 102 133 174 233 269 301
#     4   8  18  31  50  80 109 140 180 219 273 328
#     4   9  16  32  53  81 107 131 180 233 275 318
#     4  11  20  33  57  82 116 144 170 230 290 329
#     4  10  20  34  51  81 111 144 193 226 259 327
#     4  10  19  35  55  83 113 142 178 229 286 323
#
# _framework density 24.687882999999999
#
# number of rings (size 3 to 8) (size 9 to 14) (size 15 to 20)
#    0.462    2.154    1.538    1.615    1.077    1.538 
#    0.000    0.000    0.000    1.846    0.000    7.538 
#    0.000    0.000    0.000    0.000    0.000    0.000 
#
# Total GULP energy -145090.788021 kJ/mol
# GULP energy per Si atom -5580.414924 kJ/mol
# Density = 2.463169 g / cm^3
# Si number density = 24.687883 Si / 1000 Ang^3
#
#
#
# Elastic Constant Matrix: (Units=GPa)
#
#
# Indices 1 2 3 4 5 6 
#
# 1 78.5683 31.7034 -7.3057 0.0001 -7.0160 0.0007
# 2 31.7034 220.4610 22.6265 -0.0019 -5.4814 0.0003
# 3 -7.3057 22.6265 26.6141 0.0042 -14.6722 0.0026
# 4 0.0001 -0.0019 0.0042 7.2889 0.0009 -10.3910
# 5 -7.0160 -5.4814 -14.6722 0.0009 20.2471 0.0009
# 6 0.0007 0.0003 0.0026 -10.3910 0.0009 13.2707
#
#
#
# Elastic Compliance Matrix: (Units=1/GPa)
#
#
# Indices 1 2 3 4 5 6 
#
# 1 0.017669 -0.003966 0.018328 0.000191 0.018330 0.000144
# 2 -0.003966 0.005961 -0.010033 -0.000102 -0.007031 -0.000077
# 3 0.018328 -0.010033 0.088490 0.000815 0.067760 0.000615
# 4 0.000191 -0.000102 0.000815 -1.180120 0.000726 -0.924043
# 5 0.018330 -0.007031 0.067760 0.000726 0.102941 0.000548
# 6 0.000144 -0.000077 0.000615 -0.924043 0.000548 -0.648179
#
#
# Mechanical properties :
#
#
# Convention : Reuss Voigt Hill
#
# Bulk Modulus (GPa) = 8.27967 46.63243 27.45605
# Shear Modulus (GPa) = -3.16128 26.73596 11.78734
#
# Velocity S-wave (km/s) = -1.13282 3.29440 2.18744
# Velocity P-wave (km/s) = 1.28452 5.77932 4.18632
#
# Compressibility (1/GPa) = 0.12077770
#
# Stress axis : x y z
#
# Youngs Moduli (GPa) = 56.59551 167.75166 11.30069
#
# Poissons Ratio (x) = 0.66533 -0.20711
# Poissons Ratio (y) = 0.22447 0.11338
# Poissons Ratio (z) = -1.03726 1.68303
#
# Static dielectric constant tensor:
#      x y z
#    x 2.045350 0.000000 0.019780 
#    y 0.000000 1.947060 -0.000010 
#    z 0.019780 -0.000010 1.925640 
# 
# From -- ./inp_files/343732.got.cif
#   From: 2010.05.17/outbox.cif.g08.bks.cpg/sg12_172_cif.got.tgz:343732.got - 2010.06.03 13:09:07.
