data_PCOD9186295
_publ_section_title
;
Structure prediction by ZEFSAII (Michael W. Deem and Ramdas Pophale) SiO2 
 PCOD9186295
Probable space group: C 2/M
;
_chemical_formula_sum "Si O2"
_cell_formula_units_Z 64
_cell_length_a 8.938043
_cell_length_b 19.157055
_cell_length_c 24.002694
_cell_angle_alpha 90.000000
_cell_angle_beta 127.376096
_cell_angle_gamma 90.000000
_cell_volume 3266.005204
_symmetry_space_group_name_H-M "C 2/M"
_symmetry_group_IT_number 12
_symmetry_cell_setting 'monoclinic'
loop_
_space_group_symop_operation_xyz
x,y,z
-x,y,-z
-x,-y,-z
x,-y,z
1/2+x,1/2+y,z
1/2-x,1/2+y,-z
1/2-x,1/2-y,-z
1/2+x,1/2-y,z
loop_
_atom_site_type_symbol
_atom_site_label
_atom_site_fract_x
_atom_site_fract_y
_atom_site_fract_z
Si Si1 0.818393 0.578130 0.809295
Si Si2 0.672882 0.732184 0.344846
Si Si3 0.424079 0.578926 0.657710
Si Si4 0.832990 0.917796 0.506157
Si Si5 0.167117 0.340165 0.072461
Si Si6 0.578090 0.790516 0.435108
Si Si7 0.541072 0.184350 0.796110
Si Si8 0.962895 0.783599 0.882707
O O1 0.863053 0.500000 0.836488
O O2 0.635739 0.577698 0.728368
O O3 0.784026 0.622423 0.857824
O O4 0.978622 0.610911 0.806756
O O5 0.652287 0.649095 0.329994
O O6 0.546366 0.762466 0.365696
O O7 0.608261 0.781669 0.280281
O O8 0.882743 0.733000 0.417008
O O9 0.345450 0.500000 0.650773
O O10 0.401755 0.591267 0.585953
O O11 0.648151 0.870368 0.454364
O O12 0.000000 0.899428 0.500000
O O13 0.791973 0.000000 0.489262
O O14 0.074246 0.266729 0.073012
O O15 0.353013 0.332644 0.075859
O O16 0.000000 0.375964 0.000000
O O17 0.750000 0.750000 0.500000
O O18 0.756552 0.184180 0.824367
O O19 0.520274 0.234972 0.844198
#
# Coordination Sequence:
#
# PCOD9186295 Si02
#       8
#     8   8   8   8   8   8   8   8
#     4  10  22  39  58  82 115 155 199 239 287 347
#     4  12  23  37  58  83 111 148 190 240 295 344
#     4  10  21  38  60  80 108 150 191 237 291 347
#     4  10  22  39  57  78 110 149 192 237 292 351
#     4  10  19  34  60  90 122 154 186 232 289 346
#     4  12  24  36  53  81 114 143 188 240 292 349
#     4  10  20  36  58  84 114 152 194 242 286 341
#     4   9  18  34  57  88 120 145 192 237 285 338
#
# _framework density 19.595804000000001
#
# number of rings (size 3 to 8) (size 9 to 14) (size 15 to 20)
#    0.000    1.625    1.250    5.250    1.750    0.750 
#    0.000    1.875    0.000    3.000    0.000    0.000 
#    0.000    0.000    0.000    0.000    0.000    0.000 
#
# Total GULP energy -178154.615432 kJ/mol
# GULP energy per Si atom -5567.331732 kJ/mol
# Density = 1.955120 g / cm^3
# Si number density = 19.595804 Si / 1000 Ang^3
#
#
#
# Elastic Constant Matrix: (Units=GPa)
#
#
# Indices 1 2 3 4 5 6 
#
# 1 92.0194 20.4280 24.2771 0.0000 18.7458 0.0000
# 2 20.4280 78.9776 15.9785 0.0000 5.5227 0.0000
# 3 24.2771 15.9785 66.4152 0.0000 11.6900 0.0000
# 4 0.0000 0.0000 0.0000 13.2693 0.0000 2.0997
# 5 18.7458 5.5227 11.6900 0.0000 31.0216 0.0000
# 6 0.0000 0.0000 0.0000 2.0997 0.0000 2.3248
#
#
#
# Elastic Compliance Matrix: (Units=1/GPa)
#
#
# Indices 1 2 3 4 5 6 
#
# 1 0.013592 -0.002402 -0.003235 0.000000 -0.006567 0.000000
# 2 -0.002402 0.013779 -0.002421 0.000000 -0.000089 0.000000
# 3 -0.003235 -0.002421 0.017567 0.000000 -0.004234 0.000000
# 4 0.000000 0.000000 0.000000 0.087928 0.000000 -0.079415
# 5 -0.006567 -0.000089 -0.004234 0.000000 0.037815 0.000000
# 6 0.000000 0.000000 0.000000 -0.079415 0.000000 0.501868
#
#
# Mechanical properties :
#
#
# Convention : Reuss Voigt Hill
#
# Bulk Modulus (GPa) = 34.69563 39.86438 37.28001
# Shear Modulus (GPa) = 7.16053 21.10504 14.13278
#
# Velocity S-wave (km/s) = 1.91365 3.28536 2.68846
# Velocity P-wave (km/s) = 4.75676 5.89736 5.35750
#
# Compressibility (1/GPa) = 0.02882207
#
# Stress axis : x y z
#
# Youngs Moduli (GPa) = 73.57505 72.57305 56.92503
#
# Poissons Ratio (x) = 0.17432 0.18412
# Poissons Ratio (y) = 0.17672 0.13784
# Poissons Ratio (z) = 0.23798 0.17573
#
# Static dielectric constant tensor:
#      x y z
#    x 1.736560 0.000000 0.005180 
#    y 0.000000 1.763190 0.000000 
#    z 0.005180 0.000000 1.729840 
# 
# From -- ./inp_files/333743.got.cif
#   From: 2010.05.17/outbox.cif.g08.bks.cpg/sg12_167_cif.got.tgz:333743.got - 2010.06.03 13:09:07.
