data_PCOD9186745
_publ_section_title
;
Structure prediction by ZEFSAII (Michael W. Deem and Ramdas Pophale) SiO2 
 PCOD9186745
Probable space group: C 2/M
;
_chemical_formula_sum "Si O2"
_cell_formula_units_Z 56
_cell_length_a 31.379920
_cell_length_b 7.896343
_cell_length_c 23.702353
_cell_angle_alpha 90.000000
_cell_angle_beta 152.264113
_cell_angle_gamma 90.000000
_cell_volume 2733.332265
_symmetry_space_group_name_H-M "C 2/M"
_symmetry_group_IT_number 12
_symmetry_cell_setting 'monoclinic'
loop_
_space_group_symop_operation_xyz
x,y,z
-x,y,-z
-x,-y,-z
x,-y,z
1/2+x,1/2+y,z
1/2-x,1/2+y,-z
1/2-x,1/2-y,-z
1/2+x,1/2-y,z
loop_
_atom_site_type_symbol
_atom_site_label
_atom_site_fract_x
_atom_site_fract_y
_atom_site_fract_z
Si Si1 0.939520 0.792689 0.013581
Si Si2 0.869823 0.799277 0.812787
Si Si3 0.866804 0.794864 0.049355
Si Si4 0.832686 0.200239 0.208513
Si Si5 0.599593 0.197737 0.596492
Si Si6 0.018980 0.207790 0.708406
Si Si7 0.831214 0.804672 0.442577
O O1 0.902324 0.734422 0.030015
O O2 0.043774 0.737506 0.122446
O O3 0.937226 0.000000 0.012893
O O4 0.880904 0.736064 0.890326
O O5 0.769727 0.769863 0.671241
O O6 0.882959 0.000000 0.832120
O O7 0.932590 0.739245 0.177105
O O8 0.866199 0.000000 0.048909
O O9 0.762734 0.735303 0.934076
O O10 0.835458 0.284833 0.273127
O O11 0.916906 0.261326 0.268731
O O12 0.843129 0.000000 0.229272
O O13 0.500000 0.261989 0.500000
O O14 0.636969 0.289130 0.585263
O O15 0.590579 0.000000 0.571126
O O16 0.915541 0.268569 0.577441
O O17 0.017779 0.000000 0.706096
O O18 0.822776 0.000000 0.448049
#
# Coordination Sequence:
#
# PCOD9186745 Si02
#       7
#     8   8   8   8   8   8   8
#     4   8  16  32  56  78 102 132 171 222 272 314
#     4   9  17  33  55  81 105 132 171 220 271 322
#     4  10  19  35  56  77 101 141 189 225 256 309
#     4  11  21  35  53  77 108 143 175 218 272 317
#     4  11  22  35  53  78 104 135 176 219 256 307
#     4   9  20  35  51  72 107 147 181 214 262 318
#     4  11  21  35  53  77 109 145 174 212 269 322
#
# _framework density 20.487812999999999
#
# number of rings (size 3 to 8) (size 9 to 14) (size 15 to 20)
#    0.000    2.143    1.429    3.429    0.000    1.714 
#    0.000    5.000    0.000    0.000    0.000    0.000 
#    0.000    0.000    0.000    0.000    0.000    0.000 
#
# Total GULP energy -156358.830207 kJ/mol
# GULP energy per Si atom -5584.243936 kJ/mol
# Density = 2.044118 g / cm^3
# Si number density = 20.487813 Si / 1000 Ang^3
#
#
#
# Elastic Constant Matrix: (Units=GPa)
#
#
# Indices 1 2 3 4 5 6 
#
# 1 31.1865 -1.1374 17.1787 0.0000 8.6507 0.0000
# 2 -1.1374 18.4587 -6.1110 0.0000 0.5394 0.0000
# 3 17.1787 -6.1110 140.6881 0.0000 15.3209 0.0000
# 4 0.0000 0.0000 0.0000 19.5584 0.0000 3.1847
# 5 8.6507 0.5394 15.3209 0.0000 29.6803 0.0000
# 6 0.0000 0.0000 0.0000 3.1847 0.0000 5.4104
#
#
#
# Elastic Compliance Matrix: (Units=1/GPa)
#
#
# Indices 1 2 3 4 5 6 
#
# 1 0.036467 0.001373 -0.003426 0.000000 -0.008885 0.000000
# 2 0.001373 0.055174 0.002524 0.000000 -0.002705 0.000000
# 3 -0.003426 0.002524 0.007981 0.000000 -0.003167 0.000000
# 4 0.000000 0.000000 0.000000 0.056549 0.000000 -0.033286
# 5 -0.008885 -0.002705 -0.003167 0.000000 0.037966 0.000000
# 6 0.000000 0.000000 0.000000 -0.033286 0.000000 0.204422
#
#
# Mechanical properties :
#
#
# Convention : Reuss Voigt Hill
#
# Bulk Modulus (GPa) = 9.94400 23.35487 16.64944
# Shear Modulus (GPa) = 11.59720 22.95669 17.27694
#
# Velocity S-wave (km/s) = 2.38177 3.35103 2.90708
# Velocity P-wave (km/s) = 3.52533 5.13777 4.40594
#
# Compressibility (1/GPa) = 0.10056312
#
# Stress axis : x y z
#
# Youngs Moduli (GPa) = 27.42216 18.12444 125.30224
#
# Poissons Ratio (x) = -0.02488 0.42923
# Poissons Ratio (y) = -0.03764 -0.31621
# Poissons Ratio (z) = 0.09394 -0.04574
#
# Static dielectric constant tensor:
#      x y z
#    x 1.705190 0.000000 0.007500 
#    y 0.000000 1.747380 0.000000 
#    z 0.007500 0.000000 1.746150 
# 
# From -- ./inp_files/237806.got.cif
#   From: 2010.05.17/outbox.cif.g08.bks.cpg/sg12_119_cif.got.tgz:237806.got - 2010.06.03 13:09:07.
