data_PCOD9186554
_publ_section_title
;
Structure prediction by ZEFSAII (Michael W. Deem and Ramdas Pophale) SiO2 
 PCOD9186554
Probable space group: C 2/M
;
_chemical_formula_sum "Si O2"
_cell_formula_units_Z 56
_cell_length_a 7.713979
_cell_length_b 17.661762
_cell_length_c 19.847414
_cell_angle_alpha 90.000000
_cell_angle_beta 76.176148
_cell_angle_gamma 90.000000
_cell_volume 2625.737135
_symmetry_space_group_name_H-M "C 2/M"
_symmetry_group_IT_number 12
_symmetry_cell_setting 'monoclinic'
loop_
_space_group_symop_operation_xyz
x,y,z
-x,y,-z
-x,-y,-z
x,-y,z
1/2+x,1/2+y,z
1/2-x,1/2+y,-z
1/2-x,1/2-y,-z
1/2+x,1/2-y,z
loop_
_atom_site_type_symbol
_atom_site_label
_atom_site_fract_x
_atom_site_fract_y
_atom_site_fract_z
Si Si1 0.663306 0.327425 0.175435
Si Si2 0.576839 0.848939 0.169067
Si Si3 0.563542 0.195939 0.561727
Si Si4 0.085427 0.915715 0.313102
Si Si5 0.563229 0.589783 0.918939
Si Si6 0.990862 0.412520 0.321754
Si Si7 0.132051 0.140096 0.549315
O O1 0.637165 0.237711 0.173125
O O2 0.577826 0.356817 0.253238
O O3 0.558206 0.366664 0.124172
O O4 0.874275 0.348645 0.159075
O O5 0.729546 0.888443 0.110874
O O6 0.570505 0.890156 0.242242
O O7 0.500000 0.237887 0.500000
O O8 0.458954 0.148458 0.626082
O O9 0.685885 0.136265 0.509715
O O10 0.640411 0.274429 0.584156
O O11 0.275213 0.903287 0.333399
O O12 0.930455 0.909294 0.382274
O O13 0.090769 0.000000 0.283046
O O14 0.541783 0.500000 0.911137
O O15 0.500000 0.609540 0.000000
O O16 0.029855 0.500000 0.334353
O O17 0.000000 0.120038 0.500000
#
# Coordination Sequence:
#
# PCOD9186554 Si02
#       7
#     8   8   8   8   8   8   8
#     4  11  23  44  70 102 135 177 232 277 327 401
#     4  11  23  44  71 101 134 180 225 279 335 389
#     4  10  21  34  52  79 113 155 205 262 325 390
#     4  10  21  36  60  88 119 163 212 269 330 394
#     4  11  26  47  72 106 145 179 216 270 335 403
#     4  10  21  37  58  86 124 162 205 267 332 396
#     4  10  19  35  54  76 110 155 204 258 318 383
#
# _framework density 21.327342999999999
#
# number of rings (size 3 to 8) (size 9 to 14) (size 15 to 20)
#    0.000    1.571    2.857    1.714    0.000    5.143 
#    0.000    2.857    0.000    0.000    0.000    0.000 
#    0.000    0.000    0.000    0.000    0.000    0.000 
#
# Total GULP energy -155995.570796 kJ/mol
# GULP energy per Si atom -5571.270386 kJ/mol
# Density = 2.127880 g / cm^3
# Si number density = 21.327343 Si / 1000 Ang^3
#
#
#
# Elastic Constant Matrix: (Units=GPa)
#
#
# Indices 1 2 3 4 5 6 
#
# 1 54.1353 10.5389 32.0771 0.0000 -2.5606 0.0000
# 2 10.5389 79.5103 30.7219 0.0000 13.4640 0.0000
# 3 32.0771 30.7219 112.4749 0.0000 -5.3499 0.0000
# 4 0.0000 0.0000 0.0000 41.9632 0.0000 -2.5782
# 5 -2.5606 13.4640 -5.3499 0.0000 26.9855 0.0000
# 6 0.0000 0.0000 0.0000 -2.5782 0.0000 16.8738
#
#
#
# Elastic Compliance Matrix: (Units=1/GPa)
#
#
# Indices 1 2 3 4 5 6 
#
# 1 0.022292 -0.000836 -0.006066 0.000000 0.001330 0.000000
# 2 -0.000836 0.015959 -0.004546 0.000000 -0.008943 0.000000
# 3 -0.006066 -0.004546 0.012057 0.000000 0.004083 0.000000
# 4 0.000000 0.000000 0.000000 0.024056 0.000000 0.003676
# 5 0.001330 -0.008943 0.004083 0.000000 0.042455 0.000000
# 6 0.000000 0.000000 0.000000 0.003676 0.000000 0.059825
#
#
# Mechanical properties :
#
#
# Convention : Reuss Voigt Hill
#
# Bulk Modulus (GPa) = 36.48097 43.64403 40.06250
# Shear Modulus (GPa) = 23.96049 28.68333 26.32191
#
# Velocity S-wave (km/s) = 3.35545 3.67128 3.51691
# Velocity P-wave (km/s) = 5.67049 6.20317 5.94280
#
# Compressibility (1/GPa) = 0.02741155
#
# Stress axis : x y z
#
# Youngs Moduli (GPa) = 44.85870 62.66177 82.94119
#
# Poissons Ratio (x) = 0.05240 0.50312
# Poissons Ratio (y) = 0.03751 0.37704
# Poissons Ratio (z) = 0.27211 0.28486
#
# Static dielectric constant tensor:
#      x y z
#    x 2.202190 0.000000 0.067670 
#    y 0.000000 1.755220 0.000000 
#    z 0.067670 0.000000 1.739450 
# 
# From -- ./inp_files/300698.got.cif
#   From: 2010.05.17/outbox.cif.g08.bks.cpg/sg12_151_cif.got.tgz:300698.got - 2010.06.03 13:09:07.
