data_PCOD9186210
_publ_section_title
;
Structure prediction by ZEFSAII (Michael W. Deem and Ramdas Pophale) SiO2 
 PCOD9186210
Probable space group: C 2/M
;
_chemical_formula_sum "Si O2"
_cell_formula_units_Z 64
_cell_length_a 9.238730
_cell_length_b 31.040843
_cell_length_c 15.240196
_cell_angle_alpha 90.000000
_cell_angle_beta 42.405255
_cell_angle_gamma 90.000000
_cell_volume 2947.369941
_symmetry_space_group_name_H-M "C 2/M"
_symmetry_group_IT_number 12
_symmetry_cell_setting 'monoclinic'
loop_
_space_group_symop_operation_xyz
x,y,z
-x,y,-z
-x,-y,-z
x,-y,z
1/2+x,1/2+y,z
1/2-x,1/2+y,-z
1/2-x,1/2-y,-z
1/2+x,1/2-y,z
loop_
_atom_site_type_symbol
_atom_site_label
_atom_site_fract_x
_atom_site_fract_y
_atom_site_fract_z
Si Si1 0.678772 0.954497 0.992173
Si Si2 0.346322 0.548155 0.297964
Si Si3 0.939469 0.050180 0.628325
Si Si4 0.822689 0.109735 0.152251
Si Si5 0.906418 0.205991 0.136785
Si Si6 0.025700 0.752689 0.713501
Si Si7 0.633072 0.689584 0.364415
Si Si8 0.949925 0.383639 0.189572
O O1 0.907315 0.954280 0.844399
O O2 0.671393 0.000000 0.051073
O O3 0.500000 0.959297 0.000000
O O4 0.628323 0.906621 0.049288
O O5 0.251362 0.500000 0.337536
O O6 0.372535 0.563037 0.387072
O O7 0.261225 0.579260 0.260910
O O8 0.733340 0.080065 0.729868
O O9 0.000000 0.052177 0.500000
O O10 0.891458 0.000000 0.670623
O O11 0.922078 0.154708 0.139626
O O12 0.595227 0.121045 0.210199
O O13 0.000000 0.091965 0.000000
O O14 0.659687 0.221129 0.238828
O O15 0.018476 0.228154 0.169669
O O16 0.000000 0.217732 0.000000
O O17 0.015361 0.790636 0.645769
O O18 0.244655 0.726704 0.633973
O O19 0.500000 0.664801 0.500000
O O20 0.819205 0.660554 0.236293
#
# Coordination Sequence:
#
# PCOD9186210 Si02
#       8
#     8   8   8   8   8   8   8   8
#     4  10  19  34  59  92 125 158 203 256 305 363
#     4  10  21  37  60  90 125 166 210 251 304 367
#     4  10  22  41  64  87 121 166 212 258 303 359
#     4  11  23  38  57  89 133 161 195 252 315 372
#     4  10  21  39  62  91 128 158 195 249 312 379
#     4  10  22  42  66  91 118 163 204 254 309 369
#     4  11  24  43  66  92 122 160 211 258 305 372
#     4  12  22  38  60  94 124 158 203 256 308 369
#
# _framework density 21.714272999999999
#
# number of rings (size 3 to 8) (size 9 to 14) (size 15 to 20)
#    0.000    1.500    3.750    1.500    1.750    1.250 
#    0.000    1.250    0.000    2.250    0.000    0.000 
#    0.000    0.000    0.000    0.000    0.000    0.000 
#
# Total GULP energy -178147.709964 kJ/mol
# GULP energy per Si atom -5567.115936 kJ/mol
# Density = 2.166485 g / cm^3
# Si number density = 21.714273 Si / 1000 Ang^3
#
#
#
# Elastic Constant Matrix: (Units=GPa)
#
#
# Indices 1 2 3 4 5 6 
#
# 1 71.7343 37.1204 6.9475 0.0000 14.1685 0.0000
# 2 37.1204 63.8955 18.2403 0.0000 19.9411 0.0000
# 3 6.9475 18.2403 48.2367 0.0000 28.3703 0.0000
# 4 0.0000 0.0000 0.0000 220.7343 0.0000 74.2824
# 5 14.1685 19.9411 28.3703 0.0000 29.1210 0.0000
# 6 0.0000 0.0000 0.0000 74.2824 0.0000 54.5216
#
#
#
# Elastic Compliance Matrix: (Units=1/GPa)
#
#
# Indices 1 2 3 4 5 6 
#
# 1 0.020832 -0.011220 0.006287 0.000000 -0.008577 0.000000
# 2 -0.011220 0.025975 -0.002238 0.000000 -0.010147 0.000000
# 3 0.006287 -0.002238 0.050513 0.000000 -0.050737 0.000000
# 4 0.000000 0.000000 0.000000 0.008366 0.000000 -0.011398
# 5 -0.008577 -0.010147 -0.050737 0.000000 0.094890 0.000000
# 6 0.000000 0.000000 0.000000 -0.011398 0.000000 0.033871
#
#
# Mechanical properties :
#
#
# Convention : Reuss Voigt Hill
#
# Bulk Modulus (GPa) = 12.05152 34.27588 23.16370
# Shear Modulus (GPa) = 18.08660 68.97925 43.53293
#
# Velocity S-wave (km/s) = 2.88919 5.64232 4.48236
# Velocity P-wave (km/s) = 4.08559 7.63327 6.12205
#
# Compressibility (1/GPa) = 0.08297709
#
# Stress axis : x y z
#
# Youngs Moduli (GPa) = 48.00380 38.49898 19.79699
#
# Poissons Ratio (x) = 0.43197 -0.12447
# Poissons Ratio (y) = 0.53861 0.04430
# Poissons Ratio (z) = -0.30181 0.08616
#
# Static dielectric constant tensor:
#      x y z
#    x 1.814860 0.000000 0.026390 
#    y 0.000000 1.874840 0.000000 
#    z 0.026390 0.000000 1.878440 
# 
# From -- ./inp_files/201279.got.cif
#   From: 2010.05.17/outbox.cif.g08.bks.cpg/sg12_101_cif.got.tgz:201279.got - 2010.06.03 13:09:07.
