data_PCOD9186833
_publ_section_title
;
Structure prediction by ZEFSAII (Michael W. Deem and Ramdas Pophale) SiO2 
 PCOD9186833
Probable space group: C 2/M
;
_chemical_formula_sum "Si O2"
_cell_formula_units_Z 58
_cell_length_a 18.020707
_cell_length_b 7.430077
_cell_length_c 20.120920
_cell_angle_alpha 90.000000
_cell_angle_beta 73.008212
_cell_angle_gamma 90.000000
_cell_volume 2576.489136
_symmetry_space_group_name_H-M "C 2/M"
_symmetry_group_IT_number 12
_symmetry_cell_setting 'monoclinic'
loop_
_space_group_symop_operation_xyz
x,y,z
-x,y,-z
-x,-y,-z
x,-y,z
1/2+x,1/2+y,z
1/2-x,1/2+y,-z
1/2-x,1/2-y,-z
1/2+x,1/2-y,z
loop_
_atom_site_type_symbol
_atom_site_label
_atom_site_fract_x
_atom_site_fract_y
_atom_site_fract_z
Si Si1 0.622692 0.217832 0.112686
Si Si2 0.314906 0.714749 0.429083
Si Si3 0.808048 0.206998 0.286571
Si Si4 0.914648 0.791895 0.026487
Si Si5 0.775491 0.221280 0.151812
Si Si6 0.000000 0.500000 0.500000
Si Si7 0.508504 0.289748 0.600485
Si Si8 0.511922 0.216267 0.752185
O O1 0.619731 0.285154 0.038408
O O2 0.700517 0.274580 0.129834
O O3 0.548635 0.275006 0.175836
O O4 0.621779 0.000000 0.110274
O O5 0.324308 0.500000 0.419183
O O6 0.250000 0.750000 0.500000
O O7 0.291244 0.788557 0.363070
O O8 0.401044 0.778269 0.425970
O O9 0.774227 0.285243 0.227979
O O10 0.901852 0.210790 0.257301
O O11 0.781483 0.000000 0.295464
O O12 0.925387 0.000000 0.044034
O O13 0.853385 0.715548 0.094577
O O14 0.000000 0.708054 0.000000
O O15 0.776757 0.000000 0.152028
O O16 0.967497 0.658739 0.559794
O O17 0.503015 0.500000 0.584367
O O18 0.486917 0.269647 0.683929
O O19 0.516558 0.000000 0.752349
#
# Coordination Sequence:
#
# PCOD9186833 Si02
#       8
#     8   8   8   8   8   2   8   8
#     4  10  21  35  54  81 115 151 186 234 293 349
#     4   9  19  34  56  86 114 150 196 247 301 359
#     4   9  18  35  58  80 105 146 193 242 292 348
#     4  10  20  34  56  82 107 145 194 236 283 349
#     4   9  18  35  54  79 112 145 186 239 295 352
#     4  12  22  40  64  90 120 164 200 246 310 370
#     4  10  22  40  60  89 121 158 202 251 303 362
#     4  10  19  35  56  82 109 151 198 238 290 353
#
# _framework density 22.511251999999999
#
# number of rings (size 3 to 8) (size 9 to 14) (size 15 to 20)
#    0.000    2.345    0.690    2.690    0.966    3.034 
#    2.483    1.379    0.000    0.000    0.000    0.000 
#    0.000    0.000    0.000    0.000    0.000    0.000 
#
# Total GULP energy -161773.740342 kJ/mol
# GULP energy per Si atom -5578.404839 kJ/mol
# Density = 2.246002 g / cm^3
# Si number density = 22.511252 Si / 1000 Ang^3
#
#
#
# Elastic Constant Matrix: (Units=GPa)
#
#
# Indices 1 2 3 4 5 6 
#
# 1 51.8822 -10.9269 31.8693 0.0000 7.6382 0.0000
# 2 -10.9269 100.2331 -6.1999 0.0000 4.8553 0.0001
# 3 31.8693 -6.1999 114.5069 0.0000 3.3869 0.0000
# 4 0.0000 0.0000 0.0000 12.4702 0.0000 3.4099
# 5 7.6382 4.8553 3.3869 0.0000 38.9777 0.0000
# 6 0.0000 0.0001 0.0000 3.4099 0.0000 10.7922
#
#
#
# Elastic Compliance Matrix: (Units=1/GPa)
#
#
# Indices 1 2 3 4 5 6 
#
# 1 0.024487 0.002484 -0.006546 0.000000 -0.004539 0.000000
# 2 0.002484 0.010328 -0.000080 0.000000 -0.001766 0.000000
# 3 -0.006546 -0.000080 0.010540 0.000000 0.000377 0.000000
# 4 0.000000 0.000000 0.000000 0.087775 0.000000 -0.027734
# 5 -0.004539 -0.001766 0.000377 0.000000 0.026732 0.000000
# 6 0.000000 0.000000 0.000000 -0.027734 0.000000 0.101422
#
#
# Mechanical properties :
#
#
# Convention : Reuss Voigt Hill
#
# Bulk Modulus (GPa) = 26.97529 32.90080 29.93805
# Shear Modulus (GPa) = 17.73518 29.24000 23.48759
#
# Velocity S-wave (km/s) = 2.80989 3.60794 3.23363
# Velocity P-wave (km/s) = 4.74724 5.65715 5.22205
#
# Compressibility (1/GPa) = 0.03707096
#
# Stress axis : x y z
#
# Youngs Moduli (GPa) = 40.83767 96.82231 94.88023
#
# Poissons Ratio (x) = -0.24055 0.62113
# Poissons Ratio (y) = -0.10146 0.00759
# Poissons Ratio (z) = 0.26734 0.00775
#
# Static dielectric constant tensor:
#      x y z
#    x 1.847380 0.000000 0.008370 
#    y 0.000000 1.846230 0.000000 
#    z 0.008370 0.000000 1.834160 
# 
# From -- ./inp_files/281112.got.cif
#   From: 2010.05.17/outbox.cif.g08.bks.cpg/sg12_141_cif.got.tgz:281112.got - 2010.06.03 13:09:07.
