data_PCOD9186917
_publ_section_title
;
Structure prediction by ZEFSAII (Michael W. Deem and Ramdas Pophale) SiO2 
 PCOD9186917
Probable space group: C 2/M
;
_chemical_formula_sum "Si O2"
_cell_formula_units_Z 40
_cell_length_a 27.641951
_cell_length_b 8.644762
_cell_length_c 11.789941
_cell_angle_alpha 90.000000
_cell_angle_beta 127.186803
_cell_angle_gamma 90.000000
_cell_volume 2244.457408
_symmetry_space_group_name_H-M "C 2/M"
_symmetry_group_IT_number 12
_symmetry_cell_setting 'monoclinic'
loop_
_space_group_symop_operation_xyz
x,y,z
-x,y,-z
-x,-y,-z
x,-y,z
1/2+x,1/2+y,z
1/2-x,1/2+y,-z
1/2-x,1/2-y,-z
1/2+x,1/2-y,z
loop_
_atom_site_type_symbol
_atom_site_label
_atom_site_fract_x
_atom_site_fract_y
_atom_site_fract_z
Si Si1 0.668543 0.184461 0.278885
Si Si2 0.974365 0.317311 0.296943
Si Si3 0.446523 0.315727 0.012183
Si Si4 0.307942 0.313914 0.443329
Si Si5 0.909352 0.815612 0.413126
O O1 0.665777 0.235157 0.406423
O O2 0.736781 0.225721 0.335019
O O3 0.661107 0.000000 0.259781
O O4 0.616932 0.267266 0.133678
O O5 0.985034 0.500000 0.318848
O O6 0.957276 0.267423 0.146699
O O7 0.922705 0.269087 0.314048
O O8 0.034851 0.229750 0.425295
O O9 0.448540 0.500000 0.032753
O O10 0.500000 0.273792 0.000000
O O11 0.312335 0.500000 0.464600
O O12 0.347647 0.272190 0.390315
O O13 0.910219 0.000000 0.395884
#
# Coordination Sequence:
#
# PCOD9186917 Si02
#       5
#     8   8   8   8   8
#     4  10  20  34  54  81 109 136 173 218 260 305
#     4  11  22  35  53  80 109 135 173 220 262 305
#     4  11  23  38  55  76 105 140 175 212 260 315
#     4   9  19  35  55  79 107 140 175 212 256 309
#     4  10  19  35  57  78 105 141 177 211 255 310
#
# _framework density 17.821680000000001
#
# number of rings (size 3 to 8) (size 9 to 14) (size 15 to 20)
#    0.000    1.800    0.000    6.000    0.000    8.800 
#    0.000    1.000    0.000    0.000    0.000    0.000 
#    0.000    0.000    0.000    0.000    0.000    0.000 
#
# Total GULP energy -111726.482643 kJ/mol
# GULP energy per Si atom -5586.324132 kJ/mol
# Density = 1.778112 g / cm^3
# Si number density = 17.821680 Si / 1000 Ang^3
#
#
#
# Elastic Constant Matrix: (Units=GPa)
#
#
# Indices 1 2 3 4 5 6 
#
# 1 105.2736 14.8605 30.5619 0.0000 -12.6974 0.0000
# 2 14.8605 27.6230 9.4961 0.0000 -4.5866 0.0000
# 3 30.5619 9.4961 75.3604 0.0000 -11.4773 0.0000
# 4 0.0000 0.0000 0.0000 13.5486 0.0000 -6.2770
# 5 -12.6974 -4.5866 -11.4773 0.0000 15.2929 0.0000
# 6 0.0000 0.0000 0.0000 -6.2770 0.0000 21.9477
#
#
#
# Elastic Compliance Matrix: (Units=1/GPa)
#
#
# Indices 1 2 3 4 5 6 
#
# 1 0.011786 -0.004194 -0.003333 0.000000 0.006026 0.000000
# 2 -0.004194 0.040405 -0.002343 0.000000 0.006878 0.000000
# 3 -0.003333 -0.002343 0.016245 0.000000 0.008721 0.000000
# 4 0.000000 0.000000 0.000000 0.085082 0.000000 0.024333
# 5 0.006026 0.006878 0.008721 0.000000 0.079001 0.000000
# 6 0.000000 0.000000 0.000000 0.024333 0.000000 0.052522
#
#
# Mechanical properties :
#
#
# Convention : Reuss Voigt Hill
#
# Bulk Modulus (GPa) = 20.53597 35.34377 27.93987
# Shear Modulus (GPa) = 15.57564 20.38039 17.97802
#
# Velocity S-wave (km/s) = 2.95951 3.38534 3.17956
# Velocity P-wave (km/s) = 4.81937 5.92922 5.40287
#
# Compressibility (1/GPa) = 0.04869505
#
# Stress axis : x y z
#
# Youngs Moduli (GPa) = 84.84953 24.74918 61.55767
#
# Poissons Ratio (x) = 0.10379 0.20519
# Poissons Ratio (y) = 0.35584 0.14424
# Poissons Ratio (z) = 0.28283 0.05799
#
# Static dielectric constant tensor:
#      x y z
#    x 1.620120 0.000000 0.006960 
#    y 0.000000 1.596360 0.000000 
#    z 0.006960 0.000000 1.562530 
# 
# From -- ./inp_files/162638.got.cif
#   From: 2010.05.17/outbox.cif.g08.bks.cpg/sg12_82_cif.got.tgz:162638.got - 2010.06.03 13:09:07.
