data_PCOD9186294
_publ_section_title
;
Structure prediction by ZEFSAII (Michael W. Deem and Ramdas Pophale) SiO2 
 PCOD9186294
Probable space group: C 2/M
;
_chemical_formula_sum "Si O2"
_cell_formula_units_Z 64
_cell_length_a 25.623205
_cell_length_b 8.692454
_cell_length_c 15.245280
_cell_angle_alpha 90.000000
_cell_angle_beta 117.112121
_cell_angle_gamma 90.000000
_cell_volume 3022.442635
_symmetry_space_group_name_H-M "C 2/M"
_symmetry_group_IT_number 12
_symmetry_cell_setting 'monoclinic'
loop_
_space_group_symop_operation_xyz
x,y,z
-x,y,-z
-x,-y,-z
x,-y,z
1/2+x,1/2+y,z
1/2-x,1/2+y,-z
1/2-x,1/2-y,-z
1/2+x,1/2-y,z
loop_
_atom_site_type_symbol
_atom_site_label
_atom_site_fract_x
_atom_site_fract_y
_atom_site_fract_z
Si Si1 0.363364 0.685357 0.237776
Si Si2 0.438913 0.184189 0.654943
Si Si3 0.238314 0.184098 0.587782
Si Si4 0.106969 0.185213 0.550225
Si Si5 0.889087 0.685946 0.935305
Si Si6 0.944800 0.685312 0.153917
Si Si7 0.737720 0.184881 0.086932
Si Si8 0.855592 0.817626 0.732711
O O1 0.366985 0.500000 0.235707
O O2 0.396935 0.734915 0.351591
O O3 0.391621 0.756001 0.172924
O O4 0.294543 0.726193 0.188366
O O5 0.436365 0.240233 0.553045
O O6 0.496352 0.236317 0.752175
O O7 0.384482 0.255950 0.665646
O O8 0.435318 0.000000 0.655339
O O9 0.250000 0.250000 0.500000
O O10 0.173416 0.224338 0.571052
O O11 0.290496 0.247521 0.688173
O O12 0.242197 0.000000 0.588621
O O13 0.100722 0.000000 0.541561
O O14 0.890845 0.500000 0.927433
O O15 0.824878 0.733127 0.922879
O O16 0.894051 0.759171 0.843798
O O17 0.935222 0.732614 0.045745
O O18 0.943975 0.500000 0.153560
O O19 0.735594 0.000000 0.079550
O O20 0.750000 0.250000 0.000000
O O21 0.852485 0.000000 0.728345
#
# Coordination Sequence:
#
# PCOD9186294 Si02
#       8
#     8   8   8   8   8   8   8   8
#     4  10  21  37  60  90 122 157 195 242 299 355
#     4  11  24  42  63  86 116 156 204 254 303 355
#     4  11  21  37  63  92 125 159 197 242 296 358
#     4  10  22  40  62  89 122 159 198 241 295 359
#     4  10  21  40  63  87 121 160 198 245 299 358
#     4  10  23  42  63  87 116 157 204 251 302 355
#     4  10  19  34  60  90 121 156 192 238 297 356
#     4  12  25  40  61  91 123 157 199 246 302 361
#
# _framework density 21.174925999999999
#
# number of rings (size 3 to 8) (size 9 to 14) (size 15 to 20)
#    0.000    1.500    2.500    2.625    0.000    6.000 
#    0.000    6.250    0.000    0.000    0.000    0.000 
#    0.000    0.000    0.000    0.000    0.000    0.000 
#
# Total GULP energy -178906.941917 kJ/mol
# GULP energy per Si atom -5590.841935 kJ/mol
# Density = 2.112673 g / cm^3
# Si number density = 21.174926 Si / 1000 Ang^3
#
#
#
# Elastic Constant Matrix: (Units=GPa)
#
#
# Indices 1 2 3 4 5 6 
#
# 1 10.7196 -3.0796 -2.3192 0.0000 11.4108 0.0000
# 2 -3.0796 9.3343 15.6386 0.0000 7.7032 0.0000
# 3 -2.3192 15.6386 151.1696 0.0000 7.9916 0.0000
# 4 0.0000 0.0000 0.0000 35.2318 0.0000 -4.2073
# 5 11.4108 7.7032 7.9916 0.0000 37.7213 0.0000
# 6 0.0000 0.0000 0.0000 -4.2073 0.0000 14.5976
#
#
#
# Elastic Compliance Matrix: (Units=1/GPa)
#
#
# Indices 1 2 3 4 5 6 
#
# 1 0.303627 0.233816 -0.012288 0.000000 -0.136993 0.000000
# 2 0.233816 0.335126 -0.023993 0.000000 -0.134084 0.000000
# 3 -0.012288 -0.023993 0.008549 0.000000 0.006806 0.000000
# 4 0.000000 0.000000 0.000000 0.029395 0.000000 0.008472
# 5 -0.136993 -0.134084 0.006806 0.000000 0.093891 0.000000
# 6 0.000000 0.000000 0.000000 0.008472 0.000000 0.070946
#
#
# Mechanical properties :
#
#
# Convention : Reuss Voigt Hill
#
# Bulk Modulus (GPa) = 0.95935 21.30033 11.12984
# Shear Modulus (GPa) = 6.29785 28.24240 17.27012
#
# Velocity S-wave (km/s) = 1.72646 3.65604 2.85896
# Velocity P-wave (km/s) = 2.10434 5.28235 4.02066
#
# Compressibility (1/GPa) = 1.04236983
#
# Stress axis : x y z
#
# Youngs Moduli (GPa) = 3.29352 2.98395 116.97380
#
# Poissons Ratio (x) = -0.69770 1.43738
# Poissons Ratio (y) = -0.77008 2.80661
# Poissons Ratio (z) = 0.04047 0.07160
#
# Static dielectric constant tensor:
#      x y z
#    x 1.762880 0.000000 0.025870 
#    y 0.000000 1.708730 0.000000 
#    z 0.025870 0.000000 1.764330 
# 
# From -- ./inp_files/249208.got.cif
#   From: 2010.05.17/outbox.cif.g08.bks.cpg/sg12_125_cif.got.tgz:249208.got - 2010.06.03 13:09:07.
