data_PCOD9186054
_publ_section_title
;
Structure prediction by ZEFSAII (Michael W. Deem and Ramdas Pophale) SiO2 
 PCOD9186054
Probable space group: C 2/M
;
_chemical_formula_sum "Si O2"
_cell_formula_units_Z 56
_cell_length_a 11.829355
_cell_length_b 14.486496
_cell_length_c 14.157488
_cell_angle_alpha 90.000000
_cell_angle_beta 76.652806
_cell_angle_gamma 90.000000
_cell_volume 2360.579179
_symmetry_space_group_name_H-M "C 2/M"
_symmetry_group_IT_number 12
_symmetry_cell_setting 'monoclinic'
loop_
_space_group_symop_operation_xyz
x,y,z
-x,y,-z
-x,-y,-z
x,-y,z
1/2+x,1/2+y,z
1/2-x,1/2+y,-z
1/2-x,1/2-y,-z
1/2+x,1/2-y,z
loop_
_atom_site_type_symbol
_atom_site_label
_atom_site_fract_x
_atom_site_fract_y
_atom_site_fract_z
Si Si1 0.373525 0.308089 0.980882
Si Si2 0.204447 0.387324 0.714167
Si Si3 0.380218 0.887031 0.473026
Si Si4 0.719739 0.891068 0.159013
Si Si5 0.513772 0.107041 0.886082
Si Si6 0.565409 0.387992 0.236922
Si Si7 0.191774 0.112893 0.659795
O O1 0.401228 0.351211 0.873497
O O2 0.500000 0.275902 0.000000
O O3 0.250000 0.250000 0.000000
O O4 0.328570 0.379822 0.068828
O O5 0.208758 0.500000 0.710201
O O6 0.140951 0.357607 0.630797
O O7 0.130220 0.353645 0.819123
O O8 0.335791 0.359454 0.707796
O O9 0.500000 0.856648 0.500000
O O10 0.267892 0.858851 0.555771
O O11 0.384536 0.000000 0.471645
O O12 0.601047 0.851335 0.137997
O O13 0.744196 0.854398 0.257725
O O14 0.701398 0.000000 0.172907
O O15 0.517869 0.000000 0.855924
O O16 0.500000 0.102384 0.000000
O O17 0.564352 0.500000 0.229688
O O18 0.440851 0.358182 0.300533
O O19 0.191220 0.000000 0.658813
#
# Coordination Sequence:
#
# PCOD9186054 Si02
#       7
#     8   8   8   8   8   8   8
#     4  12  26  42  59  84 121 158 197 244 302 362
#     4   9  17  28  46  77 120 158 189 234 289 346
#     4   9  16  27  44  75 123 162 185 224 291 358
#     4  10  19  34  59  84 109 148 197 244 289 344
#     4   9  16  26  43  72 108 145 184 228 279 337
#     4  10  20  36  59  85 113 152 201 247 294 348
#     4   9  17  29  51  81 111 147 191 236 285 342
#
# _framework density 23.722992000000001
#
# number of rings (size 3 to 8) (size 9 to 14) (size 15 to 20)
#    0.000    2.286    1.429    2.143    0.000    8.571 
#    0.000    2.857    0.000    0.429    0.000    1.000 
#    4.286    0.000    0.000    0.000    0.000    0.000 
#
# Total GULP energy -156332.109886 kJ/mol
# GULP energy per Si atom -5583.289639 kJ/mol
# Density = 2.366900 g / cm^3
# Si number density = 23.722992 Si / 1000 Ang^3
#
#
#
# Elastic Constant Matrix: (Units=GPa)
#
#
# Indices 1 2 3 4 5 6 
#
# 1 202.5191 15.5646 72.9053 0.0000 -2.2736 0.0000
# 2 15.5646 57.1101 -0.9653 0.0000 -2.4023 0.0000
# 3 72.9053 -0.9653 131.9075 0.0000 -11.4322 0.0000
# 4 0.0000 0.0000 0.0000 0.2010 0.0000 -14.9819
# 5 -2.2736 -2.4023 -11.4322 0.0000 37.4640 0.0000
# 6 0.0000 0.0000 0.0000 -14.9819 0.0000 0.6985
#
#
#
# Elastic Compliance Matrix: (Units=1/GPa)
#
#
# Indices 1 2 3 4 5 6 
#
# 1 0.006367 -0.001831 -0.003604 0.000000 -0.000831 0.000000
# 2 -0.001831 0.018091 0.001269 0.000000 0.001436 0.000000
# 3 -0.003604 0.001269 0.009831 0.000000 0.002862 0.000000
# 4 0.000000 0.000000 0.000000 -0.003114 0.000000 -0.066789
# 5 -0.000831 0.001436 0.002862 0.000000 0.027607 0.000000
# 6 0.000000 0.000000 0.000000 -0.066789 0.000000 -0.000896
#
#
# Mechanical properties :
#
#
# Convention : Reuss Voigt Hill
#
# Bulk Modulus (GPa) = 38.52788 62.94956 50.73872
# Shear Modulus (GPa) = 66.78220 27.94152 47.36186
#
# Velocity S-wave (km/s) = 5.31149 3.43567 4.47302
# Velocity P-wave (km/s) = 7.34111 6.50625 6.93625
#
# Compressibility (1/GPa) = 0.02595523
#
# Stress axis : x y z
#
# Youngs Moduli (GPa) = 157.06670 55.27636 101.72389
#
# Poissons Ratio (x) = 0.10121 0.36664
# Poissons Ratio (y) = 0.28759 -0.12907
# Poissons Ratio (z) = 0.56612 -0.07014
#
# Static dielectric constant tensor:
#      x y z
#    x 1.900250 0.000000 0.031860 
#    y 0.000000 1.992320 0.000000 
#    z 0.031860 0.000000 1.898600 
# 
# From -- ./inp_files/206110.got.cif
#   From: 2010.05.17/outbox.cif.g08.bks.cpg/sg12_104_cif.got.tgz:206110.got - 2010.06.03 13:09:07.
