data_PCOD9186209
_publ_section_title
;
Structure prediction by ZEFSAII (Michael W. Deem and Ramdas Pophale) SiO2 
 PCOD9186209
Probable space group: C 2/M
;
_chemical_formula_sum "Si O2"
_cell_formula_units_Z 48
_cell_length_a 12.541433
_cell_length_b 18.935025
_cell_length_c 14.154765
_cell_angle_alpha 90.000000
_cell_angle_beta 40.906803
_cell_angle_gamma 90.000000
_cell_volume 2201.124687
_symmetry_space_group_name_H-M "C 2/M"
_symmetry_group_IT_number 12
_symmetry_cell_setting 'monoclinic'
loop_
_space_group_symop_operation_xyz
x,y,z
-x,y,-z
-x,-y,-z
x,-y,z
1/2+x,1/2+y,z
1/2-x,1/2+y,-z
1/2-x,1/2-y,-z
1/2+x,1/2-y,z
loop_
_atom_site_type_symbol
_atom_site_label
_atom_site_fract_x
_atom_site_fract_y
_atom_site_fract_z
Si Si1 0.714767 0.079524 0.256203
Si Si2 0.448617 0.285023 0.387130
Si Si3 0.309986 0.078408 0.952117
Si Si4 0.937325 0.277534 0.877348
Si Si5 0.721293 0.233172 0.315465
Si Si6 0.046889 0.923048 0.729749
O O1 0.734767 0.086536 0.129826
O O2 0.650924 0.156158 0.333717
O O3 0.869884 0.076795 0.222448
O O4 0.636899 0.000000 0.321251
O O5 0.499368 0.232086 0.270818
O O6 0.621339 0.292359 0.325822
O O7 0.326845 0.251597 0.544609
O O8 0.398250 0.358584 0.372408
O O9 0.427566 0.140333 0.905923
O O10 0.377345 0.000000 0.918764
O O11 0.143600 0.084841 0.121881
O O12 0.084626 0.238435 0.833705
O O13 0.750000 0.250000 0.000000
O O14 0.081640 0.000000 0.664045
#
# Coordination Sequence:
#
# PCOD9186209 Si02
#       6
#     8   8   8   8   8   8
#     4  10  19  34  59  92 124 158 194 249 314 369
#     4  11  23  41  61  88 123 165 202 252 303 360
#     4  10  20  36  57  92 129 153 194 258 316 364
#     4  12  22  38  63  91 121 161 206 252 303 363
#     4  11  24  40  61  90 127 159 206 253 299 366
#     4  10  20  37  61  89 121 163 208 251 304 364
#
# _framework density 21.807033000000001
#
# number of rings (size 3 to 8) (size 9 to 14) (size 15 to 20)
#    0.000    1.333    5.000    1.000    0.000    2.667 
#    0.000    5.833    0.000    2.000    0.000    0.000 
#    0.000    0.000    0.000    0.000    0.000    0.000 
#
# Total GULP energy -133648.264541 kJ/mol
# GULP energy per Si atom -5568.677689 kJ/mol
# Density = 2.175740 g / cm^3
# Si number density = 21.807033 Si / 1000 Ang^3
#
#
#
# Elastic Constant Matrix: (Units=GPa)
#
#
# Indices 1 2 3 4 5 6 
#
# 1 42.9818 18.2193 17.9599 0.0013 -20.5802 -0.0004
# 2 18.2193 175.1145 32.5402 0.0017 -2.2268 -0.0009
# 3 17.9599 32.5402 67.7471 0.0050 -8.5986 -0.0028
# 4 0.0013 0.0017 0.0050 26.0651 -0.0022 9.3665
# 5 -20.5802 -2.2268 -8.5986 -0.0022 29.0419 0.0010
# 6 -0.0004 -0.0009 -0.0028 9.3665 0.0010 24.9768
#
#
#
# Elastic Compliance Matrix: (Units=1/GPa)
#
#
# Indices 1 2 3 4 5 6 
#
# 1 0.039214 -0.002667 -0.005833 0.000002 0.025857 -0.000002
# 2 -0.002667 0.006457 -0.002672 0.000000 -0.002186 0.000000
# 3 -0.005833 -0.002672 0.017705 -0.000004 0.000904 0.000003
# 4 0.000002 0.000000 -0.000004 0.044341 0.000004 -0.016628
# 5 0.025857 -0.002186 0.000904 0.000004 0.052856 -0.000003
# 6 -0.000002 0.000000 0.000003 -0.016628 -0.000003 0.046273
#
#
# Mechanical properties :
#
#
# Convention : Reuss Voigt Hill
#
# Bulk Modulus (GPa) = 24.37084 47.03136 35.70110
# Shear Modulus (GPa) = 20.58742 30.49170 25.53956
#
# Velocity S-wave (km/s) = 3.07591 3.74338 3.42594
# Velocity P-wave (km/s) = 4.88005 6.34805 5.66183
#
# Compressibility (1/GPa) = 0.04103265
#
# Stress axis : x y z
#
# Youngs Moduli (GPa) = 25.50093 154.87762 56.48116
#
# Poissons Ratio (x) = 0.41310 0.32944
# Poissons Ratio (y) = 0.06802 0.15090
# Poissons Ratio (z) = 0.14874 0.41378
#
# Static dielectric constant tensor:
#      x y z
#    x 1.946840 0.000000 -0.019560 
#    y 0.000000 1.850240 0.000000 
#    z -0.019560 0.000000 1.787950 
# 
# From -- ./inp_files/216242.got.cif
#   From: 2010.05.17/outbox.cif.g08.bks.cpg/sg12_109_cif.got.tgz:216242.got - 2010.06.03 13:09:07.
