data_PCOD9186903
_publ_section_title
;
Structure prediction by ZEFSAII (Michael W. Deem and Ramdas Pophale) SiO2 
 PCOD9186903
Probable space group: C 2/M
;
_chemical_formula_sum "Si O2"
_cell_formula_units_Z 64
_cell_length_a 20.821143
_cell_length_b 7.445018
_cell_length_c 34.083869
_cell_angle_alpha 90.000000
_cell_angle_beta 146.437250
_cell_angle_gamma 90.000000
_cell_volume 2920.965707
_symmetry_space_group_name_H-M "C 2/M"
_symmetry_group_IT_number 12
_symmetry_cell_setting 'monoclinic'
loop_
_space_group_symop_operation_xyz
x,y,z
-x,y,-z
-x,-y,-z
x,-y,z
1/2+x,1/2+y,z
1/2-x,1/2+y,-z
1/2-x,1/2-y,-z
1/2+x,1/2-y,z
loop_
_atom_site_type_symbol
_atom_site_label
_atom_site_fract_x
_atom_site_fract_y
_atom_site_fract_z
Si Si1 0.544870 0.281040 0.710843
Si Si2 0.054318 0.217500 0.805133
Si Si3 0.876066 0.293341 0.449715
Si Si4 0.200389 0.708790 0.292035
Si Si5 0.012106 0.719551 0.051532
Si Si6 0.715272 0.715063 0.437732
Si Si7 0.724840 0.780318 0.215191
Si Si8 0.771252 0.714352 0.965563
O O1 0.543986 0.500000 0.708989
O O2 0.570511 0.228263 0.768469
O O3 0.415665 0.217379 0.635169
O O4 0.648494 0.223447 0.735287
O O5 0.162014 0.283942 0.885471
O O6 0.930248 0.276253 0.758420
O O7 0.052887 0.000000 0.805435
O O8 0.901861 0.500000 0.473976
O O9 0.788498 0.292699 0.368240
O O10 0.806216 0.214367 0.451453
O O11 0.000000 0.212371 0.500000
O O12 0.233556 0.500000 0.307269
O O13 0.204262 0.779346 0.249449
O O14 0.015638 0.500000 0.053083
O O15 0.125540 0.777063 0.133738
O O16 0.000000 0.775091 0.000000
O O17 0.895990 0.780250 0.014707
O O18 0.710359 0.500000 0.429134
O O19 0.750000 0.750000 0.500000
O O20 0.721178 0.000000 0.213466
O O21 0.773732 0.500000 0.960676
O O22 0.750000 0.750000 0.000000
#
# Coordination Sequence:
#
# PCOD9186903 Si02
#       8
#     8   8   8   8   8   8   8   8
#     4   9  17  33  54  75 103 140 181 220 263 318
#     4  10  19  35  57  77 104 145 188 222 266 326
#     4  10  22  41  61  81 110 149 184 217 263 324
#     4  11  22  35  55  83 114 143 176 226 278 320
#     4   9  16  29  49  76 107 138 180 227 269 316
#     4  10  21  37  58  82 109 142 179 222 266 314
#     4   9  18  30  48  77 110 140 173 224 280 317
#     4  10  20  32  52  80 108 142 180 225 274 325
#
# _framework density 21.910563
#
# number of rings (size 3 to 8) (size 9 to 14) (size 15 to 20)
#    0.000    2.250    1.250    1.875    1.750    5.250 
#    0.000    0.000    0.000    1.875    0.000    0.000 
#    0.000    0.000    0.000    0.000    0.000    0.000 
#
# Total GULP energy -178802.121498 kJ/mol
# GULP energy per Si atom -5587.566297 kJ/mol
# Density = 2.186069 g / cm^3
# Si number density = 21.910563 Si / 1000 Ang^3
#
#
#
# Elastic Constant Matrix: (Units=GPa)
#
#
# Indices 1 2 3 4 5 6 
#
# 1 168.6399 -1.7598 55.3625 0.0032 4.7480 0.0003
# 2 -1.7598 64.0241 -2.3989 -0.0478 2.9876 -0.0297
# 3 55.3625 -2.3989 125.1197 -0.0167 4.2535 -0.0121
# 4 0.0032 -0.0478 -0.0167-2665.5078 0.0196-1642.4996
# 5 4.7480 2.9876 4.2535 0.0196 46.4844 0.0118
# 6 0.0003 -0.0297 -0.0121-1642.4996 0.0118 -992.6926
#
#
#
# Elastic Compliance Matrix: (Units=1/GPa)
#
#
# Indices 1 2 3 4 5 6 
#
# 1 0.006947 0.000097 -0.003057 0.000000 -0.000436 0.000000
# 2 0.000097 0.015682 0.000293 0.000000 -0.001045 0.000000
# 3 -0.003057 0.000293 0.009370 0.000000 -0.000564 0.000001
# 4 0.000000 0.000000 0.000000 0.019173 0.000000 -0.031724
# 5 -0.000436 -0.001045 -0.000564 0.000000 0.021676 0.000000
# 6 0.000000 0.000000 0.000001 -0.031724 0.000000 0.051482
#
#
# Mechanical properties :
#
#
# Convention : Reuss Voigt Hill
#
# Bulk Modulus (GPa) = 37.50359 51.13235 44.31797
# Shear Modulus (GPa) = 36.08775 -701.90453 -332.90839
#
# Velocity S-wave (km/s) = 4.06279 -17.91774 -12.33975
# Velocity P-wave (km/s) = 6.25797 20.11648 13.51870
#
# Compressibility (1/GPa) = 0.02666412
#
# Stress axis : x y z
#
# Youngs Moduli (GPa) = 143.95367 63.76933 106.72560
#
# Poissons Ratio (x) = -0.00617 0.32627
# Poissons Ratio (y) = -0.01393 -0.03131
# Poissons Ratio (z) = 0.44008 -0.01871
#
# Static dielectric constant tensor:
#      x y z
#    x 1.748590 0.000000 0.018250 
#    y 0.000000 1.837440 0.000000 
#    z 0.018250 0.000000 1.738560 
# 
# From -- ./inp_files/378341.got.cif
#   From: 2010.05.17/outbox.cif.g08.bks.cpg/sg12_190_cif.got.tgz:378341.got - 2010.06.03 13:09:07.
