data_PCOD9186412
_publ_section_title
;
Structure prediction by ZEFSAII (Michael W. Deem and Ramdas Pophale) SiO2 
 PCOD9186412
Probable space group: C 2/M
;
_chemical_formula_sum "Si O2"
_cell_formula_units_Z 64
_cell_length_a 17.752625
_cell_length_b 16.528459
_cell_length_c 18.089680
_cell_angle_alpha 90.000000
_cell_angle_beta 143.926196
_cell_angle_gamma 90.000000
_cell_volume 3125.456466
_symmetry_space_group_name_H-M "C 2/M"
_symmetry_group_IT_number 12
_symmetry_cell_setting 'monoclinic'
loop_
_space_group_symop_operation_xyz
x,y,z
-x,y,-z
-x,-y,-z
x,-y,z
1/2+x,1/2+y,z
1/2-x,1/2+y,-z
1/2-x,1/2-y,-z
1/2+x,1/2-y,z
loop_
_atom_site_type_symbol
_atom_site_label
_atom_site_fract_x
_atom_site_fract_y
_atom_site_fract_z
Si Si1 0.508962 0.823073 0.644296
Si Si2 0.504327 0.909504 0.215467
Si Si3 0.207319 0.094155 0.620609
Si Si4 0.557103 0.653914 0.121703
Si Si5 0.259872 0.091791 0.392739
Si Si6 0.136932 0.816078 0.423969
Si Si7 0.237177 0.775302 0.769059
Si Si8 0.148209 0.731715 0.981350
O O1 0.519257 0.890735 0.716260
O O2 0.384585 0.849687 0.497362
O O3 0.482893 0.742949 0.673745
O O4 0.627790 0.794373 0.689327
O O5 0.653308 0.904945 0.309526
O O6 0.435832 0.842450 0.112981
O O7 0.459451 0.000000 0.163742
O O8 0.126691 0.142329 0.495463
O O9 0.203521 0.147578 0.692027
O O10 0.172772 0.000000 0.604417
O O11 0.662641 0.601213 0.247376
O O12 0.638186 0.734503 0.167995
O O13 0.437974 0.688139 0.073580
O O14 0.500000 0.619722 0.000000
O O15 0.169693 0.116789 0.390175
O O16 0.305179 0.000000 0.434647
O O17 0.250000 0.750000 0.500000
O O18 0.281755 0.792884 0.887395
O O19 0.250000 0.750000 0.000000
#
# Coordination Sequence:
#
# PCOD9186412 Si02
#       8
#     8   8   8   8   8   8   8   8
#     4  11  22  38  66  97 124 168 225 271 322 394
#     4  11  21  38  65  98 130 162 217 286 333 374
#     4  11  22  38  62  97 137 166 205 277 346 390
#     4  10  23  42  64  92 127 171 216 265 329 397
#     4  11  22  39  66  95 125 163 217 280 333 386
#     4  10  19  34  62  92 123 165 218 259 318 396
#     4  11  23  40  64  93 133 172 217 264 325 404
#     4  11  22  41  68  93 123 175 232 265 312 403
#
# _framework density 20.477008999999999
#
# number of rings (size 3 to 8) (size 9 to 14) (size 15 to 20)
#    0.000    1.250    5.000    3.000    0.000    2.750 
#    0.000    5.625    0.000    0.000    0.000    0.000 
#    0.000    0.000    0.000    0.000    0.000    0.000 
#
# Total GULP energy -178455.863149 kJ/mol
# GULP energy per Si atom -5576.745723 kJ/mol
# Density = 2.043040 g / cm^3
# Si number density = 20.477009 Si / 1000 Ang^3
#
#
#
# Elastic Constant Matrix: (Units=GPa)
#
#
# Indices 1 2 3 4 5 6 
#
# 1 87.0548 17.3383 12.3357 0.0001 2.5732 0.0000
# 2 17.3383 82.2535 31.8259 0.0001 -13.0613 0.0000
# 3 12.3357 31.8259 88.1444 0.0002 -13.1421 0.0001
# 4 0.0001 0.0001 0.0002 18.9921 0.0001 0.2546
# 5 2.5732 -13.0613 -13.1421 0.0001 31.7443 0.0000
# 6 0.0000 0.0000 0.0001 0.2546 0.0000 21.6119
#
#
#
# Elastic Compliance Matrix: (Units=1/GPa)
#
#
# Indices 1 2 3 4 5 6 
#
# 1 0.012230 -0.002523 -0.001176 0.000000 -0.002516 0.000000
# 2 -0.002523 0.015132 -0.004425 0.000000 0.004599 0.000000
# 3 -0.001176 -0.004425 0.013695 0.000000 0.003945 0.000000
# 4 0.000000 0.000000 0.000000 0.052662 0.000000 -0.000620
# 5 -0.002516 0.004599 0.003945 0.000000 0.035231 0.000000
# 6 0.000000 0.000000 0.000000 -0.000620 0.000000 0.046278
#
#
# Mechanical properties :
#
#
# Convention : Reuss Voigt Hill
#
# Bulk Modulus (GPa) = 40.30536 42.27249 41.28893
# Shear Modulus (GPa) = 25.03191 27.53319 26.28255
#
# Velocity S-wave (km/s) = 3.50013 3.67084 3.58650
# Velocity P-wave (km/s) = 6.00504 6.21735 6.11212
#
# Compressibility (1/GPa) = 0.02481059
#
# Stress axis : x y z
#
# Youngs Moduli (GPa) = 81.76320 66.08697 73.01739
#
# Poissons Ratio (x) = 0.16671 0.08587
# Poissons Ratio (y) = 0.20626 0.32309
# Poissons Ratio (z) = 0.09615 0.29242
#
# Static dielectric constant tensor:
#      x y z
#    x 1.900510 0.000000 -0.067220 
#    y 0.000000 1.696420 0.000000 
#    z -0.067220 0.000000 1.866150 
# 
# From -- ./inp_files/278183.got.cif
#   From: 2010.05.17/outbox.cif.g08.bks.cpg/sg12_140_cif.got.tgz:278183.got - 2010.06.03 13:09:07.
