data_PCOD9186559
_publ_section_title
;
Structure prediction by ZEFSAII (Michael W. Deem and Ramdas Pophale) SiO2 
 PCOD9186559
Probable space group: C 2/M
;
_chemical_formula_sum "Si O2"
_cell_formula_units_Z 64
_cell_length_a 11.322480
_cell_length_b 18.158187
_cell_length_c 17.989857
_cell_angle_alpha 90.000000
_cell_angle_beta 78.065512
_cell_angle_gamma 90.000000
_cell_volume 3618.690204
_symmetry_space_group_name_H-M "C 2/M"
_symmetry_group_IT_number 12
_symmetry_cell_setting 'monoclinic'
loop_
_space_group_symop_operation_xyz
x,y,z
-x,y,-z
-x,-y,-z
x,-y,z
1/2+x,1/2+y,z
1/2-x,1/2+y,-z
1/2-x,1/2-y,-z
1/2+x,1/2-y,z
loop_
_atom_site_type_symbol
_atom_site_label
_atom_site_fract_x
_atom_site_fract_y
_atom_site_fract_z
Si Si1 0.527060 0.801832 0.910741
Si Si2 0.301472 0.736560 0.847721
Si Si3 0.465468 0.334088 0.626364
Si Si4 0.903535 0.680694 0.696108
Si Si5 0.193174 0.169917 0.491089
Si Si6 0.931207 0.416270 0.222608
Si Si7 0.655024 0.583201 0.233983
Si Si8 0.626019 0.914250 0.443458
O O1 0.407858 0.763040 0.889944
O O2 0.659602 0.761745 0.889141
O O3 0.545320 0.873957 0.857584
O O4 0.500000 0.816919 0.000000
O O5 0.314310 0.786687 0.771106
O O6 0.335917 0.651720 0.823797
O O7 0.473190 0.253497 0.660965
O O8 0.349327 0.333156 0.587845
O O9 0.578836 0.342526 0.559002
O O10 0.444803 0.394372 0.692383
O O11 0.852436 0.638416 0.630627
O O12 0.996168 0.626182 0.723864
O O13 0.250000 0.250000 0.500000
O O14 0.281336 0.105610 0.503977
O O15 0.972338 0.500000 0.212933
O O16 0.787709 0.415534 0.254216
O O17 0.636580 0.500000 0.207274
O O18 0.500000 0.896921 0.500000
O O19 0.628976 0.000000 0.421625
#
# Coordination Sequence:
#
# PCOD9186559 Si02
#       8
#     8   8   8   8   8   8   8   8
#     4  10  19  35  59  86 116 144 180 226 271 326
#     4   9  20  35  57  86 110 147 185 223 272 330
#     4  10  22  34  55  76  95 139 181 227 276 326
#     4  10  19  35  54  78 108 141 181 230 266 321
#     4  11  22  37  51  71 103 133 180 230 279 327
#     4   9  19  33  54  82 113 145 178 215 267 325
#     4   9  19  35  54  78 107 143 181 220 265 321
#     4  11  24  37  53  78 105 141 183 229 282 326
#
# _framework density 17.685956999999998
#
# number of rings (size 3 to 8) (size 9 to 14) (size 15 to 20)
#    0.000    2.125    1.250    1.500    3.500    4.250 
#    0.000    1.250    0.000    3.375    0.000    0.000 
#    0.000    0.000    0.000    0.000    0.000    0.000 
#
# Total GULP energy -178277.540324 kJ/mol
# GULP energy per Si atom -5571.173135 kJ/mol
# Density = 1.764570 g / cm^3
# Si number density = 17.685957 Si / 1000 Ang^3
#
#
#
# Elastic Constant Matrix: (Units=GPa)
#
#
# Indices 1 2 3 4 5 6 
#
# 1 73.0182 31.0013 27.0222 0.0000 0.8624 0.0000
# 2 31.0013 78.3069 36.5567 0.0000 6.1854 0.0000
# 3 27.0222 36.5567 49.5027 0.0000 -0.5827 0.0000
# 4 0.0000 0.0000 0.0000 9.3592 0.0000 11.5479
# 5 0.8624 6.1854 -0.5827 0.0000 20.9363 0.0000
# 6 0.0000 0.0000 0.0000 11.5479 0.0000 61.4960
#
#
#
# Elastic Compliance Matrix: (Units=1/GPa)
#
#
# Indices 1 2 3 4 5 6 
#
# 1 0.017893 -0.003880 -0.006900 0.000000 0.000217 0.000000
# 2 -0.003880 0.021159 -0.013583 0.000000 -0.006469 0.000000
# 3 -0.006900 -0.013583 0.034060 0.000000 0.005245 0.000000
# 4 0.000000 0.000000 0.000000 0.139068 0.000000 -0.026115
# 5 0.000217 -0.006469 0.005245 0.000000 0.049812 0.000000
# 6 0.000000 0.000000 0.000000 -0.026115 0.000000 0.021165
#
#
# Mechanical properties :
#
#
# Convention : Reuss Voigt Hill
#
# Bulk Modulus (GPa) = 41.00718 43.33202 42.16960
# Shear Modulus (GPa) = 14.70536 25.44148 20.07342
#
# Velocity S-wave (km/s) = 2.88665 3.79689 3.37262
# Velocity P-wave (km/s) = 5.86063 6.61633 6.24991
#
# Compressibility (1/GPa) = 0.02438597
#
# Stress axis : x y z
#
# Youngs Moduli (GPa) = 55.88664 47.26216 29.35994
#
# Poissons Ratio (x) = 0.18338 0.20257
# Poissons Ratio (y) = 0.21684 0.39881
# Poissons Ratio (z) = 0.38560 0.64198
#
# Static dielectric constant tensor:
#      x y z
#    x 1.727130 0.000000 -0.054040 
#    y 0.000000 1.597170 0.000000 
#    z -0.054040 0.000000 1.623510 
# 
# From -- ./inp_files/263879.got.cif
#   From: 2010.05.17/outbox.cif.g08.bks.cpg/sg12_132_cif.got.tgz:263879.got - 2010.06.03 13:09:07.
