data_PCOD9186479
_publ_section_title
;
Structure prediction by ZEFSAII (Michael W. Deem and Ramdas Pophale) SiO2 
 PCOD9186479
Probable space group: C 2/M
;
_chemical_formula_sum "Si O2"
_cell_formula_units_Z 56
_cell_length_a 26.090400
_cell_length_b 20.949740
_cell_length_c 19.472638
_cell_angle_alpha 90.000000
_cell_angle_beta 17.938846
_cell_angle_gamma 90.000000
_cell_volume 3278.214039
_symmetry_space_group_name_H-M "C 2/M"
_symmetry_group_IT_number 12
_symmetry_cell_setting 'monoclinic'
loop_
_space_group_symop_operation_xyz
x,y,z
-x,y,-z
-x,-y,-z
x,-y,z
1/2+x,1/2+y,z
1/2-x,1/2+y,-z
1/2-x,1/2-y,-z
1/2+x,1/2-y,z
loop_
_atom_site_type_symbol
_atom_site_label
_atom_site_fract_x
_atom_site_fract_y
_atom_site_fract_z
Si Si1 0.667526 0.739346 0.242387
Si Si2 0.342317 0.238939 0.247721
Si Si3 0.987768 0.203559 0.703773
Si Si4 0.710484 0.373123 0.630606
Si Si5 0.867771 0.129429 0.978644
Si Si6 0.192926 0.000000 0.737916
Si Si7 0.508487 0.193919 0.801162
Si Si8 0.696831 0.000000 0.246745
O O1 0.500000 0.733296 0.500000
O O2 0.616762 0.727536 0.227742
O O3 0.750892 0.809567 0.147476
O O4 0.816003 0.688949 0.068972
O O5 0.301778 0.314336 0.299923
O O6 0.392237 0.224208 0.262266
O O7 0.179630 0.198600 0.436019
O O8 0.500000 0.225661 0.000000
O O9 0.997469 0.257262 0.751134
O O10 0.915636 0.143417 0.837836
O O11 0.730757 0.437731 0.645865
O O12 0.873601 0.362143 0.375886
O O13 0.540039 0.371504 0.802987
O O14 0.773864 0.063445 0.113559
O O15 0.266244 0.000000 0.719674
O O16 0.000000 0.000000 0.000000
O O17 0.500000 0.000000 0.500000
#
# Coordination Sequence:
#
# PCOD9186479 Si02
#       8
#     8   8   8   8   8   4   8   4
#     4  11  22  34  54  85 116 143 182 236 292 335
#     4  11  19  30  54  81 109 143 182 234 287 332
#     4  10  20  33  54  80 109 149 185 227 289 340
#     4  11  20  35  57  79 111 150 190 230 272 326
#     4  11  20  38  55  76 115 153 185 228 270 338
#     4  12  24  38  58  86 113 154 198 228 263 328
#     4  10  19  35  52  76 108 147 186 228 282 340
#     4  12  28  40  56  84 121 154 192 226 269 334
#
# _framework density 17.082473
#
# number of rings (size 3 to 8) (size 9 to 14) (size 15 to 20)
#    0.000    1.143    5.714    4.286    0.000    4.571 
#    0.000    0.000    0.000    0.000    0.000    6.000 
#    0.000    0.000    0.000    0.000    0.000    0.000 
#
# Total GULP energy -156079.712239 kJ/mol
# GULP energy per Si atom -5574.275437 kJ/mol
# Density = 1.704359 g / cm^3
# Si number density = 17.082473 Si / 1000 Ang^3
#
#
#
# Elastic Constant Matrix: (Units=GPa)
#
#
# Indices 1 2 3 4 5 6 
#
# 1 96.0779 48.9364 31.5983 -0.0010 -10.2434 -0.0014
# 2 48.9364 103.3818 64.4998 -0.0014 9.2783 -0.0021
# 3 31.5983 64.4998 168.2345 -0.0016 -2.9874 -0.0066
# 4 -0.0010 -0.0014 -0.0016 25.3314 -0.0052 8.1872
# 5 -10.2434 9.2783 -2.9874 -0.0052 34.3803 0.0032
# 6 -0.0014 -0.0021 -0.0066 8.1872 0.0032 15.5570
#
#
#
# Elastic Compliance Matrix: (Units=1/GPa)
#
#
# Indices 1 2 3 4 5 6 
#
# 1 0.015045 -0.007925 0.000331 0.000002 0.006650 -0.000002
# 2 -0.007925 0.017421 -0.005324 -0.000002 -0.007525 0.000002
# 3 0.000331 -0.005324 0.007963 0.000000 0.002227 0.000002
# 4 0.000002 -0.000002 0.000000 0.047568 0.000011 -0.025034
# 5 0.006650 -0.007525 0.002227 0.000011 0.033292 -0.000012
# 6 -0.000002 0.000002 0.000002 -0.025034 -0.000012 0.077454
#
#
# Mechanical properties :
#
#
# Convention : Reuss Voigt Hill
#
# Bulk Modulus (GPa) = 68.53022 73.08483 70.80753
# Shear Modulus (GPa) = 21.79180 29.89770 25.84475
#
# Velocity S-wave (km/s) = 3.57554 4.18807 3.89387
# Velocity P-wave (km/s) = 7.56640 8.14021 7.85854
#
# Compressibility (1/GPa) = 0.01459210
#
# Stress axis : x y z
#
# Youngs Moduli (GPa) = 66.46813 57.40097 125.58257
#
# Poissons Ratio (x) = 0.45488 -0.04151
# Poissons Ratio (y) = 0.52673 0.66865
# Poissons Ratio (z) = -0.02197 0.30563
#
# Static dielectric constant tensor:
#      x y z
#    x 1.581630 0.000000 0.004700 
#    y 0.000000 1.640070 -0.000020 
#    z 0.004700 -0.000020 1.659160 
# 
# From -- ./inp_files/290821.got.cif
#   From: 2010.05.17/outbox.cif.g08.bks.cpg/sg12_146_cif.got.tgz:290821.got - 2010.06.03 13:09:07.
