data_PCOD9186998
_publ_section_title
;
Structure prediction by ZEFSAII (Michael W. Deem and Ramdas Pophale) SiO2 
 PCOD9186998
Probable space group: C 2/M
;
_chemical_formula_sum "Si O2"
_cell_formula_units_Z 48
_cell_length_a 22.439475
_cell_length_b 12.824250
_cell_length_c 25.531595
_cell_angle_alpha 90.000000
_cell_angle_beta 22.728956
_cell_angle_gamma 90.000000
_cell_volume 2838.758914
_symmetry_space_group_name_H-M "C 2/M"
_symmetry_group_IT_number 12
_symmetry_cell_setting 'monoclinic'
loop_
_space_group_symop_operation_xyz
x,y,z
-x,y,-z
-x,-y,-z
x,-y,z
1/2+x,1/2+y,z
1/2-x,1/2+y,-z
1/2-x,1/2-y,-z
1/2+x,1/2-y,z
loop_
_atom_site_type_symbol
_atom_site_label
_atom_site_fract_x
_atom_site_fract_y
_atom_site_fract_z
Si Si1 0.282572 0.730014 0.559280
Si Si2 0.765510 0.377384 0.100746
Si Si3 0.472556 0.880876 0.584396
Si Si4 0.888623 0.376731 0.205816
Si Si5 0.926255 0.123305 0.341884
Si Si6 0.826971 0.759401 0.152849
O O1 0.416513 0.800959 0.475671
O O2 0.200430 0.665055 0.671535
O O3 0.160262 0.806928 0.630726
O O4 0.354340 0.656315 0.456253
O O5 0.759759 0.500000 0.119510
O O6 0.609162 0.353848 0.196369
O O7 0.774425 0.310436 0.146287
O O8 0.926282 0.360441 0.940039
O O9 0.500000 0.871660 0.500000
O O10 0.296765 0.849367 0.738253
O O11 0.504280 0.000000 0.574454
O O12 0.861846 0.500000 0.220066
O O13 0.835494 0.312910 0.197609
O O14 0.904593 0.000000 0.350393
O O15 0.000000 0.796849 0.000000
#
# Coordination Sequence:
#
# PCOD9186998 Si02
#       6
#     8   8   8   8   8   8
#     4  11  21  36  55  80 108 141 180 223 266 312
#     4   9  18  34  56  82 111 141 173 214 267 317
#     4  11  22  37  55  78 108 142 179 220 270 316
#     4  10  20  34  55  83 112 140 175 220 265 315
#     4  10  21  36  56  78 105 142 182 222 265 316
#     4  10  19  35  57  82 110 140 175 218 265 318
#
# _framework density 16.908798000000001
#
# number of rings (size 3 to 8) (size 9 to 14) (size 15 to 20)
#    0.000    1.833    3.333    1.500    0.000    3.000 
#    0.000    0.833    0.000    0.000    0.000    0.000 
#    0.000    0.000    0.000    0.000    0.000    0.000 
#
# Total GULP energy -133920.060462 kJ/mol
# GULP energy per Si atom -5580.002519 kJ/mol
# Density = 1.687031 g / cm^3
# Si number density = 16.908798 Si / 1000 Ang^3
#
#
#
# Elastic Constant Matrix: (Units=GPa)
#
#
# Indices 1 2 3 4 5 6 
#
# 1 36.1544 1.1868 13.5511 -0.0002 -1.3638 0.0006
# 2 1.1868 31.2360 15.7300 -0.0019 0.1347 -0.0012
# 3 13.5511 15.7300 70.6230 -0.0003 -0.7063 -0.0013
# 4 -0.0002 -0.0019 -0.0003 28.5462 -0.0003 -6.6177
# 5 -1.3638 0.1347 -0.7063 -0.0003 29.2593 0.0001
# 6 0.0006 -0.0012 -0.0013 -6.6177 0.0001 14.2940
#
#
#
# Elastic Compliance Matrix: (Units=1/GPa)
#
#
# Indices 1 2 3 4 5 6 
#
# 1 0.029955 0.001965 -0.006173 0.000000 0.001238 -0.000002
# 2 0.001965 0.036192 -0.008441 0.000003 -0.000279 0.000004
# 3 -0.006173 -0.008441 0.017226 0.000000 0.000167 0.000001
# 4 0.000000 0.000003 0.000000 0.039243 0.000000 0.018168
# 5 0.001238 -0.000279 0.000167 0.000000 0.034240 0.000000
# 6 -0.000002 0.000004 0.000001 0.018168 0.000000 0.078371
#
#
# Mechanical properties :
#
#
# Convention : Reuss Voigt Hill
#
# Bulk Modulus (GPa) = 17.21913 22.10548 19.66230
# Shear Modulus (GPa) = 17.86467 21.58961 19.72714
#
# Velocity S-wave (km/s) = 3.25396 3.57715 3.41937
# Velocity P-wave (km/s) = 4.93187 5.49209 5.21950
#
# Compressibility (1/GPa) = 0.05807496
#
# Stress axis : x y z
#
# Youngs Moduli (GPa) = 33.38326 27.63076 58.05208
#
# Poissons Ratio (x) = -0.05430 0.35836
# Poissons Ratio (y) = -0.06560 0.49001
# Poissons Ratio (z) = 0.20608 0.23323
#
# Static dielectric constant tensor:
#      x y z
#    x 1.541530 0.000000 -0.012470 
#    y 0.000000 1.536430 0.000000 
#    z -0.012470 0.000000 1.570570 
# 
# From -- ./inp_files/85124.got.cif
#   From: 2010.05.17/outbox.cif.g08.bks.cpg/sg12_43_cif.got.tgz:85124.got - 2010.06.03 13:09:07.
