data_PCOD9186711
_publ_section_title
;
Structure prediction by ZEFSAII (Michael W. Deem and Ramdas Pophale) SiO2 
 PCOD9186711
Probable space group: C 2/M
;
_chemical_formula_sum "Si O2"
_cell_formula_units_Z 44
_cell_length_a 14.310587
_cell_length_b 29.466243
_cell_length_c 5.382333
_cell_angle_alpha 90.000000
_cell_angle_beta 119.725104
_cell_angle_gamma 90.000000
_cell_volume 1970.968883
_symmetry_space_group_name_H-M "C 2/M"
_symmetry_group_IT_number 12
_symmetry_cell_setting 'monoclinic'
loop_
_space_group_symop_operation_xyz
x,y,z
-x,y,-z
-x,-y,-z
x,-y,z
1/2+x,1/2+y,z
1/2-x,1/2+y,-z
1/2-x,1/2-y,-z
1/2+x,1/2-y,z
loop_
_atom_site_type_symbol
_atom_site_label
_atom_site_fract_x
_atom_site_fract_y
_atom_site_fract_z
Si Si1 0.752847 0.947959 0.161602
Si Si2 0.899905 0.305065 0.684064
Si Si3 0.289301 0.891610 0.389567
Si Si4 0.813807 0.224216 0.296525
Si Si5 0.000000 0.924823 0.500000
Si Si6 0.076994 0.153198 0.285150
O O1 0.716917 0.922748 0.369237
O O2 0.884294 0.948688 0.324913
O O3 0.715196 0.000000 0.108837
O O4 0.712429 0.920374 0.865995
O O5 0.883092 0.354030 0.534346
O O6 0.896854 0.262440 0.498001
O O7 0.788579 0.292908 0.678222
O O8 0.000000 0.305724 0.000000
O O9 0.180554 0.861704 0.263532
O O10 0.883620 0.178470 0.413249
O O11 0.750000 0.250000 0.000000
O O12 0.016615 0.891956 0.288219
O O13 0.000000 0.181400 0.000000
#
# Coordination Sequence:
#
# PCOD9186711 Si02
#       6
#     8   8   8   8   4   8
#     4  11  22  40  63  93 127 162 208 264 323 386
#     4  10  23  42  60  87 125 166 214 258 313 375
#     4  10  23  39  62  90 123 166 207 254 318 377
#     4  10  23  37  60  91 123 163 214 261 310 366
#     4  10  21  32  58  92 126 172 202 250 319 392
#     4  10  19  35  55  84 129 166 206 246 309 373
#
# _framework density 22.324045999999999
#
# number of rings (size 3 to 8) (size 9 to 14) (size 15 to 20)
#    0.000    1.818    1.818    1.364    7.636    3.636 
#    0.000    2.727    0.000    3.273    0.000    0.000 
#    0.000    0.000    0.000    0.000    0.000    0.000 
#
# Total GULP energy -122615.995052 kJ/mol
# GULP energy per Si atom -5573.454321 kJ/mol
# Density = 2.227324 g / cm^3
# Si number density = 22.324046 Si / 1000 Ang^3
#
#
#
# Elastic Constant Matrix: (Units=GPa)
#
#
# Indices 1 2 3 4 5 6 
#
# 1 54.3217 13.9506 18.6174 0.0000 3.0393 0.0000
# 2 13.9506 136.3825 79.4960 0.0000 5.3181 0.0000
# 3 18.6174 79.4960 164.3547 0.0000 -0.9274 0.0000
# 4 0.0000 0.0000 0.0000 31.7137 0.0000 19.1609
# 5 3.0393 5.3181 -0.9274 0.0000 32.7025 0.0000
# 6 0.0000 0.0000 0.0000 19.1609 0.0000 -31.3824
#
#
#
# Elastic Compliance Matrix: (Units=1/GPa)
#
#
# Indices 1 2 3 4 5 6 
#
# 1 0.019338 -0.000876 -0.001776 0.000000 -0.001705 0.000000
# 2 -0.000876 0.010358 -0.004921 0.000000 -0.001743 0.000000
# 3 -0.001776 -0.004921 0.008672 0.000000 0.001211 0.000000
# 4 0.000000 0.000000 0.000000 0.023035 0.000000 0.014064
# 5 -0.001705 -0.001743 0.001211 0.000000 0.031055 0.000000
# 6 0.000000 0.000000 0.000000 0.014064 0.000000 -0.023278
#
#
# Mechanical properties :
#
#
# Convention : Reuss Voigt Hill
#
# Bulk Modulus (GPa) = 43.06205 64.35409 53.70807
# Shear Modulus (GPa) = 54.30796 22.80641 38.55719
#
# Velocity S-wave (km/s) = 4.93760 3.19973 4.16042
# Velocity P-wave (km/s) = 7.19986 6.52233 6.86945
#
# Compressibility (1/GPa) = 0.02322230
#
# Stress axis : x y z
#
# Youngs Moduli (GPa) = 51.71143 96.54296 115.30707
#
# Poissons Ratio (x) = 0.08459 0.20483
# Poissons Ratio (y) = 0.04531 0.56738
# Poissons Ratio (z) = 0.09186 0.47505
#
# Static dielectric constant tensor:
#      x y z
#    x 1.877060 0.000000 -0.061070 
#    y 0.000000 1.856660 0.000000 
#    z -0.061070 0.000000 1.888780 
# 
# From -- ./inp_files/18225.got.cif
#   From: 2010.05.17/outbox.cif.g08.bks.cpg/sg12_10_cif.got.tgz:18225.got - 2010.06.03 13:09:07.
