data_PCOD9186286
_publ_section_title
;
Structure prediction by ZEFSAII (Michael W. Deem and Ramdas Pophale) SiO2 
 PCOD9186286
Probable space group: C 2/M
;
_chemical_formula_sum "Si O2"
_cell_formula_units_Z 44
_cell_length_a 8.917532
_cell_length_b 27.731083
_cell_length_c 11.926724
_cell_angle_alpha 90.000000
_cell_angle_beta 50.607830
_cell_angle_gamma 90.000000
_cell_volume 2279.350971
_symmetry_space_group_name_H-M "C 2/M"
_symmetry_group_IT_number 12
_symmetry_cell_setting 'monoclinic'
loop_
_space_group_symop_operation_xyz
x,y,z
-x,y,-z
-x,-y,-z
x,-y,z
1/2+x,1/2+y,z
1/2-x,1/2+y,-z
1/2-x,1/2-y,-z
1/2+x,1/2-y,z
loop_
_atom_site_type_symbol
_atom_site_label
_atom_site_fract_x
_atom_site_fract_y
_atom_site_fract_z
Si Si1 0.156685 0.803002 0.524172
Si Si2 0.556965 0.891739 0.605111
Si Si3 0.500000 0.751911 0.000000
Si Si4 0.638882 0.688537 0.142655
Si Si5 0.718859 0.500000 0.940686
Si Si6 0.439900 0.000000 0.399285
Si Si7 0.783108 0.896230 0.050886
O O1 0.250000 0.750000 0.500000
O O2 0.309899 0.845798 0.429300
O O3 0.000000 0.798926 0.500000
O O4 0.037501 0.819394 0.690466
O O5 0.500000 0.888453 0.500000
O O6 0.369565 0.888745 0.775800
O O7 0.647868 0.946088 0.579653
O O8 0.559868 0.720260 0.077215
O O9 0.313033 0.783324 0.119984
O O10 0.729100 0.642151 0.041206
O O11 0.748666 0.449310 0.985464
O O12 0.864728 0.500000 0.766876
O O13 0.500000 0.500000 0.000000
O O14 0.500000 0.000000 0.500000
O O15 0.000000 0.893347 0.000000
#
# Coordination Sequence:
#
# PCOD9186286 Si02
#       7
#     8   8   4   8   4   4   8
#     4  12  27  42  61  88 125 161 203 248 307 363
#     4  10  21  37  62  90 124 161 203 253 301 356
#     4  10  24  38  62  82 114 152 196 240 288 352
#     4  11  23  40  61  85 117 152 200 238 301 349
#     4   8  16  30  52  87 118 148 190 249 292 341
#     4   8  16  34  57  86 118 158 202 246 298 353
#     4  10  19  34  60  89 120 153 199 245 298 349
#
# _framework density 19.303740999999999
#
# number of rings (size 3 to 8) (size 9 to 14) (size 15 to 20)
#    0.000    1.818    0.909    2.727    7.636    1.455 
#    0.000    0.455    0.000    0.545    0.000    0.000 
#    0.000    0.000    0.000    0.000    0.000    0.000 
#
# Total GULP energy -122666.979958 kJ/mol
# GULP energy per Si atom -5575.771816 kJ/mol
# Density = 1.925980 g / cm^3
# Si number density = 19.303741 Si / 1000 Ang^3
#
#
#
# Elastic Constant Matrix: (Units=GPa)
#
#
# Indices 1 2 3 4 5 6 
#
# 1 64.1575 57.7472 14.0920 0.0000 -9.5086 0.0000
# 2 57.7472 189.4046 55.1763 0.0000 -10.8045 0.0000
# 3 14.0920 55.1763 93.8348 0.0000 -9.6206 0.0000
# 4 0.0000 0.0000 0.0000 36.3648 0.0000 -3.4210
# 5 -9.5086 -10.8045 -9.6206 0.0000 22.8503 0.0000
# 6 0.0000 0.0000 0.0000 -3.4210 0.0000 18.3033
#
#
#
# Elastic Compliance Matrix: (Units=1/GPa)
#
#
# Indices 1 2 3 4 5 6 
#
# 1 0.022450 -0.006856 0.001343 0.000000 0.006666 0.000000
# 2 -0.006856 0.008514 -0.004031 0.000000 -0.000524 0.000000
# 3 0.001343 -0.004031 0.013260 0.000000 0.004236 0.000000
# 4 0.000000 0.000000 0.000000 0.027991 0.000000 0.005232
# 5 0.006666 -0.000524 0.004236 0.000000 0.048073 0.000000
# 6 0.000000 0.000000 0.000000 0.005232 0.000000 0.055613
#
#
# Mechanical properties :
#
#
# Convention : Reuss Voigt Hill
#
# Bulk Modulus (GPa) = 39.78077 66.82530 53.30304
# Shear Modulus (GPa) = 24.58608 30.19577 27.39092
#
# Velocity S-wave (km/s) = 3.57269 3.95934 3.77097
# Velocity P-wave (km/s) = 6.13770 7.45619 6.82884
#
# Compressibility (1/GPa) = 0.02513777
#
# Stress axis : x y z
#
# Youngs Moduli (GPa) = 44.54250 117.44974 75.41676
#
# Poissons Ratio (x) = 0.80523 -0.10130
# Poissons Ratio (y) = 0.30538 0.30398
# Poissons Ratio (z) = -0.05983 0.47340
#
# Static dielectric constant tensor:
#      x y z
#    x 1.601940 0.000000 -0.029270 
#    y 0.000000 1.742210 0.000000 
#    z -0.029270 0.000000 1.691660 
# 
# From -- ./inp_files/124113.got.cif
#   From: 2010.05.17/outbox.cif.g08.bks.cpg/sg12_63_cif.got.tgz:124113.got - 2010.06.03 13:09:07.
