data_PCOD9186522
_publ_section_title
;
Structure prediction by ZEFSAII (Michael W. Deem and Ramdas Pophale) SiO2 
 PCOD9186522
Probable space group: C 2/M
;
_chemical_formula_sum "Si O2"
_cell_formula_units_Z 64
_cell_length_a 18.662857
_cell_length_b 21.511315
_cell_length_c 17.736069
_cell_angle_alpha 90.000000
_cell_angle_beta 30.262101
_cell_angle_gamma 90.000000
_cell_volume 3588.355245
_symmetry_space_group_name_H-M "C 2/M"
_symmetry_group_IT_number 12
_symmetry_cell_setting 'monoclinic'
loop_
_space_group_symop_operation_xyz
x,y,z
-x,y,-z
-x,-y,-z
x,-y,z
1/2+x,1/2+y,z
1/2-x,1/2+y,-z
1/2-x,1/2-y,-z
1/2+x,1/2-y,z
loop_
_atom_site_type_symbol
_atom_site_label
_atom_site_fract_x
_atom_site_fract_y
_atom_site_fract_z
Si Si1 0.328869 0.639188 0.146218
Si Si2 0.413694 0.174799 0.859524
Si Si3 0.892731 0.198403 0.793593
Si Si4 0.378744 0.925969 0.769071
Si Si5 0.674827 0.073621 0.426671
Si Si6 0.308834 0.212605 0.330850
Si Si7 0.352677 0.260090 0.667730
Si Si8 0.166068 0.841960 0.610361
O O1 0.268865 0.600974 0.129284
O O2 0.252915 0.606470 0.286337
O O3 0.258245 0.707354 0.204942
O O4 0.500000 0.640631 0.000000
O O5 0.437332 0.231524 0.778516
O O6 0.417025 0.111337 0.809966
O O7 0.534106 0.184462 0.812526
O O8 0.262410 0.185322 0.034394
O O9 0.892911 0.198647 0.703340
O O10 0.001858 0.153412 0.737083
O O11 0.508132 0.911988 0.592706
O O12 0.372687 0.000000 0.784232
O O13 0.758136 0.098515 0.424367
O O14 0.686030 0.000000 0.406905
O O15 0.222957 0.204942 0.332455
O O16 0.237359 0.180992 0.468306
O O17 0.316339 0.286115 0.344588
O O18 0.500000 0.233045 0.500000
#
# Coordination Sequence:
#
# PCOD9186522 Si02
#       8
#     8   8   8   8   8   8   8   8
#     4  12  27  37  54  85 123 157 195 233 279 340
#     4  10  21  37  55  85 116 147 186 247 281 337
#     4  10  22  34  57  82 118 148 186 232 302 338
#     4  11  23  41  62  82 112 160 202 232 278 340
#     4  11  23  40  61  82 113 159 202 236 278 335
#     4  10  20  32  58  80 115 145 185 239 287 339
#     4  12  22  36  59  89 116 160 189 231 290 358
#     4  10  19  35  53  86 107 147 191 237 282 337
#
# _framework density 17.835470000000001
#
# number of rings (size 3 to 8) (size 9 to 14) (size 15 to 20)
#    0.000    1.250    5.000    1.500    3.500    2.000 
#    0.000    0.000    0.000    0.000    0.000    5.250 
#    0.000    0.000    0.000    0.000    0.000    0.000 
#
# Total GULP energy -178661.577496 kJ/mol
# GULP energy per Si atom -5583.174297 kJ/mol
# Density = 1.779488 g / cm^3
# Si number density = 17.835470 Si / 1000 Ang^3
#
#
#
# Elastic Constant Matrix: (Units=GPa)
#
#
# Indices 1 2 3 4 5 6 
#
# 1 90.6691 3.7605 16.6627 -0.0026 -13.9827 0.0004
# 2 3.7605 29.9256 8.3117 -0.0063 -3.3320 0.0035
# 3 16.6627 8.3117 68.7529 -0.0077 -27.2288 0.0045
# 4 -0.0026 -0.0063 -0.0077 12.6238 0.0020 3.0221
# 5 -13.9827 -3.3320 -27.2288 0.0020 35.3667 -0.0005
# 6 0.0004 0.0035 0.0045 3.0221 -0.0005 2.1678
#
#
#
# Elastic Compliance Matrix: (Units=1/GPa)
#
#
# Indices 1 2 3 4 5 6 
#
# 1 0.011861 -0.000711 -0.001378 0.000000 0.003561 0.000002
# 2 -0.000711 0.034620 -0.004075 0.000039 -0.000157 -0.000101
# 3 -0.001378 -0.004075 0.021585 0.000025 0.015690 -0.000069
# 4 0.000000 0.000039 0.000025 0.118896 0.000014 -0.165751
# 5 0.003561 -0.000157 0.015690 0.000014 0.041748 -0.000044
# 6 0.000002 -0.000101 -0.000069 -0.165751 -0.000044 0.692364
#
#
# Mechanical properties :
#
#
# Convention : Reuss Voigt Hill
#
# Bulk Modulus (GPa) = 17.94129 27.42415 22.68272
# Shear Modulus (GPa) = 5.25220 20.73918 12.99569
#
# Velocity S-wave (km/s) = 1.71791 3.41369 2.70227
# Velocity P-wave (km/s) = 3.74381 5.56303 4.74149
#
# Compressibility (1/GPa) = 0.05573737
#
# Stress axis : x y z
#
# Youngs Moduli (GPa) = 84.30910 28.88513 46.32808
#
# Poissons Ratio (x) = 0.02054 0.06385
# Poissons Ratio (y) = 0.05996 0.18879
# Poissons Ratio (z) = 0.11620 0.11771
#
# Static dielectric constant tensor:
#      x y z
#    x 1.635110 0.000000 -0.020470 
#    y 0.000000 1.579170 0.000000 
#    z -0.020470 0.000000 1.662390 
# 
# From -- ./inp_files/77533.got.cif
#   From: 2010.05.17/outbox.cif.g08.bks.cpg/sg12_39_cif.got.tgz:77533.got - 2010.06.03 13:09:07.
