data_PCOD9186933
_publ_section_title
;
Structure prediction by ZEFSAII (Michael W. Deem and Ramdas Pophale) SiO2 
 PCOD9186933
Probable space group: C 2/M
;
_chemical_formula_sum "Si O2"
_cell_formula_units_Z 56
_cell_length_a 21.792288
_cell_length_b 7.535214
_cell_length_c 19.717121
_cell_angle_alpha 90.000000
_cell_angle_beta 53.991358
_cell_angle_gamma 90.000000
_cell_volume 2619.099314
_symmetry_space_group_name_H-M "C 2/M"
_symmetry_group_IT_number 12
_symmetry_cell_setting 'monoclinic'
loop_
_space_group_symop_operation_xyz
x,y,z
-x,y,-z
-x,-y,-z
x,-y,z
1/2+x,1/2+y,z
1/2-x,1/2+y,-z
1/2-x,1/2-y,-z
1/2+x,1/2-y,z
loop_
_atom_site_type_symbol
_atom_site_label
_atom_site_fract_x
_atom_site_fract_y
_atom_site_fract_z
Si Si1 0.314429 0.292504 0.554609
Si Si2 0.148286 0.714815 0.619316
Si Si3 0.555199 0.293007 0.021278
Si Si4 0.568345 0.797392 0.411910
Si Si5 0.276051 0.286735 0.060250
Si Si6 0.000011 0.714773 0.795565
Si Si7 0.126810 0.282875 0.230184
O O1 0.309546 0.500000 0.574780
O O2 0.229489 0.224123 0.595432
O O3 0.357622 0.272675 0.454878
O O4 0.359803 0.201237 0.585000
O O5 0.149522 0.500000 0.617732
O O6 0.078196 0.773449 0.710262
O O7 0.566303 0.500000 0.995829
O O8 0.513686 0.282043 0.120345
O O9 0.500000 0.213938 0.000000
O O10 0.639914 0.216981 0.977098
O O11 0.500000 0.713520 0.500000
O O12 0.594116 0.719485 0.323366
O O13 0.543337 0.000000 0.412801
O O14 0.278803 0.500000 0.063526
O O15 0.210688 0.223298 0.154137
O O16 0.250000 0.250000 0.000000
O O17 0.000725 0.500000 0.797638
O O18 0.930693 0.767906 0.792160
O O19 0.128753 0.500000 0.231668
#
# Coordination Sequence:
#
# PCOD9186933 Si02
#       7
#     8   8   8   8   8   8   8
#     4  10  20  34  52  78 110 142 178 223 273 321
#     4   9  19  35  55  77 105 143 182 220 268 330
#     4  10  22  37  53  79 115 147 175 222 286 340
#     4  10  20  35  55  78 108 145 184 224 270 326
#     4  10  19  35  57  79 107 142 185 230 272 326
#     4  10  19  35  58  80 103 136 184 230 267 322
#     4   9  18  32  54  80 102 137 186 228 268 321
#
# _framework density 21.381395999999999
#
# number of rings (size 3 to 8) (size 9 to 14) (size 15 to 20)
#    0.000    2.286    1.429    1.286    0.000    5.143 
#    0.000    2.857    0.000    0.000    0.000    0.000 
#    0.000    0.000    0.000    0.000    0.000    0.000 
#
# Total GULP energy -156379.841538 kJ/mol
# GULP energy per Si atom -5584.994341 kJ/mol
# Density = 2.133273 g / cm^3
# Si number density = 21.381396 Si / 1000 Ang^3
#
#
#
# Elastic Constant Matrix: (Units=GPa)
#
#
# Indices 1 2 3 4 5 6 
#
# 1 139.2728 1.8975 85.4740 -0.0004 8.0257 0.0076
# 2 1.8975 56.0727 -2.4323 -0.0042 -3.4171 0.0124
# 3 85.4740 -2.4323 168.0267 0.0001 -8.2022 0.0033
# 4 -0.0004 -0.0042 0.0001 25.5639 -0.0005 0.7640
# 5 8.0257 -3.4171 -8.2022 -0.0005 38.2731 -0.0016
# 6 0.0076 0.0124 0.0033 0.7640 -0.0016 7.5481
#
#
#
# Elastic Compliance Matrix: (Units=1/GPa)
#
#
# Indices 1 2 3 4 5 6 
#
# 1 0.010925 -0.000838 -0.005745 0.000000 -0.003597 -0.000008
# 2 -0.000838 0.018015 0.000782 0.000004 0.001952 -0.000029
# 3 -0.005745 0.000782 0.009042 0.000000 0.003212 0.000001
# 4 0.000000 0.000004 0.000000 0.039236 0.000001 -0.003971
# 5 -0.003597 0.001952 0.003212 0.000001 0.027745 0.000005
# 6 -0.000008 -0.000029 0.000001 -0.003971 0.000005 0.132886
#
#
# Mechanical properties :
#
#
# Convention : Reuss Voigt Hill
#
# Bulk Modulus (GPa) = 37.90681 59.25009 48.57845
# Shear Modulus (GPa) = 19.36152 32.83922 26.10037
#
# Velocity S-wave (km/s) = 3.01247 3.92328 3.49765
# Velocity P-wave (km/s) = 5.46510 6.94939 6.25145
#
# Compressibility (1/GPa) = 0.02638048
#
# Stress axis : x y z
#
# Youngs Moduli (GPa) = 91.53624 55.50859 110.59493
#
# Poissons Ratio (x) = 0.04652 0.63537
# Poissons Ratio (y) = 0.07672 -0.08653
# Poissons Ratio (z) = 0.52588 -0.04343
#
# Static dielectric constant tensor:
#      x y z
#    x 1.757180 0.000000 -0.031650 
#    y 0.000000 1.813790 0.000000 
#    z -0.031650 0.000000 1.743140 
# 
# From -- ./inp_files/280857.got.cif
#   From: 2010.05.17/outbox.cif.g08.bks.cpg/sg12_141_cif.got.tgz:280857.got - 2010.06.03 13:09:07.
