data_PCOD9186670
_publ_section_title
;
Structure prediction by ZEFSAII (Michael W. Deem and Ramdas Pophale) SiO2 
 PCOD9186670
Probable space group: C 2/M
;
_chemical_formula_sum "Si O2"
_cell_formula_units_Z 44
_cell_length_a 14.310396
_cell_length_b 12.124456
_cell_length_c 12.276268
_cell_angle_alpha 90.000000
_cell_angle_beta 83.160663
_cell_angle_gamma 90.000000
_cell_volume 2114.846150
_symmetry_space_group_name_H-M "C 2/M"
_symmetry_group_IT_number 12
_symmetry_cell_setting 'monoclinic'
loop_
_space_group_symop_operation_xyz
x,y,z
-x,y,-z
-x,-y,-z
x,-y,z
1/2+x,1/2+y,z
1/2-x,1/2+y,-z
1/2-x,1/2-y,-z
1/2+x,1/2-y,z
loop_
_atom_site_type_symbol
_atom_site_label
_atom_site_fract_x
_atom_site_fract_y
_atom_site_fract_z
Si Si1 0.720620 0.371700 0.895777
Si Si2 0.500000 0.705112 0.500000
Si Si3 0.237131 0.270288 0.684260
Si Si4 0.335334 0.125259 0.505706
Si Si5 0.436177 0.373765 0.727862
Si Si6 0.913967 0.736803 0.935564
O O1 0.710032 0.500000 0.869865
O O2 0.701822 0.289790 0.797074
O O3 0.829414 0.348423 0.917977
O O4 0.646294 0.334272 0.997710
O O5 0.585063 0.788843 0.476218
O O6 0.499205 0.637272 0.388543
O O7 0.251990 0.171180 0.593820
O O8 0.180891 0.358547 0.620540
O O9 0.331480 0.335595 0.706211
O O10 0.356815 0.000000 0.529279
O O11 0.436784 0.500000 0.765068
O O12 0.459420 0.288546 0.820435
O O13 0.000000 0.698062 0.000000
#
# Coordination Sequence:
#
# PCOD9186670 Si02
#       6
#     8   4   8   8   8   8
#     4  10  21  40  64  88 119 158 198 248 300 350
#     4  10  22  34  54  86 116 148 194 236 282 354
#     4   9  20  35  57  83 111 146 198 238 284 357
#     4  10  19  35  55  80 115 152 187 236 293 344
#     4  10  20  37  57  81 116 151 190 243 292 340
#     4  10  23  40  61  89 124 154 202 248 293 360
#
# _framework density 20.805296999999999
#
# number of rings (size 3 to 8) (size 9 to 14) (size 15 to 20)
#    0.000    2.182    0.000    2.182    2.545    1.818 
#    0.000    3.636    0.000    0.000    0.000    0.000 
#    0.000    0.000    0.000    0.000    0.000    0.000 
#
# Total GULP energy -122617.428226 kJ/mol
# GULP energy per Si atom -5573.519465 kJ/mol
# Density = 2.075794 g / cm^3
# Si number density = 20.805297 Si / 1000 Ang^3
#
#
#
# Elastic Constant Matrix: (Units=GPa)
#
#
# Indices 1 2 3 4 5 6 
#
# 1 38.3692 -9.1752 -1.3519 0.0000 3.0910 0.0000
# 2 -9.1752 48.3115 -4.0645 0.0000 -10.4458 0.0000
# 3 -1.3519 -4.0645 81.3998 0.0000 -6.9512 0.0000
# 4 0.0000 0.0000 0.0000 36.2215 0.0000 12.1393
# 5 3.0910 -10.4458 -6.9512 0.0000 30.8385 0.0000
# 6 0.0000 0.0000 0.0000 12.1393 0.0000 19.3356
#
#
#
# Elastic Compliance Matrix: (Units=1/GPa)
#
#
# Indices 1 2 3 4 5 6 
#
# 1 0.027366 0.005059 0.000631 0.000000 -0.000887 0.000000
# 2 0.005059 0.023530 0.001933 0.000000 0.007899 0.000000
# 3 0.000631 0.001933 0.012687 0.000000 0.003451 0.000000
# 4 0.000000 0.000000 0.000000 0.034965 0.000000 -0.021952
# 5 -0.000887 0.007899 0.003451 0.000000 0.035969 0.000000
# 6 0.000000 0.000000 0.000000 -0.021952 0.000000 0.065500
#
#
# Mechanical properties :
#
#
# Convention : Reuss Voigt Hill
#
# Bulk Modulus (GPa) = 12.68557 15.43305 14.05931
# Shear Modulus (GPa) = 23.69144 29.45728 26.57436
#
# Velocity S-wave (km/s) = 3.37816 3.76687 3.57779
# Velocity P-wave (km/s) = 4.61805 5.13352 4.88259
#
# Compressibility (1/GPa) = 0.07882972
#
# Stress axis : x y z
#
# Youngs Moduli (GPa) = 36.54181 42.49838 78.82212
#
# Poissons Ratio (x) = -0.21498 -0.04976
# Poissons Ratio (y) = -0.18485 -0.15240
# Poissons Ratio (z) = -0.02307 -0.08217
#
# Static dielectric constant tensor:
#      x y z
#    x 1.826820 0.000000 -0.022560 
#    y 0.000000 1.691090 0.000000 
#    z -0.022560 0.000000 1.841780 
# 
# From -- ./inp_files/140966.got.cif
#   From: 2010.05.17/outbox.cif.g08.bks.cpg/sg12_71_cif.got.tgz:140966.got - 2010.06.03 13:09:07.
