data_PCOD9186582
_publ_section_title
;
Structure prediction by ZEFSAII (Michael W. Deem and Ramdas Pophale) SiO2 
 PCOD9186582
Probable space group: C 2/M
;
_chemical_formula_sum "Si O2"
_cell_formula_units_Z 64
_cell_length_a 14.544535
_cell_length_b 21.826004
_cell_length_c 11.525171
_cell_angle_alpha 90.000000
_cell_angle_beta 106.707811
_cell_angle_gamma 90.000000
_cell_volume 3504.198622
_symmetry_space_group_name_H-M "C 2/M"
_symmetry_group_IT_number 12
_symmetry_cell_setting 'monoclinic'
loop_
_space_group_symop_operation_xyz
x,y,z
-x,y,-z
-x,-y,-z
x,-y,z
1/2+x,1/2+y,z
1/2-x,1/2+y,-z
1/2-x,1/2-y,-z
1/2+x,1/2-y,z
loop_
_atom_site_type_symbol
_atom_site_label
_atom_site_fract_x
_atom_site_fract_y
_atom_site_fract_z
Si Si1 0.595455 0.669116 0.972706
Si Si2 0.256173 0.676791 0.528898
Si Si3 0.798041 0.229463 0.774592
Si Si4 0.080219 0.331313 0.321374
Si Si5 0.423642 0.072962 0.874194
Si Si6 0.422266 0.735910 0.267584
Si Si7 0.297489 0.429026 0.146186
Si Si8 0.908250 0.881554 0.408108
O O1 0.563033 0.716248 0.860274
O O2 0.655546 0.616721 0.929399
O O3 0.500000 0.644399 0.000000
O O4 0.657400 0.704120 0.091517
O O5 0.250000 0.750000 0.500000
O O6 0.288798 0.676324 0.673809
O O7 0.150852 0.654123 0.453792
O O8 0.332242 0.642749 0.474995
O O9 0.860728 0.284302 0.741788
O O10 0.690522 0.253281 0.756281
O O11 0.058057 0.390167 0.236560
O O12 0.985915 0.294098 0.322152
O O13 0.314722 0.085751 0.875732
O O14 0.431768 0.000000 0.859593
O O15 0.500000 0.091550 0.000000
O O16 0.449693 0.678604 0.357680
O O17 0.305847 0.500000 0.114965
O O18 0.352005 0.418399 0.288389
O O19 0.000000 0.913228 0.500000
#
# Coordination Sequence:
#
# PCOD9186582 Si02
#       8
#     8   8   8   8   8   8   8   8
#     4  11  23  38  55  85 117 155 191 244 293 345
#     4  10  19  35  54  81 121 151 183 231 285 349
#     4  11  22  36  54  87 124 152 191 232 294 357
#     4  11  20  35  57  85 116 153 189 232 293 352
#     4  10  22  39  60  85 111 147 198 249 289 330
#     4  11  22  33  57  85 119 159 185 232 290 357
#     4  10  23  43  63  83 112 155 203 248 291 339
#     4  11  20  35  59  86 121 150 190 239 289 347
#
# _framework density 18.263805999999999
#
# number of rings (size 3 to 8) (size 9 to 14) (size 15 to 20)
#    0.000    1.375    5.000    2.625    5.250    0.500 
#    0.000    0.000    0.000    0.750    0.000    0.875 
#    0.000    0.000    0.000    0.000    0.000    0.000 
#
# Total GULP energy -178681.294182 kJ/mol
# GULP energy per Si atom -5583.790443 kJ/mol
# Density = 1.822224 g / cm^3
# Si number density = 18.263806 Si / 1000 Ang^3
#
#
#
# Elastic Constant Matrix: (Units=GPa)
#
#
# Indices 1 2 3 4 5 6 
#
# 1 61.5213 4.1797 5.5929 0.0000 16.4775 0.0000
# 2 4.1797 23.4128 5.3665 0.0000 3.1092 0.0000
# 3 5.5929 5.3665 102.0809 0.0000 12.1275 0.0000
# 4 0.0000 0.0000 0.0000 17.8658 0.0000 3.3473
# 5 16.4775 3.1092 12.1275 0.0000 32.4530 0.0000
# 6 0.0000 0.0000 0.0000 3.3473 0.0000 18.9923
#
#
#
# Elastic Compliance Matrix: (Units=1/GPa)
#
#
# Indices 1 2 3 4 5 6 
#
# 1 0.018921 -0.002166 0.000203 0.000000 -0.009475 0.000000
# 2 -0.002166 0.043852 -0.001903 0.000000 -0.002390 0.000000
# 3 0.000203 -0.001903 0.010334 0.000000 -0.003783 0.000000
# 4 0.000000 0.000000 0.000000 0.057884 0.000000 -0.010202
# 5 -0.009475 -0.002390 -0.003783 0.000000 0.037267 0.000000
# 6 0.000000 0.000000 0.000000 -0.010202 0.000000 0.054451
#
#
# Mechanical properties :
#
#
# Convention : Reuss Voigt Hill
#
# Bulk Modulus (GPa) = 15.29621 24.14368 19.71995
# Shear Modulus (GPa) = 19.82291 25.32062 22.57177
#
# Velocity S-wave (km/s) = 3.29806 3.72746 3.51931
# Velocity P-wave (km/s) = 4.78501 5.63678 5.22827
#
# Compressibility (1/GPa) = 0.06537567
#
# Stress axis : x y z
#
# Youngs Moduli (GPa) = 52.85133 22.80406 96.76371
#
# Poissons Ratio (x) = 0.04939 -0.01963
# Poissons Ratio (y) = 0.11448 0.18411
# Poissons Ratio (z) = -0.01072 0.04339
#
# Static dielectric constant tensor:
#      x y z
#    x 1.644240 0.000000 0.011470 
#    y 0.000000 1.610230 0.000000 
#    z 0.011470 0.000000 1.653700 
# 
# From -- ./inp_files/148669.got.cif
#   From: 2010.05.17/outbox.cif.g08.bks.cpg/sg12_75_cif.got.tgz:148669.got - 2010.06.03 13:09:07.
