data_PCOD9186026
_publ_section_title
;
Structure prediction by ZEFSAII (Michael W. Deem and Ramdas Pophale) SiO2 
 PCOD9186026
Probable space group: C 2/M
;
_chemical_formula_sum "Si O2"
_cell_formula_units_Z 40
_cell_length_a 8.691096
_cell_length_b 18.213485
_cell_length_c 12.342538
_cell_angle_alpha 90.000000
_cell_angle_beta 88.484092
_cell_angle_gamma 90.000000
_cell_volume 1953.080081
_symmetry_space_group_name_H-M "C 2/M"
_symmetry_group_IT_number 12
_symmetry_cell_setting 'monoclinic'
loop_
_space_group_symop_operation_xyz
x,y,z
-x,y,-z
-x,-y,-z
x,-y,z
1/2+x,1/2+y,z
1/2-x,1/2+y,-z
1/2-x,1/2-y,-z
1/2+x,1/2-y,z
loop_
_atom_site_type_symbol
_atom_site_label
_atom_site_fract_x
_atom_site_fract_y
_atom_site_fract_z
Si Si1 0.334475 0.705323 0.903509
Si Si2 0.857681 0.809465 0.433566
Si Si3 0.162725 0.587480 0.278251
Si Si4 0.320021 0.913744 0.973341
Si Si5 0.566177 0.789759 0.760658
O O1 0.484735 0.748250 0.863266
O O2 0.240071 0.704343 0.794180
O O3 0.250000 0.750000 0.000000
O O4 0.310550 0.624471 0.951669
O O5 0.750000 0.750000 0.500000
O O6 0.759826 0.870584 0.369071
O O7 0.943031 0.761656 0.341463
O O8 0.000000 0.841424 0.500000
O O9 0.150164 0.500000 0.296518
O O10 0.220554 0.599365 0.152654
O O11 0.003083 0.631879 0.270023
O O12 0.319050 0.000000 0.992171
O O13 0.500000 0.890818 0.000000
#
# Coordination Sequence:
#
# PCOD9186026 Si02
#       5
#     8   8   8   8   8
#     4  12  20  34  60  94 128 166 213 248 309 381
#     4  12  24  45  69  91 121 166 219 273 326 376
#     4  11  23  40  64  97 132 163 209 268 322 376
#     4  10  19  34  58  91 131 169 204 251 311 376
#     4  12  22  38  63  95 125 168 213 266 310 382
#
# _framework density 20.480471000000001
#
# number of rings (size 3 to 8) (size 9 to 14) (size 15 to 20)
#    0.000    0.600    8.000    0.600    0.000    0.400 
#    0.000    3.000    0.000    8.400    0.000    0.000 
#    0.000    0.000    0.000    0.000    0.000    0.000 
#
# Total GULP energy -111439.053288 kJ/mol
# GULP energy per Si atom -5571.952664 kJ/mol
# Density = 2.043386 g / cm^3
# Si number density = 20.480471 Si / 1000 Ang^3
#
#
#
# Elastic Constant Matrix: (Units=GPa)
#
#
# Indices 1 2 3 4 5 6 
#
# 1 80.7620 37.3072 38.0649 0.0000 22.9148 0.0000
# 2 37.3072 115.6480 42.9788 0.0000 5.5644 0.0000
# 3 38.0649 42.9788 97.1720 0.0000 11.6092 0.0000
# 4 0.0000 0.0000 0.0000 37.5429 0.0000 7.8267
# 5 22.9148 5.5644 11.6092 0.0000 50.9179 0.0000
# 6 0.0000 0.0000 0.0000 7.8267 0.0000 18.0392
#
#
#
# Elastic Compliance Matrix: (Units=1/GPa)
#
#
# Indices 1 2 3 4 5 6 
#
# 1 0.018258 -0.003838 -0.004650 0.000000 -0.006737 0.000000
# 2 -0.003838 0.011155 -0.003589 0.000000 0.001326 0.000000
# 3 -0.004650 -0.003589 0.013778 0.000000 -0.000657 0.000000
# 4 0.000000 0.000000 0.000000 0.029285 0.000000 -0.012706
# 5 -0.006737 0.001326 -0.000657 0.000000 0.022676 0.000000
# 6 0.000000 0.000000 0.000000 -0.012706 0.000000 0.060948
#
#
# Mechanical properties :
#
#
# Convention : Reuss Voigt Hill
#
# Bulk Modulus (GPa) = 52.52571 58.92042 55.72307
# Shear Modulus (GPa) = 26.79543 32.98205 29.88874
#
# Velocity S-wave (km/s) = 3.62102 4.01735 3.82432
# Velocity P-wave (km/s) = 6.57152 7.09580 6.83868
#
# Compressibility (1/GPa) = 0.01903829
#
# Stress axis : x y z
#
# Youngs Moduli (GPa) = 54.77061 89.64690 72.57783
#
# Poissons Ratio (x) = 0.34404 0.33748
# Poissons Ratio (y) = 0.21019 0.26047
# Poissons Ratio (z) = 0.25468 0.32173
#
# Static dielectric constant tensor:
#      x y z
#    x 1.813060 0.000000 0.002180 
#    y 0.000000 1.833430 0.000000 
#    z 0.002180 0.000000 1.753050 
# 
# From -- ./inp_files/119042.got.cif
#   From: 2010.05.17/outbox.cif.g08.bks.cpg/sg12_60_cif.got.tgz:119042.got - 2010.06.03 13:09:07.
