data_PCOD9186737
_publ_section_title
;
Structure prediction by ZEFSAII (Michael W. Deem and Ramdas Pophale) SiO2 
 PCOD9186737
Probable space group: C 2/M
;
_chemical_formula_sum "Si O2"
_cell_formula_units_Z 56
_cell_length_a 20.675391
_cell_length_b 8.450831
_cell_length_c 18.799261
_cell_angle_alpha 90.000000
_cell_angle_beta 48.144610
_cell_angle_gamma 90.000000
_cell_volume 2446.537281
_symmetry_space_group_name_H-M "C 2/M"
_symmetry_group_IT_number 12
_symmetry_cell_setting 'monoclinic'
loop_
_space_group_symop_operation_xyz
x,y,z
-x,y,-z
-x,-y,-z
x,-y,z
1/2+x,1/2+y,z
1/2-x,1/2+y,-z
1/2-x,1/2-y,-z
1/2+x,1/2-y,z
loop_
_atom_site_type_symbol
_atom_site_label
_atom_site_fract_x
_atom_site_fract_y
_atom_site_fract_z
Si Si1 0.436752 0.310573 0.264456
Si Si2 0.233550 0.810694 0.091400
Si Si3 0.949575 0.811454 0.693664
Si Si4 0.525701 0.821034 0.906372
Si Si5 0.190706 0.178559 0.827712
Si Si6 0.259085 0.808877 0.573158
Si Si7 0.374216 0.181120 0.610605
O O1 0.441205 0.500000 0.263883
O O2 0.473197 0.248261 0.312886
O O3 0.492904 0.255756 0.155714
O O4 0.336318 0.267995 0.326771
O O5 0.137500 0.779644 0.195159
O O6 0.296902 0.719369 0.098878
O O7 0.247241 0.000000 0.084805
O O8 0.250000 0.750000 0.000000
O O9 0.941126 0.750882 0.618967
O O10 0.956870 0.000000 0.682582
O O11 0.629089 0.810099 0.840033
O O12 0.492499 0.000000 0.930187
O O13 0.500000 0.741118 0.000000
O O14 0.284155 0.182245 0.721773
O O15 0.156134 0.000000 0.841447
O O16 0.250000 0.750000 0.500000
O O17 0.339763 0.745980 0.561343
O O18 0.265845 0.000000 0.569408
O O19 0.399148 0.000000 0.579156
#
# Coordination Sequence:
#
# PCOD9186737 Si02
#       7
#     8   8   8   8   8   8   8
#     4  10  21  41  62  84 117 154 197 244 289 350
#     4  10  20  33  49  77 111 146 194 244 287 341
#     4   9  20  36  57  82 109 149 194 236 286 340
#     4  11  24  37  52  82 118 152 193 243 294 346
#     4  10  19  35  56  76 103 149 195 237 286 335
#     4  10  21  39  63  91 117 148 191 239 291 352
#     4   9  18  36  59  83 113 147 186 231 283 340
#
# _framework density 22.889493999999999
#
# number of rings (size 3 to 8) (size 9 to 14) (size 15 to 20)
#    0.000    2.143    1.429    1.286    2.000    4.000 
#    0.000    0.714    0.000    4.286    0.000    0.000 
#    0.000    0.000    0.000    0.000    0.000    0.000 
#
# Total GULP energy -156186.998848 kJ/mol
# GULP energy per Si atom -5578.107102 kJ/mol
# Density = 2.283740 g / cm^3
# Si number density = 22.889494 Si / 1000 Ang^3
#
#
#
# Elastic Constant Matrix: (Units=GPa)
#
#
# Indices 1 2 3 4 5 6 
#
# 1 145.0026 14.3376 33.8745 0.0000 45.5881 0.0000
# 2 14.3376 8.2574 8.6511 0.0000 1.0817 0.0001
# 3 33.8745 8.6511 90.1115 0.0000 40.4876 0.0000
# 4 0.0000 0.0000 0.0000 20.4974 0.0000 10.3509
# 5 45.5881 1.0817 40.4876 0.0000 46.2197 -0.0001
# 6 0.0000 0.0001 0.0000 10.3509 -0.0001 24.1910
#
#
#
# Elastic Compliance Matrix: (Units=1/GPa)
#
#
# Indices 1 2 3 4 5 6 
#
# 1 0.013997 -0.027666 0.005452 0.000000 -0.017934 0.000000
# 2 -0.027666 0.194622 -0.030505 0.000000 0.049455 -0.000001
# 3 0.005452 -0.030505 0.023205 0.000000 -0.024991 0.000000
# 4 0.000000 0.000000 0.000000 0.062234 0.000000 -0.026629
# 5 -0.017934 0.049455 -0.024991 0.000000 0.060059 0.000000
# 6 0.000000 -0.000001 0.000000 -0.026629 0.000000 0.052732
#
#
# Mechanical properties :
#
#
# Convention : Reuss Voigt Hill
#
# Bulk Modulus (GPa) = 7.91222 39.67756 23.79489
# Shear Modulus (GPa) = 9.01853 30.61551 19.81702
#
# Velocity S-wave (km/s) = 1.98710 3.66120 2.94559
# Velocity P-wave (km/s) = 2.95449 5.93671 4.68901
#
# Compressibility (1/GPa) = 0.12638672
#
# Stress axis : x y z
#
# Youngs Moduli (GPa) = 71.44577 5.13816 43.09416
#
# Poissons Ratio (x) = 0.14215 -0.23496
# Poissons Ratio (y) = 1.97662 1.31459
# Poissons Ratio (z) = -0.38955 0.15674
#
# Static dielectric constant tensor:
#      x y z
#    x 1.923450 0.000000 -0.023760 
#    y 0.000000 1.807820 0.000000 
#    z -0.023760 0.000000 1.953390 
# 
# From -- ./inp_files/280889.got.cif
#   From: 2010.05.17/outbox.cif.g08.bks.cpg/sg12_141_cif.got.tgz:280889.got - 2010.06.03 13:09:07.
