data_PCOD9186302
_publ_section_title
;
Structure prediction by ZEFSAII (Michael W. Deem and Ramdas Pophale) SiO2 
 PCOD9186302
Probable space group: C 2/M
;
_chemical_formula_sum "Si O2"
_cell_formula_units_Z 40
_cell_length_a 9.270421
_cell_length_b 26.377258
_cell_length_c 7.103842
_cell_angle_alpha 90.000000
_cell_angle_beta 95.342162
_cell_angle_gamma 90.000000
_cell_volume 1729.545184
_symmetry_space_group_name_H-M "C 2/M"
_symmetry_group_IT_number 12
_symmetry_cell_setting 'monoclinic'
loop_
_space_group_symop_operation_xyz
x,y,z
-x,y,-z
-x,-y,-z
x,-y,z
1/2+x,1/2+y,z
1/2-x,1/2+y,-z
1/2-x,1/2-y,-z
1/2+x,1/2-y,z
loop_
_atom_site_type_symbol
_atom_site_label
_atom_site_fract_x
_atom_site_fract_y
_atom_site_fract_z
Si Si1 0.119177 0.060324 0.782885
Si Si2 0.326083 0.195936 0.521449
Si Si3 0.023319 0.447529 0.773887
Si Si4 0.808668 0.908694 0.636750
Si Si5 0.138748 0.635647 0.143491
O O1 0.159434 0.068253 0.566615
O O2 0.231749 0.098251 0.902845
O O3 0.956514 0.081712 0.770309
O O4 0.128949 0.000000 0.832427
O O5 0.500000 0.198897 0.500000
O O6 0.250000 0.250000 0.500000
O O7 0.244903 0.150156 0.394886
O O8 0.301723 0.182373 0.738543
O O9 0.959016 0.500000 0.699386
O O10 0.183039 0.440569 0.721574
O O11 0.937111 0.398625 0.703003
O O12 0.000000 0.447804 0.000000
O O13 0.000000 0.649844 0.000000
#
# Coordination Sequence:
#
# PCOD9186302 Si02
#       5
#     8   8   8   8   8
#     4  10  20  34  62  96 133 176 215 266 320 385
#     4  11  24  42  70  94 120 165 222 285 339 392
#     4  10  19  34  60  90 130 176 211 253 314 390
#     4  10  20  38  61  95 133 166 223 276 326 384
#     4  10  22  41  62  93 133 167 215 266 329 395
#
# _framework density 23.127468
#
# number of rings (size 3 to 8) (size 9 to 14) (size 15 to 20)
#    0.000    1.800    2.000    3.000    5.600    1.200 
#    0.000    8.000    0.000   10.800    0.000    0.000 
#    0.000    0.000    0.000    0.000    0.000    0.000 
#
# Total GULP energy -111444.900998 kJ/mol
# GULP energy per Si atom -5572.245050 kJ/mol
# Density = 2.307483 g / cm^3
# Si number density = 23.127468 Si / 1000 Ang^3
#
#
#
# Elastic Constant Matrix: (Units=GPa)
#
#
# Indices 1 2 3 4 5 6 
#
# 1 180.9181 54.7615 29.5782 0.0000 8.8526 0.0000
# 2 54.7615 194.5208 35.1237 0.0000 24.0218 0.0000
# 3 29.5782 35.1237 73.6320 0.0000 8.5373 0.0000
# 4 0.0000 0.0000 0.0000 14.5659 0.0000 -0.0289
# 5 8.8526 24.0218 8.5373 0.0000 52.5881 0.0000
# 6 0.0000 0.0000 0.0000 -0.0289 0.0000 26.3234
#
#
#
# Elastic Compliance Matrix: (Units=1/GPa)
#
#
# Indices 1 2 3 4 5 6 
#
# 1 0.006261 -0.001419 -0.001825 0.000000 -0.000109 0.000000
# 2 -0.001419 0.006202 -0.002128 0.000000 -0.002249 0.000000
# 3 -0.001825 -0.002128 0.015472 0.000000 -0.001233 0.000000
# 4 0.000000 0.000000 0.000000 0.068654 0.000000 0.000076
# 5 -0.000109 -0.002249 -0.001233 0.000000 0.020261 0.000000
# 6 0.000000 0.000000 0.000000 0.000076 0.000000 0.037989
#
#
# Mechanical properties :
#
#
# Convention : Reuss Voigt Hill
#
# Bulk Modulus (GPa) = 58.17159 76.44419 67.30789
# Shear Modulus (GPa) = 29.18610 40.66931 34.92770
#
# Velocity S-wave (km/s) = 3.55627 4.19798 3.89038
# Velocity P-wave (km/s) = 6.48614 7.52480 7.02469
#
# Compressibility (1/GPa) = 0.01719052
#
# Stress axis : x y z
#
# Youngs Moduli (GPa) = 159.72495 161.22940 64.63247
#
# Poissons Ratio (x) = 0.22886 0.11797
# Poissons Ratio (y) = 0.22673 0.13752
# Poissons Ratio (z) = 0.29153 0.34304
#
# Static dielectric constant tensor:
#      x y z
#    x 1.948400 0.000000 0.049070 
#    y 0.000000 1.891960 0.000000 
#    z 0.049070 0.000000 2.056980 
# 
# From -- ./inp_files/40532.got.cif
#   From: 2010.05.17/outbox.cif.g08.bks.cpg/sg12_21_cif.got.tgz:40532.got - 2010.06.03 13:09:07.
