data_PCOD9186881
_publ_section_title
;
Structure prediction by ZEFSAII (Michael W. Deem and Ramdas Pophale) SiO2 
 PCOD9186881
Probable space group: C 2/M
;
_chemical_formula_sum "Si O2"
_cell_formula_units_Z 56
_cell_length_a 27.511764
_cell_length_b 17.763835
_cell_length_c 19.327550
_cell_angle_alpha 90.000000
_cell_angle_beta 17.844375
_cell_angle_gamma 90.000000
_cell_volume 2894.456179
_symmetry_space_group_name_H-M "C 2/M"
_symmetry_group_IT_number 12
_symmetry_cell_setting 'monoclinic'
loop_
_space_group_symop_operation_xyz
x,y,z
-x,y,-z
-x,-y,-z
x,-y,z
1/2+x,1/2+y,z
1/2-x,1/2+y,-z
1/2-x,1/2-y,-z
1/2+x,1/2-y,z
loop_
_atom_site_type_symbol
_atom_site_label
_atom_site_fract_x
_atom_site_fract_y
_atom_site_fract_z
Si Si1 0.599246 0.790409 0.800363
Si Si2 0.595506 0.084840 0.986913
Si Si3 0.631779 0.294311 0.371861
Si Si4 0.790245 0.810344 0.047103
Si Si5 0.969851 0.304413 0.705610
Si Si6 0.897503 0.171170 0.320807
Si Si7 0.854631 0.413977 0.435635
O O1 0.541223 0.875994 0.872476
O O2 0.787754 0.797351 0.532220
O O3 0.553989 0.741299 0.794232
O O4 0.500000 0.758783 0.000000
O O5 0.514372 0.084473 0.172467
O O6 0.634720 0.000000 0.914072
O O7 0.739042 0.142877 0.787243
O O8 0.500000 0.329171 0.500000
O O9 0.702275 0.224507 0.232505
O O10 0.552698 0.258863 0.546266
O O11 0.660970 0.842097 0.168489
O O12 0.871240 0.738839 0.898494
O O13 0.939192 0.860410 0.869826
O O14 0.098100 0.360891 0.564517
O O15 0.786311 0.120433 0.421509
O O16 0.816009 0.500000 0.506847
#
# Coordination Sequence:
#
# PCOD9186881 Si02
#       7
#     8   8   8   8   8   8   8
#     4  10  20  32  54  81 111 150 190 234 280 330
#     4  10  20  35  53  81 121 152 182 230 292 349
#     4  10  20  34  56  85 118 150 189 239 281 333
#     4  10  19  35  56  89 114 143 201 239 281 329
#     4  10  20  34  61  86 114 153 195 241 278 342
#     4  10  20  34  56  83 111 147 196 238 278 333
#     4  10  21  39  59  83 116 153 191 239 294 343
#
# _framework density 19.347331000000001
#
# number of rings (size 3 to 8) (size 9 to 14) (size 15 to 20)
#    0.000    2.000    2.857    1.714    4.000    0.571 
#    0.000    0.714    0.000    7.714    0.000    0.000 
#    0.000    0.000    0.000    0.000    0.000    0.000 
#
# Total GULP energy -155962.764726 kJ/mol
# GULP energy per Si atom -5570.098740 kJ/mol
# Density = 1.930330 g / cm^3
# Si number density = 19.347331 Si / 1000 Ang^3
#
#
#
# Elastic Constant Matrix: (Units=GPa)
#
#
# Indices 1 2 3 4 5 6 
#
# 1 95.2702 32.0359 36.2937 0.0009 -16.7166 -0.0008
# 2 32.0359 77.3562 11.5713 0.0012 -9.5955 -0.0009
# 3 36.2937 11.5713 79.6961 0.0018 -1.6390 -0.0010
# 4 0.0009 0.0012 0.0018 17.8167 -0.0013 -1.8129
# 5 -16.7166 -9.5955 -1.6390 -0.0013 46.1994 0.0008
# 6 -0.0008 -0.0009 -0.0010 -1.8129 0.0008 12.3077
#
#
#
# Elastic Compliance Matrix: (Units=1/GPa)
#
#
# Indices 1 2 3 4 5 6 
#
# 1 0.015218 -0.004853 -0.006137 0.000001 0.004281 0.000000
# 2 -0.004853 0.015102 0.000046 -0.000001 0.001382 0.000001
# 3 -0.006137 0.000046 0.015302 -0.000001 -0.001668 0.000001
# 4 0.000001 -0.000001 -0.000001 0.056981 0.000001 0.008393
# 5 0.004281 0.001382 -0.001668 0.000001 0.023422 -0.000001
# 6 0.000000 0.000001 0.000001 0.008393 -0.000001 0.082486
#
#
# Mechanical properties :
#
#
# Convention : Reuss Voigt Hill
#
# Bulk Modulus (GPa) = 42.13790 45.79159 43.96475
# Shear Modulus (GPa) = 20.98106 26.75954 23.87030
#
# Velocity S-wave (km/s) = 3.29666 3.72306 3.51633
# Velocity P-wave (km/s) = 6.02641 6.49624 6.26573
#
# Compressibility (1/GPa) = 0.02373160
#
# Stress axis : x y z
#
# Youngs Moduli (GPa) = 65.71355 66.21800 65.35224
#
# Poissons Ratio (x) = 0.32136 0.40110
# Poissons Ratio (y) = 0.31891 -0.00300
# Poissons Ratio (z) = 0.40331 -0.00304
#
# Static dielectric constant tensor:
#      x y z
#    x 1.753040 0.000000 -0.038560 
#    y 0.000000 1.651610 0.000000 
#    z -0.038560 0.000000 1.744550 
# 
# From -- ./inp_files/293871.got.cif
#   From: 2010.05.17/outbox.cif.g08.bks.cpg/sg12_147_cif.got.tgz:293871.got - 2010.06.03 13:09:07.
