data_PCOD9186809
_publ_section_title
;
Structure prediction by ZEFSAII (Michael W. Deem and Ramdas Pophale) SiO2 
 PCOD9186809
Probable space group: C 2/M
;
_chemical_formula_sum "Si O2"
_cell_formula_units_Z 48
_cell_length_a 14.159854
_cell_length_b 18.861631
_cell_length_c 14.532991
_cell_angle_alpha 90.000000
_cell_angle_beta 142.457578
_cell_angle_gamma 90.000000
_cell_volume 2365.151079
_symmetry_space_group_name_H-M "C 2/M"
_symmetry_group_IT_number 12
_symmetry_cell_setting 'monoclinic'
loop_
_space_group_symop_operation_xyz
x,y,z
-x,y,-z
-x,-y,-z
x,-y,z
1/2+x,1/2+y,z
1/2-x,1/2+y,-z
1/2-x,1/2-y,-z
1/2+x,1/2-y,z
loop_
_atom_site_type_symbol
_atom_site_label
_atom_site_fract_x
_atom_site_fract_y
_atom_site_fract_z
Si Si1 0.682744 0.331608 0.290017
Si Si2 0.812667 0.079168 0.864711
Si Si3 0.071460 0.264107 0.851057
Si Si4 0.442002 0.921248 0.182743
Si Si5 0.718583 0.579053 0.483417
Si Si6 0.576088 0.281066 0.457775
O O1 0.751664 0.358436 0.248511
O O2 0.524086 0.289170 0.158340
O O3 0.663812 0.400554 0.338979
O O4 0.791391 0.277838 0.428619
O O5 0.722217 0.084132 0.890961
O O6 0.772050 0.000000 0.799332
O O7 0.000000 0.084062 0.000000
O O8 0.039406 0.345957 0.852884
O O9 0.022161 0.244048 0.707541
O O10 0.250000 0.250000 0.000000
O O11 0.593797 0.920548 0.366135
O O12 0.445899 0.000000 0.140337
O O13 0.667827 0.500000 0.470604
O O14 0.648613 0.641932 0.491238
O O15 0.500000 0.284124 0.500000
#
# Coordination Sequence:
#
# PCOD9186809 Si02
#       6
#     8   8   8   8   8   8
#     4  11  20  35  56  83 113 144 190 233 280 340
#     4  10  21  34  51  83 120 150 181 229 289 345
#     4  11  21  38  59  86 115 150 190 231 288 343
#     4  10  19  35  56  80 113 148 185 229 280 344
#     4  10  20  36  57  80 107 147 193 236 281 330
#     4  11  22  38  58  84 116 145 191 242 280 336
#
# _framework density 20.294685999999999
#
# number of rings (size 3 to 8) (size 9 to 14) (size 15 to 20)
#    0.000    1.500    3.333    3.500    0.000    0.333 
#    0.000    5.833    0.000    0.000    0.000    2.333 
#    0.000    0.000    0.000    0.000    0.000    0.000 
#
# Total GULP energy -133753.535295 kJ/mol
# GULP energy per Si atom -5573.063971 kJ/mol
# Density = 2.024849 g / cm^3
# Si number density = 20.294686 Si / 1000 Ang^3
#
#
#
# Elastic Constant Matrix: (Units=GPa)
#
#
# Indices 1 2 3 4 5 6 
#
# 1 48.3724 7.7786 -7.2282 0.0000 7.6311 0.0000
# 2 7.7786 140.9900 24.3537 0.0000 -0.1880 0.0000
# 3 -7.2282 24.3537 66.2655 0.0000 16.6466 0.0000
# 4 0.0000 0.0000 0.0000 24.0899 0.0000 8.2709
# 5 7.6311 -0.1880 16.6466 0.0000 16.3383 0.0000
# 6 0.0000 0.0000 0.0000 8.2709 0.0000 30.8704
#
#
#
# Elastic Compliance Matrix: (Units=1/GPa)
#
#
# Indices 1 2 3 4 5 6 
#
# 1 0.026031 -0.003100 0.009464 0.000000 -0.021837 0.000000
# 2 -0.003100 0.008135 -0.004993 0.000000 0.006629 0.000000
# 3 0.009464 -0.004993 0.025648 0.000000 -0.030610 0.000000
# 4 0.000000 0.000000 0.000000 0.045716 0.000000 -0.012249
# 5 -0.021837 0.006629 -0.030610 0.000000 0.102669 0.000000
# 6 0.000000 0.000000 0.000000 -0.012249 0.000000 0.035675
#
#
# Mechanical properties :
#
#
# Convention : Reuss Voigt Hill
#
# Bulk Modulus (GPa) = 15.98577 33.93733 24.96155
# Shear Modulus (GPa) = 19.08514 29.64132 24.36323
#
# Velocity S-wave (km/s) = 3.06992 3.82585 3.46854
# Velocity P-wave (km/s) = 4.52325 6.02286 5.32610
#
# Compressibility (1/GPa) = 0.06255565
#
# Stress axis : x y z
#
# Youngs Moduli (GPa) = 38.41630 122.92456 38.98973
#
# Poissons Ratio (x) = 0.38107 -0.36901
# Poissons Ratio (y) = 0.11909 0.19468
# Poissons Ratio (z) = -0.36359 0.61379
#
# Static dielectric constant tensor:
#      x y z
#    x 1.738890 0.000000 0.005910 
#    y 0.000000 1.753660 0.000000 
#    z 0.005910 0.000000 1.743180 
# 
# From -- ./inp_files/61725.got.cif
#   From: 2010.05.17/outbox.cif.g08.bks.cpg/sg12_31_cif.got.tgz:61725.got - 2010.06.03 13:09:07.
