data_PCOD9186381
_publ_section_title
;
Structure prediction by ZEFSAII (Michael W. Deem and Ramdas Pophale) SiO2 
 PCOD9186381
Probable space group: C 2/M
;
_chemical_formula_sum "Si O2"
_cell_formula_units_Z 58
_cell_length_a 26.078159
_cell_length_b 7.683391
_cell_length_c 23.908624
_cell_angle_alpha 90.000000
_cell_angle_beta 146.646993
_cell_angle_gamma 90.000000
_cell_volume 2633.818750
_symmetry_space_group_name_H-M "C 2/M"
_symmetry_group_IT_number 12
_symmetry_cell_setting 'monoclinic'
loop_
_space_group_symop_operation_xyz
x,y,z
-x,y,-z
-x,-y,-z
x,-y,z
1/2+x,1/2+y,z
1/2-x,1/2+y,-z
1/2-x,1/2-y,-z
1/2+x,1/2-y,z
loop_
_atom_site_type_symbol
_atom_site_label
_atom_site_fract_x
_atom_site_fract_y
_atom_site_fract_z
Si Si1 0.532717 0.294612 0.276148
Si Si2 0.000000 0.000000 0.000000
Si Si3 0.498953 0.710488 0.562748
Si Si4 0.150000 0.296468 0.283286
Si Si5 0.842820 0.787441 0.507511
Si Si6 0.797905 0.296662 0.214317
Si Si7 0.862449 0.298038 0.855453
Si Si8 0.320714 0.793053 0.113748
O O1 0.547313 0.500000 0.285899
O O2 0.560163 0.222075 0.240582
O O3 0.604998 0.224405 0.388934
O O4 0.426081 0.266299 0.196858
O O5 0.923878 0.157194 0.944208
O O6 0.500000 0.770787 0.500000
O O7 0.501756 0.500000 0.565654
O O8 0.408318 0.761790 0.515079
O O9 0.592127 0.776404 0.676440
O O10 0.170095 0.500000 0.293227
O O11 0.238683 0.224769 0.398770
O O12 0.138652 0.229121 0.209898
O O13 0.841358 0.000000 0.509847
O O14 0.774437 0.500000 0.195236
O O15 0.739690 0.205495 0.209959
O O16 0.781657 0.224077 0.137240
O O17 0.894739 0.500000 0.885891
O O18 0.326138 0.000000 0.124600
O O19 0.250000 0.750000 0.000000
#
# Coordination Sequence:
#
# PCOD9186381 Si02
#       8
#     8   2   8   8   8   8   8   8
#     4  11  22  38  64  95 133 177 220 276 335 395
#     4  12  26  48  72  98 142 164 230 296 330 408
#     4  10  19  34  61  93 130 176 222 268 329 402
#     4  10  22  41  65  95 133 175 228 272 331 411
#     4   9  18  35  59  93 133 175 221 270 327 403
#     4  11  23  42  66  97 136 172 218 285 336 401
#     4  11  25  46  74 101 133 182 225 278 352 408
#     4  11  25  44  67  94 129 172 222 277 337 394
#
# _framework density 22.021258
#
# number of rings (size 3 to 8) (size 9 to 14) (size 15 to 20)
#    0.000    1.517    2.069    2.690    0.966    5.241 
#    0.000    1.379    0.000    0.000    0.000    0.000 
#    0.000    0.000    0.000    0.000    0.000    0.000 
#
# Total GULP energy -161769.645364 kJ/mol
# GULP energy per Si atom -5578.263633 kJ/mol
# Density = 2.197114 g / cm^3
# Si number density = 22.021258 Si / 1000 Ang^3
#
#
#
# Elastic Constant Matrix: (Units=GPa)
#
#
# Indices 1 2 3 4 5 6 
#
# 1 126.9610 -0.3319 7.4042 0.0000 -12.6442 0.0000
# 2 -0.3319 67.9057 2.7792 0.0000 0.9755 0.0000
# 3 7.4042 2.7792 34.8584 0.0000 -2.4562 0.0000
# 4 0.0000 0.0000 0.0000 15.7983 0.0000 10.9589
# 5 -12.6442 0.9755 -2.4562 0.0000 39.1092 0.0000
# 6 0.0000 0.0000 0.0000 10.9589 0.0000 19.5238
#
#
#
# Elastic Compliance Matrix: (Units=1/GPa)
#
#
# Indices 1 2 3 4 5 6 
#
# 1 0.008223 0.000068 -0.001572 0.000000 0.002558 0.000000
# 2 0.000068 0.014783 -0.001223 0.000000 -0.000424 0.000000
# 3 -0.001572 -0.001223 0.029214 0.000000 0.001357 0.000000
# 4 0.000000 0.000000 0.000000 0.103660 0.000000 -0.058186
# 5 0.002558 -0.000424 0.001357 0.000000 0.026492 0.000000
# 6 0.000000 0.000000 0.000000 -0.058186 0.000000 0.083880
#
#
# Mechanical properties :
#
#
# Convention : Reuss Voigt Hill
#
# Bulk Modulus (GPa) = 21.38278 27.71421 24.54849
# Shear Modulus (GPa) = 17.40371 29.54450 23.47411
#
# Velocity S-wave (km/s) = 2.81430 3.66681 3.26847
# Velocity P-wave (km/s) = 4.50461 5.52629 5.04140
#
# Compressibility (1/GPa) = 0.04676661
#
# Stress axis : x y z
#
# Youngs Moduli (GPa) = 121.60941 67.64632 34.22961
#
# Poissons Ratio (x) = -0.00458 0.05380
# Poissons Ratio (y) = -0.00824 0.04186
# Poissons Ratio (z) = 0.19114 0.08272
#
# Static dielectric constant tensor:
#      x y z
#    x 1.829690 0.000000 -0.019220 
#    y 0.000000 1.811730 0.000000 
#    z -0.019220 0.000000 1.848040 
# 
# From -- ./inp_files/351485.got.cif
#   From: 2010.05.17/outbox.cif.g08.bks.cpg/sg12_176_cif.got.tgz:351485.got - 2010.06.03 13:09:07.
