data_PCOD9186200
_publ_section_title
;
Structure prediction by ZEFSAII (Michael W. Deem and Ramdas Pophale) SiO2 
 PCOD9186200
Probable space group: C 2/M
;
_chemical_formula_sum "Si O2"
_cell_formula_units_Z 56
_cell_length_a 20.347067
_cell_length_b 15.131364
_cell_length_c 19.478960
_cell_angle_alpha 90.000000
_cell_angle_beta 151.699911
_cell_angle_gamma 90.000000
_cell_volume 2843.191203
_symmetry_space_group_name_H-M "C 2/M"
_symmetry_group_IT_number 12
_symmetry_cell_setting 'monoclinic'
loop_
_space_group_symop_operation_xyz
x,y,z
-x,y,-z
-x,-y,-z
x,-y,z
1/2+x,1/2+y,z
1/2-x,1/2+y,-z
1/2-x,1/2-y,-z
1/2+x,1/2-y,z
loop_
_atom_site_type_symbol
_atom_site_label
_atom_site_fract_x
_atom_site_fract_y
_atom_site_fract_z
Si Si1 0.739872 0.597882 0.411222
Si Si2 0.939029 0.603056 0.291983
Si Si3 0.354642 0.759397 0.324460
Si Si4 0.669205 0.770048 0.277538
Si Si5 0.062147 0.605932 0.870507
Si Si6 0.851195 0.097865 0.521551
Si Si7 0.839610 0.899109 0.208273
O O1 0.690564 0.500000 0.345637
O O2 0.652753 0.679257 0.303723
O O3 0.739066 0.601092 0.492921
O O4 0.899688 0.608107 0.536700
O O5 0.896842 0.500000 0.256974
O O6 0.855338 0.665477 0.266323
O O7 0.935671 0.629907 0.208414
O O8 0.500000 0.767880 0.500000
O O9 0.218973 0.759084 0.248084
O O10 0.348808 0.666360 0.280110
O O11 0.544282 0.836159 0.181768
O O12 0.802268 0.824205 0.428334
O O13 0.029073 0.500000 0.844192
O O14 0.213758 0.620289 0.041903
O O15 0.010538 0.107429 0.689582
O O16 0.835287 0.000000 0.475166
O O17 0.822167 0.000000 0.216076
#
# Coordination Sequence:
#
# PCOD9186200 Si02
#       7
#     8   8   8   8   8   8   8
#     4  10  20  34  58  91 121 158 207 258 307 354
#     4  10  21  40  65  93 124 160 208 261 306 359
#     4  12  24  38  57  93 128 162 205 245 308 368
#     4  12  22  36  61  90 124 160 204 256 303 370
#     4  10  23  43  67  92 119 161 211 258 311 364
#     4  10  19  34  59  91 121 152 204 262 309 354
#     4  10  23  41  61  89 126 162 201 252 311 372
#
# _framework density 19.696178
#
# number of rings (size 3 to 8) (size 9 to 14) (size 15 to 20)
#    0.000    1.429    4.286    0.857    2.000    3.429 
#    0.000    1.429    0.000    0.000    0.000    2.000 
#    0.000    0.000    0.000    0.000    0.000    0.000 
#
# Total GULP energy -156218.354466 kJ/mol
# GULP energy per Si atom -5579.226945 kJ/mol
# Density = 1.965135 g / cm^3
# Si number density = 19.696178 Si / 1000 Ang^3
#
#
#
# Elastic Constant Matrix: (Units=GPa)
#
#
# Indices 1 2 3 4 5 6 
#
# 1 116.5332 70.1190 33.2085 0.0005 -6.8921 0.0006
# 2 70.1190 120.5643 46.2869 0.0007 -3.9147 0.0011
# 3 33.2085 46.2869 73.2831 0.0007 6.2933 0.0010
# 4 0.0005 0.0007 0.0007 21.3128 0.0003 -3.0750
# 5 -6.8921 -3.9147 6.2933 0.0003 18.7922 0.0002
# 6 0.0006 0.0011 0.0010 -3.0750 0.0002 19.7648
#
#
#
# Elastic Compliance Matrix: (Units=1/GPa)
#
#
# Indices 1 2 3 4 5 6 
#
# 1 0.013639 -0.006970 -0.002144 0.000000 0.004268 0.000000
# 2 -0.006970 0.014937 -0.006510 0.000000 0.002735 0.000000
# 3 -0.002144 -0.006510 0.019474 0.000000 -0.008664 -0.000001
# 4 0.000000 0.000000 0.000000 0.047998 -0.000001 0.007467
# 5 0.004268 0.002735 -0.008664 -0.000001 0.058251 -0.000001
# 6 0.000000 0.000000 -0.000001 0.007467 -0.000001 0.051757
#
#
# Mechanical properties :
#
#
# Convention : Reuss Voigt Hill
#
# Bulk Modulus (GPa) = 59.52891 67.73439 63.63165
# Shear Modulus (GPa) = 20.58425 22.69169 21.63797
#
# Velocity S-wave (km/s) = 3.23629 3.39792 3.31809
# Velocity P-wave (km/s) = 6.65237 7.06107 6.85976
#
# Compressibility (1/GPa) = 0.01679856
#
# Stress axis : x y z
#
# Youngs Moduli (GPa) = 73.31956 66.94997 51.35141
#
# Poissons Ratio (x) = 0.46667 0.11012
# Poissons Ratio (y) = 0.51106 0.33432
# Poissons Ratio (z) = 0.15723 0.43587
#
# Static dielectric constant tensor:
#      x y z
#    x 1.732860 0.000000 0.009660 
#    y 0.000000 1.709820 0.000000 
#    z 0.009660 0.000000 1.687000 
# 
# From -- ./inp_files/96775.got.cif
#   From: 2010.05.17/outbox.cif.g08.bks.cpg/sg12_49_cif.got.tgz:96775.got - 2010.06.03 13:09:07.
