data_PCOD9186181
_publ_section_title
;
Structure prediction by ZEFSAII (Michael W. Deem and Ramdas Pophale) SiO2 
 PCOD9186181
Probable space group: C 2/M
;
_chemical_formula_sum "Si O2"
_cell_formula_units_Z 64
_cell_length_a 15.470628
_cell_length_b 8.787438
_cell_length_c 24.249242
_cell_angle_alpha 90.000000
_cell_angle_beta 95.213077
_cell_angle_gamma 90.000000
_cell_volume 3282.980337
_symmetry_space_group_name_H-M "C 2/M"
_symmetry_group_IT_number 12
_symmetry_cell_setting 'monoclinic'
loop_
_space_group_symop_operation_xyz
x,y,z
-x,y,-z
-x,-y,-z
x,-y,z
1/2+x,1/2+y,z
1/2-x,1/2+y,-z
1/2-x,1/2-y,-z
1/2+x,1/2-y,z
loop_
_atom_site_type_symbol
_atom_site_label
_atom_site_fract_x
_atom_site_fract_y
_atom_site_fract_z
Si Si1 0.858746 0.816685 0.361273
Si Si2 0.127411 0.820791 0.946080
Si Si3 0.199217 0.817335 0.763814
Si Si4 0.375715 0.680731 0.812945
Si Si5 0.017408 0.683434 0.437434
Si Si6 0.285277 0.816286 0.559182
Si Si7 0.942257 0.319758 0.163752
Si Si8 0.814348 0.819144 0.933680
O O1 0.841125 0.771793 0.297364
O O2 0.778006 0.769009 0.395135
O O3 0.945414 0.750633 0.393076
O O4 0.863444 0.000000 0.363107
O O5 0.067656 0.729756 0.900544
O O6 0.226828 0.777422 0.936361
O O7 0.112074 0.000000 0.936901
O O8 0.122588 0.786708 0.010998
O O9 0.296747 0.755954 0.775456
O O10 0.139769 0.748498 0.808488
O O11 0.199489 0.000000 0.768099
O O12 0.377263 0.500000 0.803833
O O13 0.469272 0.751656 0.806761
O O14 0.355011 0.707891 0.876541
O O15 0.011888 0.500000 0.435285
O O16 0.114898 0.730026 0.427280
O O17 0.000000 0.730051 0.500000
O O18 0.250000 0.750000 0.500000
O O19 0.283599 0.000000 0.555474
O O20 0.941515 0.500000 0.168238
O O21 0.791733 0.000000 0.936018
#
# Coordination Sequence:
#
# PCOD9186181 Si02
#       8
#     8   8   8   8   8   8   8   8
#     4  10  23  40  61  89 121 157 198 246 300 354
#     4  10  19  34  59  89 122 159 199 252 309 367
#     4  11  24  44  64  88 122 160 209 262 310 364
#     4  11  23  41  65  92 122 160 205 255 311 372
#     4  10  20  35  58  90 125 159 197 236 284 349
#     4  10  20  36  58  87 122 157 192 236 287 347
#     4  12  25  41  62  89 121 163 210 257 311 369
#     4   9  19  35  58  89 123 157 198 248 310 374
#
# _framework density 19.494482000000001
#
# number of rings (size 3 to 8) (size 9 to 14) (size 15 to 20)
#    0.000    1.625    2.500    2.250    0.000    4.250 
#    0.000    3.750    0.000    0.000    0.000    0.000 
#    0.000    0.000    0.000    0.000    0.000    0.000 
#
# Total GULP energy -178850.907649 kJ/mol
# GULP energy per Si atom -5589.090864 kJ/mol
# Density = 1.945011 g / cm^3
# Si number density = 19.494482 Si / 1000 Ang^3
#
#
#
# Elastic Constant Matrix: (Units=GPa)
#
#
# Indices 1 2 3 4 5 6 
#
# 1 115.1839 27.0541 26.8178 0.0000 30.1743 0.0000
# 2 27.0541 48.1722 27.3265 0.0000 12.3045 0.0000
# 3 26.8178 27.3265 88.6091 0.0000 26.3739 0.0000
# 4 0.0000 0.0000 0.0000 25.3814 0.0000 9.4031
# 5 30.1743 12.3045 26.3739 0.0000 28.2725 0.0000
# 6 0.0000 0.0000 0.0000 9.4031 0.0000 32.3937
#
#
#
# Elastic Compliance Matrix: (Units=1/GPa)
#
#
# Indices 1 2 3 4 5 6 
#
# 1 0.012865 -0.004714 0.001435 0.000000 -0.013017 0.000000
# 2 -0.004714 0.027439 -0.006892 0.000000 -0.000481 0.000000
# 3 0.001435 -0.006892 0.017360 0.000000 -0.014726 0.000000
# 4 0.000000 0.000000 0.000000 0.044146 0.000000 -0.012815
# 5 -0.013017 -0.000481 -0.014726 0.000000 0.063209 0.000000
# 6 0.000000 0.000000 0.000000 -0.012815 0.000000 0.034590
#
#
# Mechanical properties :
#
#
# Convention : Reuss Voigt Hill
#
# Bulk Modulus (GPa) = 26.79469 46.04022 36.41745
# Shear Modulus (GPa) = 21.51536 28.59396 25.05466
#
# Velocity S-wave (km/s) = 3.32575 3.83400 3.58888
# Velocity P-wave (km/s) = 5.34060 6.57782 5.99124
#
# Compressibility (1/GPa) = 0.03732083
#
# Stress axis : x y z
#
# Youngs Moduli (GPa) = 77.73020 36.44466 57.60447
#
# Poissons Ratio (x) = 0.17180 -0.08264
# Poissons Ratio (y) = 0.36642 0.39701
# Poissons Ratio (z) = -0.11151 0.25118
#
# Static dielectric constant tensor:
#      x y z
#    x 1.651970 0.000000 0.014390 
#    y 0.000000 1.653830 0.000000 
#    z 0.014390 0.000000 1.656420 
# 
# From -- ./inp_files/338662.got.cif
#   From: 2010.05.17/outbox.cif.g08.bks.cpg/sg12_170_cif.got.tgz:338662.got - 2010.06.03 13:09:07.
