data_PCOD9186108
_publ_section_title
;
Structure prediction by ZEFSAII (Michael W. Deem and Ramdas Pophale) SiO2 
 PCOD9186108
Probable space group: C 2/M
;
_chemical_formula_sum "Si O2"
_cell_formula_units_Z 56
_cell_length_a 18.621363
_cell_length_b 19.936732
_cell_length_c 7.437387
_cell_angle_alpha 90.000000
_cell_angle_beta 93.315959
_cell_angle_gamma 90.000000
_cell_volume 2756.500579
_symmetry_space_group_name_H-M "C 2/M"
_symmetry_group_IT_number 12
_symmetry_cell_setting 'monoclinic'
loop_
_space_group_symop_operation_xyz
x,y,z
-x,y,-z
-x,-y,-z
x,-y,z
1/2+x,1/2+y,z
1/2-x,1/2+y,-z
1/2-x,1/2-y,-z
1/2+x,1/2-y,z
loop_
_atom_site_type_symbol
_atom_site_label
_atom_site_fract_x
_atom_site_fract_y
_atom_site_fract_z
Si Si1 0.767447 0.924289 0.869151
Si Si2 0.574110 0.419505 0.112008
Si Si3 0.079666 0.263614 0.560085
Si Si4 0.922901 0.112512 0.491014
Si Si5 0.233372 0.925687 0.569201
Si Si6 0.326088 0.798908 0.125209
Si Si7 0.303376 0.789661 0.732879
O O1 0.846912 0.910591 0.961749
O O2 0.765378 0.919901 0.649570
O O3 0.713073 0.868395 0.921182
O O4 0.747982 0.000000 0.914269
O O5 0.571301 0.500000 0.153986
O O6 0.583281 0.378064 0.295771
O O7 0.500000 0.403279 0.000000
O O8 0.072702 0.184450 0.602395
O O9 0.106909 0.303523 0.736048
O O10 0.141113 0.268888 0.415351
O O11 0.000000 0.286962 0.500000
O O12 0.852354 0.077408 0.406565
O O13 0.000000 0.076639 0.500000
O O14 0.274208 0.863247 0.666311
O O15 0.260750 0.000000 0.621677
O O16 0.268782 0.753466 0.230244
O O17 0.344349 0.776173 0.927328
#
# Coordination Sequence:
#
# PCOD9186108 Si02
#       7
#     8   8   8   8   8   8   8
#     4   9  18  34  58  85 115 158 203 245 301 359
#     4   9  18  32  49  76 118 163 196 233 285 345
#     4  11  23  42  62  85 121 161 199 257 307 355
#     4  10  20  34  52  80 117 159 197 237 296 354
#     4  10  19  34  59  86 118 159 201 246 298 358
#     4  11  22  38  65  88 120 161 200 251 309 357
#     4  11  22  38  63  91 119 157 205 247 300 364
#
# _framework density 20.315614
#
# number of rings (size 3 to 8) (size 9 to 14) (size 15 to 20)
#    0.000    1.857    2.857    3.429    0.000    3.429 
#    7.714    1.429    0.000    1.714    0.000    2.000 
#    0.000    0.000    0.000    0.000    0.000    0.000 
#
# Total GULP energy -156034.458710 kJ/mol
# GULP energy per Si atom -5572.659240 kJ/mol
# Density = 2.026937 g / cm^3
# Si number density = 20.315614 Si / 1000 Ang^3
#
#
#
# Elastic Constant Matrix: (Units=GPa)
#
#
# Indices 1 2 3 4 5 6 
#
# 1 45.0167 11.7181 33.8706 0.0000 23.5025 0.0000
# 2 11.7181 62.7070 3.5222 0.0000 9.4194 0.0000
# 3 33.8706 3.5222 93.6100 0.0000 14.9441 0.0000
# 4 0.0000 0.0000 0.0000 -77.5282 0.0000 -98.3651
# 5 23.5025 9.4194 14.9441 0.0000 24.9133 0.0000
# 6 0.0000 0.0000 0.0000 -98.3651 0.0000 -146.2489
#
#
#
# Elastic Compliance Matrix: (Units=1/GPa)
#
#
# Indices 1 2 3 4 5 6 
#
# 1 0.055436 -0.003123 -0.013028 0.000000 -0.043301 0.000000
# 2 -0.003123 0.017099 0.001159 0.000000 -0.004214 0.000000
# 3 -0.013028 0.001159 0.014886 0.000000 0.002922 0.000000
# 4 0.000000 0.000000 0.000000 -0.087958 0.000000 0.059159
# 5 -0.043301 -0.004214 0.002922 0.000000 0.080828 0.000000
# 6 0.000000 0.000000 0.000000 0.059159 0.000000 -0.046627
#
#
# Mechanical properties :
#
#
# Convention : Reuss Voigt Hill
#
# Bulk Modulus (GPa) = 17.41025 33.28393 25.34709
# Shear Modulus (GPa) = 60.39118 -29.62457 15.38331
#
# Velocity S-wave (km/s) = 5.45812 -3.82280 2.75474
# Velocity P-wave (km/s) = 6.95053 1.75103 4.75625
#
# Compressibility (1/GPa) = 0.05743741
#
# Stress axis : x y z
#
# Youngs Moduli (GPa) = 18.03880 58.48403 67.17570
#
# Poissons Ratio (x) = 0.18266 0.87517
# Poissons Ratio (y) = 0.05634 -0.07788
# Poissons Ratio (z) = 0.23501 -0.06781
#
# Static dielectric constant tensor:
#      x y z
#    x 1.752140 0.000000 -0.053950 
#    y 0.000000 1.731460 0.000000 
#    z -0.053950 0.000000 1.850270 
# 
# From -- ./inp_files/76879.got.cif
#   From: 2010.05.17/outbox.cif.g08.bks.cpg/sg12_39_cif.got.tgz:76879.got - 2010.06.03 13:09:07.
