data_PCOD9186149
_publ_section_title
;
Structure prediction by ZEFSAII (Michael W. Deem and Ramdas Pophale) SiO2 
 PCOD9186149
Probable space group: C 2/M
;
_chemical_formula_sum "Si O2"
_cell_formula_units_Z 48
_cell_length_a 28.613833
_cell_length_b 8.829472
_cell_length_c 15.210458
_cell_angle_alpha 90.000000
_cell_angle_beta 141.039513
_cell_angle_gamma 90.000000
_cell_volume 2416.321678
_symmetry_space_group_name_H-M "C 2/M"
_symmetry_group_IT_number 12
_symmetry_cell_setting 'monoclinic'
loop_
_space_group_symop_operation_xyz
x,y,z
-x,y,-z
-x,-y,-z
x,-y,z
1/2+x,1/2+y,z
1/2-x,1/2+y,-z
1/2-x,1/2-y,-z
1/2+x,1/2-y,z
loop_
_atom_site_type_symbol
_atom_site_label
_atom_site_fract_x
_atom_site_fract_y
_atom_site_fract_z
Si Si1 0.348156 0.821688 0.301618
Si Si2 0.406752 0.820008 0.933951
Si Si3 0.573084 0.679678 0.738086
Si Si4 0.692682 0.820921 0.043959
Si Si5 0.904647 0.180511 0.553589
Si Si6 0.067746 0.181828 0.209235
O O1 0.410611 0.735566 0.336331
O O2 0.354115 0.769190 0.411105
O O3 0.358000 0.000000 0.307747
O O4 0.268901 0.769766 0.147911
O O5 0.391602 0.750448 0.816074
O O6 0.418525 0.000000 0.943378
O O7 0.343059 0.794073 0.912223
O O8 0.483411 0.744634 0.079908
O O9 0.585585 0.500000 0.762151
O O10 0.631688 0.765657 0.885421
O O11 0.489992 0.710213 0.649892
O O12 0.706674 0.000000 0.053736
O O13 0.898049 0.222379 0.646324
O O14 0.891257 0.000000 0.525182
O O15 0.064862 0.000000 0.198736
#
# Coordination Sequence:
#
# PCOD9186149 Si02
#       6
#     8   8   8   8   8   8
#     4  12  26  40  58  85 119 156 196 242 293 348
#     4  10  20  34  57  88 118 149 189 239 288 337
#     4  11  22  40  64  87 116 153 197 242 288 345
#     4  11  23  40  61  86 119 156 196 241 289 344
#     4  10  22  40  61  87 118 155 194 237 289 345
#     4  10  19  34  59  88 117 150 190 235 285 344
#
# _framework density 19.864905
#
# number of rings (size 3 to 8) (size 9 to 14) (size 15 to 20)
#    0.000    1.333    1.667    5.500    0.000    6.667 
#    0.000    0.833    0.000    0.000    0.000    0.000 
#    0.000    0.000    0.000    0.000    0.000    0.000 
#
# Total GULP energy -134224.619940 kJ/mol
# GULP energy per Si atom -5592.692497 kJ/mol
# Density = 1.981969 g / cm^3
# Si number density = 19.864905 Si / 1000 Ang^3
#
#
#
# Elastic Constant Matrix: (Units=GPa)
#
#
# Indices 1 2 3 4 5 6 
#
# 1 57.7554 13.9705 -1.5237 0.0000 -18.8547 0.0000
# 2 13.9705 35.8973 3.4836 0.0000 -3.9905 0.0000
# 3 -1.5237 3.4836 43.9180 0.0000 -14.9997 0.0000
# 4 0.0000 0.0000 0.0000 31.5728 0.0000 -5.0974
# 5 -18.8547 -3.9905 -14.9997 0.0000 29.2998 0.0000
# 6 0.0000 0.0000 0.0000 -5.0974 0.0000 21.4449
#
#
#
# Elastic Compliance Matrix: (Units=1/GPa)
#
#
# Indices 1 2 3 4 5 6 
#
# 1 0.026179 -0.008787 0.008423 0.000000 0.019962 0.000000
# 2 -0.008787 0.031280 -0.003953 0.000000 -0.003418 0.000000
# 3 0.008423 -0.003953 0.030349 0.000000 0.020419 0.000000
# 4 0.000000 0.000000 0.000000 0.032937 0.000000 0.007829
# 5 0.019962 -0.003418 0.020419 0.000000 0.056963 0.000000
# 6 0.000000 0.000000 0.000000 0.007829 0.000000 0.048492
#
#
# Mechanical properties :
#
#
# Convention : Reuss Voigt Hill
#
# Bulk Modulus (GPa) = 12.63035 18.82571 15.72803
# Shear Modulus (GPa) = 19.14052 24.57286 21.85669
#
# Velocity S-wave (km/s) = 3.10745 3.52091 3.32062
# Velocity P-wave (km/s) = 4.38713 5.10162 4.75781
#
# Compressibility (1/GPa) = 0.07917439
#
# Stress axis : x y z
#
# Youngs Moduli (GPa) = 38.19914 31.96880 32.94968
#
# Poissons Ratio (x) = 0.28089 -0.27753
# Poissons Ratio (y) = 0.33564 0.13026
# Poissons Ratio (z) = -0.32175 0.12638
#
# Static dielectric constant tensor:
#      x y z
#    x 1.711840 0.000000 -0.021230 
#    y 0.000000 1.657220 0.000000 
#    z -0.021230 0.000000 1.687260 
# 
# From -- ./inp_files/244881.got.cif
#   From: 2010.05.17/outbox.cif.g08.bks.cpg/sg12_123_cif.got.tgz:244881.got - 2010.06.03 13:09:07.
