data_PCOD9186366
_publ_section_title
;
Structure prediction by ZEFSAII (Michael W. Deem and Ramdas Pophale) SiO2 
 PCOD9186366
Probable space group: C 2/M
;
_chemical_formula_sum "Si O2"
_cell_formula_units_Z 56
_cell_length_a 15.678354
_cell_length_b 15.861159
_cell_length_c 15.772452
_cell_angle_alpha 90.000000
_cell_angle_beta 37.400698
_cell_angle_gamma 90.000000
_cell_volume 2382.314158
_symmetry_space_group_name_H-M "C 2/M"
_symmetry_group_IT_number 12
_symmetry_cell_setting 'monoclinic'
loop_
_space_group_symop_operation_xyz
x,y,z
-x,y,-z
-x,-y,-z
x,-y,z
1/2+x,1/2+y,z
1/2-x,1/2+y,-z
1/2-x,1/2-y,-z
1/2+x,1/2-y,z
loop_
_atom_site_type_symbol
_atom_site_label
_atom_site_fract_x
_atom_site_fract_y
_atom_site_fract_z
Si Si1 0.504358 0.603282 0.595109
Si Si2 0.689746 0.097487 0.613148
Si Si3 0.010277 0.824246 0.089657
Si Si4 0.817532 0.904159 0.899383
Si Si5 0.727755 0.097888 0.317712
Si Si6 0.508107 0.123909 0.088978
Si Si7 0.521736 0.098179 0.348024
O O1 0.500000 0.631981 0.500000
O O2 0.504116 0.500000 0.591863
O O3 0.654683 0.632630 0.513521
O O4 0.384989 0.628748 0.757130
O O5 0.633927 0.097107 0.752403
O O6 0.559415 0.138954 0.666178
O O7 0.699460 0.000000 0.575010
O O8 0.860465 0.852206 0.245591
O O9 0.129911 0.856968 0.058232
O O10 0.017608 0.724484 0.080197
O O11 0.000000 0.856915 0.000000
O O12 0.869353 0.000000 0.867942
O O13 0.650258 0.905416 0.021993
O O14 0.659260 0.134248 0.285023
O O15 0.602092 0.097792 0.484324
O O16 0.767260 0.000000 0.273251
O O17 0.500000 0.093160 0.000000
O O18 0.558064 0.000000 0.299592
#
# Coordination Sequence:
#
# PCOD9186366 Si02
#       7
#     8   8   8   8   8   8   8
#     4   9  18  34  60  92 123 152 196 260 314 353
#     4  10  19  34  61  91 117 149 201 257 302 353
#     4  11  25  41  59  84 130 170 202 247 306 370
#     4  11  23  41  67  94 119 159 210 258 309 364
#     4   9  17  34  59  86 120 157 198 243 295 359
#     4  11  25  43  60  83 125 168 208 247 307 368
#     4   8  16  31  57  91 120 149 190 251 306 349
#
# _framework density 23.506554999999999
#
# number of rings (size 3 to 8) (size 9 to 14) (size 15 to 20)
#    0.000    2.143    0.000    3.857    2.000    5.714 
#    0.000    2.857    9.429    0.000    0.000    0.000 
#    0.000    0.000    0.000    0.000    0.000    0.000 
#
# Total GULP energy -156339.455845 kJ/mol
# GULP energy per Si atom -5583.551994 kJ/mol
# Density = 2.345305 g / cm^3
# Si number density = 23.506555 Si / 1000 Ang^3
#
#
#
# Elastic Constant Matrix: (Units=GPa)
#
#
# Indices 1 2 3 4 5 6 
#
# 1 98.2998 22.5666 2.3884 -0.0001 -2.6903 0.0000
# 2 22.5666 48.4164 0.7500 0.0000 5.0323 0.0000
# 3 2.3884 0.7500 72.4665 0.0000 -1.8053 -0.0001
# 4 -0.0001 0.0000 0.0000 3.0093 -0.0001 -28.9574
# 5 -2.6903 5.0323 -1.8053 -0.0001 37.2627 0.0001
# 6 0.0000 0.0000 -0.0001 -28.9574 0.0001 1.1742
#
#
#
# Elastic Compliance Matrix: (Units=1/GPa)
#
#
# Indices 1 2 3 4 5 6 
#
# 1 0.011488 -0.005512 -0.000283 0.000000 0.001560 0.000000
# 2 -0.005512 0.023599 -0.000152 0.000000 -0.003592 0.000000
# 3 -0.000283 -0.000152 0.013827 0.000000 0.000670 0.000000
# 4 0.000000 0.000000 0.000000 -0.001406 0.000000 -0.034680
# 5 0.001560 -0.003592 0.000670 0.000000 0.027467 0.000000
# 6 0.000000 0.000000 0.000000 -0.034680 0.000000 -0.003604
#
#
# Mechanical properties :
#
#
# Convention : Reuss Voigt Hill
#
# Bulk Modulus (GPa) = 27.01233 30.06584 28.53909
# Shear Modulus (GPa) = 52.29859 21.18774 36.74317
#
# Velocity S-wave (km/s) = 4.72195 3.00551 3.95790
# Velocity P-wave (km/s) = 6.42226 4.98621 5.74925
#
# Compressibility (1/GPa) = 0.03702013
#
# Stress axis : x y z
#
# Youngs Moduli (GPa) = 87.04755 42.37446 72.32190
#
# Poissons Ratio (x) = 0.23358 0.02045
# Poissons Ratio (y) = 0.47983 0.01100
# Poissons Ratio (z) = 0.02461 0.00644
#
# Static dielectric constant tensor:
#      x y z
#    x 1.952430 0.000000 0.065180 
#    y 0.000000 1.901700 0.000000 
#    z 0.065180 0.000000 1.887750 
# 
# From -- ./inp_files/217686.got.cif
#   From: 2010.05.17/outbox.cif.g08.bks.cpg/sg12_109_cif.got.tgz:217686.got - 2010.06.03 13:09:07.
