data_PCOD9186563
_publ_section_title
;
Structure prediction by ZEFSAII (Michael W. Deem and Ramdas Pophale) SiO2 
 PCOD9186563
Probable space group: C 2/M
;
_chemical_formula_sum "Si O2"
_cell_formula_units_Z 64
_cell_length_a 15.446466
_cell_length_b 26.921701
_cell_length_c 8.838099
_cell_angle_alpha 90.000000
_cell_angle_beta 68.733023
_cell_angle_gamma 90.000000
_cell_volume 3424.995510
_symmetry_space_group_name_H-M "C 2/M"
_symmetry_group_IT_number 12
_symmetry_cell_setting 'monoclinic'
loop_
_space_group_symop_operation_xyz
x,y,z
-x,y,-z
-x,-y,-z
x,-y,z
1/2+x,1/2+y,z
1/2-x,1/2+y,-z
1/2-x,1/2-y,-z
1/2+x,1/2-y,z
loop_
_atom_site_type_symbol
_atom_site_label
_atom_site_fract_x
_atom_site_fract_y
_atom_site_fract_z
Si Si1 0.431286 0.166664 0.159126
Si Si2 0.264622 0.361644 0.219835
Si Si3 0.069566 0.674977 0.339315
Si Si4 0.400395 0.441344 0.633995
Si Si5 0.598825 0.721096 0.492784
Si Si6 0.600216 0.558723 0.005853
Si Si7 0.596790 0.274978 0.860015
Si Si8 0.259301 0.363823 0.587410
O O1 0.502129 0.185663 0.243226
O O2 0.391036 0.216976 0.108972
O O3 0.344938 0.137880 0.283402
O O4 0.500000 0.139226 0.000000
O O5 0.159167 0.355266 0.233676
O O6 0.320081 0.407999 0.118298
O O7 0.322839 0.312291 0.141145
O O8 0.259280 0.364986 0.405533
O O9 0.103256 0.725054 0.407078
O O10 0.000000 0.647858 0.500000
O O11 0.500000 0.427562 0.500000
O O12 0.386407 0.500000 0.614219
O O13 0.319415 0.409073 0.612151
O O14 0.402801 0.433369 0.812374
O O15 0.500000 0.699562 0.500000
O O16 0.595957 0.722959 0.676987
O O17 0.685592 0.686337 0.399169
O O18 0.614789 0.500000 0.967503
O O19 0.500000 0.572398 0.000000
O O20 0.500000 0.290559 0.000000
#
# Coordination Sequence:
#
# PCOD9186563 Si02
#       8
#     8   8   8   8   8   8   8   8
#     4  11  23  39  54  80 118 158 197 237 277 330
#     4  11  22  35  61  87 112 152 196 238 283 341
#     4  11  20  39  57  77 116 161 196 231 280 328
#     4  10  22  41  63  88 119 149 181 230 293 351
#     4  10  19  35  54  78 114 154 188 231 280 335
#     4  10  22  41  63  89 118 146 182 234 292 346
#     4  10  20  35  51  80 118 148 189 235 279 333
#     4  11  22  36  59  87 114 151 196 235 287 342
#
# _framework density 18.686156
#
# number of rings (size 3 to 8) (size 9 to 14) (size 15 to 20)
#    0.000    1.500    3.750    2.250    1.750    6.500 
#    0.000    1.875    0.000    1.500    0.000    0.000 
#    0.000    0.000    0.000    0.000    0.000    0.000 
#
# Total GULP energy -178606.898544 kJ/mol
# GULP energy per Si atom -5581.465579 kJ/mol
# Density = 1.864362 g / cm^3
# Si number density = 18.686156 Si / 1000 Ang^3
#
#
#
# Elastic Constant Matrix: (Units=GPa)
#
#
# Indices 1 2 3 4 5 6 
#
# 1 109.1208 52.6638 42.9567 0.0000 -33.9548 0.0000
# 2 52.6638 62.4320 41.7776 0.0000 -19.4160 0.0000
# 3 42.9567 41.7776 87.8783 0.0000 -40.0070 0.0000
# 4 0.0000 0.0000 0.0000 27.2506 0.0000 -3.0837
# 5 -33.9548 -19.4160 -40.0070 0.0000 36.1827 0.0000
# 6 0.0000 0.0000 0.0000 -3.0837 0.0000 19.1723
#
#
#
# Elastic Compliance Matrix: (Units=1/GPa)
#
#
# Indices 1 2 3 4 5 6 
#
# 1 0.018997 -0.014249 0.004275 0.000000 0.014908 0.000000
# 2 -0.014249 0.034183 -0.014140 0.000000 -0.010663 0.000000
# 3 0.004275 -0.014140 0.028963 0.000000 0.028448 0.000000
# 4 0.000000 0.000000 0.000000 0.037377 0.000000 0.006012
# 5 0.014908 -0.010663 0.028448 0.000000 0.067360 0.000000
# 6 0.000000 0.000000 0.000000 0.006012 0.000000 0.053125
#
#
# Mechanical properties :
#
#
# Convention : Reuss Voigt Hill
#
# Bulk Modulus (GPa) = 29.48584 59.35859 44.42221
# Shear Modulus (GPa) = 16.69234 24.65666 20.67450
#
# Velocity S-wave (km/s) = 2.99205 3.63645 3.32988
# Velocity P-wave (km/s) = 5.26785 7.03326 6.21358
#
# Compressibility (1/GPa) = 0.03391458
#
# Stress axis : x y z
#
# Youngs Moduli (GPa) = 52.64002 29.25453 34.52656
#
# Poissons Ratio (x) = 0.41685 -0.14759
# Poissons Ratio (y) = 0.75007 0.48820
# Poissons Ratio (z) = -0.22502 0.41365
#
# Static dielectric constant tensor:
#      x y z
#    x 1.656640 0.000000 0.018270 
#    y 0.000000 1.643240 0.000000 
#    z 0.018270 0.000000 1.699590 
# 
# From -- ./inp_files/66928.got.cif
#   From: 2010.05.17/outbox.cif.g08.bks.cpg/sg12_34_cif.got.tgz:66928.got - 2010.06.03 13:09:07.
