data_PCOD9186280
_publ_section_title
;
Structure prediction by ZEFSAII (Michael W. Deem and Ramdas Pophale) SiO2 
 PCOD9186280
Probable space group: C 2/M
;
_chemical_formula_sum "Si O2"
_cell_formula_units_Z 64
_cell_length_a 9.587554
_cell_length_b 29.332469
_cell_length_c 12.004780
_cell_angle_alpha 90.000000
_cell_angle_beta 90.118715
_cell_angle_gamma 90.000000
_cell_volume 3376.056582
_symmetry_space_group_name_H-M "C 2/M"
_symmetry_group_IT_number 12
_symmetry_cell_setting 'monoclinic'
loop_
_space_group_symop_operation_xyz
x,y,z
-x,y,-z
-x,-y,-z
x,-y,z
1/2+x,1/2+y,z
1/2-x,1/2+y,-z
1/2-x,1/2-y,-z
1/2+x,1/2-y,z
loop_
_atom_site_type_symbol
_atom_site_label
_atom_site_fract_x
_atom_site_fract_y
_atom_site_fract_z
Si Si1 0.805393 0.376475 0.930186
Si Si2 0.708354 0.679871 0.738462
Si Si3 0.330460 0.551465 0.711991
Si Si4 0.067137 0.853609 0.377389
Si Si5 0.484863 0.155385 0.621593
Si Si6 0.710082 0.772659 0.617597
Si Si7 0.897688 0.604150 0.166415
Si Si8 0.917651 0.951639 0.115222
O O1 0.769631 0.331057 0.860859
O O2 0.686080 0.410397 0.891167
O O3 0.948734 0.399564 0.887030
O O4 0.813600 0.372271 0.063948
O O5 0.559173 0.657370 0.709024
O O6 0.707142 0.733182 0.709469
O O7 0.824062 0.658487 0.655268
O O8 0.315961 0.500000 0.662839
O O9 0.360722 0.596623 0.637767
O O10 0.196954 0.562439 0.790728
O O11 0.467507 0.550813 0.789241
O O12 0.180413 0.813495 0.363338
O O13 0.000000 0.850566 0.500000
O O14 0.500000 0.133222 0.500000
O O15 0.557660 0.204655 0.612709
O O16 0.567998 0.131610 0.721417
O O17 0.750000 0.750000 0.500000
O O18 0.840530 0.000000 0.126036
O O19 0.000000 0.951799 0.000000
#
# Coordination Sequence:
#
# PCOD9186280 Si02
#       8
#     8   8   8   8   8   8   8   8
#     4  10  21  39  59  87 127 167 203 251 318 376
#     4  11  23  35  57  93 126 157 202 261 312 370
#     4  11  23  40  62  91 125 163 209 262 318 376
#     4  12  23  39  63  93 125 163 208 262 320 376
#     4  11  21  38  60  87 119 157 204 257 310 361
#     4  12  22  37  62  97 119 157 212 262 310 368
#     4  10  22  39  61  86 122 167 207 255 307 377
#     4  10  19  34  60  89 117 151 203 263 307 357
#
# _framework density 18.957027
#
# number of rings (size 3 to 8) (size 9 to 14) (size 15 to 20)
#    0.000    1.125    6.250    0.750    0.000    0.750 
#    0.000    1.875    0.000    1.875    0.000    0.000 
#    0.000    0.000    0.000    0.000    0.000    0.000 
#
# Total GULP energy -178299.316906 kJ/mol
# GULP energy per Si atom -5571.853653 kJ/mol
# Density = 1.891388 g / cm^3
# Si number density = 18.957027 Si / 1000 Ang^3
#
#
#
# Elastic Constant Matrix: (Units=GPa)
#
#
# Indices 1 2 3 4 5 6 
#
# 1 81.3457 38.9128 14.0960 0.0000 8.3474 0.0000
# 2 38.9128 116.8106 34.5763 0.0000 3.8173 0.0000
# 3 14.0960 34.5763 71.5468 0.0000 7.8063 0.0000
# 4 0.0000 0.0000 0.0000 17.9934 0.0000 -2.9241
# 5 8.3474 3.8173 7.8063 0.0000 20.6214 0.0000
# 6 0.0000 0.0000 0.0000 -2.9241 0.0000 29.1770
#
#
#
# Elastic Compliance Matrix: (Units=1/GPa)
#
#
# Indices 1 2 3 4 5 6 
#
# 1 0.015166 -0.004861 -0.000070 0.000000 -0.005213 0.000000
# 2 -0.004861 0.011548 -0.004803 0.000000 0.001648 0.000000
# 3 -0.000070 -0.004803 0.016910 0.000000 -0.005484 0.000000
# 4 0.000000 0.000000 0.000000 0.056496 0.000000 0.005662
# 5 -0.005213 0.001648 -0.005484 0.000000 0.052374 0.000000
# 6 0.000000 0.000000 0.000000 0.005662 0.000000 0.034841
#
#
# Mechanical properties :
#
#
# Convention : Reuss Voigt Hill
#
# Bulk Modulus (GPa) = 41.39782 49.43038 45.41410
# Shear Modulus (GPa) = 23.27155 25.69957 24.48556
#
# Velocity S-wave (km/s) = 3.50751 3.68594 3.59783
# Velocity P-wave (km/s) = 6.18778 6.65180 6.42398
#
# Compressibility (1/GPa) = 0.02415586
#
# Stress axis : x y z
#
# Youngs Moduli (GPa) = 65.93890 86.59496 59.13623
#
# Poissons Ratio (x) = 0.42094 0.00414
# Poissons Ratio (y) = 0.32053 0.28403
# Poissons Ratio (z) = 0.00462 0.41591
#
# Static dielectric constant tensor:
#      x y z
#    x 1.681270 0.000000 0.008390 
#    y 0.000000 1.699280 0.000000 
#    z 0.008390 0.000000 1.681420 
# 
# From -- ./inp_files/125739.got.cif
#   From: 2010.05.17/outbox.cif.g08.bks.cpg/sg12_63_cif.got.tgz:125739.got - 2010.06.03 13:09:07.
