data_PCOD9186231
_publ_section_title
;
Structure prediction by ZEFSAII (Michael W. Deem and Ramdas Pophale) SiO2 
 PCOD9186231
Probable space group: C 2/M
;
_chemical_formula_sum "Si O2"
_cell_formula_units_Z 64
_cell_length_a 25.371130
_cell_length_b 18.807642
_cell_length_c 20.488147
_cell_angle_alpha 90.000000
_cell_angle_beta 22.747518
_cell_angle_gamma 90.000000
_cell_volume 3780.232025
_symmetry_space_group_name_H-M "C 2/M"
_symmetry_group_IT_number 12
_symmetry_cell_setting 'monoclinic'
loop_
_space_group_symop_operation_xyz
x,y,z
-x,y,-z
-x,-y,-z
x,-y,z
1/2+x,1/2+y,z
1/2-x,1/2+y,-z
1/2-x,1/2-y,-z
1/2+x,1/2-y,z
loop_
_atom_site_type_symbol
_atom_site_label
_atom_site_fract_x
_atom_site_fract_y
_atom_site_fract_z
Si Si1 0.838148 0.226448 0.962506
Si Si2 0.524904 0.081840 0.868707
Si Si3 0.139263 0.731692 0.571719
Si Si4 0.772390 0.831972 0.646130
Si Si5 0.456910 0.079776 0.307784
Si Si6 0.743647 0.825865 0.823653
Si Si7 0.957473 0.081818 0.650746
Si Si8 0.772120 0.919662 0.992340
O O1 0.993449 0.243772 0.766845
O O2 0.750000 0.250000 0.000000
O O3 0.795463 0.269447 0.075714
O O4 0.810102 0.142393 0.998861
O O5 0.632728 0.130884 0.782911
O O6 0.557060 0.082568 0.754641
O O7 0.529187 0.000000 0.885897
O O8 0.375437 0.115242 0.044547
O O9 0.250000 0.750000 0.500000
O O10 0.178012 0.775304 0.463413
O O11 0.125493 0.647663 0.572935
O O12 0.758884 0.797776 0.733038
O O13 0.888781 0.892442 0.516105
O O14 0.616918 0.088879 0.143516
O O15 0.416390 0.000000 0.375497
O O16 0.879361 0.866103 0.691214
O O17 0.950145 0.000000 0.638038
O O18 0.873647 0.087507 0.814573
O O19 0.785159 0.000000 0.002851
#
# Coordination Sequence:
#
# PCOD9186231 Si02
#       8
#     8   8   8   8   8   8   8   8
#     4  12  19  37  60  77 103 147 188 228 266 320
#     4  11  21  37  56  78 111 153 190 214 253 328
#     4  12  21  37  56  82 111 145 181 232 274 318
#     4  12  25  35  51  83 116 144 179 226 277 316
#     4  10  19  35  60  83 106 143 190 228 269 325
#     4  12  23  37  55  79 109 152 186 218 267 327
#     4  11  21  35  52  78 113 146 177 215 269 327
#     4  10  19  34  60  85 105 139 191 233 269 322
#
# _framework density 16.930178000000002
#
# number of rings (size 3 to 8) (size 9 to 14) (size 15 to 20)
#    0.000    0.750    7.500    1.500    0.000    3.000 
#    0.000    0.625    0.000    0.750    0.000    1.750 
#    0.000    4.000    0.000    0.000    0.000    0.000 
#
# Total GULP energy -178746.612719 kJ/mol
# GULP energy per Si atom -5585.831647 kJ/mol
# Density = 1.689164 g / cm^3
# Si number density = 16.930178 Si / 1000 Ang^3
#
#
#
# Elastic Constant Matrix: (Units=GPa)
#
#
# Indices 1 2 3 4 5 6 
#
# 1 78.9494 42.3003 36.2669 0.0004 9.4327 -0.0002
# 2 42.3003 116.8177 27.0486 0.0000 11.1146 -0.0003
# 3 36.2669 27.0486 52.7592 0.0029 -2.5335 -0.0021
# 4 0.0004 0.0000 0.0029 17.1685 -0.0016 -9.1114
# 5 9.4327 11.1146 -2.5335 -0.0016 38.2621 0.0008
# 6 -0.0002 -0.0003 -0.0021 -9.1114 0.0008 16.6142
#
#
#
# Elastic Compliance Matrix: (Units=1/GPa)
#
#
# Indices 1 2 3 4 5 6 
#
# 1 0.021426 -0.004348 -0.012733 0.000001 -0.004862 -0.000001
# 2 -0.004348 0.010992 -0.002758 0.000000 -0.002304 0.000000
# 3 -0.012733 -0.002758 0.029403 -0.000003 0.005887 0.000001
# 4 0.000001 0.000000 -0.000003 0.082158 0.000002 0.045056
# 5 -0.004862 -0.002304 0.005887 0.000002 0.028393 0.000000
# 6 -0.000001 0.000000 0.000001 0.045056 0.000000 0.084899
#
#
# Mechanical properties :
#
#
# Convention : Reuss Voigt Hill
#
# Bulk Modulus (GPa) = 45.15640 51.08421 48.12031
# Shear Modulus (GPa) = 16.42961 23.93632 20.18297
#
# Velocity S-wave (km/s) = 3.11856 3.76417 3.45647
# Velocity P-wave (km/s) = 6.30057 7.00934 6.66439
#
# Compressibility (1/GPa) = 0.02214525
#
# Stress axis : x y z
#
# Youngs Moduli (GPa) = 46.67309 90.97241 34.01018
#
# Poissons Ratio (x) = 0.39551 0.43304
# Poissons Ratio (y) = 0.20291 0.09379
# Poissons Ratio (z) = 0.59427 0.25087
#
# Static dielectric constant tensor:
#      x y z
#    x 1.568960 0.000000 0.005070 
#    y 0.000000 1.595600 0.000000 
#    z 0.005070 0.000000 1.566420 
# 
# From -- ./inp_files/328604.got.cif
#   From: 2010.05.17/outbox.cif.g08.bks.cpg/sg12_165_cif.got.tgz:328604.got - 2010.06.03 13:09:07.
