data_PCOD9186863
_publ_section_title
;
Structure prediction by ZEFSAII (Michael W. Deem and Ramdas Pophale) SiO2 
 PCOD9186863
Probable space group: C 2/M
;
_chemical_formula_sum "Si O2"
_cell_formula_units_Z 52
_cell_length_a 9.582958
_cell_length_b 25.771695
_cell_length_c 9.482372
_cell_angle_alpha 90.000000
_cell_angle_beta 102.149446
_cell_angle_gamma 90.000000
_cell_volume 2289.399723
_symmetry_space_group_name_H-M "C 2/M"
_symmetry_group_IT_number 12
_symmetry_cell_setting 'monoclinic'
loop_
_space_group_symop_operation_xyz
x,y,z
-x,y,-z
-x,-y,-z
x,-y,z
1/2+x,1/2+y,z
1/2-x,1/2+y,-z
1/2-x,1/2-y,-z
1/2+x,1/2-y,z
loop_
_atom_site_type_symbol
_atom_site_label
_atom_site_fract_x
_atom_site_fract_y
_atom_site_fract_z
Si Si1 0.782402 0.870339 0.217041
Si Si2 0.806028 0.328920 0.418613
Si Si3 0.047855 0.698176 0.270328
Si Si4 0.237383 0.555727 0.625933
Si Si5 0.000000 0.084830 0.500000
Si Si6 0.952318 0.189811 0.799901
Si Si7 0.154896 0.088226 0.058421
O O1 0.624717 0.850750 0.217193
O O2 0.877799 0.890602 0.368793
O O3 0.777218 0.907501 0.080746
O O4 0.882418 0.822491 0.188353
O O5 0.862221 0.298095 0.564549
O O6 0.835343 0.390528 0.438160
O O7 0.638298 0.321412 0.361306
O O8 0.889163 0.310048 0.296263
O O9 0.063247 0.749265 0.179413
O O10 0.171701 0.500000 0.576996
O O11 0.395292 0.557087 0.589414
O O12 0.258248 0.561835 0.798505
O O13 0.884015 0.146205 0.887269
O O14 0.000000 0.063434 0.000000
#
# Coordination Sequence:
#
# PCOD9186863 Si02
#       7
#     8   8   8   8   4   8   8
#     4  11  20  37  61  84 124 152 190 246 286 337
#     4  10  21  37  54  87 124 151 194 245 298 338
#     4  11  21  33  57  86 119 161 198 229 290 352
#     4  11  22  40  63  86 113 154 197 246 301 349
#     4  12  19  38  64  88 112 144 190 252 299 336
#     4  10  19  35  56  84 118 161 194 234 281 347
#     4   9  19  38  57  85 125 151 188 244 298 337
#
# _framework density 22.713377000000001
#
# number of rings (size 3 to 8) (size 9 to 14) (size 15 to 20)
#    0.000    1.538    6.154    1.615    0.000    3.385 
#    0.000    9.231    0.000    0.923    0.000    0.000 
#    0.000    0.000    0.000    0.000    0.000    0.000 
#
# Total GULP energy -144856.356104 kJ/mol
# GULP energy per Si atom -5571.398312 kJ/mol
# Density = 2.266168 g / cm^3
# Si number density = 22.713377 Si / 1000 Ang^3
#
#
#
# Elastic Constant Matrix: (Units=GPa)
#
#
# Indices 1 2 3 4 5 6 
#
# 1 33.2181 -15.4501 2.7540 0.0000 -3.6431 0.0000
# 2 -15.4501 103.4265 10.3902 0.0000 0.1874 0.0000
# 3 2.7540 10.3902 92.2832 0.0000 -9.1000 0.0000
# 4 0.0000 0.0000 0.0000 1.1347 0.0000 -2.8849
# 5 -3.6431 0.1874 -9.1000 0.0000 31.6077 0.0000
# 6 0.0000 0.0000 0.0000 -2.8849 0.0000 9.5091
#
#
#
# Elastic Compliance Matrix: (Units=1/GPa)
#
#
# Indices 1 2 3 4 5 6 
#
# 1 0.032920 0.005033 -0.001212 0.000000 0.003416 0.000000
# 2 0.005033 0.010553 -0.001325 0.000000 0.000136 0.000000
# 3 -0.001212 -0.001325 0.011330 0.000000 0.003130 0.000000
# 4 0.000000 0.000000 0.000000 3.854113 0.000000 1.169292
# 5 0.003416 0.000136 0.003130 0.000000 0.032932 0.000000
# 6 0.000000 0.000000 0.000000 1.169292 0.000000 0.459912
#
#
# Mechanical properties :
#
#
# Convention : Reuss Voigt Hill
#
# Bulk Modulus (GPa) = 16.72358 24.92400 20.82379
# Shear Modulus (GPa) = 1.13207 23.86589 12.49898
#
# Velocity S-wave (km/s) = 0.70675 3.24503 2.34837
# Velocity P-wave (km/s) = 2.83635 5.00374 4.06708
#
# Compressibility (1/GPa) = 0.05979581
#
# Stress axis : x y z
#
# Youngs Moduli (GPa) = 30.37649 94.75564 88.25943
#
# Poissons Ratio (x) = -0.47694 0.10700
# Poissons Ratio (y) = -0.15289 0.11694
# Poissons Ratio (z) = 0.03683 0.12555
#
# Static dielectric constant tensor:
#      x y z
#    x 1.829960 0.000000 -0.006550 
#    y 0.000000 1.888540 0.000000 
#    z -0.006550 0.000000 1.901040 
# 
# From -- ./inp_files/52616.got.cif
#   From: 2010.05.17/outbox.cif.g08.bks.cpg/sg12_27_cif.got.tgz:52616.got - 2010.06.03 13:09:07.
