data_PCOD9186135
_publ_section_title
;
Structure prediction by ZEFSAII (Michael W. Deem and Ramdas Pophale) SiO2 
 PCOD9186135
Probable space group: C 2/M
;
_chemical_formula_sum "Si O2"
_cell_formula_units_Z 56
_cell_length_a 27.372631
_cell_length_b 8.075972
_cell_length_c 19.088923
_cell_angle_alpha 90.000000
_cell_angle_beta 37.340437
_cell_angle_gamma 90.000000
_cell_volume 2559.523601
_symmetry_space_group_name_H-M "C 2/M"
_symmetry_group_IT_number 12
_symmetry_cell_setting 'monoclinic'
loop_
_space_group_symop_operation_xyz
x,y,z
-x,y,-z
-x,-y,-z
x,-y,z
1/2+x,1/2+y,z
1/2-x,1/2+y,-z
1/2-x,1/2-y,-z
1/2+x,1/2-y,z
loop_
_atom_site_type_symbol
_atom_site_label
_atom_site_fract_x
_atom_site_fract_y
_atom_site_fract_z
Si Si1 0.205087 0.187961 0.121843
Si Si2 0.589425 0.702453 0.371609
Si Si3 0.863771 0.803958 0.182339
Si Si4 0.337869 0.810515 0.424248
Si Si5 0.854618 0.806024 0.028155
Si Si6 0.685072 0.692465 0.399861
Si Si7 0.477025 0.692801 0.171731
O O1 0.127982 0.261280 0.253105
O O2 0.182541 0.000000 0.131604
O O3 0.250000 0.250000 0.000000
O O4 0.277215 0.202206 0.095916
O O5 0.500000 0.752493 0.500000
O O6 0.589042 0.500000 0.368126
O O7 0.649566 0.750802 0.366321
O O8 0.781076 0.711904 0.292555
O O9 0.936922 0.739784 0.146226
O O10 0.852503 0.000000 0.212713
O O11 0.874980 0.794243 0.086919
O O12 0.250000 0.750000 0.500000
O O13 0.346128 0.791317 0.497838
O O14 0.407173 0.708143 0.307715
O O15 0.346838 0.000000 0.392496
O O16 0.937336 0.741180 0.899445
O O17 0.836802 0.000000 0.031446
O O18 0.663073 0.500000 0.433511
O O19 0.495051 0.500000 0.137257
#
# Coordination Sequence:
#
# PCOD9186135 Si02
#       7
#     8   8   8   8   8   8   8
#     4  11  23  41  65  93 123 159 206 260 321 380
#     4   9  20  40  65  91 119 155 203 256 308 369
#     4  10  19  34  59  87 119 156 198 243 291 351
#     4  12  24  38  56  83 120 161 203 249 301 355
#     4  10  21  38  61  89 122 160 202 246 302 364
#     4  11  21  36  61  89 116 154 201 246 300 359
#     4  10  21  37  58  87 122 164 205 244 292 358
#
# _framework density 21.879071
#
# number of rings (size 3 to 8) (size 9 to 14) (size 15 to 20)
#    0.000    1.571    2.857    2.571    0.000    3.429 
#    0.000    2.857    0.000    8.571    0.000    0.000 
#    0.000    0.000    0.000    0.000    0.000    0.000 
#
# Total GULP energy -156211.609773 kJ/mol
# GULP energy per Si atom -5578.986063 kJ/mol
# Density = 2.182927 g / cm^3
# Si number density = 21.879071 Si / 1000 Ang^3
#
#
#
# Elastic Constant Matrix: (Units=GPa)
#
#
# Indices 1 2 3 4 5 6 
#
# 1 39.3107 -0.7561 32.2840 0.0175 6.4902 -0.0084
# 2 -0.7561 19.9945 -2.4680 0.0189 8.1183 -0.0097
# 3 32.2840 -2.4680 143.2125 0.0260 6.0509 -0.0182
# 4 0.0175 0.0189 0.0260 22.5465 -0.0127 2.1644
# 5 6.4902 8.1183 6.0509 -0.0127 38.0973 0.0073
# 6 -0.0084 -0.0097 -0.0182 2.1644 0.0073 22.6289
#
#
#
# Elastic Compliance Matrix: (Units=1/GPa)
#
#
# Indices 1 2 3 4 5 6 
#
# 1 0.032007 0.002315 -0.006971 -0.000023 -0.004839 0.000011
# 2 0.002315 0.055217 0.000950 -0.000059 -0.012312 0.000035
# 3 -0.006971 0.000950 0.008586 -0.000006 -0.000379 0.000005
# 4 -0.000023 -0.000059 -0.000006 0.044764 0.000033 -0.004282
# 5 -0.004839 -0.012312 -0.000379 0.000033 0.029757 -0.000020
# 6 0.000011 0.000035 0.000005 -0.004282 -0.000020 0.044601
#
#
# Mechanical properties :
#
#
# Convention : Reuss Voigt Hill
#
# Bulk Modulus (GPa) = 11.31248 28.95972 20.13610
# Shear Modulus (GPa) = 19.85624 28.21841 24.03732
#
# Velocity S-wave (km/s) = 3.01582 3.59520 3.31818
# Velocity P-wave (km/s) = 4.16035 5.52258 4.88914
#
# Compressibility (1/GPa) = 0.08839797
#
# Stress axis : x y z
#
# Youngs Moduli (GPa) = 31.24356 18.11023 116.46296
#
# Poissons Ratio (x) = -0.04192 0.81184
# Poissons Ratio (y) = -0.07232 -0.11064
# Poissons Ratio (z) = 0.21779 -0.01720
#
# Static dielectric constant tensor:
#      x y z
#    x 1.800160 0.000000 -0.011280 
#    y 0.000000 1.801500 -0.000020 
#    z -0.011280 -0.000020 1.936700 
# 
# From -- ./inp_files/292382.got.cif
#   From: 2010.05.17/outbox.cif.g08.bks.cpg/sg12_147_cif.got.tgz:292382.got - 2010.06.03 13:09:07.
