data_PCOD9186276
_publ_section_title
;
Structure prediction by ZEFSAII (Michael W. Deem and Ramdas Pophale) SiO2 
 PCOD9186276
Probable space group: C 2/M
;
_chemical_formula_sum "Si O2"
_cell_formula_units_Z 56
_cell_length_a 13.989951
_cell_length_b 21.840458
_cell_length_c 12.249242
_cell_angle_alpha 90.000000
_cell_angle_beta 40.146112
_cell_angle_gamma 90.000000
_cell_volume 2413.076633
_symmetry_space_group_name_H-M "C 2/M"
_symmetry_group_IT_number 12
_symmetry_cell_setting 'monoclinic'
loop_
_space_group_symop_operation_xyz
x,y,z
-x,y,-z
-x,-y,-z
x,-y,z
1/2+x,1/2+y,z
1/2-x,1/2+y,-z
1/2-x,1/2-y,-z
1/2+x,1/2-y,z
loop_
_atom_site_type_symbol
_atom_site_label
_atom_site_fract_x
_atom_site_fract_y
_atom_site_fract_z
Si Si1 0.642756 0.303218 0.820112
Si Si2 0.384484 0.566774 0.268812
Si Si3 0.402046 0.930848 0.337984
Si Si4 0.464102 0.391013 0.657567
Si Si5 0.397203 0.736090 0.480427
Si Si6 0.825633 0.572623 0.172876
Si Si7 0.928803 0.654361 0.682624
O O1 0.594704 0.369249 0.812273
O O2 0.733811 0.258523 0.658156
O O3 0.765936 0.321479 0.802565
O O4 0.500000 0.273629 0.000000
O O5 0.400485 0.500000 0.198779
O O6 0.216319 0.570203 0.461206
O O7 0.487127 0.566224 0.286788
O O8 0.317825 0.905498 0.305585
O O9 0.550170 0.900649 0.253286
O O10 0.436403 0.000000 0.276538
O O11 0.500000 0.410013 0.500000
O O12 0.555725 0.329144 0.605460
O O13 0.285584 0.388060 0.804224
O O14 0.500000 0.735860 0.500000
O O15 0.467901 0.792953 0.355492
O O16 0.784577 0.500000 0.197990
O O17 0.000000 0.578386 0.000000
O O18 0.000000 0.639524 0.500000
#
# Coordination Sequence:
#
# PCOD9186276 Si02
#       7
#     8   8   8   8   8   8   8
#     4  10  21  39  61  88 129 160 196 257 315 356
#     4  11  22  35  59  96 121 158 213 244 297 381
#     4  10  19  34  60  89 115 155 206 245 294 369
#     4  11  21  37  62  88 119 162 202 256 295 351
#     4   8  18  37  59  84 114 153 209 247 293 359
#     4  10  22  39  59  89 125 157 194 248 311 363
#     4   9  17  36  56  82 116 152 199 251 292 358
#
# _framework density 23.206887999999999
#
# number of rings (size 3 to 8) (size 9 to 14) (size 15 to 20)
#    0.000    2.429    4.286    0.429    0.000    3.429 
#    0.000    7.857    0.000    8.571    0.000    0.000 
#    0.000    0.000    0.000    0.000    0.000    0.000 
#
# Total GULP energy -156051.436961 kJ/mol
# GULP energy per Si atom -5573.265606 kJ/mol
# Density = 2.315407 g / cm^3
# Si number density = 23.206888 Si / 1000 Ang^3
#
#
#
# Elastic Constant Matrix: (Units=GPa)
#
#
# Indices 1 2 3 4 5 6 
#
# 1 100.2494 38.2515 30.2449 -0.0003 -30.6587 -0.0001
# 2 38.2515 98.0706 24.7523 -0.0003 -3.5976 0.0000
# 3 30.2449 24.7523 83.8445 -0.0017 -25.4418 -0.0001
# 4 -0.0003 -0.0003 -0.0017 4.5450 0.0005 -2.0970
# 5 -30.6587 -3.5976 -25.4418 0.0005 27.5610 0.0001
# 6 -0.0001 0.0000 -0.0001 -2.0970 0.0001 35.9768
#
#
#
# Elastic Compliance Matrix: (Units=1/GPa)
#
#
# Indices 1 2 3 4 5 6 
#
# 1 0.018668 -0.006962 0.001871 -0.000001 0.021585 0.000000
# 2 -0.006962 0.013708 -0.004643 0.000000 -0.010241 0.000000
# 3 0.001871 -0.004643 0.018156 0.000005 0.018235 0.000000
# 4 -0.000001 0.000000 0.000005 0.226104 0.000000 0.013179
# 5 0.021585 -0.010241 0.018235 0.000000 0.075790 0.000000
# 6 0.000000 0.000000 0.000000 0.013179 0.000000 0.028564
#
#
# Mechanical properties :
#
#
# Convention : Reuss Voigt Hill
#
# Bulk Modulus (GPa) = 32.19139 52.07353 42.13246
# Shear Modulus (GPa) = 12.17099 26.21093 19.19096
#
# Velocity S-wave (km/s) = 2.29259 3.36437 2.87880
# Velocity P-wave (km/s) = 4.57269 6.13021 5.40782
#
# Compressibility (1/GPa) = 0.03106421
#
# Stress axis : x y z
#
# Youngs Moduli (GPa) = 53.56724 72.94863 55.07831
#
# Poissons Ratio (x) = 0.50784 -0.10304
# Poissons Ratio (y) = 0.37292 0.25574
# Poissons Ratio (z) = -0.10021 0.33871
#
# Static dielectric constant tensor:
#      x y z
#    x 1.892660 0.000000 0.005710 
#    y 0.000000 1.991360 0.000000 
#    z 0.005710 0.000000 1.945110 
# 
# From -- ./inp_files/218242.got.cif
#   From: 2010.05.17/outbox.cif.g08.bks.cpg/sg12_110_cif.got.tgz:218242.got - 2010.06.03 13:09:07.
