data_PCOD9186244
_publ_section_title
;
Structure prediction by ZEFSAII (Michael W. Deem and Ramdas Pophale) SiO2 
 PCOD9186244
Probable space group: C 2/M
;
_chemical_formula_sum "Si O2"
_cell_formula_units_Z 40
_cell_length_a 11.019401
_cell_length_b 18.825923
_cell_length_c 7.129652
_cell_angle_alpha 90.000000
_cell_angle_beta 98.748819
_cell_angle_gamma 90.000000
_cell_volume 1461.839861
_symmetry_space_group_name_H-M "C 2/M"
_symmetry_group_IT_number 12
_symmetry_cell_setting 'monoclinic'
loop_
_space_group_symop_operation_xyz
x,y,z
-x,y,-z
-x,-y,-z
x,-y,z
1/2+x,1/2+y,z
1/2-x,1/2+y,-z
1/2-x,1/2-y,-z
1/2+x,1/2-y,z
loop_
_atom_site_type_symbol
_atom_site_label
_atom_site_fract_x
_atom_site_fract_y
_atom_site_fract_z
Si Si1 0.961759 0.919903 0.773618
Si Si2 0.084597 0.417825 0.241541
Si Si3 0.410540 0.283984 0.241770
Si Si4 0.154770 0.731515 0.190130
Si Si5 0.815663 0.418003 0.311293
O O1 0.822986 0.889010 0.733611
O O2 0.059461 0.865681 0.708475
O O3 0.965773 0.000000 0.699028
O O4 0.000000 0.923209 0.000000
O O5 0.098149 0.500000 0.179208
O O6 0.151047 0.353517 0.151554
O O7 0.141201 0.416092 0.463330
O O8 0.939521 0.398997 0.226784
O O9 0.288698 0.253238 0.302937
O O10 0.540488 0.246422 0.297892
O O11 0.374954 0.271358 0.012464
O O12 0.795724 0.500000 0.250476
#
# Coordination Sequence:
#
# PCOD9186244 Si02
#       5
#     8   8   8   8   8
#     4  10  19  34  60  86 111 151 197 244 299 356
#     4   9  18  36  62  89 118 155 198 246 298 351
#     4  10  22  38  55  81 121 153 197 248 298 351
#     4  10  21  37  58  80 115 164 190 242 302 352
#     4   8  17  34  60  92 120 149 194 250 300 353
#
# _framework density 27.362780000000001
#
# number of rings (size 3 to 8) (size 9 to 14) (size 15 to 20)
#    0.000    2.600    2.000    1.200    2.800    2.400 
#    0.000    4.000    0.000    3.600    0.000    0.000 
#    0.000    0.000    0.000    0.000    0.000    0.000 
#
# Total GULP energy -111887.186617 kJ/mol
# GULP energy per Si atom -5594.359331 kJ/mol
# Density = 2.730050 g / cm^3
# Si number density = 27.362780 Si / 1000 Ang^3
#
#
#
# Elastic Constant Matrix: (Units=GPa)
#
#
# Indices 1 2 3 4 5 6 
#
# 1 229.1516 43.9892 33.7088 0.0000 59.5727 0.0000
# 2 43.9892 151.2841 -1.8502 0.0000 5.0797 0.0000
# 3 33.7088 -1.8502 95.0207 0.0000 20.4481 0.0000
# 4 0.0000 0.0000 0.0000 -5.5978 0.0000 16.0379
# 5 59.5727 5.0797 20.4481 0.0000 43.3293 0.0000
# 6 0.0000 0.0000 0.0000 16.0379 0.0000 44.3371
#
#
#
# Elastic Compliance Matrix: (Units=1/GPa)
#
#
# Indices 1 2 3 4 5 6 
#
# 1 0.007265 -0.001800 -0.000566 0.000000 -0.009511 0.000000
# 2 -0.001800 0.007092 0.000471 0.000000 0.001421 0.000000
# 3 -0.000566 0.000471 0.011774 0.000000 -0.004834 0.000000
# 4 0.000000 0.000000 0.000000 -0.087726 0.000000 0.031733
# 5 -0.009511 0.001421 -0.004834 0.000000 0.038270 0.000000
# 6 0.000000 0.000000 0.000000 0.031733 0.000000 0.011076
#
#
# Mechanical properties :
#
#
# Convention : Reuss Voigt Hill
#
# Bulk Modulus (GPa) = 44.76108 69.68357 57.22232
# Shear Modulus (GPa) = -4940.42162 43.05428 -2448.68367
#
# Velocity S-wave (km/s) = -42.53758 3.97099 -29.94726
# Velocity P-wave (km/s) = 48.95100 6.82253 34.27575
#
# Compressibility (1/GPa) = 0.02234084
#
# Stress axis : x y z
#
# Youngs Moduli (GPa) = 137.64168 141.01323 84.93211
#
# Poissons Ratio (x) = 0.25384 0.04805
# Poissons Ratio (y) = 0.24777 -0.03999
# Poissons Ratio (z) = 0.07787 -0.06639
#
# Static dielectric constant tensor:
#      x y z
#    x 2.154240 0.000000 -0.021500 
#    y 0.000000 2.157030 0.000000 
#    z -0.021500 0.000000 2.070920 
# 
# From -- ./inp_files/48890.got.cif
#   From: 2010.05.17/outbox.cif.g08.bks.cpg/sg12_25_cif.got.tgz:48890.got - 2010.06.03 13:09:07.
