data_PCOD9186602
_publ_section_title
;
Structure prediction by ZEFSAII (Michael W. Deem and Ramdas Pophale) SiO2 
 PCOD9186602
Probable space group: C 2/M
;
_chemical_formula_sum "Si O2"
_cell_formula_units_Z 40
_cell_length_a 15.116289
_cell_length_b 7.561967
_cell_length_c 20.203812
_cell_angle_alpha 90.000000
_cell_angle_beta 58.309871
_cell_angle_gamma 90.000000
_cell_volume 1965.136111
_symmetry_space_group_name_H-M "C 2/M"
_symmetry_group_IT_number 12
_symmetry_cell_setting 'monoclinic'
loop_
_space_group_symop_operation_xyz
x,y,z
-x,y,-z
-x,-y,-z
x,-y,z
1/2+x,1/2+y,z
1/2-x,1/2+y,-z
1/2-x,1/2-y,-z
1/2+x,1/2-y,z
loop_
_atom_site_type_symbol
_atom_site_label
_atom_site_fract_x
_atom_site_fract_y
_atom_site_fract_z
Si Si1 0.262683 0.204320 0.295625
Si Si2 0.856382 0.711494 0.997286
Si Si3 0.836260 0.789523 0.410572
Si Si4 0.913230 0.716678 0.122420
Si Si5 0.465848 0.283215 0.587001
O O1 0.308899 0.208854 0.351004
O O2 0.342229 0.280300 0.210784
O O3 0.147444 0.282409 0.347732
O O4 0.247476 0.000000 0.281788
O O5 0.862794 0.500000 0.996993
O O6 0.863732 0.770784 0.071178
O O7 0.750000 0.750000 0.000000
O O8 0.965759 0.774055 0.922161
O O9 0.750000 0.750000 0.500000
O O10 0.946004 0.729000 0.396379
O O11 0.839755 0.000000 0.400288
O O12 0.915142 0.500000 0.122966
O O13 0.500000 0.227124 0.500000
O O14 0.463473 0.500000 0.586051
#
# Coordination Sequence:
#
# PCOD9186602 Si02
#       5
#     8   8   8   8   8
#     4  10  19  35  55  73  99 137 175 212 255 304
#     4   9  17  33  55  79 104 134 171 208 251 306
#     4  11  21  34  52  75 101 133 173 217 258 302
#     4   8  17  33  53  75 103 138 171 203 252 317
#     4   9  17  31  50  70  94 129 169 205 247 302
#
# _framework density 20.354823
#
# number of rings (size 3 to 8) (size 9 to 14) (size 15 to 20)
#    0.000    2.600    2.000    1.800    0.000    1.600 
#    0.000    9.000    0.000    0.000    0.000    0.000 
#    0.000    0.000    0.000    0.000    0.000    0.000 
#
# Total GULP energy -111576.044025 kJ/mol
# GULP energy per Si atom -5578.802201 kJ/mol
# Density = 2.030849 g / cm^3
# Si number density = 20.354823 Si / 1000 Ang^3
#
#
#
# Elastic Constant Matrix: (Units=GPa)
#
#
# Indices 1 2 3 4 5 6 
#
# 1 192.8953 -5.6632 108.6529 0.0000 -29.4168 0.0000
# 2 -5.6632 46.5718 0.8450 0.0000 -4.7866 0.0001
# 3 108.6529 0.8450 212.8504 0.0000 -22.1241 0.0000
# 4 0.0000 0.0000 0.0000 0.8884 0.0000 4.8944
# 5 -29.4168 -4.7866 -22.1241 0.0000 22.4335 0.0000
# 6 0.0000 0.0001 0.0000 4.8944 0.0000 23.9320
#
#
#
# Elastic Compliance Matrix: (Units=1/GPa)
#
#
# Indices 1 2 3 4 5 6 
#
# 1 0.008419 0.001912 -0.003471 0.000000 0.008025 0.000000
# 2 0.001912 0.022426 -0.000342 -0.000002 0.006954 0.000000
# 3 -0.003471 -0.000342 0.006675 0.000000 0.001958 0.000000
# 4 0.000000 -0.000002 0.000000 -8.882009 0.000001 1.816480
# 5 0.008025 0.006954 0.001958 0.000001 0.058514 0.000000
# 6 0.000000 0.000000 0.000000 1.816480 0.000000 -0.329707
#
#
# Mechanical properties :
#
#
# Convention : Reuss Voigt Hill
#
# Bulk Modulus (GPa) = 29.65903 73.33188 51.49545
# Shear Modulus (GPa) = -0.54941 32.68296 16.06677
#
# Velocity S-wave (km/s) = -0.52010 4.01142 2.81256
# Velocity P-wave (km/s) = 3.77385 7.58685 5.99176
#
# Compressibility (1/GPa) = 0.03371655
#
# Stress axis : x y z
#
# Youngs Moduli (GPa) = 118.77452 44.59183 149.81294
#
# Poissons Ratio (x) = -0.08524 0.52004
# Poissons Ratio (y) = -0.22704 0.05123
# Poissons Ratio (z) = 0.41230 0.01525
#
# Static dielectric constant tensor:
#      x y z
#    x 2.234100 0.000000 0.559250 
#    y 0.000000 1.775180 0.000000 
#    z 0.559250 0.000000 2.339660 
# 
# From -- ./inp_files/266684.got.cif
#   From: 2010.05.17/outbox.cif.g08.bks.cpg/sg12_134_cif.got.tgz:266684.got - 2010.06.03 13:09:07.
