data_PCOD9186406
_publ_section_title
;
Structure prediction by ZEFSAII (Michael W. Deem and Ramdas Pophale) SiO2 
 PCOD9186406
Probable space group: C 2/M
;
_chemical_formula_sum "Si O2"
_cell_formula_units_Z 44
_cell_length_a 31.852528
_cell_length_b 10.182814
_cell_length_c 19.934910
_cell_angle_alpha 90.000000
_cell_angle_beta 161.040220
_cell_angle_gamma 90.000000
_cell_volume 2100.784569
_symmetry_space_group_name_H-M "C 2/M"
_symmetry_group_IT_number 12
_symmetry_cell_setting 'monoclinic'
loop_
_space_group_symop_operation_xyz
x,y,z
-x,y,-z
-x,-y,-z
x,-y,z
1/2+x,1/2+y,z
1/2-x,1/2+y,-z
1/2-x,1/2-y,-z
1/2+x,1/2-y,z
loop_
_atom_site_type_symbol
_atom_site_label
_atom_site_fract_x
_atom_site_fract_y
_atom_site_fract_z
Si Si1 0.953672 0.262843 0.766337
Si Si2 0.320794 0.354467 0.692514
Si Si3 0.204863 0.730221 0.206555
Si Si4 0.985170 0.205979 0.667919
Si Si5 0.464981 0.000000 0.298879
Si Si6 0.224987 0.500000 0.761821
Si Si7 0.806028 0.000000 0.039100
O O1 0.826724 0.346615 0.556950
O O2 0.911952 0.179440 0.768174
O O3 0.976659 0.177208 0.734323
O O4 0.086109 0.334289 0.987689
O O5 0.346303 0.500000 0.756374
O O6 0.331271 0.255021 0.770287
O O7 0.348817 0.671277 0.427065
O O8 0.222724 0.871099 0.196971
O O9 0.006061 0.363547 0.695458
O O10 0.102673 0.126770 0.813715
O O11 0.570000 0.000000 0.517414
O O12 0.318871 0.000000 0.103225
O O13 0.259637 0.500000 0.891878
#
# Coordination Sequence:
#
# PCOD9186406 Si02
#       7
#     8   8   8   8   4   4   4
#     4  10  21  35  55  84 117 153 198 241 289 344
#     4  10  21  34  57  84 114 155 201 243 287 347
#     4  10  19  37  56  86 121 154 198 240 291 353
#     4  10  23  38  63  90 119 158 197 243 304 357
#     4  10  23  42  63  87 122 156 197 245 310 364
#     4  10  19  34  62  92 110 157 201 248 293 357
#     4  12  21  40  64  94 119 149 198 261 297 351
#
# _framework density 20.944555000000001
#
# number of rings (size 3 to 8) (size 9 to 14) (size 15 to 20)
#    0.000    1.818    2.727    1.364    6.364    0.727 
#    1.636    0.000    0.000    4.364    0.000    0.000 
#    0.000    0.000    0.000    0.000    0.000    0.000 
#
# Total GULP energy -122794.554636 kJ/mol
# GULP energy per Si atom -5581.570665 kJ/mol
# Density = 2.089688 g / cm^3
# Si number density = 20.944555 Si / 1000 Ang^3
#
#
#
# Elastic Constant Matrix: (Units=GPa)
#
#
# Indices 1 2 3 4 5 6 
#
# 1 54.1063 -7.0633 30.2352 0.0000 13.2688 0.0000
# 2 -7.0633 49.0138 11.6721 0.0000 7.1462 0.0000
# 3 30.2352 11.6721 184.3499 0.0000 6.7972 0.0000
# 4 0.0000 0.0000 0.0000 -0.8218 0.0000 -3.6326
# 5 13.2688 7.1462 6.7972 0.0000 36.8660 0.0000
# 6 0.0000 0.0000 0.0000 -3.6326 0.0000 13.1162
#
#
#
# Elastic Compliance Matrix: (Units=1/GPa)
#
#
# Indices 1 2 3 4 5 6 
#
# 1 0.023561 0.005613 -0.003893 0.000000 -0.008850 0.000000
# 2 0.005613 0.022594 -0.002130 0.000000 -0.006007 0.000000
# 3 -0.003893 -0.002130 0.006173 0.000000 0.000676 0.000000
# 4 0.000000 0.000000 0.000000 -0.547083 0.000000 -0.151517
# 5 -0.008850 -0.006007 0.000676 0.000000 0.031350 0.000000
# 6 0.000000 0.000000 0.000000 -0.151517 0.000000 0.034278
#
#
# Mechanical properties :
#
#
# Convention : Reuss Voigt Hill
#
# Bulk Modulus (GPa) = 19.41451 39.68423 29.54937
# Shear Modulus (GPa) = -12.16139 26.67382 7.25622
#
# Velocity S-wave (km/s) = -2.41228 3.57255 1.86333
# Velocity P-wave (km/s) = 1.23727 6.00049 4.33225
#
# Compressibility (1/GPa) = 0.05150787
#
# Stress axis : x y z
#
# Youngs Moduli (GPa) = 42.44330 44.25904 161.99802
#
# Poissons Ratio (x) = -0.24842 0.63070
# Poissons Ratio (y) = -0.23823 0.34499
# Poissons Ratio (z) = 0.16524 0.09425
#
# Static dielectric constant tensor:
#      x y z
#    x 1.710810 0.000000 0.017760 
#    y 0.000000 1.740640 0.000000 
#    z 0.017760 0.000000 1.798870 
# 
# From -- ./inp_files/212002.got.cif
#   From: 2010.05.17/outbox.cif.g08.bks.cpg/sg12_107_cif.got.tgz:212002.got - 2010.06.03 13:09:07.
