data_PCOD9186473
_publ_section_title
;
Structure prediction by ZEFSAII (Michael W. Deem and Ramdas Pophale) SiO2 
 PCOD9186473
Probable space group: C 2/M
;
_chemical_formula_sum "Si O2"
_cell_formula_units_Z 56
_cell_length_a 9.325733
_cell_length_b 23.885629
_cell_length_c 15.447769
_cell_angle_alpha 90.000000
_cell_angle_beta 122.271268
_cell_angle_gamma 90.000000
_cell_volume 2909.472703
_symmetry_space_group_name_H-M "C 2/M"
_symmetry_group_IT_number 12
_symmetry_cell_setting 'monoclinic'
loop_
_space_group_symop_operation_xyz
x,y,z
-x,y,-z
-x,-y,-z
x,-y,z
1/2+x,1/2+y,z
1/2-x,1/2+y,-z
1/2-x,1/2-y,-z
1/2+x,1/2-y,z
loop_
_atom_site_type_symbol
_atom_site_label
_atom_site_fract_x
_atom_site_fract_y
_atom_site_fract_z
Si Si1 0.466746 0.350537 0.273843
Si Si2 0.921381 0.434187 0.570445
Si Si3 0.591564 0.232757 0.387893
Si Si4 0.183166 0.199496 0.087996
Si Si5 0.816224 0.355143 0.304934
Si Si6 0.180952 0.672629 0.051832
Si Si7 0.677217 0.357437 0.596725
O O1 0.504112 0.286112 0.315860
O O2 0.656387 0.370227 0.312885
O O3 0.342756 0.354012 0.151414
O O4 0.374764 0.379288 0.325756
O O5 0.892944 0.500000 0.566682
O O6 0.758559 0.400373 0.553662
O O7 0.000000 0.421636 0.500000
O O8 0.072439 0.409728 0.677979
O O9 0.750000 0.250000 0.500000
O O10 0.446767 0.192631 0.382684
O O11 0.685134 0.191891 0.349459
O O12 0.244506 0.171719 0.194857
O O13 0.169600 0.266366 0.094089
O O14 0.296947 0.186022 0.042023
O O15 0.000000 0.178452 0.000000
O O16 0.000000 0.642669 0.000000
O O17 0.500000 0.335560 0.500000
#
# Coordination Sequence:
#
# PCOD9186473 Si02
#       7
#     8   8   8   8   8   8   8
#     4  12  22  35  54  89 124 166 197 237 289 358
#     4  10  24  46  67  85 109 148 201 261 316 364
#     4  11  23  35  51  81 129 171 195 231 278 352
#     4  10  19  35  51  81 117 164 208 235 278 339
#     4  11  23  36  61  85 120 160 206 245 295 358
#     4  10  22  32  52  80 125 168 202 239 277 337
#     4  11  23  37  57  87 119 153 200 240 297 355
#
# _framework density 19.247474
#
# number of rings (size 3 to 8) (size 9 to 14) (size 15 to 20)
#    0.000    1.286    4.286    1.714    6.000    0.286 
#    0.000    0.714    0.000    0.429    0.000    1.000 
#    0.000    0.000    0.000    0.000    0.000    0.000 
#
# Total GULP energy -156134.852375 kJ/mol
# GULP energy per Si atom -5576.244728 kJ/mol
# Density = 1.920367 g / cm^3
# Si number density = 19.247474 Si / 1000 Ang^3
#
#
#
# Elastic Constant Matrix: (Units=GPa)
#
#
# Indices 1 2 3 4 5 6 
#
# 1 130.2984 19.8784 29.3611 0.0000 10.1559 0.0000
# 2 19.8784 35.4907 4.0687 0.0000 -0.5720 0.0000
# 3 29.3611 4.0687 78.6087 0.0000 4.9300 0.0000
# 4 0.0000 0.0000 0.0000 8.2428 0.0000 -3.5894
# 5 10.1559 -0.5720 4.9300 0.0000 33.9410 0.0000
# 6 0.0000 0.0000 0.0000 -3.5894 0.0000 16.8193
#
#
#
# Elastic Compliance Matrix: (Units=1/GPa)
#
#
# Indices 1 2 3 4 5 6 
#
# 1 0.009302 -0.004897 -0.003069 0.000000 -0.002420 0.000000
# 2 -0.004897 0.030939 0.000104 0.000000 0.001972 0.000000
# 3 -0.003069 0.000104 0.013931 0.000000 -0.001103 0.000000
# 4 0.000000 0.000000 0.000000 0.133748 0.000000 0.028543
# 5 -0.002420 0.001972 -0.001103 0.000000 0.030381 0.000000
# 6 0.000000 0.000000 0.000000 0.028543 0.000000 0.065547
#
#
# Mechanical properties :
#
#
# Convention : Reuss Voigt Hill
#
# Bulk Modulus (GPa) = 26.00905 39.00157 32.50531
# Shear Modulus (GPa) = 16.00573 24.53993 20.27283
#
# Velocity S-wave (km/s) = 2.88683 3.57454 3.24894
# Velocity P-wave (km/s) = 4.96528 6.11095 5.56766
#
# Compressibility (1/GPa) = 0.03844815
#
# Stress axis : x y z
#
# Youngs Moduli (GPa) = 107.50323 32.32144 71.78032
#
# Poissons Ratio (x) = 0.15829 0.22030
# Poissons Ratio (y) = 0.52647 -0.00748
# Poissons Ratio (z) = 0.32994 -0.00337
#
# Static dielectric constant tensor:
#      x y z
#    x 1.768650 0.000000 -0.016630 
#    y 0.000000 1.655570 0.000000 
#    z -0.016630 0.000000 1.706710 
# 
# From -- ./inp_files/198941.got.cif
#   From: 2010.05.17/outbox.cif.g08.bks.cpg/sg12_100_cif.got.tgz:198941.got - 2010.06.03 13:09:07.
