data_PCOD9186706
_publ_section_title
;
Structure prediction by ZEFSAII (Michael W. Deem and Ramdas Pophale) SiO2 
 PCOD9186706
Probable space group: C 2/M
;
_chemical_formula_sum "Si O2"
_cell_formula_units_Z 58
_cell_length_a 14.197796
_cell_length_b 21.795005
_cell_length_c 12.748410
_cell_angle_alpha 90.000000
_cell_angle_beta 58.019337
_cell_angle_gamma 90.000000
_cell_volume 3346.154307
_symmetry_space_group_name_H-M "C 2/M"
_symmetry_group_IT_number 12
_symmetry_cell_setting 'monoclinic'
loop_
_space_group_symop_operation_xyz
x,y,z
-x,y,-z
-x,-y,-z
x,-y,z
1/2+x,1/2+y,z
1/2-x,1/2+y,-z
1/2-x,1/2-y,-z
1/2+x,1/2-y,z
loop_
_atom_site_type_symbol
_atom_site_label
_atom_site_fract_x
_atom_site_fract_y
_atom_site_fract_z
Si Si1 0.709983 0.677432 0.802867
Si Si2 0.623907 0.817144 0.882617
Si Si3 0.124002 0.720776 0.460915
Si Si4 0.494715 0.608120 0.176918
Si Si5 0.719098 0.322227 0.026683
Si Si6 0.500000 0.500000 0.000000
Si Si7 0.581185 0.572703 0.546585
Si Si8 0.782435 0.660951 0.394082
O O1 0.654314 0.744720 0.852218
O O2 0.816155 0.684850 0.667901
O O3 0.618822 0.637463 0.798383
O O4 0.743098 0.652090 0.896954
O O5 0.707668 0.844813 0.919660
O O6 0.649567 0.845490 0.753832
O O7 0.500000 0.822772 0.000000
O O8 0.137107 0.681247 0.558909
O O9 0.195994 0.782345 0.432608
O O10 0.000000 0.735147 0.500000
O O11 0.591227 0.659792 0.120467
O O12 0.520397 0.553909 0.079406
O O13 0.473803 0.586807 0.308248
O O14 0.750000 0.250000 0.000000
O O15 0.500000 0.594093 0.500000
O O16 0.594574 0.500000 0.528362
O O17 0.701172 0.604879 0.467923
#
# Coordination Sequence:
#
# PCOD9186706 Si02
#       8
#     8   8   8   8   8   2   8   8
#     4  10  19  35  55  83 119 150 186 245 297 361
#     4  10  21  35  54  85 114 154 193 234 304 356
#     4  10  21  34  57  85 114 153 188 235 301 357
#     4  12  21  39  59  90 125 151 201 244 308 358
#     4  10  20  32  54  84 116 157 186 240 298 360
#     4  12  24  36  62  92 124 168 186 260 298 346
#     4  11  23  38  60  86 114 158 201 248 298 349
#     4  10  21  38  53  83 117 149 188 246 292 350
#
# _framework density 17.333331000000001
#
# number of rings (size 3 to 8) (size 9 to 14) (size 15 to 20)
#    0.000    1.517    3.448    2.897    1.931    2.207 
#    0.000    0.000    0.000    0.828    3.586    0.000 
#    0.000    0.000    0.000    0.000    0.000    0.000 
#
# Total GULP energy -161446.663915 kJ/mol
# GULP energy per Si atom -5567.126342 kJ/mol
# Density = 1.729388 g / cm^3
# Si number density = 17.333331 Si / 1000 Ang^3
#
#
#
# Elastic Constant Matrix: (Units=GPa)
#
#
# Indices 1 2 3 4 5 6 
#
# 1 78.7716 6.8732 48.3580 0.0000 10.3826 0.0000
# 2 6.8732 43.0353 18.0680 0.0000 -1.9707 0.0000
# 3 48.3580 18.0680 141.8570 0.0000 15.8857 0.0000
# 4 0.0000 0.0000 0.0000 21.5890 0.0000 5.4573
# 5 10.3826 -1.9707 15.8857 0.0000 34.3246 0.0000
# 6 0.0000 0.0000 0.0000 5.4573 0.0000 12.0681
#
#
#
# Elastic Compliance Matrix: (Units=1/GPa)
#
#
# Indices 1 2 3 4 5 6 
#
# 1 0.016264 -0.000535 -0.005191 0.000000 -0.002548 0.000000
# 2 -0.000535 0.024866 -0.003336 0.000000 0.003133 0.000000
# 3 -0.005191 -0.003336 0.009586 0.000000 -0.003058 0.000000
# 4 0.000000 0.000000 0.000000 0.052298 0.000000 -0.023649
# 5 -0.002548 0.003133 -0.003058 0.000000 0.031499 0.000000
# 6 0.000000 0.000000 0.000000 -0.023649 0.000000 0.093558
#
#
# Mechanical properties :
#
#
# Convention : Reuss Voigt Hill
#
# Bulk Modulus (GPa) = 30.68091 45.58469 38.13280
# Shear Modulus (GPa) = 19.45081 26.28733 22.86907
#
# Velocity S-wave (km/s) = 3.35350 3.89855 3.63625
# Velocity P-wave (km/s) = 5.72133 6.82795 6.29899
#
# Compressibility (1/GPa) = 0.03259356
#
# Stress axis : x y z
#
# Youngs Moduli (GPa) = 61.48502 40.21544 104.31697
#
# Poissons Ratio (x) = 0.02151 0.54149
# Poissons Ratio (y) = 0.03289 0.34797
# Poissons Ratio (z) = 0.31916 0.13415
#
# Static dielectric constant tensor:
#      x y z
#    x 1.610090 0.000000 0.051740 
#    y 0.000000 1.581870 0.000000 
#    z 0.051740 0.000000 1.640380 
# 
# From -- ./inp_files/135327.got.cif
#   From: 2010.05.17/outbox.cif.g08.bks.cpg/sg12_68_cif.got.tgz:135327.got - 2010.06.03 13:09:07.
