data_PCOD9186810
_publ_section_title
;
Structure prediction by ZEFSAII (Michael W. Deem and Ramdas Pophale) SiO2 
 PCOD9186810
Probable space group: C 2/M
;
_chemical_formula_sum "Si O2"
_cell_formula_units_Z 48
_cell_length_a 29.071679
_cell_length_b 19.594998
_cell_length_c 14.651134
_cell_angle_alpha 90.000000
_cell_angle_beta 160.514049
_cell_angle_gamma 90.000000
_cell_volume 2784.075449
_symmetry_space_group_name_H-M "C 2/M"
_symmetry_group_IT_number 12
_symmetry_cell_setting 'monoclinic'
loop_
_space_group_symop_operation_xyz
x,y,z
-x,y,-z
-x,-y,-z
x,-y,z
1/2+x,1/2+y,z
1/2-x,1/2+y,-z
1/2-x,1/2-y,-z
1/2+x,1/2-y,z
loop_
_atom_site_type_symbol
_atom_site_label
_atom_site_fract_x
_atom_site_fract_y
_atom_site_fract_z
Si Si1 0.726171 0.080636 0.077992
Si Si2 0.845099 0.919509 0.104702
Si Si3 0.154463 0.294495 0.496570
Si Si4 0.411123 0.078886 0.510246
Si Si5 0.919860 0.158759 0.562907
Si Si6 0.477023 0.698290 0.059841
O O1 0.784617 0.121523 0.273170
O O2 0.744020 0.000000 0.126914
O O3 0.811330 0.097811 0.146047
O O4 0.564550 0.093265 0.760858
O O5 0.704701 0.913245 0.783930
O O6 0.888159 0.000000 0.181041
O O7 0.957586 0.870452 0.269879
O O8 0.120682 0.369337 0.467986
O O9 0.109270 0.239984 0.490646
O O10 0.065005 0.267221 0.244052
O O11 0.316468 0.288990 0.779561
O O12 0.407652 0.000000 0.533597
O O13 0.963675 0.147952 0.750616
O O14 0.500000 0.675040 0.000000
#
# Coordination Sequence:
#
# PCOD9186810 Si02
#       6
#     8   8   8   8   8   8
#     4  10  20  34  55  82 112 151 188 217 260 318
#     4  10  19  35  56  80 113 152 187 216 259 321
#     4  10  20  37  57  83 109 137 183 225 274 328
#     4  10  19  35  57  80 112 149 182 222 265 315
#     4  10  21  33  57  80 112 136 183 228 271 315
#     4  10  21  37  61  84 103 140 180 223 281 334
#
# _framework density 17.240912000000002
#
# number of rings (size 3 to 8) (size 9 to 14) (size 15 to 20)
#    1.000    1.000    1.667    3.000    0.000    3.333 
#    0.000    5.000    0.000    5.000    0.000    0.000 
#    0.000    0.000    0.000    0.000    0.000    0.000 
#
# Total GULP energy -133648.871808 kJ/mol
# GULP energy per Si atom -5568.702992 kJ/mol
# Density = 1.720167 g / cm^3
# Si number density = 17.240912 Si / 1000 Ang^3
#
#
#
# Elastic Constant Matrix: (Units=GPa)
#
#
# Indices 1 2 3 4 5 6 
#
# 1 64.1790 30.2271 34.6138 0.0000 -2.3523 0.0000
# 2 30.2271 43.6477 37.0804 0.0000 6.4275 0.0000
# 3 34.6138 37.0804 93.2739 0.0000 9.0722 0.0000
# 4 0.0000 0.0000 0.0000 -0.5441 0.0000 14.4054
# 5 -2.3523 6.4275 9.0722 0.0000 15.7259 0.0000
# 6 0.0000 0.0000 0.0000 14.4054 0.0000 5.1229
#
#
#
# Elastic Compliance Matrix: (Units=1/GPa)
#
#
# Indices 1 2 3 4 5 6 
#
# 1 0.026130 -0.016167 -0.004548 0.000000 0.013140 0.000000
# 2 -0.016167 0.045251 -0.010547 0.000000 -0.014829 0.000000
# 3 -0.004548 -0.010547 0.017215 0.000000 -0.006300 0.000000
# 4 0.000000 0.000000 0.000000 -0.024360 0.000000 0.068499
# 5 0.013140 -0.014829 -0.006300 0.000000 0.075251 0.000000
# 6 0.000000 0.000000 0.000000 0.068499 0.000000 0.002587
#
#
# Mechanical properties :
#
#
# Convention : Reuss Voigt Hill
#
# Bulk Modulus (GPa) = 38.35663 44.99370 41.67516
# Shear Modulus (GPa) = 23.44241 10.67289 17.05765
#
# Velocity S-wave (km/s) = 3.69141 2.49076 3.14884
# Velocity P-wave (km/s) = 6.36116 5.86733 6.11923
#
# Compressibility (1/GPa) = 0.02607111
#
# Stress axis : x y z
#
# Youngs Moduli (GPa) = 38.26970 22.09902 58.09043
#
# Poissons Ratio (x) = 0.35728 0.26418
# Poissons Ratio (y) = 0.61872 0.61269
# Poissons Ratio (z) = 0.17404 0.23308
#
# Static dielectric constant tensor:
#      x y z
#    x 1.561720 0.000000 -0.007080 
#    y 0.000000 1.580260 0.000000 
#    z -0.007080 0.000000 1.613760 
# 
# From -- ./inp_files/247142.got.cif
#   From: 2010.05.17/outbox.cif.g08.bks.cpg/sg12_124_cif.got.tgz:247142.got - 2010.06.03 13:09:07.
