data_PCOD9186106
_publ_section_title
;
Structure prediction by ZEFSAII (Michael W. Deem and Ramdas Pophale) SiO2 
 PCOD9186106
Probable space group: C 2/M
;
_chemical_formula_sum "Si O2"
_cell_formula_units_Z 64
_cell_length_a 28.997628
_cell_length_b 7.655682
_cell_length_c 13.914183
_cell_angle_alpha 90.000000
_cell_angle_beta 105.510707
_cell_angle_gamma 90.000000
_cell_volume 2976.405318
_symmetry_space_group_name_H-M "C 2/M"
_symmetry_group_IT_number 12
_symmetry_cell_setting 'monoclinic'
loop_
_space_group_symop_operation_xyz
x,y,z
-x,y,-z
-x,-y,-z
x,-y,z
1/2+x,1/2+y,z
1/2-x,1/2+y,-z
1/2-x,1/2-y,-z
1/2+x,1/2-y,z
loop_
_atom_site_type_symbol
_atom_site_label
_atom_site_fract_x
_atom_site_fract_y
_atom_site_fract_z
Si Si1 0.715885 0.703119 0.069356
Si Si2 0.250324 0.297223 0.296143
Si Si3 0.925826 0.286839 0.812755
Si Si4 0.029417 0.287791 0.793963
Si Si5 0.394423 0.210618 0.006554
Si Si6 0.045618 0.794135 0.582210
Si Si7 0.338007 0.212819 0.628003
Si Si8 0.149283 0.795388 0.586523
O O1 0.720888 0.500000 0.092051
O O2 0.731045 0.793445 0.177025
O O3 0.750000 0.750000 0.000000
O O4 0.660928 0.741756 0.013599
O O5 0.254961 0.500000 0.327557
O O6 0.209943 0.223717 0.344904
O O7 0.303334 0.219133 0.336363
O O8 0.925916 0.500000 0.814375
O O9 0.883874 0.233412 0.716714
O O10 0.977920 0.231271 0.806018
O O11 0.913508 0.227718 0.913562
O O12 0.029600 0.500000 0.792520
O O13 0.071595 0.228279 0.888538
O O14 0.037196 0.224763 0.690516
O O15 0.397127 0.000000 0.006900
O O16 0.097499 0.717942 0.583681
O O17 0.000000 0.718424 0.500000
O O18 0.047419 0.000000 0.557558
O O19 0.342300 0.278801 0.522407
O O20 0.337621 0.000000 0.625680
O O21 0.146659 0.000000 0.613125
#
# Coordination Sequence:
#
# PCOD9186106 Si02
#       8
#     8   8   8   8   8   8   8   8
#     4  12  26  42  63  89 120 158 198 241 292 352
#     4  10  21  40  61  86 118 154 194 244 299 349
#     4   9  17  34  59  87 120 156 193 239 294 346
#     4  10  21  35  60  91 116 152 200 248 291 344
#     4  10  20  39  62  88 122 155 194 241 295 354
#     4  10  22  40  57  79 117 162 198 240 299 354
#     4  10  19  34  59  86 117 154 193 242 295 344
#     4  10  22  37  57  83 115 155 198 243 296 352
#
# _framework density 21.502445999999999
#
# number of rings (size 3 to 8) (size 9 to 14) (size 15 to 20)
#    0.000    1.875    1.250    2.625    1.750    3.750 
#    0.000    0.625    0.000    1.500    0.000    0.000 
#    0.000    0.000    0.000    0.000    0.000    0.000 
#
# Total GULP energy -178852.286403 kJ/mol
# GULP energy per Si atom -5589.133950 kJ/mol
# Density = 2.145351 g / cm^3
# Si number density = 21.502446 Si / 1000 Ang^3
#
#
#
# Elastic Constant Matrix: (Units=GPa)
#
#
# Indices 1 2 3 4 5 6 
#
# 1 229.7480 -0.3793 72.2775 0.0000 15.3940 0.0000
# 2 -0.3793 36.0388 -11.8835 0.0000 6.2262 0.0000
# 3 72.2775 -11.8835 61.7675 0.0000 21.5418 0.0000
# 4 0.0000 0.0000 0.0000 19.5673 0.0000 -0.3407
# 5 15.3940 6.2262 21.5418 0.0000 43.1726 0.0000
# 6 0.0000 0.0000 0.0000 -0.3407 0.0000 -20.4757
#
#
#
# Elastic Compliance Matrix: (Units=1/GPa)
#
#
# Indices 1 2 3 4 5 6 
#
# 1 0.007477 -0.003985 -0.010638 0.000000 0.003216 0.000000
# 2 -0.003985 0.034658 0.015228 0.000000 -0.011176 0.000000
# 3 -0.010638 0.015228 0.037544 0.000000 -0.017136 0.000000
# 4 0.000000 0.000000 0.000000 0.051091 0.000000 -0.000850
# 5 0.003216 -0.011176 -0.017136 0.000000 0.032178 0.000000
# 6 0.000000 0.000000 0.000000 -0.000850 0.000000 -0.048824
#
#
# Mechanical properties :
#
#
# Convention : Reuss Voigt Hill
#
# Bulk Modulus (GPa) = 12.36238 49.73153 31.04695
# Shear Modulus (GPa) = 35.74616 26.28883 31.01750
#
# Velocity S-wave (km/s) = 4.08171 3.50036 3.80216
# Velocity P-wave (km/s) = 5.28919 6.28611 5.80908
#
# Compressibility (1/GPa) = 0.08089057
#
# Stress axis : x y z
#
# Youngs Moduli (GPa) = 133.74247 28.85326 26.63572
#
# Poissons Ratio (x) = 0.11497 0.28334
# Poissons Ratio (y) = 0.53292 -0.40562
# Poissons Ratio (z) = 1.42271 -0.43939
#
# Static dielectric constant tensor:
#      x y z
#    x 1.777450 0.000000 0.033770 
#    y 0.000000 1.813110 0.000000 
#    z 0.033770 0.000000 1.709460 
# 
# From -- ./inp_files/244117.got.cif
#   From: 2010.05.17/outbox.cif.g08.bks.cpg/sg12_123_cif.got.tgz:244117.got - 2010.06.03 13:09:07.
