data_PCOD9186167
_publ_section_title
;
Structure prediction by ZEFSAII (Michael W. Deem and Ramdas Pophale) SiO2 
 PCOD9186167
Probable space group: C 2/M
;
_chemical_formula_sum "Si O2"
_cell_formula_units_Z 48
_cell_length_a 20.045615
_cell_length_b 13.993077
_cell_length_c 9.056209
_cell_angle_alpha 90.000000
_cell_angle_beta 109.481838
_cell_angle_gamma 90.000000
_cell_volume 2394.827974
_symmetry_space_group_name_H-M "C 2/M"
_symmetry_group_IT_number 12
_symmetry_cell_setting 'monoclinic'
loop_
_space_group_symop_operation_xyz
x,y,z
-x,y,-z
-x,-y,-z
x,-y,z
1/2+x,1/2+y,z
1/2-x,1/2+y,-z
1/2-x,1/2-y,-z
1/2+x,1/2-y,z
loop_
_atom_site_type_symbol
_atom_site_label
_atom_site_fract_x
_atom_site_fract_y
_atom_site_fract_z
Si Si1 0.985576 0.110257 0.148738
Si Si2 0.084531 0.319636 0.573776
Si Si3 0.858975 0.755249 0.115973
Si Si4 0.077787 0.895238 0.483000
Si Si5 0.727360 0.772958 0.229573
Si Si6 0.715412 0.108656 0.516195
O O1 0.921162 0.167338 0.170030
O O2 0.056987 0.112012 0.296099
O O3 0.963911 0.000000 0.119701
O O4 0.000000 0.151639 0.000000
O O5 0.110360 0.331267 0.761867
O O6 0.105584 0.209375 0.544729
O O7 0.133135 0.382728 0.504313
O O8 0.000000 0.329894 0.500000
O O9 0.790270 0.789475 0.156964
O O10 0.838706 0.735486 0.931463
O O11 0.000000 0.900620 0.500000
O O12 0.111755 0.000000 0.538496
O O13 0.723173 0.851496 0.355597
O O14 0.743227 0.676435 0.335963
O O15 0.739554 0.000000 0.544640
#
# Coordination Sequence:
#
# PCOD9186167 Si02
#       6
#     8   8   8   8   8   8
#     4  10  20  30  47  82 119 148 179 225 285 340
#     4  10  19  34  59  89 116 156 186 228 290 339
#     4  10  19  36  58  82 115 150 190 234 274 343
#     4   9  16  30  49  79 117 147 180 218 271 340
#     4   9  22  40  60  84 108 151 197 233 289 323
#     4  10  22  42  61  82 115 146 193 246 280 338
#
# _framework density 20.043194
#
# number of rings (size 3 to 8) (size 9 to 14) (size 15 to 20)
#    0.000    2.333    3.333    0.000    2.333    1.667 
#    0.000   13.333    0.000    1.000    0.000    0.000 
#    0.000    0.000    0.000    0.000    0.000    0.000 
#
# Total GULP energy -133657.809776 kJ/mol
# GULP energy per Si atom -5569.075407 kJ/mol
# Density = 1.999757 g / cm^3
# Si number density = 20.043194 Si / 1000 Ang^3
#
#
#
# Elastic Constant Matrix: (Units=GPa)
#
#
# Indices 1 2 3 4 5 6 
#
# 1 58.3719 6.3652 20.2564 0.0000 -6.3436 0.0000
# 2 6.3652 83.0164 17.0519 0.0000 -12.9749 0.0000
# 3 20.2564 17.0519 127.4705 0.0000 -12.3047 0.0000
# 4 0.0000 0.0000 0.0000 38.5658 0.0000 -24.0790
# 5 -6.3436 -12.9749 -12.3047 0.0000 31.1168 0.0000
# 6 0.0000 0.0000 0.0000 -24.0790 0.0000 39.3589
#
#
#
# Elastic Compliance Matrix: (Units=1/GPa)
#
#
# Indices 1 2 3 4 5 6 
#
# 1 0.018363 -0.000479 -0.002612 0.000000 0.002511 0.000000
# 2 -0.000479 0.013093 -0.001204 0.000000 0.004886 0.000000
# 3 -0.002612 -0.001204 0.008651 0.000000 0.002387 0.000000
# 4 0.000000 0.000000 0.000000 0.041956 0.000000 0.025668
# 5 0.002511 0.004886 0.002387 0.000000 0.035630 0.000000
# 6 0.000000 0.000000 0.000000 0.025668 0.000000 0.041110
#
#
# Mechanical properties :
#
#
# Convention : Reuss Voigt Hill
#
# Bulk Modulus (GPa) = 31.72697 39.57842 35.65270
# Shear Modulus (GPa) = 28.10587 36.82065 32.46326
#
# Velocity S-wave (km/s) = 3.74875 4.29075 4.02887
# Velocity P-wave (km/s) = 5.88227 6.65859 6.28243
#
# Compressibility (1/GPa) = 0.03151892
#
# Stress axis : x y z
#
# Youngs Moduli (GPa) = 54.45753 76.37416 115.58849
#
# Poissons Ratio (x) = 0.03659 0.30187
# Poissons Ratio (y) = 0.02609 0.13914
# Poissons Ratio (z) = 0.14222 0.09194
#
# Static dielectric constant tensor:
#      x y z
#    x 1.758980 0.000000 -0.008770 
#    y 0.000000 1.713770 0.000000 
#    z -0.008770 0.000000 1.803120 
# 
# From -- ./inp_files/85966.got.cif
#   From: 2010.05.17/outbox.cif.g08.bks.cpg/sg12_43_cif.got.tgz:85966.got - 2010.06.03 13:09:07.
