data_PCOD9186726
_publ_section_title
;
Structure prediction by ZEFSAII (Michael W. Deem and Ramdas Pophale) SiO2 
 PCOD9186726
Probable space group: C 2/M
;
_chemical_formula_sum "Si O2"
_cell_formula_units_Z 40
_cell_length_a 20.993802
_cell_length_b 9.053046
_cell_length_c 22.126070
_cell_angle_alpha 90.000000
_cell_angle_beta 145.149908
_cell_angle_gamma 90.000000
_cell_volume 2403.001808
_symmetry_space_group_name_H-M "C 2/M"
_symmetry_group_IT_number 12
_symmetry_cell_setting 'monoclinic'
loop_
_space_group_symop_operation_xyz
x,y,z
-x,y,-z
-x,-y,-z
x,-y,z
1/2+x,1/2+y,z
1/2-x,1/2+y,-z
1/2-x,1/2-y,-z
1/2+x,1/2-y,z
loop_
_atom_site_type_symbol
_atom_site_label
_atom_site_fract_x
_atom_site_fract_y
_atom_site_fract_z
Si Si1 0.507866 0.177143 0.577495
Si Si2 0.263121 0.324318 0.218573
Si Si3 0.131553 0.821395 0.227700
Si Si4 0.729450 0.177143 0.548215
Si Si5 0.918610 0.830021 0.995452
O O1 0.500000 0.212560 0.500000
O O2 0.612769 0.260213 0.687467
O O3 0.391663 0.215651 0.518906
O O4 0.524778 0.000000 0.595225
O O5 0.263125 0.500000 0.222338
O O6 0.206644 0.255202 0.234895
O O7 0.185824 0.269776 0.103025
O O8 0.178751 0.781531 0.329859
O O9 0.142303 0.000000 0.228228
O O10 0.002329 0.784233 0.114169
O O11 0.750000 0.250000 0.500000
O O12 0.732971 0.000000 0.544777
O O13 0.883111 0.000000 0.976383
O O14 0.000000 0.827548 0.000000
#
# Coordination Sequence:
#
# PCOD9186726 Si02
#       5
#     8   8   8   8   8
#     4  10  19  35  56  73  99 139 178 209 246 307
#     4  11  20  28  46  78 110 131 161 216 267 298
#     4   9  17  33  52  71  99 139 178 206 244 307
#     4  10  21  36  55  77 103 136 171 212 256 304
#     4   8  15  28  48  70  97 134 173 207 246 305
#
# _framework density 16.645847
#
# number of rings (size 3 to 8) (size 9 to 14) (size 15 to 20)
#    0.000    2.400    2.000    3.000    0.000    5.600 
#    0.000    0.000    0.000    1.200    0.000    0.000 
#    0.000    0.000    0.000    0.000    0.000    0.000 
#
# Total GULP energy -111506.529699 kJ/mol
# GULP energy per Si atom -5575.326485 kJ/mol
# Density = 1.660796 g / cm^3
# Si number density = 16.645847 Si / 1000 Ang^3
#
#
#
# Elastic Constant Matrix: (Units=GPa)
#
#
# Indices 1 2 3 4 5 6 
#
# 1 82.6852 32.2327 65.5969 0.0000 -7.8887 0.0000
# 2 32.2327 45.1089 65.2471 0.0000 1.2860 0.0000
# 3 65.5969 65.2471 190.0459 0.0000 -6.7526 0.0000
# 4 0.0000 0.0000 0.0000 1.7084 0.0000 -6.1435
# 5 -7.8887 1.2860 -6.7526 0.0000 15.9912 0.0000
# 6 0.0000 0.0000 0.0000 -6.1435 0.0000 20.9755
#
#
#
# Elastic Compliance Matrix: (Units=1/GPa)
#
#
# Indices 1 2 3 4 5 6 
#
# 1 0.019022 -0.009548 -0.002972 0.000000 0.008897 0.000000
# 2 -0.009548 0.050489 -0.014569 0.000000 -0.014922 0.000000
# 3 -0.002972 -0.014569 0.011451 0.000000 0.004541 0.000000
# 4 0.000000 0.000000 0.000000-10.990148 0.000000 -3.218918
# 5 0.008897 -0.014922 0.004541 0.000000 0.070041 0.000000
# 6 0.000000 0.000000 0.000000 -3.218918 0.000000 -0.895118
#
#
# Mechanical properties :
#
#
# Convention : Reuss Voigt Hill
#
# Bulk Modulus (GPa) = 37.33313 71.55482 54.44398
# Shear Modulus (GPa) = -0.42841 18.05256 8.81208
#
# Velocity S-wave (km/s) = -0.50786 3.29676 2.30333
# Velocity P-wave (km/s) = 4.70454 7.58758 6.31285
#
# Compressibility (1/GPa) = 0.02678586
#
# Stress axis : x y z
#
# Youngs Moduli (GPa) = 52.56961 19.80623 87.33020
#
# Poissons Ratio (x) = 0.18910 0.25953
# Poissons Ratio (y) = 0.50192 1.27230
# Poissons Ratio (z) = 0.15623 0.28855
#
# Static dielectric constant tensor:
#      x y z
#    x 1.526310 0.000000 -0.005560 
#    y 0.000000 1.551030 0.000000 
#    z -0.005560 0.000000 1.596910 
# 
# From -- ./inp_files/162506.got.cif
#   From: 2010.05.17/outbox.cif.g08.bks.cpg/sg12_82_cif.got.tgz:162506.got - 2010.06.03 13:09:07.
