data_PCOD9186152
_publ_section_title
;
Structure prediction by ZEFSAII (Michael W. Deem and Ramdas Pophale) SiO2 
 PCOD9186152
Probable space group: C 2/M
;
_chemical_formula_sum "Si O2"
_cell_formula_units_Z 56
_cell_length_a 8.278135
_cell_length_b 18.733943
_cell_length_c 22.607995
_cell_angle_alpha 90.000000
_cell_angle_beta 127.326891
_cell_angle_gamma 90.000000
_cell_volume 2788.008547
_symmetry_space_group_name_H-M "C 2/M"
_symmetry_group_IT_number 12
_symmetry_cell_setting 'monoclinic'
loop_
_space_group_symop_operation_xyz
x,y,z
-x,y,-z
-x,-y,-z
x,-y,z
1/2+x,1/2+y,z
1/2-x,1/2+y,-z
1/2-x,1/2-y,-z
1/2+x,1/2-y,z
loop_
_atom_site_type_symbol
_atom_site_label
_atom_site_fract_x
_atom_site_fract_y
_atom_site_fract_z
Si Si1 0.546638 0.145037 0.572278
Si Si2 0.834078 0.580348 0.015217
Si Si3 0.508418 0.347041 0.127159
Si Si4 0.120510 0.697177 0.873025
Si Si5 0.310087 0.319760 0.285664
Si Si6 0.820440 0.715785 0.619310
Si Si7 0.594353 0.583754 0.272844
O O1 0.500000 0.107301 0.500000
O O2 0.673165 0.216154 0.581808
O O3 0.353766 0.171777 0.567075
O O4 0.691014 0.101649 0.648625
O O5 0.846464 0.500000 0.042732
O O6 0.615890 0.594427 0.937088
O O7 0.871058 0.640219 0.072497
O O8 0.000000 0.586122 0.000000
O O9 0.703934 0.322159 0.134054
O O10 0.360893 0.278502 0.101096
O O11 0.568738 0.375922 0.204906
O O12 0.900455 0.694311 0.793635
O O13 0.260702 0.329798 0.343783
O O14 0.461014 0.251387 0.315975
O O15 0.426292 0.383858 0.279810
O O16 0.569354 0.500000 0.258633
#
# Coordination Sequence:
#
# PCOD9186152 Si02
#       7
#     8   8   8   8   8   8   8
#     4  10  19  34  59  88 119 150 188 240 294 351
#     4  11  25  43  61  85 121 160 195 237 291 346
#     4  12  24  41  63  88 118 151 197 246 289 345
#     4  12  23  38  64  92 116 149 193 245 296 339
#     4  10  19  35  58  84 116 147 188 239 288 345
#     4   9  18  34  58  90 117 146 188 239 295 346
#     4  11  24  40  58  81 115 159 198 238 293 351
#
# _framework density 20.086022
#
# number of rings (size 3 to 8) (size 9 to 14) (size 15 to 20)
#    0.000    1.286    0.000    8.571    0.000    3.714 
#    0.000    2.143    0.000    0.857    0.000    0.000 
#    0.000    0.000    0.000    0.000    0.000    0.000 
#
# Total GULP energy -156586.618909 kJ/mol
# GULP energy per Si atom -5592.379247 kJ/mol
# Density = 2.004031 g / cm^3
# Si number density = 20.086022 Si / 1000 Ang^3
#
#
#
# Elastic Constant Matrix: (Units=GPa)
#
#
# Indices 1 2 3 4 5 6 
#
# 1 103.5695 28.6688 13.0982 0.0000 -26.7199 0.0000
# 2 28.6688 106.8908 24.8097 0.0000 -26.2929 0.0000
# 3 13.0982 24.8097 82.5870 0.0000 -21.7065 0.0000
# 4 0.0000 0.0000 0.0000 10.0439 0.0000 -0.3989
# 5 -26.7199 -26.2929 -21.7065 0.0000 35.4950 0.0000
# 6 0.0000 0.0000 0.0000 -0.3989 0.0000 12.6438
#
#
#
# Elastic Compliance Matrix: (Units=1/GPa)
#
#
# Indices 1 2 3 4 5 6 
#
# 1 0.012150 -0.001307 0.000733 0.000000 0.008626 0.000000
# 2 -0.001307 0.011726 -0.001538 0.000000 0.006762 0.000000
# 3 0.000733 -0.001538 0.014655 0.000000 0.008375 0.000000
# 4 0.000000 0.000000 0.000000 0.099688 0.000000 0.003145
# 5 0.008626 0.006762 0.008375 0.000000 0.044797 0.000000
# 6 0.000000 0.000000 0.000000 0.003145 0.000000 0.079190
#
#
# Mechanical properties :
#
#
# Convention : Reuss Voigt Hill
#
# Bulk Modulus (GPa) = 29.14842 47.35562 38.25202
# Shear Modulus (GPa) = 17.99429 26.73457 22.36443
#
# Velocity S-wave (km/s) = 2.99634 3.65225 3.34043
# Velocity P-wave (km/s) = 5.14918 6.43528 5.82782
#
# Compressibility (1/GPa) = 0.03430718
#
# Stress axis : x y z
#
# Youngs Moduli (GPa) = 82.30494 85.27990 68.23421
#
# Poissons Ratio (x) = 0.11145 -0.05001
# Poissons Ratio (y) = 0.10756 0.10495
# Poissons Ratio (z) = -0.06032 0.13117
#
# Static dielectric constant tensor:
#      x y z
#    x 1.709840 0.000000 0.009880 
#    y 0.000000 1.690810 0.000000 
#    z 0.009880 0.000000 1.736980 
# 
# From -- ./inp_files/300870.got.cif
#   From: 2010.05.17/outbox.cif.g08.bks.cpg/sg12_151_cif.got.tgz:300870.got - 2010.06.03 13:09:07.
