data_PCOD9186337
_publ_section_title
;
Structure prediction by ZEFSAII (Michael W. Deem and Ramdas Pophale) SiO2 
 PCOD9186337
Probable space group: C 2/M
;
_chemical_formula_sum "Si O2"
_cell_formula_units_Z 52
_cell_length_a 9.411986
_cell_length_b 16.465293
_cell_length_c 14.185979
_cell_angle_alpha 90.000000
_cell_angle_beta 99.639348
_cell_angle_gamma 90.000000
_cell_volume 2167.378031
_symmetry_space_group_name_H-M "C 2/M"
_symmetry_group_IT_number 12
_symmetry_cell_setting 'monoclinic'
loop_
_space_group_symop_operation_xyz
x,y,z
-x,y,-z
-x,-y,-z
x,-y,z
1/2+x,1/2+y,z
1/2-x,1/2+y,-z
1/2-x,1/2-y,-z
1/2+x,1/2-y,z
loop_
_atom_site_type_symbol
_atom_site_label
_atom_site_fract_x
_atom_site_fract_y
_atom_site_fract_z
Si Si1 0.324202 0.910258 0.025135
Si Si2 0.735888 0.355960 0.602448
Si Si3 0.266545 0.907607 0.814749
Si Si4 0.421367 0.251550 0.145354
Si Si5 0.480906 0.770195 0.356619
Si Si6 0.500000 0.362566 0.000000
Si Si7 0.157959 0.584920 0.567133
O O1 0.148047 0.908984 0.000265
O O2 0.360382 0.000000 0.068639
O O3 0.372557 0.906776 0.919255
O O4 0.359233 0.826985 0.084765
O O5 0.792116 0.400866 0.704130
O O6 0.588185 0.312188 0.613375
O O7 0.730692 0.407084 0.506334
O O8 0.862332 0.291915 0.587406
O O9 0.185739 0.822579 0.829063
O O10 0.201740 0.000000 0.815959
O O11 0.501098 0.226487 0.247802
O O12 0.524771 0.301460 0.088949
O O13 0.362084 0.838824 0.367907
O O14 0.182830 0.500000 0.621734
O O15 0.000000 0.580523 0.500000
#
# Coordination Sequence:
#
# PCOD9186337 Si02
#       7
#     8   8   8   8   8   4   8
#     4  10  21  37  55  83 117 152 195 246 297 351
#     4  10  20  36  59  87 110 152 188 241 284 352
#     4   9  18  34  56  83 111 145 195 242 286 341
#     4  10  22  34  57  81 115 153 193 245 292 347
#     4  10  22  35  59  82 117 146 192 231 295 343
#     4  10  19  34  61  76 112 158 201 236 293 358
#     4   9  18  35  58  85 113 146 189 236 287 346
#
# _framework density 23.992124
#
# number of rings (size 3 to 8) (size 9 to 14) (size 15 to 20)
#    0.000    2.308    0.000    3.000    6.462    1.846 
#    0.000    0.385    0.000    2.769    0.000    0.000 
#    0.000    0.000    0.000    0.000    0.000    0.000 
#
# Total GULP energy -144788.219808 kJ/mol
# GULP energy per Si atom -5568.777685 kJ/mol
# Density = 2.393752 g / cm^3
# Si number density = 23.992124 Si / 1000 Ang^3
#
#
#
# Elastic Constant Matrix: (Units=GPa)
#
#
# Indices 1 2 3 4 5 6 
#
# 1 65.3064 40.6877 0.7527 0.0000 -16.1634 0.0000
# 2 40.6877 142.6925 20.0651 0.0000 -1.6095 0.0000
# 3 0.7527 20.0651 91.2164 0.0000 -23.8735 0.0000
# 4 0.0000 0.0000 0.0000 30.1144 0.0000 -2.5692
# 5 -16.1634 -1.6095 -23.8735 0.0000 28.7743 0.0000
# 6 0.0000 0.0000 0.0000 -2.5692 0.0000 15.7539
#
#
#
# Elastic Compliance Matrix: (Units=1/GPa)
#
#
# Indices 1 2 3 4 5 6 
#
# 1 0.024698 -0.007732 0.006406 0.000000 0.018756 0.000000
# 2 -0.007732 0.009683 -0.003910 0.000000 -0.007046 0.000000
# 3 0.006406 -0.003910 0.016165 0.000000 0.016791 0.000000
# 4 0.000000 0.000000 0.000000 0.033675 0.000000 0.005492
# 5 0.018756 -0.007046 0.016791 0.000000 0.058826 0.000000
# 6 0.000000 0.000000 0.000000 0.005492 0.000000 0.064372
#
#
# Mechanical properties :
#
#
# Convention : Reuss Voigt Hill
#
# Bulk Modulus (GPa) = 24.95416 46.91402 35.93409
# Shear Modulus (GPa) = 21.62173 30.77584 26.19878
#
# Velocity S-wave (km/s) = 3.00526 3.58543 3.30809
# Velocity P-wave (km/s) = 4.73980 6.06109 5.44070
#
# Compressibility (1/GPa) = 0.04007348
#
# Stress axis : x y z
#
# Youngs Moduli (GPa) = 40.48976 103.27333 61.86239
#
# Poissons Ratio (x) = 0.79846 -0.39627
# Poissons Ratio (y) = 0.31305 0.24190
# Poissons Ratio (z) = -0.25937 0.40382
#
# Static dielectric constant tensor:
#      x y z
#    x 1.972490 0.000000 -0.008000 
#    y 0.000000 1.959620 0.000000 
#    z -0.008000 0.000000 1.968000 
# 
# From -- ./inp_files/205670.got.cif
#   From: 2010.05.17/outbox.cif.g08.bks.cpg/sg12_103_cif.got.tgz:205670.got - 2010.06.03 13:09:07.
