data_PCOD9186580
_publ_section_title
;
Structure prediction by ZEFSAII (Michael W. Deem and Ramdas Pophale) SiO2 
 PCOD9186580
Probable space group: C 2/M
;
_chemical_formula_sum "Si O2"
_cell_formula_units_Z 44
_cell_length_a 23.226238
_cell_length_b 13.868609
_cell_length_c 7.331984
_cell_angle_alpha 90.000000
_cell_angle_beta 118.616014
_cell_angle_gamma 90.000000
_cell_volume 2073.257174
_symmetry_space_group_name_H-M "C 2/M"
_symmetry_group_IT_number 12
_symmetry_cell_setting 'monoclinic'
loop_
_space_group_symop_operation_xyz
x,y,z
-x,y,-z
-x,-y,-z
x,-y,z
1/2+x,1/2+y,z
1/2-x,1/2+y,-z
1/2-x,1/2-y,-z
1/2+x,1/2-y,z
loop_
_atom_site_type_symbol
_atom_site_label
_atom_site_fract_x
_atom_site_fract_y
_atom_site_fract_z
Si Si1 0.000000 0.753994 0.000000
Si Si2 0.349107 0.222793 0.245230
Si Si3 0.733010 0.891182 0.366493
Si Si4 0.038023 0.607513 0.748636
Si Si5 0.225029 0.109843 0.997266
Si Si6 0.360778 0.719355 0.665587
O O1 0.070408 0.806253 0.133448
O O2 0.992701 0.683135 0.160786
O O3 0.391334 0.146281 0.201059
O O4 0.335582 0.316761 0.101296
O O5 0.377526 0.258763 0.478961
O O6 0.281474 0.167387 0.188774
O O7 0.751011 0.891240 0.178388
O O8 0.674002 0.816529 0.311194
O O9 0.800504 0.856728 0.567833
O O10 0.715420 0.000000 0.394070
O O11 0.040393 0.500000 0.830288
O O12 0.000000 0.604765 0.500000
O O13 0.214216 0.000000 0.038229
#
# Coordination Sequence:
#
# PCOD9186580 Si02
#       6
#     4   8   8   8   8   8
#     4  12  23  40  59  84 122 156 189 234 291 350
#     4  10  19  35  54  81 116 146 187 237 284 338
#     4   9  19  37  58  81 113 151 195 239 285 342
#     4  11  23  38  56  81 113 150 188 228 280 343
#     4   9  18  33  57  82 108 147 190 235 286 338
#     4  10  21  35  56  85 115 154 191 236 290 340
#
# _framework density 21.222646000000001
#
# number of rings (size 3 to 8) (size 9 to 14) (size 15 to 20)
#    0.000    2.000    1.818    1.909    0.000    5.818 
#    0.000    0.455    0.000    1.636    0.000    0.000 
#    0.000    0.000    0.000    0.000    0.000    0.000 
#
# Total GULP energy -122864.064934 kJ/mol
# GULP energy per Si atom -5584.730224 kJ/mol
# Density = 2.117434 g / cm^3
# Si number density = 21.222646 Si / 1000 Ang^3
#
#
#
# Elastic Constant Matrix: (Units=GPa)
#
#
# Indices 1 2 3 4 5 6 
#
# 1 45.9385 -19.0967 20.4789 0.0000 9.9544 0.0000
# 2 -19.0967 69.7405 26.7458 0.0000 12.7497 0.0000
# 3 20.4789 26.7458 96.4043 0.0000 28.3076 0.0000
# 4 0.0000 0.0000 0.0000 2.5980 0.0000 -13.7058
# 5 9.9544 12.7497 28.3076 0.0000 33.4887 0.0000
# 6 0.0000 0.0000 0.0000 -13.7058 0.0000 11.9086
#
#
#
# Elastic Compliance Matrix: (Units=1/GPa)
#
#
# Indices 1 2 3 4 5 6 
#
# 1 0.032962 0.013720 -0.008510 0.000000 -0.007828 0.000000
# 2 0.013720 0.022006 -0.007133 0.000000 -0.006427 0.000000
# 3 -0.008510 -0.007133 0.016786 0.000000 -0.008944 0.000000
# 4 0.000000 0.000000 0.000000 -0.075895 0.000000 -0.087348
# 5 -0.007828 -0.006427 -0.008944 0.000000 0.042195 0.000000
# 6 0.000000 0.000000 0.000000 -0.087348 0.000000 -0.016557
#
#
# Mechanical properties :
#
#
# Convention : Reuss Voigt Hill
#
# Bulk Modulus (GPa) = 14.72545 29.81548 22.27046
# Shear Modulus (GPa) = 104.21672 21.86277 63.03974
#
# Velocity S-wave (km/s) = 7.01520 3.21310 5.45605
# Velocity P-wave (km/s) = 8.51886 5.27681 7.08575
#
# Compressibility (1/GPa) = 0.06790966
#
# Stress axis : x y z
#
# Youngs Moduli (GPa) = 30.33825 45.44162 59.57457
#
# Poissons Ratio (x) = -0.62348 0.50697
# Poissons Ratio (y) = -0.41625 0.42492
# Poissons Ratio (z) = 0.25817 0.32411
#
# Static dielectric constant tensor:
#      x y z
#    x 1.825150 0.000000 -0.002850 
#    y 0.000000 1.743470 0.000000 
#    z -0.002850 0.000000 1.851310 
# 
# From -- ./inp_files/96599.got.cif
#   From: 2010.05.17/outbox.cif.g08.bks.cpg/sg12_49_cif.got.tgz:96599.got - 2010.06.03 13:09:07.
