data_PCOD9186377
_publ_section_title
;
Structure prediction by ZEFSAII (Michael W. Deem and Ramdas Pophale) SiO2 
 PCOD9186377
Probable space group: C 2/M
;
_chemical_formula_sum "Si O2"
_cell_formula_units_Z 64
_cell_length_a 28.759688
_cell_length_b 20.317071
_cell_length_c 11.482490
_cell_angle_alpha 90.000000
_cell_angle_beta 28.849619
_cell_angle_gamma 90.000000
_cell_volume 3237.351174
_symmetry_space_group_name_H-M "C 2/M"
_symmetry_group_IT_number 12
_symmetry_cell_setting 'monoclinic'
loop_
_space_group_symop_operation_xyz
x,y,z
-x,y,-z
-x,-y,-z
x,-y,z
1/2+x,1/2+y,z
1/2-x,1/2+y,-z
1/2-x,1/2-y,-z
1/2+x,1/2-y,z
loop_
_atom_site_type_symbol
_atom_site_label
_atom_site_fract_x
_atom_site_fract_y
_atom_site_fract_z
Si Si1 0.764605 0.070546 0.849026
Si Si2 0.084250 0.101130 0.653108
Si Si3 0.830951 0.304798 0.844580
Si Si4 0.944735 0.243153 0.237797
Si Si5 0.635100 0.573685 0.806187
Si Si6 0.208934 0.677942 0.550222
Si Si7 0.627659 0.923777 0.923483
Si Si8 0.519112 0.183698 0.276215
O O1 0.871691 0.074907 0.562602
O O2 0.704668 0.074348 0.859407
O O3 0.746643 0.000000 0.943451
O O4 0.728368 0.128115 0.009783
O O5 0.108433 0.178705 0.600808
O O6 0.125744 0.074770 0.685000
O O7 0.970929 0.087620 0.911408
O O8 0.895980 0.298776 0.819527
O O9 0.914288 0.308732 0.564388
O O10 0.750000 0.250000 0.000000
O O11 0.873654 0.301888 0.359526
O O12 0.020760 0.266651 0.165118
O O13 0.000000 0.222293 0.000000
O O14 0.667290 0.500000 0.768141
O O15 0.705490 0.632737 0.686219
O O16 0.250000 0.750000 0.500000
O O17 0.163052 0.629106 0.749148
O O18 0.614453 0.000000 0.912573
O O19 0.536549 0.889163 0.186031
#
# Coordination Sequence:
#
# PCOD9186377 Si02
#       8
#     8   8   8   8   8   8   8   8
#     4  10  19  34  61  92 122 159 208 263 318 379
#     4  11  19  34  54  87 125 161 214 262 314 375
#     4  10  22  43  66  96 121 160 215 273 328 372
#     4  12  21  37  58  93 127 168 209 254 321 386
#     4  11  21  33  52  82 124 170 212 254 307 378
#     4  12  21  35  54  83 128 166 209 252 307 375
#     4  10  20  35  58  87 124 170 211 257 314 377
#     4  10  23  41  64  91 129 162 212 267 320 388
#
# _framework density 19.769248000000001
#
# number of rings (size 3 to 8) (size 9 to 14) (size 15 to 20)
#    0.000    1.250    5.000    2.625    0.000    1.500 
#    0.000    4.375    0.000    0.000    0.000    2.625 
#    0.000    0.000    0.000    0.000    0.000    0.000 
#
# Total GULP energy -178481.009411 kJ/mol
# GULP energy per Si atom -5577.531544 kJ/mol
# Density = 1.972425 g / cm^3
# Si number density = 19.769248 Si / 1000 Ang^3
#
#
#
# Elastic Constant Matrix: (Units=GPa)
#
#
# Indices 1 2 3 4 5 6 
#
# 1 29.6679 36.3679 14.1760 0.0000 0.4389 0.0000
# 2 36.3679 181.7415 49.8904 0.0000 -5.0395 0.0000
# 3 14.1760 49.8904 98.5368 0.0000 -10.6206 0.0000
# 4 0.0000 0.0000 0.0000 21.9842 0.0000 9.0461
# 5 0.4389 -5.0395 -10.6206 0.0000 19.8341 0.0000
# 6 0.0000 0.0000 0.0000 9.0461 0.0000 7.0817
#
#
#
# Elastic Compliance Matrix: (Units=1/GPa)
#
#
# Indices 1 2 3 4 5 6 
#
# 1 0.045477 -0.008473 -0.002752 0.000000 -0.004633 0.000000
# 2 -0.008473 0.007970 -0.002735 0.000000 0.000748 0.000000
# 3 -0.002752 -0.002735 0.012588 0.000000 0.006106 0.000000
# 4 0.000000 0.000000 0.000000 0.095889 0.000000 -0.122489
# 5 -0.004633 0.000748 0.006106 0.000000 0.053980 0.000000
# 6 0.000000 0.000000 0.000000 -0.122489 0.000000 0.297677
#
#
# Mechanical properties :
#
#
# Convention : Reuss Voigt Hill
#
# Bulk Modulus (GPa) = 26.23792 56.75719 41.49756
# Shear Modulus (GPa) = 9.02192 23.74747 16.38469
#
# Velocity S-wave (km/s) = 2.13858 3.46964 2.88201
# Velocity P-wave (km/s) = 4.40442 6.69503 5.66667
#
# Compressibility (1/GPa) = 0.03811278
#
# Stress axis : x y z
#
# Youngs Moduli (GPa) = 21.98926 125.47746 79.44380
#
# Poissons Ratio (x) = 1.06321 0.21861
# Poissons Ratio (y) = 0.18632 0.21732
# Poissons Ratio (z) = 0.06051 0.34324
#
# Static dielectric constant tensor:
#      x y z
#    x 1.692900 0.000000 -0.012730 
#    y 0.000000 1.712440 0.000000 
#    z -0.012730 0.000000 1.751320 
# 
# From -- ./inp_files/190024.got.cif
#   From: 2010.05.17/outbox.cif.g08.bks.cpg/sg12_96_cif.got.tgz:190024.got - 2010.06.03 13:09:07.
