data_PCOD9186696
_publ_section_title
;
Structure prediction by ZEFSAII (Michael W. Deem and Ramdas Pophale) SiO2 
 PCOD9186696
Probable space group: C 2/M
;
_chemical_formula_sum "Si O2"
_cell_formula_units_Z 56
_cell_length_a 16.682160
_cell_length_b 14.935683
_cell_length_c 11.911976
_cell_angle_alpha 90.000000
_cell_angle_beta 96.423401
_cell_angle_gamma 90.000000
_cell_volume 2949.349362
_symmetry_space_group_name_H-M "C 2/M"
_symmetry_group_IT_number 12
_symmetry_cell_setting 'monoclinic'
loop_
_space_group_symop_operation_xyz
x,y,z
-x,y,-z
-x,-y,-z
x,-y,z
1/2+x,1/2+y,z
1/2-x,1/2+y,-z
1/2-x,1/2-y,-z
1/2+x,1/2-y,z
loop_
_atom_site_type_symbol
_atom_site_label
_atom_site_fract_x
_atom_site_fract_y
_atom_site_fract_z
Si Si1 0.026679 0.762296 0.283155
Si Si2 0.541232 0.895681 0.884260
Si Si3 0.266133 0.599535 0.491617
Si Si4 0.858539 0.218650 0.326623
Si Si5 0.214903 0.306704 0.892341
Si Si6 0.336309 0.396181 0.751124
Si Si7 0.086955 0.644275 0.493511
O O1 0.089831 0.827507 0.234781
O O2 0.065598 0.723658 0.403390
O O3 0.003335 0.676022 0.203713
O O4 0.945777 0.817294 0.302300
O O5 0.633013 0.860228 0.907525
O O6 0.538685 0.000000 0.844304
O O7 0.500000 0.892784 0.000000
O O8 0.296200 0.500000 0.471109
O O9 0.309162 0.666869 0.413403
O O10 0.290177 0.619285 0.624560
O O11 0.169041 0.600009 0.463578
O O12 0.806099 0.236301 0.209526
O O13 0.885375 0.313440 0.384452
O O14 0.278062 0.374015 0.845353
O O15 0.250000 0.250000 0.000000
O O16 0.360710 0.500000 0.756605
O O17 0.000000 0.598178 0.500000
#
# Coordination Sequence:
#
# PCOD9186696 Si02
#       7
#     8   8   8   8   8   8   8
#     4  10  21  36  62  89 121 165 203 248 311 365
#     4  10  22  41  63  89 123 159 207 262 312 372
#     4  11  22  35  56  87 123 159 199 250 309 368
#     4  10  20  38  59  84 120 159 205 251 301 361
#     4  11  22  39  64  87 115 166 212 251 313 377
#     4  11  22  37  60  91 124 159 204 252 303 370
#     4  10  19  35  55  82 115 154 198 245 303 363
#
# _framework density 18.987238999999999
#
# number of rings (size 3 to 8) (size 9 to 14) (size 15 to 20)
#    0.000    1.571    2.857    2.571    0.000    1.429 
#    0.000    4.286    0.000    9.000    0.000    0.000 
#    0.000    0.000    0.000    0.000    0.000    0.000 
#
# Total GULP energy -156154.179001 kJ/mol
# GULP energy per Si atom -5576.934964 kJ/mol
# Density = 1.894402 g / cm^3
# Si number density = 18.987239 Si / 1000 Ang^3
#
#
#
# Elastic Constant Matrix: (Units=GPa)
#
#
# Indices 1 2 3 4 5 6 
#
# 1 122.6721 71.5285 35.8244 0.0000 -12.6415 0.0000
# 2 71.5285 102.5564 49.8044 0.0000 -3.3338 0.0000
# 3 35.8244 49.8044 106.2403 0.0000 4.9697 0.0000
# 4 0.0000 0.0000 0.0000 11.1411 0.0000 12.4865
# 5 -12.6415 -3.3338 4.9697 0.0000 36.1967 0.0000
# 6 0.0000 0.0000 0.0000 12.4865 0.0000 -7.3149
#
#
#
# Elastic Compliance Matrix: (Units=1/GPa)
#
#
# Indices 1 2 3 4 5 6 
#
# 1 0.014342 -0.009610 -0.000527 0.000000 0.004196 0.000000
# 2 -0.009610 0.019209 -0.005727 0.000000 -0.000801 0.000000
# 3 -0.000527 -0.005727 0.012388 0.000000 -0.002412 0.000000
# 4 0.000000 0.000000 0.000000 0.030811 0.000000 0.052595
# 5 0.004196 -0.000801 -0.002412 0.000000 0.029350 0.000000
# 6 0.000000 0.000000 0.000000 0.052595 0.000000 -0.046928
#
#
# Mechanical properties :
#
#
# Convention : Reuss Voigt Hill
#
# Bulk Modulus (GPa) = 70.37373 71.75370 71.06372
# Shear Modulus (GPa) = 52.28105 19.62532 35.95319
#
# Velocity S-wave (km/s) = 5.25306 3.21846 4.35621
# Velocity P-wave (km/s) = 8.59866 7.18915 7.92530
#
# Compressibility (1/GPa) = 0.01420985
#
# Stress axis : x y z
#
# Youngs Moduli (GPa) = 69.72591 52.06003 80.72446
#
# Poissons Ratio (x) = 0.50032 0.04255
# Poissons Ratio (y) = 0.67010 0.46228
# Poissons Ratio (z) = 0.03675 0.29813
#
# Static dielectric constant tensor:
#      x y z
#    x 1.704160 0.000000 -0.015880 
#    y 0.000000 1.648780 0.000000 
#    z -0.015880 0.000000 1.651910 
# 
# From -- ./inp_files/143760.got.cif
#   From: 2010.05.17/outbox.cif.g08.bks.cpg/sg12_72_cif.got.tgz:143760.got - 2010.06.03 13:09:07.
