data_PCOD9186147
_publ_section_title
;
Structure prediction by ZEFSAII (Michael W. Deem and Ramdas Pophale) SiO2 
 PCOD9186147
Probable space group: C 2/M
;
_chemical_formula_sum "Si O2"
_cell_formula_units_Z 64
_cell_length_a 22.042797
_cell_length_b 7.724370
_cell_length_c 22.457913
_cell_angle_alpha 90.000000
_cell_angle_beta 52.339395
_cell_angle_gamma 90.000000
_cell_volume 3027.115471
_symmetry_space_group_name_H-M "C 2/M"
_symmetry_group_IT_number 12
_symmetry_cell_setting 'monoclinic'
loop_
_space_group_symop_operation_xyz
x,y,z
-x,y,-z
-x,-y,-z
x,-y,z
1/2+x,1/2+y,z
1/2-x,1/2+y,-z
1/2-x,1/2-y,-z
1/2+x,1/2-y,z
loop_
_atom_site_type_symbol
_atom_site_label
_atom_site_fract_x
_atom_site_fract_y
_atom_site_fract_z
Si Si1 0.774029 0.198141 0.667365
Si Si2 0.798359 0.794616 0.411430
Si Si3 0.231331 0.801061 0.818565
Si Si4 0.082292 0.788067 0.977340
Si Si5 0.540790 0.289076 0.634199
Si Si6 0.387318 0.703498 0.787578
Si Si7 0.658985 0.291249 0.055553
Si Si8 0.918443 0.201174 0.518780
O O1 0.731530 0.204818 0.629889
O O2 0.733268 0.290478 0.746242
O O3 0.856391 0.277738 0.600729
O O4 0.783760 0.000000 0.682004
O O5 0.750000 0.750000 0.500000
O O6 0.887631 0.753866 0.366420
O O7 0.790422 0.000000 0.407727
O O8 0.152229 0.731457 0.892705
O O9 0.308210 0.718081 0.798910
O O10 0.235780 0.000000 0.835263
O O11 0.079287 0.000000 0.979729
O O12 0.110327 0.733079 0.026832
O O13 0.000000 0.731030 0.000000
O O14 0.534334 0.500000 0.630919
O O15 0.459822 0.224603 0.707492
O O16 0.568623 0.219914 0.553580
O O17 0.403988 0.500000 0.785257
O O18 0.374646 0.775586 0.861563
O O19 0.654490 0.500000 0.058340
O O20 0.750000 0.250000 0.000000
O O21 0.000000 0.198291 0.500000
O O22 0.892826 0.000000 0.525230
#
# Coordination Sequence:
#
# PCOD9186147 Si02
#       8
#     8   8   8   8   8   8   8   8
#     4  11  22  37  58  82 112 153 197 238 287 350
#     4  11  21  37  59  82 113 153 197 241 289 343
#     4  11  22  37  58  86 119 152 189 243 302 347
#     4   9  19  36  59  86 119 158 200 242 288 352
#     4   9  18  33  54  83 111 144 191 235 276 336
#     4  10  20  35  60  88 114 149 196 243 287 346
#     4  10  19  34  59  88 115 152 194 238 291 349
#     4   9  16  29  52  77 103 140 185 228 270 324
#
# _framework density 21.142239
#
# number of rings (size 3 to 8) (size 9 to 14) (size 15 to 20)
#    0.000    2.000    2.500    1.875    0.000    3.000 
#    0.000    5.000    0.000    6.375    0.000    0.000 
#    0.000    0.000    0.000    0.000    0.000    0.000 
#
# Total GULP energy -178558.504889 kJ/mol
# GULP energy per Si atom -5579.953278 kJ/mol
# Density = 2.109412 g / cm^3
# Si number density = 21.142239 Si / 1000 Ang^3
#
#
#
# Elastic Constant Matrix: (Units=GPa)
#
#
# Indices 1 2 3 4 5 6 
#
# 1 114.2608 5.4706 50.8672 0.0003 -3.4553 -0.0021
# 2 5.4706 35.5549 3.0880 0.0025 -2.9283 -0.0046
# 3 50.8672 3.0880 110.3560 0.0008 -0.8712 0.0001
# 4 0.0003 0.0025 0.0008 18.4170 -0.0005 -3.9923
# 5 -3.4553 -2.9283 -0.8712 -0.0005 40.2690 0.0001
# 6 -0.0021 -0.0046 0.0001 -3.9923 0.0001 21.7667
#
#
#
# Elastic Compliance Matrix: (Units=1/GPa)
#
#
# Indices 1 2 3 4 5 6 
#
# 1 0.011091 -0.001204 -0.005072 0.000000 0.000754 0.000001
# 2 -0.001204 0.028492 -0.000227 -0.000003 0.001964 0.000005
# 3 -0.005072 -0.000227 0.011404 -0.000001 -0.000205 -0.000001
# 4 0.000000 -0.000003 -0.000001 0.056546 0.000001 0.010371
# 5 0.000754 0.001964 -0.000205 0.000001 0.025036 0.000001
# 6 0.000001 0.000005 -0.000001 0.010371 0.000001 0.047844
#
#
# Mechanical properties :
#
#
# Convention : Reuss Voigt Hill
#
# Bulk Modulus (GPa) = 26.32902 42.11370 34.22136
# Shear Modulus (GPa) = 24.26251 29.47359 26.86805
#
# Velocity S-wave (km/s) = 3.39128 3.73776 3.56873
# Velocity P-wave (km/s) = 5.27396 6.21211 5.76216
#
# Compressibility (1/GPa) = 0.03798091
#
# Stress axis : x y z
#
# Youngs Moduli (GPa) = 90.16714 35.09739 87.68565
#
# Poissons Ratio (x) = 0.04225 0.44478
# Poissons Ratio (y) = 0.10854 0.01990
# Poissons Ratio (z) = 0.45736 0.00796
#
# Static dielectric constant tensor:
#      x y z
#    x 1.753430 0.000000 0.007930 
#    y 0.000000 1.808880 0.000000 
#    z 0.007930 0.000000 1.777570 
# 
# From -- ./inp_files/324123.got.cif
#   From: 2010.05.17/outbox.cif.g08.bks.cpg/sg12_163_cif.got.tgz:324123.got - 2010.06.03 13:09:07.
