data_PCOD9186347
_publ_section_title
;
Structure prediction by ZEFSAII (Michael W. Deem and Ramdas Pophale) SiO2 
 PCOD9186347
Probable space group: C 2/M
;
_chemical_formula_sum "Si O2"
_cell_formula_units_Z 56
_cell_length_a 11.034369
_cell_length_b 28.202726
_cell_length_c 11.313711
_cell_angle_alpha 90.000000
_cell_angle_beta 49.216705
_cell_angle_gamma 90.000000
_cell_volume 2665.913044
_symmetry_space_group_name_H-M "C 2/M"
_symmetry_group_IT_number 12
_symmetry_cell_setting 'monoclinic'
loop_
_space_group_symop_operation_xyz
x,y,z
-x,y,-z
-x,-y,-z
x,-y,z
1/2+x,1/2+y,z
1/2-x,1/2+y,-z
1/2-x,1/2-y,-z
1/2+x,1/2-y,z
loop_
_atom_site_type_symbol
_atom_site_label
_atom_site_fract_x
_atom_site_fract_y
_atom_site_fract_z
Si Si1 0.620594 0.051628 0.813704
Si Si2 0.128666 0.100557 0.193456
Si Si3 0.190060 0.054168 0.908123
Si Si4 0.830740 0.189856 0.677511
Si Si5 0.724809 0.614420 0.661467
Si Si6 0.651627 0.202074 0.312011
Si Si7 0.933594 0.360272 0.310905
O O1 0.792647 0.066948 0.757282
O O2 0.553066 0.093543 0.777327
O O3 0.630605 0.000000 0.749579
O O4 0.500000 0.048723 0.000000
O O5 0.169136 0.153185 0.213643
O O6 0.937604 0.098132 0.298714
O O7 0.198981 0.083990 0.022972
O O8 0.262312 0.080407 0.748108
O O9 0.246987 0.000000 0.888294
O O10 0.000000 0.052091 0.000000
O O11 0.802224 0.243740 0.735629
O O12 0.697501 0.172853 0.669453
O O13 0.000000 0.186380 0.500000
O O14 0.712067 0.668259 0.719951
O O15 0.863000 0.619231 0.477793
O O16 0.500000 0.204217 0.500000
O O17 0.583430 0.173028 0.244212
#
# Coordination Sequence:
#
# PCOD9186347 Si02
#       7
#     8   8   8   8   8   8   8
#     4  10  23  41  63  85 116 162 198 241 304 363
#     4  10  20  36  61  87 115 153 201 246 293 354
#     4   9  19  35  56  81 112 151 189 234 299 357
#     4  10  19  34  61  87 117 159 197 248 299 350
#     4  10  20  36  59  88 122 149 193 255 294 345
#     4   9  21  34  57  89 120 160 196 236 303 364
#     4  10  21  38  60  91 124 153 201 251 294 355
#
# _framework density 21.005936999999999
#
# number of rings (size 3 to 8) (size 9 to 14) (size 15 to 20)
#    0.000    2.286    1.429    0.429    4.000    2.857 
#    0.000    1.429    0.000    2.571    0.000    0.000 
#    0.000    0.000    0.000    0.000    0.000    0.000 
#
# Total GULP energy -156290.045635 kJ/mol
# GULP energy per Si atom -5581.787344 kJ/mol
# Density = 2.095813 g / cm^3
# Si number density = 21.005937 Si / 1000 Ang^3
#
#
#
# Elastic Constant Matrix: (Units=GPa)
#
#
# Indices 1 2 3 4 5 6 
#
# 1 85.8135 42.5741 20.7865 0.0000 0.7077 0.0000
# 2 42.5741 183.0073 51.2091 0.0000 17.2202 0.0000
# 3 20.7865 51.2091 47.9193 0.0000 18.2710 0.0000
# 4 0.0000 0.0000 0.0000 36.1563 0.0000 -25.3149
# 5 0.7077 17.2202 18.2710 0.0000 32.7163 0.0000
# 6 0.0000 0.0000 0.0000 -25.3149 0.0000 109.1724
#
#
#
# Elastic Compliance Matrix: (Units=1/GPa)
#
#
# Indices 1 2 3 4 5 6 
#
# 1 0.013939 -0.002146 -0.005170 0.000000 0.003715 0.000000
# 2 -0.002146 0.008138 -0.007815 0.000000 0.000127 0.000000
# 3 -0.005170 -0.007815 0.037928 0.000000 -0.016956 0.000000
# 4 0.000000 0.000000 0.000000 0.033018 0.000000 0.007656
# 5 0.003715 0.000127 -0.016956 0.000000 0.039888 0.000000
# 6 0.000000 0.000000 0.000000 0.007656 0.000000 0.010935
#
#
# Mechanical properties :
#
#
# Convention : Reuss Voigt Hill
#
# Bulk Modulus (GPa) = 33.62019 60.65327 47.13673
# Shear Modulus (GPa) = 27.17062 49.08702 38.12882
#
# Velocity S-wave (km/s) = 3.60039 4.83931 4.26507
# Velocity P-wave (km/s) = 5.77266 7.75643 6.83688
#
# Compressibility (1/GPa) = 0.02974403
#
# Stress axis : x y z
#
# Youngs Moduli (GPa) = 71.73885 122.87836 26.36607
#
# Poissons Ratio (x) = 0.26365 0.13632
# Poissons Ratio (y) = 0.15393 0.20604
# Poissons Ratio (z) = 0.37091 0.96024
#
# Static dielectric constant tensor:
#      x y z
#    x 1.796800 0.000000 -0.005840 
#    y 0.000000 1.761430 0.000000 
#    z -0.005840 0.000000 1.750100 
# 
# From -- ./inp_files/136903.got.cif
#   From: 2010.05.17/outbox.cif.g08.bks.cpg/sg12_69_cif.got.tgz:136903.got - 2010.06.03 13:09:07.
