data_PCOD9186649
_publ_section_title
;
Structure prediction by ZEFSAII (Michael W. Deem and Ramdas Pophale) SiO2 
 PCOD9186649
Probable space group: C 2/M
;
_chemical_formula_sum "Si O2"
_cell_formula_units_Z 56
_cell_length_a 9.411404
_cell_length_b 20.478854
_cell_length_c 16.957033
_cell_angle_alpha 90.000000
_cell_angle_beta 121.828134
_cell_angle_gamma 90.000000
_cell_volume 2776.781663
_symmetry_space_group_name_H-M "C 2/M"
_symmetry_group_IT_number 12
_symmetry_cell_setting 'monoclinic'
loop_
_space_group_symop_operation_xyz
x,y,z
-x,y,-z
-x,-y,-z
x,-y,z
1/2+x,1/2+y,z
1/2-x,1/2+y,-z
1/2-x,1/2-y,-z
1/2+x,1/2-y,z
loop_
_atom_site_type_symbol
_atom_site_label
_atom_site_fract_x
_atom_site_fract_y
_atom_site_fract_z
Si Si1 0.532226 0.368072 0.177961
Si Si2 0.167580 0.194261 0.591289
Si Si3 0.760288 0.200879 0.885330
Si Si4 0.808474 0.423722 0.363919
Si Si5 0.509729 0.739903 0.701630
Si Si6 0.319750 0.847472 0.965783
Si Si7 0.807896 0.579043 0.540745
O O1 0.590019 0.337755 0.111987
O O2 0.670816 0.414585 0.256287
O O3 0.532801 0.309863 0.241306
O O4 0.339866 0.388300 0.110887
O O5 0.334335 0.233799 0.618547
O O6 0.204372 0.120529 0.573639
O O7 0.000000 0.218349 0.500000
O O8 0.126146 0.205620 0.670877
O O9 0.616361 0.204302 0.776829
O O10 0.808996 0.275789 0.920272
O O11 0.698560 0.167648 0.947038
O O12 0.832941 0.500000 0.384539
O O13 0.755619 0.399736 0.436007
O O14 0.995383 0.400929 0.396820
O O15 0.500000 0.876277 0.000000
O O16 0.790736 0.500000 0.545475
#
# Coordination Sequence:
#
# PCOD9186649 Si02
#       7
#     8   8   8   8   8   8   8
#     4  11  20  35  57  85 116 152 197 237 298 356
#     4  12  24  38  53  84 126 165 197 239 298 357
#     4  10  19  35  55  78 116 155 198 232 281 360
#     4   9  19  39  65  87 109 150 203 254 292 345
#     4  11  23  36  53  84 124 167 192 237 294 365
#     4  10  20  32  54  84 116 153 189 238 288 353
#     4   9  20  40  65  87 112 154 212 259 289 330
#
# _framework density 20.167231999999998
#
# number of rings (size 3 to 8) (size 9 to 14) (size 15 to 20)
#    0.000    1.714    1.429    6.000    2.000    0.286 
#    0.000    0.714    0.000    2.143    0.000    0.000 
#    0.000    0.000    0.000    0.143    0.000    0.000 
#
# Total GULP energy -156260.070253 kJ/mol
# GULP energy per Si atom -5580.716795 kJ/mol
# Density = 2.012133 g / cm^3
# Si number density = 20.167232 Si / 1000 Ang^3
#
#
#
# Elastic Constant Matrix: (Units=GPa)
#
#
# Indices 1 2 3 4 5 6 
#
# 1 122.0478 30.7723 56.3091 0.0000 6.0545 0.0000
# 2 30.7723 29.0690 19.5842 0.0000 -8.1383 0.0000
# 3 56.3091 19.5842 117.6106 0.0000 6.4389 0.0000
# 4 0.0000 0.0000 0.0000 17.7360 0.0000 2.1468
# 5 6.0545 -8.1383 6.4389 0.0000 34.5453 0.0000
# 6 0.0000 0.0000 0.0000 2.1468 0.0000 19.7189
#
#
#
# Elastic Compliance Matrix: (Units=1/GPa)
#
#
# Indices 1 2 3 4 5 6 
#
# 1 0.013567 -0.012909 -0.004091 0.000000 -0.004656 0.000000
# 2 -0.012909 0.055153 -0.003878 0.000000 0.015978 0.000000
# 3 -0.004091 -0.003878 0.011232 0.000000 -0.002290 0.000000
# 4 0.000000 0.000000 0.000000 0.057135 0.000000 -0.006220
# 5 -0.004656 0.015978 -0.002290 0.000000 0.033955 0.000000
# 6 0.000000 0.000000 0.000000 -0.006220 0.000000 0.051390
#
#
# Mechanical properties :
#
#
# Convention : Reuss Voigt Hill
#
# Bulk Modulus (GPa) = 26.18114 53.56206 39.87160
# Shear Modulus (GPa) = 18.05576 25.20415 21.62996
#
# Velocity S-wave (km/s) = 2.99541 3.53903 3.27850
# Velocity P-wave (km/s) = 4.99735 6.58151 5.84336
#
# Compressibility (1/GPa) = 0.03819543
#
# Stress axis : x y z
#
# Youngs Moduli (GPa) = 73.70955 18.13153 89.02824
#
# Poissons Ratio (x) = 0.23406 0.36420
# Poissons Ratio (y) = 0.95153 0.34525
# Poissons Ratio (z) = 0.30154 0.07031
#
# Static dielectric constant tensor:
#      x y z
#    x 1.763360 0.000000 0.051160 
#    y 0.000000 1.713530 0.000000 
#    z 0.051160 0.000000 1.784520 
# 
# From -- ./inp_files/198971.got.cif
#   From: 2010.05.17/outbox.cif.g08.bks.cpg/sg12_100_cif.got.tgz:198971.got - 2010.06.03 13:09:07.
