data_PCOD9186848
_publ_section_title
;
Structure prediction by ZEFSAII (Michael W. Deem and Ramdas Pophale) SiO2 
 PCOD9186848
Probable space group: C 2/M
;
_chemical_formula_sum "Si O2"
_cell_formula_units_Z 40
_cell_length_a 12.775390
_cell_length_b 13.189653
_cell_length_c 19.456238
_cell_angle_alpha 90.000000
_cell_angle_beta 143.712929
_cell_angle_gamma 90.000000
_cell_volume 1940.279697
_symmetry_space_group_name_H-M "C 2/M"
_symmetry_group_IT_number 12
_symmetry_cell_setting 'monoclinic'
loop_
_space_group_symop_operation_xyz
x,y,z
-x,y,-z
-x,-y,-z
x,-y,z
1/2+x,1/2+y,z
1/2-x,1/2+y,-z
1/2-x,1/2-y,-z
1/2+x,1/2-y,z
loop_
_atom_site_type_symbol
_atom_site_label
_atom_site_fract_x
_atom_site_fract_y
_atom_site_fract_z
Si Si1 0.666347 0.306563 0.671814
Si Si2 0.105134 0.389945 0.732945
Si Si3 0.484552 0.170024 0.071915
Si Si4 0.322856 0.613491 0.989653
Si Si5 0.717115 0.328984 0.543276
O O1 0.637828 0.203539 0.699669
O O2 0.705904 0.281734 0.613449
O O3 0.481937 0.368794 0.575561
O O4 0.836267 0.359747 0.794459
O O5 0.157345 0.500000 0.732122
O O6 0.210120 0.373564 0.859811
O O7 0.895513 0.393059 0.637809
O O8 0.314510 0.124023 0.019990
O O9 0.500000 0.144878 0.000000
O O10 0.456688 0.292469 0.063873
O O11 0.400063 0.500000 0.029949
O O12 0.750000 0.250000 0.500000
#
# Coordination Sequence:
#
# PCOD9186848 Si02
#       5
#     8   8   8   8   8
#     4  10  19  35  56  83 106 148 188 224 269 338
#     4  10  19  35  57  84 114 142 181 236 282 325
#     4  11  21  36  60  82 113 152 189 225 286 334
#     4  10  22  36  54  85 118 147 186 234 280 335
#     4   9  19  35  56  77 110 147 180 222 273 330
#
# _framework density 20.615584999999999
#
# number of rings (size 3 to 8) (size 9 to 14) (size 15 to 20)
#    0.000    2.000    4.000    0.000    0.000    1.600 
#    0.000   11.000    0.000    7.200    0.000    0.000 
#    0.000    0.000    0.000    0.000    0.000    0.000 
#
# Total GULP energy -111555.974371 kJ/mol
# GULP energy per Si atom -5577.798719 kJ/mol
# Density = 2.056866 g / cm^3
# Si number density = 20.615585 Si / 1000 Ang^3
#
#
#
# Elastic Constant Matrix: (Units=GPa)
#
#
# Indices 1 2 3 4 5 6 
#
# 1 113.7469 3.3803 34.8973 0.0000 -12.2033 0.0000
# 2 3.3803 61.6155 -2.1114 0.0000 -2.6027 0.0000
# 3 34.8973 -2.1114 108.1006 0.0000 12.1220 0.0000
# 4 0.0000 0.0000 0.0000 0.6331 0.0000 -7.8209
# 5 -12.2033 -2.6027 12.1220 0.0000 43.3549 0.0000
# 6 0.0000 0.0000 0.0000 -7.8209 0.0000 2.1803
#
#
#
# Elastic Compliance Matrix: (Units=1/GPa)
#
#
# Indices 1 2 3 4 5 6 
#
# 1 0.010402 -0.000534 -0.003813 0.000000 0.003962 0.000000
# 2 -0.000534 0.016303 0.000411 0.000000 0.000714 0.000000
# 3 -0.003813 0.000411 0.010950 0.000000 -0.004110 0.000000
# 4 0.000000 0.000000 0.000000 -0.036469 0.000000 -0.130816
# 5 0.003962 0.000714 -0.004110 0.000000 0.025373 0.000000
# 6 0.000000 0.000000 0.000000 -0.130816 0.000000 -0.010590
#
#
# Mechanical properties :
#
#
# Convention : Reuss Voigt Hill
#
# Bulk Modulus (GPa) = 33.57520 39.53283 36.55401
# Shear Modulus (GPa) = 148.06512 25.72012 86.89262
#
# Velocity S-wave (km/s) = 8.48398 3.53598 6.49927
# Velocity P-wave (km/s) = 10.59680 5.99071 8.60758
#
# Compressibility (1/GPa) = 0.02978389
#
# Stress axis : x y z
#
# Youngs Moduli (GPa) = 96.13433 61.33766 91.32067
#
# Poissons Ratio (x) = 0.03275 0.34818
# Poissons Ratio (y) = 0.05133 -0.03751
# Poissons Ratio (z) = 0.36654 -0.02520
#
# Static dielectric constant tensor:
#      x y z
#    x 1.732060 0.000000 0.046960 
#    y 0.000000 1.750230 0.000000 
#    z 0.046960 0.000000 1.736230 
# 
# From -- ./inp_files/129102.got.cif
#   From: 2010.05.17/outbox.cif.g08.bks.cpg/sg12_65_cif.got.tgz:129102.got - 2010.06.03 13:09:07.
