data_PCOD9186215
_publ_section_title
;
Structure prediction by ZEFSAII (Michael W. Deem and Ramdas Pophale) SiO2 
 PCOD9186215
Probable space group: C 2/M
;
_chemical_formula_sum "Si O2"
_cell_formula_units_Z 64
_cell_length_a 11.154001
_cell_length_b 25.216697
_cell_length_c 12.073409
_cell_angle_alpha 90.000000
_cell_angle_beta 105.583859
_cell_angle_gamma 90.000000
_cell_volume 3271.014949
_symmetry_space_group_name_H-M "C 2/M"
_symmetry_group_IT_number 12
_symmetry_cell_setting 'monoclinic'
loop_
_space_group_symop_operation_xyz
x,y,z
-x,y,-z
-x,-y,-z
x,-y,z
1/2+x,1/2+y,z
1/2-x,1/2+y,-z
1/2-x,1/2-y,-z
1/2+x,1/2-y,z
loop_
_atom_site_type_symbol
_atom_site_label
_atom_site_fract_x
_atom_site_fract_y
_atom_site_fract_z
Si Si1 0.492699 0.439457 0.629054
Si Si2 0.708635 0.374164 0.781126
Si Si3 0.355315 0.940047 0.995014
Si Si4 0.233462 0.122086 0.386735
Si Si5 0.819137 0.758815 0.211444
Si Si6 0.360617 0.144338 0.191043
Si Si7 0.389492 0.732008 0.650394
Si Si8 0.877676 0.347453 0.615590
O O1 0.500000 0.428172 0.500000
O O2 0.532621 0.500000 0.657245
O O3 0.575836 0.399487 0.720976
O O4 0.350524 0.429243 0.624220
O O5 0.709962 0.317046 0.842342
O O6 0.771222 0.362511 0.677526
O O7 0.783494 0.415969 0.872542
O O8 0.345192 0.899054 0.093363
O O9 0.313302 0.000000 0.010849
O O10 0.500000 0.942116 0.000000
O O11 0.270836 0.131323 0.270492
O O12 0.152896 0.174471 0.402222
O O13 0.350385 0.120099 0.498122
O O14 0.833291 0.704738 0.145280
O O15 0.706673 0.745412 0.270901
O O16 0.961241 0.767926 0.291540
O O17 0.496612 0.144403 0.283178
O O18 0.373342 0.785741 0.576024
#
# Coordination Sequence:
#
# PCOD9186215 Si02
#       8
#     8   8   8   8   8   8   8   8
#     4  11  23  38  58  86 123 164 207 252 296 354
#     4  11  20  39  65  91 118 154 210 254 297 362
#     4  11  24  43  67  87 113 161 212 260 305 362
#     4  11  20  36  59  88 127 164 195 244 306 371
#     4   9  19  34  62  91 125 160 198 249 314 365
#     4  10  22  40  59  92 128 155 200 251 308 373
#     4   9  18  32  54  91 128 165 197 237 297 378
#     4  10  19  34  59  93 124 158 193 247 302 363
#
# _framework density 19.565792999999999
#
# number of rings (size 3 to 8) (size 9 to 14) (size 15 to 20)
#    0.000    1.750    3.750    1.125    0.000    1.000 
#    0.000    3.750    0.000    3.000    0.000    0.000 
#    0.000    0.000    0.000    0.000    0.000    0.000 
#
# Total GULP energy -178252.927188 kJ/mol
# GULP energy per Si atom -5570.403975 kJ/mol
# Density = 1.952126 g / cm^3
# Si number density = 19.565793 Si / 1000 Ang^3
#
#
#
# Elastic Constant Matrix: (Units=GPa)
#
#
# Indices 1 2 3 4 5 6 
#
# 1 57.7187 5.2873 -2.7140 0.0000 6.1589 0.0000
# 2 5.2873 118.6248 42.7488 0.0000 0.6216 0.0000
# 3 -2.7140 42.7488 54.4901 0.0000 1.1406 0.0000
# 4 0.0000 0.0000 0.0000 -14.8949 0.0000 -30.1374
# 5 6.1589 0.6216 1.1406 0.0000 20.3196 0.0000
# 6 0.0000 0.0000 0.0000 -30.1374 0.0000 -3.0948
#
#
#
# Elastic Compliance Matrix: (Units=1/GPa)
#
#
# Indices 1 2 3 4 5 6 
#
# 1 0.018176 -0.001602 0.002279 0.000000 -0.005588 0.000000
# 2 -0.001602 0.011894 -0.009425 0.000000 0.000651 0.000000
# 3 0.002279 -0.009425 0.025898 0.000000 -0.001856 0.000000
# 4 0.000000 0.000000 0.000000 0.003590 0.000000 -0.034956
# 5 -0.005588 0.000651 -0.001856 0.000000 0.050992 0.000000
# 6 0.000000 0.000000 0.000000 -0.034956 0.000000 0.017276
#
#
# Mechanical properties :
#
#
# Convention : Reuss Voigt Hill
#
# Bulk Modulus (GPa) = 25.99247 35.71975 30.85611
# Shear Modulus (GPa) = 31.61642 12.83341 22.22492
#
# Velocity S-wave (km/s) = 4.02419 2.56385 3.37398
# Velocity P-wave (km/s) = 5.90810 5.20195 5.56624
#
# Compressibility (1/GPa) = 0.03847267
#
# Stress axis : x y z
#
# Youngs Moduli (GPa) = 55.01878 84.07335 38.61249
#
# Poissons Ratio (x) = 0.13470 -0.08801
# Poissons Ratio (y) = 0.08815 0.36392
# Poissons Ratio (z) = -0.12540 0.79238
#
# Static dielectric constant tensor:
#      x y z
#    x 1.746460 0.000000 0.019230 
#    y 0.000000 1.718490 0.000000 
#    z 0.019230 0.000000 1.684520 
# 
# From -- ./inp_files/135935.got.cif
#   From: 2010.05.17/outbox.cif.g08.bks.cpg/sg12_68_cif.got.tgz:135935.got - 2010.06.03 13:09:07.
