data_PCOD9186445
_publ_section_title
;
Structure prediction by ZEFSAII (Michael W. Deem and Ramdas Pophale) SiO2 
 PCOD9186445
Probable space group: C 2/M
;
_chemical_formula_sum "Si O2"
_cell_formula_units_Z 44
_cell_length_a 13.293195
_cell_length_b 23.069265
_cell_length_c 11.973258
_cell_angle_alpha 90.000000
_cell_angle_beta 146.906114
_cell_angle_gamma 90.000000
_cell_volume 2004.832581
_symmetry_space_group_name_H-M "C 2/M"
_symmetry_group_IT_number 12
_symmetry_cell_setting 'monoclinic'
loop_
_space_group_symop_operation_xyz
x,y,z
-x,y,-z
-x,-y,-z
x,-y,z
1/2+x,1/2+y,z
1/2-x,1/2+y,-z
1/2-x,1/2-y,-z
1/2+x,1/2-y,z
loop_
_atom_site_type_symbol
_atom_site_label
_atom_site_fract_x
_atom_site_fract_y
_atom_site_fract_z
Si Si1 0.995277 0.500000 0.838189
Si Si2 0.204516 0.866624 0.991401
Si Si3 0.111690 0.000000 0.849805
Si Si4 0.848781 0.811899 0.589806
Si Si5 0.777622 0.500000 0.421483
Si Si6 0.932199 0.371492 0.817242
Si Si7 0.784703 0.376808 0.314654
O O1 0.960452 0.500000 0.669806
O O2 0.910542 0.440706 0.801724
O O3 0.213096 0.500000 0.071338
O O4 0.147348 0.934813 0.930644
O O5 0.067378 0.823536 0.797830
O O6 0.407525 0.861101 0.126183
O O7 0.199008 0.856566 0.118527
O O8 0.889439 0.000000 0.643609
O O9 0.750000 0.750000 0.500000
O O10 0.756622 0.844413 0.400057
O O11 0.787027 0.842840 0.646060
O O12 0.762759 0.444276 0.328373
O O13 0.000000 0.349776 0.000000
O O14 0.000000 0.366861 0.500000
#
# Coordination Sequence:
#
# PCOD9186445 Si02
#       7
#     4   8   4   8   4   8   8
#     4  10  19  40  65  96 135 178 212 266 335 401
#     4  11  23  43  69 101 137 171 214 282 345 402
#     4  10  19  34  64 102 134 163 205 259 345 418
#     4  12  27  46  66  95 129 183 231 271 332 389
#     4  12  20  36  68 105 144 167 199 273 353 419
#     4  11  24  45  67  96 132 176 229 276 327 398
#     4  12  22  42  70 105 140 170 212 279 351 408
#
# _framework density 21.946967999999998
#
# number of rings (size 3 to 8) (size 9 to 14) (size 15 to 20)
#    0.000    0.727    5.455    2.727    0.000    3.636 
#    3.273    0.000    0.000    6.545    0.000    0.000 
#    0.000    0.000    0.000    0.000    0.000    0.000 
#
# Total GULP energy -122743.422926 kJ/mol
# GULP energy per Si atom -5579.246497 kJ/mol
# Density = 2.189702 g / cm^3
# Si number density = 21.946968 Si / 1000 Ang^3
#
#
#
# Elastic Constant Matrix: (Units=GPa)
#
#
# Indices 1 2 3 4 5 6 
#
# 1 31.6366 -23.1763 12.6083 0.0000 -15.4672 0.0000
# 2 -23.1763 45.6599 20.1093 0.0000 -6.4990 0.0000
# 3 12.6083 20.1093 127.4389 0.0000 -15.8195 0.0000
# 4 0.0000 0.0000 0.0000 13.1414 0.0000 9.3538
# 5 -15.4672 -6.4990 -15.8195 0.0000 47.6903 0.0000
# 6 0.0000 0.0000 0.0000 9.3538 0.0000 -12.6119
#
#
#
# Elastic Compliance Matrix: (Units=1/GPa)
#
#
# Indices 1 2 3 4 5 6 
#
# 1 0.103695 0.064927 -0.015885 0.000000 0.037210 0.000000
# 2 0.064927 0.064385 -0.013433 0.000000 0.025375 0.000000
# 3 -0.015885 -0.013433 0.011130 0.000000 -0.003291 0.000000
# 4 0.000000 0.000000 0.000000 0.049804 0.000000 0.036938
# 5 0.037210 0.025375 -0.003291 0.000000 0.035403 0.000000
# 6 0.000000 0.000000 0.000000 0.036938 0.000000 -0.051895
#
#
# Mechanical properties :
#
#
# Convention : Reuss Voigt Hill
#
# Bulk Modulus (GPa) = 3.99319 24.86867 14.43093
# Shear Modulus (GPa) = 22.24383 22.65692 22.45037
#
# Velocity S-wave (km/s) = 3.18705 3.21650 3.20181
# Velocity P-wave (km/s) = 3.92001 5.01502 4.50093
#
# Compressibility (1/GPa) = 0.25042620
#
# Stress axis : x y z
#
# Youngs Moduli (GPa) = 9.64362 15.53158 89.84922
#
# Poissons Ratio (x) = -1.00841 1.42729
# Poissons Ratio (y) = -0.62613 1.20697
# Poissons Ratio (z) = 0.15319 0.20864
#
# Static dielectric constant tensor:
#      x y z
#    x 1.830090 0.000000 0.024890 
#    y 0.000000 1.797330 0.000000 
#    z 0.024890 0.000000 1.848550 
# 
# From -- ./inp_files/149566.got.cif
#   From: 2010.05.17/outbox.cif.g08.bks.cpg/sg12_75_cif.got.tgz:149566.got - 2010.06.03 13:09:07.
