data_PCOD9186032
_publ_section_title
;
Structure prediction by ZEFSAII (Michael W. Deem and Ramdas Pophale) SiO2 
 PCOD9186032
Probable space group: C 2/M
;
_chemical_formula_sum "Si O2"
_cell_formula_units_Z 48
_cell_length_a 14.635003
_cell_length_b 27.485203
_cell_length_c 11.830086
_cell_angle_alpha 90.000000
_cell_angle_beta 30.988792
_cell_angle_gamma 90.000000
_cell_volume 2450.064863
_symmetry_space_group_name_H-M "C 2/M"
_symmetry_group_IT_number 12
_symmetry_cell_setting 'monoclinic'
loop_
_space_group_symop_operation_xyz
x,y,z
-x,y,-z
-x,-y,-z
x,-y,z
1/2+x,1/2+y,z
1/2-x,1/2+y,-z
1/2-x,1/2-y,-z
1/2+x,1/2-y,z
loop_
_atom_site_type_symbol
_atom_site_label
_atom_site_fract_x
_atom_site_fract_y
_atom_site_fract_z
Si Si1 0.293140 0.802866 0.193380
Si Si2 0.441647 0.365780 0.930950
Si Si3 0.496311 0.556432 0.681070
Si Si4 0.414814 0.721023 0.367478
Si Si5 0.645134 0.792702 0.249895
Si Si6 0.288786 0.911292 0.188826
O O1 0.147532 0.802113 0.448124
O O2 0.270120 0.750001 0.164390
O O3 0.264820 0.855691 0.168594
O O4 0.500000 0.804982 0.000000
O O5 0.470849 0.412793 0.822490
O O6 0.546149 0.321348 0.761165
O O7 0.500000 0.371437 0.000000
O O8 0.244120 0.343250 0.128080
O O9 0.536930 0.500000 0.659470
O O10 0.314087 0.558790 0.799682
O O11 0.660560 0.578900 0.433325
O O12 0.250000 0.750000 0.500000
O O13 0.556969 0.763625 0.239933
O O14 0.500000 0.800714 0.500000
O O15 0.500000 0.919165 0.000000
#
# Coordination Sequence:
#
# PCOD9186032 Si02
#       6
#     8   8   8   8   8   8
#     4  10  19  34  58  94 126 157 193 249 323 389
#     4  12  24  42  60  88 131 175 221 258 308 385
#     4  11  25  44  68  96 127 168 219 279 332 377
#     4  11  21  34  58  88 127 166 207 251 311 381
#     4  10  21  36  58  88 126 167 210 259 312 379
#     4  10  21  41  72 103 131 154 206 276 346 394
#
# _framework density 19.591318000000001
#
# number of rings (size 3 to 8) (size 9 to 14) (size 15 to 20)
#    0.000    1.333    1.667    6.000    4.667    4.333 
#    3.000    0.000    0.000    0.500    0.000    0.000 
#    0.000    0.000    0.000    0.000    0.000    0.000 
#
# Total GULP energy -133707.492925 kJ/mol
# GULP energy per Si atom -5571.145539 kJ/mol
# Density = 1.954673 g / cm^3
# Si number density = 19.591318 Si / 1000 Ang^3
#
#
#
# Elastic Constant Matrix: (Units=GPa)
#
#
# Indices 1 2 3 4 5 6 
#
# 1 89.8108 24.6221 37.2498 0.0000 8.8423 0.0000
# 2 24.6221 95.9978 29.5880 0.0000 -0.0423 0.0000
# 3 37.2498 29.5880 101.8494 0.0000 4.2950 -0.0002
# 4 0.0000 0.0000 0.0000 20.8497 0.0000 -1.4977
# 5 8.8423 -0.0423 4.2950 0.0000 35.6845 0.0001
# 6 0.0000 0.0000 -0.0002 -1.4977 0.0001 36.3187
#
#
#
# Elastic Compliance Matrix: (Units=1/GPa)
#
#
# Indices 1 2 3 4 5 6 
#
# 1 0.013806 -0.002223 -0.004281 0.000000 -0.002908 0.000000
# 2 -0.002223 0.011805 -0.002654 0.000000 0.000884 0.000000
# 3 -0.004281 -0.002654 0.012172 0.000000 -0.000407 0.000000
# 4 0.000000 0.000000 0.000000 0.048105 0.000000 0.001984
# 5 -0.002908 0.000884 -0.000407 0.000000 0.028794 0.000000
# 6 0.000000 0.000000 0.000000 0.001984 0.000000 0.027616
#
#
# Mechanical properties :
#
#
# Convention : Reuss Voigt Hill
#
# Bulk Modulus (GPa) = 51.36566 52.28643 51.82604
# Shear Modulus (GPa) = 29.92170 31.65044 30.78607
#
# Velocity S-wave (km/s) = 3.91230 4.02373 3.96841
# Velocity P-wave (km/s) = 6.83254 6.95225 6.89265
#
# Compressibility (1/GPa) = 0.01946826
#
# Stress axis : x y z
#
# Youngs Moduli (GPa) = 72.43339 84.70706 82.15429
#
# Poissons Ratio (x) = 0.18829 0.35169
# Poissons Ratio (y) = 0.16101 0.21803
# Poissons Ratio (z) = 0.31008 0.22480
#
# Static dielectric constant tensor:
#      x y z
#    x 1.678200 0.000000 0.004990 
#    y 0.000000 1.809170 0.000000 
#    z 0.004990 0.000000 1.745230 
# 
# From -- ./inp_files/149636.got.cif
#   From: 2010.05.17/outbox.cif.g08.bks.cpg/sg12_75_cif.got.tgz:149636.got - 2010.06.03 13:09:07.
