data_PCOD9186732
_publ_section_title
;
Structure prediction by ZEFSAII (Michael W. Deem and Ramdas Pophale) SiO2 
 PCOD9186732
Probable space group: C 2/M
;
_chemical_formula_sum "Si O2"
_cell_formula_units_Z 64
_cell_length_a 12.220803
_cell_length_b 14.129609
_cell_length_c 16.133692
_cell_angle_alpha 90.000000
_cell_angle_beta 96.736268
_cell_angle_gamma 90.000000
_cell_volume 2766.655874
_symmetry_space_group_name_H-M "C 2/M"
_symmetry_group_IT_number 12
_symmetry_cell_setting 'monoclinic'
loop_
_space_group_symop_operation_xyz
x,y,z
-x,y,-z
-x,-y,-z
x,-y,z
1/2+x,1/2+y,z
1/2-x,1/2+y,-z
1/2-x,1/2-y,-z
1/2+x,1/2-y,z
loop_
_atom_site_type_symbol
_atom_site_label
_atom_site_fract_x
_atom_site_fract_y
_atom_site_fract_z
Si Si1 0.143958 0.275852 0.603553
Si Si2 0.894022 0.390354 0.838399
Si Si3 0.772385 0.107227 0.479931
Si Si4 0.329238 0.387450 0.031830
Si Si5 0.739009 0.278131 0.211494
Si Si6 0.544027 0.611901 0.133939
Si Si7 0.373131 0.885333 0.085141
Si Si8 0.053147 0.605135 0.351267
O O1 0.140463 0.180170 0.550090
O O2 0.217889 0.349102 0.557245
O O3 0.205846 0.261343 0.695871
O O4 0.026043 0.319361 0.613993
O O5 0.868188 0.500000 0.852276
O O6 0.790622 0.321696 0.833181
O O7 0.933986 0.383686 0.746075
O O8 0.998182 0.361671 0.903390
O O9 0.672005 0.107561 0.404583
O O10 0.810367 0.000000 0.494725
O O11 0.322189 0.500000 0.047815
O O12 0.420525 0.351052 0.105160
O O13 0.391283 0.379550 0.947946
O O14 0.205764 0.354194 0.997321
O O15 0.619944 0.330905 0.204388
O O16 0.817807 0.342385 0.162315
O O17 0.540578 0.500000 0.154211
O O18 0.367750 0.000000 0.088920
O O19 0.005189 0.500000 0.361995
#
# Coordination Sequence:
#
# PCOD9186732 Si02
#       8
#     8   8   8   8   8   8   8   8
#     4  11  21  32  54  79  98 126 166 207 244 292
#     4  10  20  33  50  74 102 130 165 208 245 285
#     4  10  22  38  54  75 101 130 162 203 249 295
#     4   7  11  23  43  68  97 127 159 196 242 290
#     4  11  19  29  49  77 102 128 161 206 248 290
#     4   8  14  24  42  70 101 129 157 197 247 292
#     4   9  17  31  53  77 100 128 164 207 248 287
#     4  10  19  35  56  75  96 126 165 206 245 287
#
# _framework density 23.132619999999999
#
# number of rings (size 3 to 8) (size 9 to 14) (size 15 to 20)
#    0.000    2.500    2.500    2.625    0.000    2.500 
#    0.000    0.625    0.000    9.750    0.000    7.000 
#    0.000    0.000    0.000    0.000    0.000    0.000 
#
# Total GULP energy -178986.281002 kJ/mol
# GULP energy per Si atom -5593.321281 kJ/mol
# Density = 2.307997 g / cm^3
# Si number density = 23.132620 Si / 1000 Ang^3
#
#
#
# Elastic Constant Matrix: (Units=GPa)
#
#
# Indices 1 2 3 4 5 6 
#
# 1 107.8779 26.1355 10.6335 0.0000 -4.6405 0.0000
# 2 26.1355 112.4602 10.8783 0.0000 -13.3355 0.0000
# 3 10.6335 10.8783 61.7821 0.0000 -5.4821 0.0000
# 4 0.0000 0.0000 0.0000 18.2778 0.0000 6.9892
# 5 -4.6405 -13.3355 -5.4821 0.0000 30.4342 0.0000
# 6 0.0000 0.0000 0.0000 6.9892 0.0000 31.7848
#
#
#
# Elastic Compliance Matrix: (Units=1/GPa)
#
#
# Indices 1 2 3 4 5 6 
#
# 1 0.009932 -0.002142 -0.001302 0.000000 0.000341 0.000000
# 2 -0.002142 0.009946 -0.001042 0.000000 0.003844 0.000000
# 3 -0.001302 -0.001042 0.016804 0.000000 0.002372 0.000000
# 4 0.000000 0.000000 0.000000 0.059734 0.000000 -0.013135
# 5 0.000341 0.003844 0.002372 0.000000 0.035021 0.000000
# 6 0.000000 0.000000 0.000000 -0.013135 0.000000 0.034350
#
#
# Mechanical properties :
#
#
# Convention : Reuss Voigt Hill
#
# Bulk Modulus (GPa) = 36.08632 41.93499 39.01065
# Shear Modulus (GPa) = 27.17475 31.73090 29.45282
#
# Velocity S-wave (km/s) = 3.43116 3.70766 3.57209
# Velocity P-wave (km/s) = 5.59739 6.04123 5.82354
#
# Compressibility (1/GPa) = 0.02771133
#
# Stress axis : x y z
#
# Youngs Moduli (GPa) = 100.68852 100.53958 59.51013
#
# Poissons Ratio (x) = 0.21532 0.07748
# Poissons Ratio (y) = 0.21564 0.06199
# Poissons Ratio (z) = 0.13109 0.10472
#
# Static dielectric constant tensor:
#      x y z
#    x 1.889370 0.000000 -0.014170 
#    y 0.000000 1.897810 0.000000 
#    z -0.014170 0.000000 1.852440 
# 
# From -- ./inp_files/263346.got.cif
#   From: 2010.05.17/outbox.cif.g08.bks.cpg/sg12_132_cif.got.tgz:263346.got - 2010.06.03 13:09:07.
