data_PCOD9186407
_publ_section_title
;
Structure prediction by ZEFSAII (Michael W. Deem and Ramdas Pophale) SiO2 
 PCOD9186407
Probable space group: C 2/M
;
_chemical_formula_sum "Si O2"
_cell_formula_units_Z 56
_cell_length_a 13.715569
_cell_length_b 29.579431
_cell_length_c 10.433802
_cell_angle_alpha 90.000000
_cell_angle_beta 135.017756
_cell_angle_gamma 90.000000
_cell_volume 2992.241267
_symmetry_space_group_name_H-M "C 2/M"
_symmetry_group_IT_number 12
_symmetry_cell_setting 'monoclinic'
loop_
_space_group_symop_operation_xyz
x,y,z
-x,y,-z
-x,-y,-z
x,-y,z
1/2+x,1/2+y,z
1/2-x,1/2+y,-z
1/2-x,1/2-y,-z
1/2+x,1/2-y,z
loop_
_atom_site_type_symbol
_atom_site_label
_atom_site_fract_x
_atom_site_fract_y
_atom_site_fract_z
Si Si1 0.872445 0.552728 0.780538
Si Si2 0.570190 0.183247 0.869011
Si Si3 0.847985 0.307326 0.334404
Si Si4 0.342729 0.119136 0.533160
Si Si5 0.429411 0.724371 0.813435
Si Si6 0.433908 0.650239 0.618033
Si Si7 0.290935 0.629774 0.236398
O O1 0.838429 0.500000 0.739136
O O2 0.891734 0.573577 0.654014
O O3 0.756943 0.583490 0.741900
O O4 0.000000 0.556905 0.000000
O O5 0.664347 0.191989 0.830471
O O6 0.437660 0.155059 0.698164
O O7 0.506269 0.228383 0.867870
O O8 0.662518 0.154866 0.053140
O O9 0.851254 0.358726 0.397822
O O10 0.732063 0.278759 0.300805
O O11 0.000000 0.287925 0.500000
O O12 0.180368 0.122617 0.409635
O O13 0.456117 0.696677 0.710875
O O14 0.500000 0.699981 0.000000
O O15 0.357198 0.658801 0.412523
O O16 0.578518 0.624869 0.735606
#
# Coordination Sequence:
#
# PCOD9186407 Si02
#       7
#     8   8   8   8   8   8   8
#     4  10  19  34  62  92 115 144 186 234 289 353
#     4  11  22  38  59  78 111 160 198 238 281 341
#     4   9  21  40  57  78 109 152 198 237 285 334
#     4   9  19  38  56  80 112 147 182 228 292 337
#     4  11  24  38  54  82 113 153 207 241 276 328
#     4   9  21  37  53  79 114 150 187 235 283 331
#     4  10  20  38  57  82 115 152 186 234 295 339
#
# _framework density 18.715067999999999
#
# number of rings (size 3 to 8) (size 9 to 14) (size 15 to 20)
#    0.000    2.143    1.429    0.857    4.000    7.429 
#   10.286    5.714    0.000    4.714    0.000    0.000 
#    0.000   27.429    0.000    0.000    0.000    0.000 
#
# Total GULP energy -155875.032533 kJ/mol
# GULP energy per Si atom -5566.965448 kJ/mol
# Density = 1.867247 g / cm^3
# Si number density = 18.715068 Si / 1000 Ang^3
#
#
#
# Elastic Constant Matrix: (Units=GPa)
#
#
# Indices 1 2 3 4 5 6 
#
# 1 104.2935 40.2229 19.7998 0.0000 7.0252 0.0000
# 2 40.2229 81.6256 32.5858 0.0000 -10.2225 0.0000
# 3 19.7998 32.5858 62.0170 0.0000 0.1261 0.0000
# 4 0.0000 0.0000 0.0000 14.6208 0.0000 -7.0531
# 5 7.0252 -10.2225 0.1261 0.0000 33.8782 0.0000
# 6 0.0000 0.0000 0.0000 -7.0531 0.0000 14.3926
#
#
#
# Elastic Compliance Matrix: (Units=1/GPa)
#
#
# Indices 1 2 3 4 5 6 
#
# 1 0.012514 -0.006512 -0.000564 0.000000 -0.004558 0.000000
# 2 -0.006512 0.019681 -0.008277 0.000000 0.007320 0.000000
# 3 -0.000564 -0.008277 0.020659 0.000000 -0.002457 0.000000
# 4 0.000000 0.000000 0.000000 0.089570 0.000000 0.043894
# 5 -0.004558 0.007320 -0.002457 0.000000 0.032681 0.000000
# 6 0.000000 0.000000 0.000000 0.043894 0.000000 0.090990
#
#
# Mechanical properties :
#
#
# Convention : Reuss Voigt Hill
#
# Bulk Modulus (GPa) = 45.15257 48.12814 46.64036
# Shear Modulus (GPa) = 16.43746 22.93348 19.68547
#
# Velocity S-wave (km/s) = 2.96683 3.50437 3.24674
# Velocity P-wave (km/s) = 5.99290 6.49201 6.24744
#
# Compressibility (1/GPa) = 0.02214713
#
# Stress axis : x y z
#
# Youngs Moduli (GPa) = 79.91052 50.81049 48.40569
#
# Poissons Ratio (x) = 0.33088 0.02732
# Poissons Ratio (y) = 0.52038 0.40065
# Poissons Ratio (z) = 0.04510 0.42055
#
# Static dielectric constant tensor:
#      x y z
#    x 1.743850 0.000000 -0.002900 
#    y 0.000000 1.639900 0.000000 
#    z -0.002900 0.000000 1.526340 
# 
# From -- ./inp_files/150127.got.cif
#   From: 2010.05.17/outbox.cif.g08.bks.cpg/sg12_76_cif.got.tgz:150127.got - 2010.06.03 13:09:07.
