data_PCOD9186172
_publ_section_title
;
Structure prediction by ZEFSAII (Michael W. Deem and Ramdas Pophale) SiO2 
 PCOD9186172
Probable space group: C 2/M
;
_chemical_formula_sum "Si O2"
_cell_formula_units_Z 64
_cell_length_a 22.233336
_cell_length_b 12.732689
_cell_length_c 12.912676
_cell_angle_alpha 90.000000
_cell_angle_beta 115.096718
_cell_angle_gamma 90.000000
_cell_volume 3310.351571
_symmetry_space_group_name_H-M "C 2/M"
_symmetry_group_IT_number 12
_symmetry_cell_setting 'monoclinic'
loop_
_space_group_symop_operation_xyz
x,y,z
-x,y,-z
-x,-y,-z
x,-y,z
1/2+x,1/2+y,z
1/2-x,1/2+y,-z
1/2-x,1/2-y,-z
1/2+x,1/2-y,z
loop_
_atom_site_type_symbol
_atom_site_label
_atom_site_fract_x
_atom_site_fract_y
_atom_site_fract_z
Si Si1 0.571957 0.820045 0.033872
Si Si2 0.307323 0.383084 0.028914
Si Si3 0.306245 0.774026 0.390943
Si Si4 0.434291 0.878113 0.381160
Si Si5 0.560856 0.621055 0.172593
Si Si6 0.815304 0.880246 0.583972
Si Si7 0.283563 0.190383 0.859835
Si Si8 0.063082 0.773493 0.810996
O O1 0.565900 0.704761 0.083509
O O2 0.645048 0.856612 0.122560
O O3 0.500000 0.872623 0.000000
O O4 0.575992 0.807176 0.914246
O O5 0.314604 0.500000 0.993406
O O6 0.248901 0.375298 0.070694
O O7 0.372673 0.347404 0.139145
O O8 0.295890 0.302754 0.926255
O O9 0.367937 0.839460 0.391550
O O10 0.252659 0.847099 0.409630
O O11 0.329245 0.693189 0.496140
O O12 0.266572 0.712618 0.270843
O O13 0.500000 0.874379 0.500000
O O14 0.444461 0.795077 0.296342
O O15 0.425866 0.000000 0.341031
O O16 0.552457 0.500000 0.133571
O O17 0.627130 0.629612 0.288878
O O18 0.500454 0.658956 0.201343
O O19 0.811704 0.000000 0.546476
#
# Coordination Sequence:
#
# PCOD9186172 Si02
#       8
#     8   8   8   8   8   8   8   8
#     4   9  19  34  57  83 118 151 185 235 289 347
#     4  10  21  36  57  86 122 156 190 238 295 354
#     4  11  21  40  61  83 119 153 198 253 287 348
#     4  11  24  42  64  86 113 158 206 243 288 342
#     4  10  19  34  59  89 119 153 190 232 293 358
#     4  10  22  37  59  88 115 152 195 244 301 351
#     4  10  20  37  56  88 116 156 198 238 292 346
#     4  10  20  37  57  90 121 148 188 243 293 346
#
# _framework density 19.333293999999999
#
# number of rings (size 3 to 8) (size 9 to 14) (size 15 to 20)
#    0.000    1.875    2.500    1.500    0.000    5.750 
#    0.000    0.000    0.000    9.375    0.000    0.000 
#    0.000    0.000    0.000    0.000    0.000    0.000 
#
# Total GULP energy -178514.483141 kJ/mol
# GULP energy per Si atom -5578.577598 kJ/mol
# Density = 1.928929 g / cm^3
# Si number density = 19.333294 Si / 1000 Ang^3
#
#
#
# Elastic Constant Matrix: (Units=GPa)
#
#
# Indices 1 2 3 4 5 6 
#
# 1 100.4238 1.6809 8.0915 0.0000 4.5856 0.0000
# 2 1.6809 56.6004 23.2889 0.0000 -1.2002 0.0000
# 3 8.0915 23.2889 72.1348 0.0000 3.3340 0.0000
# 4 0.0000 0.0000 0.0000 -0.6072 0.0000 0.8363
# 5 4.5856 -1.2002 3.3340 0.0000 28.3727 0.0000
# 6 0.0000 0.0000 0.0000 0.8363 0.0000 8.5766
#
#
#
# Elastic Compliance Matrix: (Units=1/GPa)
#
#
# Indices 1 2 3 4 5 6 
#
# 1 0.010113 0.000122 -0.001105 0.000000 -0.001500 0.000000
# 2 0.000122 0.020452 -0.006692 0.000000 0.001632 0.000000
# 3 -0.001105 -0.006692 0.016240 0.000000 -0.002013 0.000000
# 4 0.000000 0.000000 0.000000 -1.451989 0.000000 0.141589
# 5 -0.001500 0.001632 -0.002013 0.000000 0.035793 0.000000
# 6 0.000000 0.000000 0.000000 0.141589 0.000000 0.102790
#
#
# Mechanical properties :
#
#
# Convention : Reuss Voigt Hill
#
# Bulk Modulus (GPa) = 31.78938 32.80908 32.29923
# Shear Modulus (GPa) = -4.02977 20.34160 8.15592
#
# Velocity S-wave (km/s) = -1.44530 3.24721 2.05615
# Velocity P-wave (km/s) = 3.70045 5.57371 4.73073
#
# Compressibility (1/GPa) = 0.03145704
#
# Stress axis : x y z
#
# Youngs Moduli (GPa) = 98.88038 48.89430 61.57454
#
# Poissons Ratio (x) = -0.00598 0.06802
# Poissons Ratio (y) = -0.01210 0.41207
# Poissons Ratio (z) = 0.10922 0.32721
#
# Static dielectric constant tensor:
#      x y z
#    x 1.720270 0.000000 0.025110 
#    y 0.000000 1.676570 0.000000 
#    z 0.025110 0.000000 1.652450 
# 
# From -- ./inp_files/175324.got.cif
#   From: 2010.05.17/outbox.cif.g08.bks.cpg/sg12_88_cif.got.tgz:175324.got - 2010.06.03 13:09:07.
