data_PCOD9186620
_publ_section_title
;
Structure prediction by ZEFSAII (Michael W. Deem and Ramdas Pophale) SiO2 
 PCOD9186620
Probable space group: C 2/M
;
_chemical_formula_sum "Si O2"
_cell_formula_units_Z 64
_cell_length_a 29.006085
_cell_length_b 7.630385
_cell_length_c 15.529679
_cell_angle_alpha 90.000000
_cell_angle_beta 120.150157
_cell_angle_gamma 90.000000
_cell_volume 2972.142061
_symmetry_space_group_name_H-M "C 2/M"
_symmetry_group_IT_number 12
_symmetry_cell_setting 'monoclinic'
loop_
_space_group_symop_operation_xyz
x,y,z
-x,y,-z
-x,-y,-z
x,-y,z
1/2+x,1/2+y,z
1/2-x,1/2+y,-z
1/2-x,1/2-y,-z
1/2+x,1/2-y,z
loop_
_atom_site_type_symbol
_atom_site_label
_atom_site_fract_x
_atom_site_fract_y
_atom_site_fract_z
Si Si1 0.219701 0.709250 0.058837
Si Si2 0.460922 0.798829 0.250393
Si Si3 0.557525 0.297028 0.578713
Si Si4 0.901407 0.714215 0.028005
Si Si5 0.153295 0.214179 0.548804
Si Si6 0.382612 0.788226 0.821117
Si Si7 0.079242 0.205085 0.330325
Si Si8 0.239134 0.285878 0.266041
O O1 0.217154 0.500000 0.063030
O O2 0.246457 0.770013 0.173172
O O3 0.250000 0.750000 0.000000
O O4 0.158401 0.769283 0.001873
O O5 0.438253 0.710056 0.314517
O O6 0.440805 0.725834 0.140024
O O7 0.524738 0.791922 0.309991
O O8 0.443200 0.000000 0.239030
O O9 0.500000 0.216336 0.500000
O O10 0.554891 0.500000 0.548454
O O11 0.608909 0.226566 0.576903
O O12 0.903846 0.500000 0.028390
O O13 0.908865 0.770689 0.936008
O O14 0.129623 0.266669 0.434095
O O15 0.212058 0.275970 0.629741
O O16 0.156027 0.000000 0.553246
O O17 0.411080 0.730416 0.761263
O O18 0.320490 0.731478 0.763035
O O19 0.382940 0.000000 0.821963
O O20 0.072220 0.000000 0.341827
O O21 0.239099 0.500000 0.267908
#
# Coordination Sequence:
#
# PCOD9186620 Si02
#       8
#     8   8   8   8   8   8   8   8
#     4   9  17  31  51  76 104 135 172 213 255 306
#     4  11  22  36  55  79 106 141 183 220 258 311
#     4  10  19  35  55  76 108 147 177 212 265 316
#     4   8  18  36  54  74 107 143 172 211 268 315
#     4   9  18  33  53  77 108 144 175 206 260 322
#     4   9  18  37  60  78 101 137 180 221 259 313
#     4  11  22  37  55  78 108 139 173 221 274 316
#     4   8  16  32  54  77 102 138 179 210 249 316
#
# _framework density 21.533291999999999
#
# number of rings (size 3 to 8) (size 9 to 14) (size 15 to 20)
#    0.000    2.625    1.250    2.250    1.750    1.250 
#    0.000    6.875    0.000    3.000    0.000    0.000 
#    0.000    0.000    0.000    0.000    0.000    0.000 
#
# Total GULP energy -178564.472801 kJ/mol
# GULP energy per Si atom -5580.139775 kJ/mol
# Density = 2.148428 g / cm^3
# Si number density = 21.533292 Si / 1000 Ang^3
#
#
#
# Elastic Constant Matrix: (Units=GPa)
#
#
# Indices 1 2 3 4 5 6 
#
# 1 24.0573 -3.7355 4.2528 0.0000 -24.2811 0.0000
# 2 -3.7355 38.8857 -0.0626 0.0000 2.7627 0.0000
# 3 4.2528 -0.0626 109.4144 0.0000 -3.8523 0.0000
# 4 0.0000 0.0000 0.0000 17.6097 0.0000 -8.2163
# 5 -24.2811 2.7627 -3.8523 0.0000 39.2234 0.0000
# 6 0.0000 0.0000 0.0000 -8.2163 0.0000 19.0619
#
#
#
# Elastic Compliance Matrix: (Units=1/GPa)
#
#
# Indices 1 2 3 4 5 6 
#
# 1 0.112513 0.005900 -0.001939 0.000000 0.069045 0.000000
# 2 0.005900 0.026155 -0.000151 0.000000 0.001795 0.000000
# 3 -0.001939 -0.000151 0.009205 0.000000 -0.000286 0.000000
# 4 0.000000 0.000000 0.000000 0.071082 0.000000 0.030639
# 5 0.069045 0.001795 -0.000286 0.000000 0.068083 0.000000
# 6 0.000000 0.000000 0.000000 0.030639 0.000000 0.065667
#
#
# Mechanical properties :
#
#
# Convention : Reuss Voigt Hill
#
# Bulk Modulus (GPa) = 6.43115 19.25187 12.84151
# Shear Modulus (GPa) = 12.59709 26.63918 19.61814
#
# Velocity S-wave (km/s) = 2.42131 3.52108 3.02165
# Velocity P-wave (km/s) = 3.28787 5.04882 4.26032
#
# Compressibility (1/GPa) = 0.15549307
#
# Stress axis : x y z
#
# Youngs Moduli (GPa) = 8.88782 38.23310 108.63909
#
# Poissons Ratio (x) = -0.22557 0.21065
# Poissons Ratio (y) = -0.05244 0.01642
# Poissons Ratio (z) = 0.01723 0.00578
#
# Static dielectric constant tensor:
#      x y z
#    x 1.740540 0.000000 0.009240 
#    y 0.000000 1.887520 0.000000 
#    z 0.009240 0.000000 1.801130 
# 
# From -- ./inp_files/249253.got.cif
#   From: 2010.05.17/outbox.cif.g08.bks.cpg/sg12_125_cif.got.tgz:249253.got - 2010.06.03 13:09:07.
