data_PCOD9186512
_publ_section_title
;
Structure prediction by ZEFSAII (Michael W. Deem and Ramdas Pophale) SiO2 
 PCOD9186512
Probable space group: C 2/M
;
_chemical_formula_sum "Si O2"
_cell_formula_units_Z 48
_cell_length_a 13.908005
_cell_length_b 11.593772
_cell_length_c 16.819676
_cell_angle_alpha 90.000000
_cell_angle_beta 45.671918
_cell_angle_gamma 90.000000
_cell_volume 1940.108444
_symmetry_space_group_name_H-M "C 2/M"
_symmetry_group_IT_number 12
_symmetry_cell_setting 'monoclinic'
loop_
_space_group_symop_operation_xyz
x,y,z
-x,y,-z
-x,-y,-z
x,-y,z
1/2+x,1/2+y,z
1/2-x,1/2+y,-z
1/2-x,1/2-y,-z
1/2+x,1/2-y,z
loop_
_atom_site_type_symbol
_atom_site_label
_atom_site_fract_x
_atom_site_fract_y
_atom_site_fract_z
Si Si1 0.380960 0.165021 0.624789
Si Si2 0.171128 0.868928 0.454281
Si Si3 0.864764 0.129139 0.150542
Si Si4 0.395303 0.632554 0.884711
Si Si5 0.954509 0.716536 0.331125
Si Si6 0.660042 0.128734 0.915278
O O1 0.500000 0.118917 0.500000
O O2 0.366105 0.296239 0.602337
O O3 0.228414 0.121833 0.715593
O O4 0.439803 0.145729 0.677927
O O5 0.108809 0.805211 0.567397
O O6 0.331733 0.857603 0.370082
O O7 0.130026 0.000000 0.474937
O O8 0.811527 0.249783 0.144748
O O9 0.022727 0.148822 0.080494
O O10 0.850266 0.000000 0.122465
O O11 0.429170 0.500000 0.845704
O O12 0.467236 0.717246 0.782138
O O13 0.235385 0.640443 0.957829
O O14 0.707563 0.000000 0.857400
O O15 0.500000 0.120545 0.000000
#
# Coordination Sequence:
#
# PCOD9186512 Si02
#       6
#     8   8   8   8   8   8
#     4  10  21  36  55  85 122 161 207 250 290 345
#     4  10  21  34  53  80 115 158 209 255 295 346
#     4  11  23  40  62  92 127 162 200 247 305 363
#     4  10  20  37  61  86 120 158 196 242 303 368
#     4  10  19  35  53  80 116 156 203 248 300 347
#     4  10  23  45  70  93 118 154 201 252 307 368
#
# _framework density 24.740884999999999
#
# number of rings (size 3 to 8) (size 9 to 14) (size 15 to 20)
#    0.000    1.833    3.333    0.500    0.000    6.333 
#    0.000    0.833    0.000    0.000    0.000    0.000 
#    0.000    0.000    0.000    0.000    0.000    0.000 
#
# Total GULP energy -133753.108224 kJ/mol
# GULP energy per Si atom -5573.046176 kJ/mol
# Density = 2.468457 g / cm^3
# Si number density = 24.740885 Si / 1000 Ang^3
#
#
#
# Elastic Constant Matrix: (Units=GPa)
#
#
# Indices 1 2 3 4 5 6 
#
# 1 128.4059 41.8758 0.8224 0.0000 -33.0351 0.0000
# 2 41.8758 181.7064 13.1540 0.0000 6.4819 0.0000
# 3 0.8224 13.1540 71.0404 0.0000 -20.8909 0.0000
# 4 0.0000 0.0000 0.0000 7.9886 0.0000 5.7286
# 5 -33.0351 6.4819 -20.8909 0.0000 44.0536 0.0000
# 6 0.0000 0.0000 0.0000 5.7286 0.0000 19.1782
#
#
#
# Elastic Compliance Matrix: (Units=1/GPa)
#
#
# Indices 1 2 3 4 5 6 
#
# 1 0.011699 -0.003360 0.003733 0.000000 0.011038 0.000000
# 2 -0.003360 0.006633 -0.002576 0.000000 -0.004717 0.000000
# 3 0.003733 -0.002576 0.017948 0.000000 0.011689 0.000000
# 4 0.000000 0.000000 0.000000 0.159301 0.000000 -0.047583
# 5 0.011038 -0.004717 0.011689 0.000000 0.037214 0.000000
# 6 0.000000 0.000000 0.000000 -0.047583 0.000000 0.066356
#
#
# Mechanical properties :
#
#
# Convention : Reuss Voigt Hill
#
# Bulk Modulus (GPa) = 31.37581 54.76191 43.06886
# Shear Modulus (GPa) = 15.91433 35.93076 25.92254
#
# Velocity S-wave (km/s) = 2.53897 3.81502 3.24043
# Velocity P-wave (km/s) = 4.61567 6.44888 5.60769
#
# Compressibility (1/GPa) = 0.03187168
#
# Stress axis : x y z
#
# Youngs Moduli (GPa) = 85.47457 150.77126 55.71703
#
# Poissons Ratio (x) = 0.50662 -0.20797
# Poissons Ratio (y) = 0.28721 0.14355
# Poissons Ratio (z) = -0.31904 0.38846
#
# Static dielectric constant tensor:
#      x y z
#    x 2.028150 0.000000 -0.030220 
#    y 0.000000 1.964670 0.000000 
#    z -0.030220 0.000000 2.037340 
# 
# From -- ./inp_files/212627.got.cif
#   From: 2010.05.17/outbox.cif.g08.bks.cpg/sg12_107_cif.got.tgz:212627.got - 2010.06.03 13:09:07.
