data_PCOD9186319
_publ_section_title
;
Structure prediction by ZEFSAII (Michael W. Deem and Ramdas Pophale) SiO2 
 PCOD9186319
Probable space group: C 2/M
;
_chemical_formula_sum "Si O2"
_cell_formula_units_Z 48
_cell_length_a 14.462349
_cell_length_b 15.019173
_cell_length_c 11.104081
_cell_angle_alpha 90.000000
_cell_angle_beta 60.586396
_cell_angle_gamma 90.000000
_cell_volume 2101.038984
_symmetry_space_group_name_H-M "C 2/M"
_symmetry_group_IT_number 12
_symmetry_cell_setting 'monoclinic'
loop_
_space_group_symop_operation_xyz
x,y,z
-x,y,-z
-x,-y,-z
x,-y,z
1/2+x,1/2+y,z
1/2-x,1/2+y,-z
1/2-x,1/2-y,-z
1/2+x,1/2-y,z
loop_
_atom_site_type_symbol
_atom_site_label
_atom_site_fract_x
_atom_site_fract_y
_atom_site_fract_z
Si Si1 0.612829 0.403674 0.494252
Si Si2 0.563121 0.632756 0.069476
Si Si3 0.741785 0.211421 0.185782
Si Si4 0.208173 0.093321 0.175592
Si Si5 0.979398 0.394865 0.656674
Si Si6 0.391181 0.252601 0.304507
O O1 0.500000 0.399486 0.500000
O O2 0.624868 0.500000 0.549366
O O3 0.690780 0.403950 0.329924
O O4 0.619497 0.321260 0.578512
O O5 0.596212 0.590896 0.175485
O O6 0.489145 0.715553 0.156203
O O7 0.500000 0.589258 0.000000
O O8 0.675560 0.650200 0.935709
O O9 0.751209 0.309183 0.120028
O O10 0.626710 0.165563 0.256496
O O11 0.787582 0.229066 0.290144
O O12 0.264640 0.000000 0.108724
O O13 0.967942 0.500000 0.697715
O O14 0.000000 0.392328 0.500000
O O15 0.074728 0.343639 0.665848
#
# Coordination Sequence:
#
# PCOD9186319 Si02
#       6
#     8   8   8   8   8   8
#     4  10  19  34  60  92 124 159 205 263 324 380
#     4  10  22  40  64  93 128 170 217 265 322 393
#     4  11  24  43  66  94 132 177 220 267 323 393
#     4  11  22  37  62  93 125 162 213 270 324 382
#     4  11  25  44  66  96 133 174 220 269 325 391
#     4  11  22  41  68  95 132 174 215 268 327 388
#
# _framework density 22.845839000000002
#
# number of rings (size 3 to 8) (size 9 to 14) (size 15 to 20)
#    0.000    1.333    3.333    2.000    0.000    5.000 
#    0.000    6.667    0.000    3.000    0.000    0.000 
#    0.000    0.000    0.000    0.000    0.000    0.000 
#
# Total GULP energy -133795.795013 kJ/mol
# GULP energy per Si atom -5574.824792 kJ/mol
# Density = 2.279384 g / cm^3
# Si number density = 22.845839 Si / 1000 Ang^3
#
#
#
# Elastic Constant Matrix: (Units=GPa)
#
#
# Indices 1 2 3 4 5 6 
#
# 1 87.5576 43.1004 20.1677 0.0000 29.8571 0.0000
# 2 43.1004 152.5813 23.4721 0.0000 13.3608 0.0000
# 3 20.1677 23.4721 69.7101 0.0000 11.2508 0.0000
# 4 0.0000 0.0000 0.0000 63.8125 0.0000 49.0958
# 5 29.8571 13.3608 11.2508 0.0000 36.8989 0.0000
# 6 0.0000 0.0000 0.0000 49.0958 0.0000 28.0229
#
#
#
# Elastic Compliance Matrix: (Units=1/GPa)
#
#
# Indices 1 2 3 4 5 6 
#
# 1 0.017982 -0.003677 -0.001926 0.000000 -0.012632 0.000000
# 2 -0.003677 0.007791 -0.001666 0.000000 0.000662 0.000000
# 3 -0.001926 -0.001666 0.015897 0.000000 -0.002686 0.000000
# 4 0.000000 0.000000 0.000000 -0.045039 0.000000 0.078909
# 5 -0.012632 0.000662 -0.002686 0.000000 0.037901 0.000000
# 6 0.000000 0.000000 0.000000 0.078909 0.000000 -0.102562
#
#
# Mechanical properties :
#
#
# Convention : Reuss Voigt Hill
#
# Bulk Modulus (GPa) = 36.85741 53.70327 45.28034
# Shear Modulus (GPa) = -112.48959 40.62078 -35.93440
#
# Velocity S-wave (km/s) = -7.02463 4.22125 -3.97029
# Velocity P-wave (km/s) = 7.04456 6.87870 1.07455
#
# Compressibility (1/GPa) = 0.02713159
#
# Stress axis : x y z
#
# Youngs Moduli (GPa) = 55.61082 128.35450 62.90604
#
# Poissons Ratio (x) = 0.47198 0.12113
# Poissons Ratio (y) = 0.20449 0.10482
# Poissons Ratio (z) = 0.10708 0.21389
#
# Static dielectric constant tensor:
#      x y z
#    x 1.870540 0.000000 0.025770 
#    y 0.000000 1.944440 0.000000 
#    z 0.025770 0.000000 1.872410 
# 
# From -- ./inp_files/143544.got.cif
#   From: 2010.05.17/outbox.cif.g08.bks.cpg/sg12_72_cif.got.tgz:143544.got - 2010.06.03 13:09:07.
