data_PCOD9186399
_publ_section_title
;
Structure prediction by ZEFSAII (Michael W. Deem and Ramdas Pophale) SiO2 
 PCOD9186399
Probable space group: C 2/M
;
_chemical_formula_sum "Si O2"
_cell_formula_units_Z 52
_cell_length_a 14.965860
_cell_length_b 10.984256
_cell_length_c 19.954981
_cell_angle_alpha 90.000000
_cell_angle_beta 130.093820
_cell_angle_gamma 90.000000
_cell_volume 2509.457797
_symmetry_space_group_name_H-M "C 2/M"
_symmetry_group_IT_number 12
_symmetry_cell_setting 'monoclinic'
loop_
_space_group_symop_operation_xyz
x,y,z
-x,y,-z
-x,-y,-z
x,-y,z
1/2+x,1/2+y,z
1/2-x,1/2+y,-z
1/2-x,1/2-y,-z
1/2+x,1/2-y,z
loop_
_atom_site_type_symbol
_atom_site_label
_atom_site_fract_x
_atom_site_fract_y
_atom_site_fract_z
Si Si1 0.629643 0.363138 0.531549
Si Si2 0.020887 0.859802 0.337199
Si Si3 0.322788 0.761857 0.104463
Si Si4 0.700010 0.500000 0.905380
Si Si5 0.273838 0.361683 0.661454
Si Si6 0.413138 0.000000 0.104808
Si Si7 0.270654 0.247794 0.224773
Si Si8 0.842579 0.500000 0.838818
O O1 0.500000 0.364686 0.500000
O O2 0.680312 0.500000 0.567777
O O3 0.608867 0.346067 0.442384
O O4 0.696831 0.249360 0.595364
O O5 0.099442 0.843149 0.309861
O O6 0.910058 0.772590 0.292538
O O7 0.976628 0.000000 0.318366
O O8 0.370480 0.624289 0.134282
O O9 0.413012 0.872481 0.143805
O O10 0.245676 0.781540 0.134440
O O11 0.250000 0.750000 0.000000
O O12 0.794174 0.500000 0.890912
O O13 0.783357 0.500000 0.010139
O O14 0.236456 0.500000 0.624685
O O15 0.267800 0.348173 0.738714
O O16 0.518967 0.000000 0.104017
O O17 0.209329 0.375119 0.215080
#
# Coordination Sequence:
#
# PCOD9186399 Si02
#       8
#     8   8   8   4   8   4   8   4
#     4  10  20  39  67  90 117 160 205 246 298 363
#     4  10  21  41  63  87 121 164 201 247 302 373
#     4   9  20  37  60  87 124 163 202 251 304 358
#     4   8  17  38  58  85 116 162 193 247 312 365
#     4  11  25  40  61  92 126 158 199 252 313 367
#     4  10  19  34  62  90 116 145 212 258 301 342
#     4  11  22  39  60  87 125 161 204 246 311 359
#     4  10  21  34  60  88 114 155 208 256 285 361
#
# _framework density 20.721606999999999
#
# number of rings (size 3 to 8) (size 9 to 14) (size 15 to 20)
#    0.000    2.000    2.308    0.692    4.308    0.308 
#    0.000    0.769    0.000    0.000    0.000   11.846 
#    0.000    0.000    0.000    0.000    0.000    0.000 
#
# Total GULP energy -144938.636617 kJ/mol
# GULP energy per Si atom -5574.562947 kJ/mol
# Density = 2.067444 g / cm^3
# Si number density = 20.721607 Si / 1000 Ang^3
#
#
#
# Elastic Constant Matrix: (Units=GPa)
#
#
# Indices 1 2 3 4 5 6 
#
# 1 97.6034 44.8396 36.3471 0.0000 -18.1342 0.0000
# 2 44.8396 145.6035 31.7890 0.0000 2.0599 0.0000
# 3 36.3471 31.7890 69.9925 0.0000 -15.7323 0.0000
# 4 0.0000 0.0000 0.0000 22.2712 0.0000 -8.6881
# 5 -18.1342 2.0599 -15.7323 0.0000 29.2145 0.0000
# 6 0.0000 0.0000 0.0000 -8.6881 0.0000 25.3383
#
#
#
# Elastic Compliance Matrix: (Units=1/GPa)
#
#
# Indices 1 2 3 4 5 6 
#
# 1 0.014947 -0.003729 -0.004464 0.000000 0.007137 0.000000
# 2 -0.003729 0.008751 -0.003068 0.000000 -0.004584 0.000000
# 3 -0.004464 -0.003068 0.019824 0.000000 0.008121 0.000000
# 4 0.000000 0.000000 0.000000 0.051834 0.000000 0.017773
# 5 0.007137 -0.004584 0.008121 0.000000 0.043356 0.000000
# 6 0.000000 0.000000 0.000000 0.017773 0.000000 0.045560
#
#
# Mechanical properties :
#
#
# Convention : Reuss Voigt Hill
#
# Bulk Modulus (GPa) = 47.62084 59.90564 53.76324
# Shear Modulus (GPa) = 23.38664 28.71305 26.04984
#
# Velocity S-wave (km/s) = 3.36313 3.72648 3.54946
# Velocity P-wave (km/s) = 6.17349 6.89116 6.54217
#
# Compressibility (1/GPa) = 0.02099921
#
# Stress axis : x y z
#
# Youngs Moduli (GPa) = 66.90148 114.26944 50.44291
#
# Poissons Ratio (x) = 0.42617 0.22518
# Poissons Ratio (y) = 0.24951 0.15478
# Poissons Ratio (z) = 0.29865 0.35062
#
# Static dielectric constant tensor:
#      x y z
#    x 1.716860 0.000000 -0.055750 
#    y 0.000000 1.801900 0.000000 
#    z -0.055750 0.000000 1.828420 
# 
# From -- ./inp_files/310065.got.cif
#   From: 2010.05.17/outbox.cif.g08.bks.cpg/sg12_156_cif.got.tgz:310065.got - 2010.06.03 13:09:07.
