data_PCOD9186487
_publ_section_title
;
Structure prediction by ZEFSAII (Michael W. Deem and Ramdas Pophale) SiO2 
 PCOD9186487
Probable space group: C 2/M
;
_chemical_formula_sum "Si O2"
_cell_formula_units_Z 64
_cell_length_a 23.829720
_cell_length_b 7.622855
_cell_length_c 18.690053
_cell_angle_alpha 90.000000
_cell_angle_beta 94.855137
_cell_angle_gamma 90.000000
_cell_volume 3382.875579
_symmetry_space_group_name_H-M "C 2/M"
_symmetry_group_IT_number 12
_symmetry_cell_setting 'monoclinic'
loop_
_space_group_symop_operation_xyz
x,y,z
-x,y,-z
-x,-y,-z
x,-y,z
1/2+x,1/2+y,z
1/2-x,1/2+y,-z
1/2-x,1/2-y,-z
1/2+x,1/2-y,z
loop_
_atom_site_type_symbol
_atom_site_label
_atom_site_fract_x
_atom_site_fract_y
_atom_site_fract_z
Si Si1 0.292421 0.202717 0.749354
Si Si2 0.315740 0.708747 0.013337
Si Si3 0.498370 0.296172 0.079623
Si Si4 0.834936 0.785239 0.290264
Si Si5 0.812412 0.203525 0.596261
Si Si6 0.818544 0.213588 0.443536
Si Si7 0.391179 0.714413 0.153397
Si Si8 0.877673 0.296324 0.874967
O O1 0.784068 0.500000 0.769706
O O2 0.229060 0.275264 0.734780
O O3 0.320724 0.209014 0.673968
O O4 0.333316 0.281407 0.813363
O O5 0.322953 0.500000 0.010193
O O6 0.342861 0.766149 0.091383
O O7 0.250000 0.750000 0.000000
O O8 0.350024 0.784798 0.950298
O O9 0.482047 0.500000 0.067884
O O10 0.450287 0.223831 0.126540
O O11 0.560944 0.287939 0.117249
O O12 0.500000 0.215910 0.000000
O O13 0.849218 0.733848 0.373424
O O14 0.875594 0.726197 0.231311
O O15 0.833771 0.000000 0.290497
O O16 0.838654 0.271857 0.524419
O O17 0.745325 0.220852 0.574684
O O18 0.827307 0.000000 0.606238
O O19 0.816118 0.000000 0.445823
O O20 0.391507 0.500000 0.156718
O O21 0.886718 0.500000 0.857740
#
# Coordination Sequence:
#
# PCOD9186487 Si02
#       8
#     8   8   8   8   8   8   8   8
#     4   9  18  31  45  64  94 125 156 193 236 286
#     4  11  21  34  50  72 100 129 160 194 234 287
#     4  10  19  35  53  70  91 120 158 203 247 288
#     4   8  13  25  45  66  89 121 155 184 220 276
#     4   9  15  23  39  64  92 122 155 187 225 275
#     4   8  14  24  39  62  93 125 154 185 223 273
#     4   9  17  30  49  68  91 124 158 190 234 286
#     4  11  22  35  51  71  93 124 163 203 246 287
#
# _framework density 18.918816
#
# number of rings (size 3 to 8) (size 9 to 14) (size 15 to 20)
#    0.000    2.625    1.250    2.625    0.000    3.750 
#    0.000    0.000    0.000    3.750    0.000    0.875 
#    0.000    7.000    0.000    0.000    0.000    0.000 
#
# Total GULP energy -178295.160020 kJ/mol
# GULP energy per Si atom -5571.723751 kJ/mol
# Density = 1.887576 g / cm^3
# Si number density = 18.918816 Si / 1000 Ang^3
#
#
#
# Elastic Constant Matrix: (Units=GPa)
#
#
# Indices 1 2 3 4 5 6 
#
# 1 75.3054 -4.5225 32.6612 0.0000 -28.7648 0.0000
# 2 -4.5225 36.1972 -4.8835 0.0000 -0.4613 0.0000
# 3 32.6612 -4.8835 115.0343 0.0000 -40.9227 0.0000
# 4 0.0000 0.0000 0.0000 13.2311 0.0000 1.3316
# 5 -28.7648 -0.4613 -40.9227 0.0000 23.0353 0.0000
# 6 0.0000 0.0000 0.0000 1.3316 0.0000 13.5302
#
#
#
# Elastic Compliance Matrix: (Units=1/GPa)
#
#
# Indices 1 2 3 4 5 6 
#
# 1 0.033635 0.007201 0.015621 0.000000 0.069896 0.000000
# 2 0.007201 0.029774 0.007147 0.000000 0.022285 0.000000
# 3 0.015621 0.007147 0.031389 0.000000 0.075412 0.000000
# 4 0.000000 0.000000 0.000000 0.076336 0.000000 -0.007513
# 5 0.069896 0.022285 0.075412 0.000000 0.265110 0.000000
# 6 0.000000 0.000000 0.000000 -0.007513 0.000000 0.074648
#
#
# Mechanical properties :
#
#
# Convention : Reuss Voigt Hill
#
# Bulk Modulus (GPa) = 6.46261 30.33858 18.40060
# Shear Modulus (GPa) = 9.94959 23.51144 16.73052
#
# Velocity S-wave (km/s) = 2.29576 3.52910 2.97700
# Velocity P-wave (km/s) = 3.23276 5.71638 4.64369
#
# Compressibility (1/GPa) = 0.15473619
#
# Stress axis : x y z
#
# Youngs Moduli (GPa) = 29.73064 33.58598 31.85869
#
# Poissons Ratio (x) = -0.24184 -0.49766
# Poissons Ratio (y) = -0.21408 -0.22771
# Poissons Ratio (z) = -0.46442 -0.24005
#
# Static dielectric constant tensor:
#      x y z
#    x 1.616120 0.000000 -0.013190 
#    y 0.000000 1.539190 0.000000 
#    z -0.013190 0.000000 1.706160 
# 
# From -- ./inp_files/281230.got.cif
#   From: 2010.05.17/outbox.cif.g08.bks.cpg/sg12_141_cif.got.tgz:281230.got - 2010.06.03 13:09:07.
