data_PCOD9186876
_publ_section_title
;
Structure prediction by ZEFSAII (Michael W. Deem and Ramdas Pophale) SiO2 
 PCOD9186876
Probable space group: C 2/M
;
_chemical_formula_sum "Si O2"
_cell_formula_units_Z 50
_cell_length_a 31.139126
_cell_length_b 7.464187
_cell_length_c 12.082781
_cell_angle_alpha 90.000000
_cell_angle_beta 129.867582
_cell_angle_gamma 90.000000
_cell_volume 2155.509991
_symmetry_space_group_name_H-M "C 2/M"
_symmetry_group_IT_number 12
_symmetry_cell_setting 'monoclinic'
loop_
_space_group_symop_operation_xyz
x,y,z
-x,y,-z
-x,-y,-z
x,-y,z
1/2+x,1/2+y,z
1/2-x,1/2+y,-z
1/2-x,1/2-y,-z
1/2+x,1/2-y,z
loop_
_atom_site_type_symbol
_atom_site_label
_atom_site_fract_x
_atom_site_fract_y
_atom_site_fract_z
Si Si1 0.183665 0.784922 0.887857
Si Si2 0.997044 0.790260 0.661665
Si Si3 0.955647 0.788572 0.012978
Si Si4 0.264795 0.712457 0.397755
Si Si5 0.500000 0.000000 0.500000
Si Si6 0.844407 0.790124 0.919318
Si Si7 0.631865 0.718283 0.570459
O O1 0.156209 0.720056 0.728652
O O2 0.176315 0.000000 0.875020
O O3 0.250000 0.750000 0.000000
O O4 0.158781 0.714288 0.962151
O O5 0.025943 0.658817 0.623654
O O6 0.932119 0.727307 0.552228
O O7 0.019645 0.775177 0.822956
O O8 0.001508 0.000000 0.637832
O O9 0.950084 0.000000 0.972831
O O10 0.892929 0.714038 0.920749
O O11 0.000000 0.710675 0.000000
O O12 0.265512 0.500000 0.385113
O O13 0.250000 0.750000 0.500000
O O14 0.215524 0.780191 0.237384
O O15 0.324931 0.777950 0.453299
O O16 0.858420 0.000000 0.956405
O O17 0.630763 0.500000 0.567826
#
# Coordination Sequence:
#
# PCOD9186876 Si02
#       7
#     8   8   8   8   2   8   8
#     4  10  19  35  56  87 123 158 200 249 307 378
#     4  10  23  45  68  94 135 176 215 280 333 387
#     4   9  20  40  68  93 122 172 225 265 328 399
#     4  11  23  40  61  90 124 167 213 260 321 388
#     4  12  26  44  62 106 128 172 234 262 326 416
#     4  10  21  37  61  94 123 157 206 260 315 384
#     4   9  20  39  64  88 122 169 210 251 320 390
#
# _framework density 23.196366000000001
#
# number of rings (size 3 to 8) (size 9 to 14) (size 15 to 20)
#    0.000    2.080    1.600    0.720    4.480    0.000 
#    5.760    0.400    0.000    0.000    0.000    0.000 
#    0.000    0.000    0.000    0.000    0.000    0.000 
#
# Total GULP energy -139484.514786 kJ/mol
# GULP energy per Si atom -5579.380591 kJ/mol
# Density = 2.314357 g / cm^3
# Si number density = 23.196366 Si / 1000 Ang^3
#
#
#
# Elastic Constant Matrix: (Units=GPa)
#
#
# Indices 1 2 3 4 5 6 
#
# 1 108.5967 5.7396 -0.2496 0.0000 -2.6605 0.0000
# 2 5.7396 92.9254 -3.7072 0.0000 -8.3524 0.0000
# 3 -0.2496 -3.7072 31.2967 0.0000 6.4544 0.0000
# 4 0.0000 0.0000 0.0000 115.6033 0.0000 -5.1184
# 5 -2.6605 -8.3524 6.4544 0.0000 44.1158 0.0000
# 6 0.0000 0.0000 0.0000 -5.1184 0.0000 3.3730
#
#
#
# Elastic Compliance Matrix: (Units=1/GPa)
#
#
# Indices 1 2 3 4 5 6 
#
# 1 0.009248 -0.000532 -0.000086 0.000000 0.000469 0.000000
# 2 -0.000532 0.011003 0.000903 0.000000 0.001919 0.000000
# 3 -0.000086 0.000903 0.033021 0.000000 -0.004665 0.000000
# 4 0.000000 0.000000 0.000000 0.009273 0.000000 0.014072
# 5 0.000469 0.001919 -0.004665 0.000000 0.023742 0.000000
# 6 0.000000 0.000000 0.000000 0.014072 0.000000 0.317827
#
#
# Mechanical properties :
#
#
# Convention : Reuss Voigt Hill
#
# Bulk Modulus (GPa) = 18.57329 26.26492 22.41911
# Shear Modulus (GPa) = 11.86267 48.02083 29.94175
#
# Velocity S-wave (km/s) = 2.26387 4.55487 3.59666
# Velocity P-wave (km/s) = 3.85459 6.24579 5.18978
#
# Compressibility (1/GPa) = 0.05384075
#
# Stress axis : x y z
#
# Youngs Moduli (GPa) = 108.13348 90.88667 30.28408
#
# Poissons Ratio (x) = 0.04839 0.00261
# Poissons Ratio (y) = 0.05757 -0.02736
# Poissons Ratio (z) = 0.00931 -0.08210
#
# Static dielectric constant tensor:
#      x y z
#    x 1.940110 0.000000 0.001630 
#    y 0.000000 1.793250 0.000000 
#    z 0.001630 0.000000 1.805570 
# 
# From -- ./inp_files/181231.got.cif
#   From: 2010.05.17/outbox.cif.g08.bks.cpg/sg12_91_cif.got.tgz:181231.got - 2010.06.03 13:09:07.
