data_PCOD9186120
_publ_section_title
;
Structure prediction by ZEFSAII (Michael W. Deem and Ramdas Pophale) SiO2 
 PCOD9186120
Probable space group: C 2/M
;
_chemical_formula_sum "Si O2"
_cell_formula_units_Z 64
_cell_length_a 30.903089
_cell_length_b 8.790587
_cell_length_c 16.578632
_cell_angle_alpha 90.000000
_cell_angle_beta 47.172977
_cell_angle_gamma 90.000000
_cell_volume 3303.048052
_symmetry_space_group_name_H-M "C 2/M"
_symmetry_group_IT_number 12
_symmetry_cell_setting 'monoclinic'
loop_
_space_group_symop_operation_xyz
x,y,z
-x,y,-z
-x,-y,-z
x,-y,z
1/2+x,1/2+y,z
1/2-x,1/2+y,-z
1/2-x,1/2-y,-z
1/2+x,1/2-y,z
loop_
_atom_site_type_symbol
_atom_site_label
_atom_site_fract_x
_atom_site_fract_y
_atom_site_fract_z
Si Si1 0.501213 0.684086 0.754098
Si Si2 0.344058 0.183281 0.716374
Si Si3 0.272213 0.318673 0.555280
Si Si4 0.208069 0.818299 0.917495
Si Si5 0.890762 0.816487 0.491420
Si Si6 0.379447 0.181609 0.848981
Si Si7 0.670607 0.317485 0.789277
Si Si8 0.546373 0.685365 0.872986
O O1 0.498533 0.500000 0.758502
O O2 0.547329 0.731219 0.626077
O O3 0.436776 0.747369 0.817817
O O4 0.526336 0.733431 0.809442
O O5 0.275129 0.228146 0.812321
O O6 0.374881 0.252247 0.598985
O O7 0.375130 0.227489 0.760714
O O8 0.345128 0.000000 0.707704
O O9 0.271763 0.500000 0.549590
O O10 0.250000 0.250000 0.500000
O O11 0.337928 0.270785 0.497658
O O12 0.227210 0.263340 0.680498
O O13 0.169106 0.788830 0.886766
O O14 0.208306 0.000000 0.931774
O O15 0.178639 0.736129 0.030059
O O16 0.890551 0.000000 0.496200
O O17 0.382567 0.000000 0.848470
O O18 0.677388 0.500000 0.770251
O O19 0.611769 0.267759 0.817268
O O20 0.546768 0.500000 0.872284
O O21 0.500000 0.733971 0.000000
#
# Coordination Sequence:
#
# PCOD9186120 Si02
#       8
#     8   8   8   8   8   8   8   8
#     4  10  21  39  59  82 115 154 201 243 283 345
#     4  10  22  40  61  87 117 151 193 242 297 354
#     4  11  22  36  56  84 116 150 189 233 286 341
#     4  10  20  37  62  89 117 152 192 236 293 359
#     4  10  22  39  60  85 116 155 197 245 291 342
#     4  11  24  39  58  86 118 152 193 245 300 348
#     4  10  19  34  59  87 114 147 190 236 286 342
#     4   9  17  32  57  85 113 151 195 237 278 332
#
# _framework density 19.376042999999999
#
# number of rings (size 3 to 8) (size 9 to 14) (size 15 to 20)
#    0.000    1.875    1.250    2.625    0.000    7.500 
#    0.000    4.375    0.000    1.500    0.000    0.000 
#    0.000    0.000    0.000    0.000    0.000    0.000 
#
# Total GULP energy -178764.635658 kJ/mol
# GULP energy per Si atom -5586.394864 kJ/mol
# Density = 1.933194 g / cm^3
# Si number density = 19.376043 Si / 1000 Ang^3
#
#
#
# Elastic Constant Matrix: (Units=GPa)
#
#
# Indices 1 2 3 4 5 6 
#
# 1 76.0780 13.9927 16.6869 0.0001 6.0141 0.0000
# 2 13.9927 11.0469 18.8060 0.0008 6.4571 -0.0002
# 3 16.6869 18.8060 106.0784 0.0004 4.9609 0.0000
# 4 0.0001 0.0008 0.0004 26.6658 -0.0001 -3.5407
# 5 6.0141 6.4571 4.9609 -0.0001 35.3444 0.0000
# 6 0.0000 -0.0002 0.0000 -3.5407 0.0000 21.7438
#
#
#
# Elastic Compliance Matrix: (Units=1/GPa)
#
#
# Indices 1 2 3 4 5 6 
#
# 1 0.017414 -0.026026 0.001803 0.000001 0.001539 0.000000
# 2 -0.026026 0.185377 -0.027575 -0.000005 -0.025568 0.000001
# 3 0.001803 -0.027575 0.013902 0.000001 0.002780 0.000000
# 4 0.000001 -0.000005 0.000001 0.038330 0.000001 0.006241
# 5 0.001539 -0.025568 0.002780 0.000001 0.032312 0.000000
# 6 0.000000 0.000001 0.000000 0.006241 0.000000 0.047006
#
#
# Mechanical properties :
#
#
# Convention : Reuss Voigt Hill
#
# Bulk Modulus (GPa) = 8.84196 32.46384 20.65290
# Shear Modulus (GPa) = 10.51221 26.33198 18.42209
#
# Velocity S-wave (km/s) = 2.33177 3.69046 3.08680
# Velocity P-wave (km/s) = 3.43843 5.91188 4.83596
#
# Compressibility (1/GPa) = 0.11309713
#
# Stress axis : x y z
#
# Youngs Moduli (GPa) = 57.42419 5.39441 71.93224
#
# Poissons Ratio (x) = 0.14040 -0.12967
# Poissons Ratio (y) = 1.49454 1.98351
# Poissons Ratio (z) = -0.10352 0.14875
#
# Static dielectric constant tensor:
#      x y z
#    x 1.678920 0.000000 0.005370 
#    y 0.000000 1.654620 0.000000 
#    z 0.005370 0.000000 1.664240 
# 
# From -- ./inp_files/249858.got.cif
#   From: 2010.05.17/outbox.cif.g08.bks.cpg/sg12_125_cif.got.tgz:249858.got - 2010.06.03 13:09:07.
