data_PCOD9186847
_publ_section_title
;
Structure prediction by ZEFSAII (Michael W. Deem and Ramdas Pophale) SiO2 
 PCOD9186847
Probable space group: C 2/M
;
_chemical_formula_sum "Si O2"
_cell_formula_units_Z 48
_cell_length_a 29.860963
_cell_length_b 18.201122
_cell_length_c 9.952126
_cell_angle_alpha 90.000000
_cell_angle_beta 148.944887
_cell_angle_gamma 90.000000
_cell_volume 2790.304933
_symmetry_space_group_name_H-M "C 2/M"
_symmetry_group_IT_number 12
_symmetry_cell_setting 'monoclinic'
loop_
_space_group_symop_operation_xyz
x,y,z
-x,y,-z
-x,-y,-z
x,-y,z
1/2+x,1/2+y,z
1/2-x,1/2+y,-z
1/2-x,1/2-y,-z
1/2+x,1/2-y,z
loop_
_atom_site_type_symbol
_atom_site_label
_atom_site_fract_x
_atom_site_fract_y
_atom_site_fract_z
Si Si1 0.504897 0.175454 0.853391
Si Si2 0.559231 0.293634 0.780691
Si Si3 0.308838 0.414746 0.817522
Si Si4 0.279447 0.193835 0.897132
Si Si5 0.818740 0.587370 0.761356
Si Si6 0.314355 0.161716 0.293188
O O1 0.513976 0.247175 0.782234
O O2 0.413380 0.140003 0.574784
O O3 0.500000 0.190920 0.000000
O O4 0.588642 0.124470 0.037817
O O5 0.500000 0.311269 0.500000
O O6 0.606444 0.364345 0.962434
O O7 0.635101 0.241226 0.918066
O O8 0.330616 0.500000 0.877749
O O9 0.247729 0.400456 0.532030
O O10 0.250604 0.390827 0.794543
O O11 0.278798 0.129243 0.787033
O O12 0.202859 0.254598 0.697336
O O13 0.290106 0.163922 0.074611
O O14 0.828910 0.500000 0.808639
#
# Coordination Sequence:
#
# PCOD9186847 Si02
#       6
#     8   8   8   8   8   8
#     4  11  21  33  57  84 107 136 180 225 268 309
#     4  10  20  36  57  79 106 139 180 225 265 314
#     4  10  22  37  54  78 110 146 178 213 266 324
#     4   9  20  35  57  78 110 140 179 219 267 314
#     4  10  22  37  53  78 113 148 175 210 266 328
#     4  10  19  35  56  83 106 137 178 229 263 308
#
# _framework density 17.202421999999999
#
# number of rings (size 3 to 8) (size 9 to 14) (size 15 to 20)
#    0.000    2.000    3.333    0.000    2.333    4.000 
#    0.000    0.833    0.000    0.500    0.000    0.000 
#    0.000    0.000    0.000    0.000    0.000    0.000 
#
# Total GULP energy -133849.975198 kJ/mol
# GULP energy per Si atom -5577.082300 kJ/mol
# Density = 1.716327 g / cm^3
# Si number density = 17.202422 Si / 1000 Ang^3
#
#
#
# Elastic Constant Matrix: (Units=GPa)
#
#
# Indices 1 2 3 4 5 6 
#
# 1 78.8640 24.2432 7.0893 0.0000 -17.7873 0.0000
# 2 24.2432 45.6516 32.4036 0.0000 -4.9443 0.0000
# 3 7.0893 32.4036 54.2795 0.0000 -3.3333 0.0000
# 4 0.0000 0.0000 0.0000 21.9252 0.0000 -5.1161
# 5 -17.7873 -4.9443 -3.3333 0.0000 23.1657 0.0000
# 6 0.0000 0.0000 0.0000 -5.1161 0.0000 9.8297
#
#
#
# Elastic Compliance Matrix: (Units=1/GPa)
#
#
# Indices 1 2 3 4 5 6 
#
# 1 0.018999 -0.013028 0.006075 0.000000 0.012681 0.000000
# 2 -0.013028 0.047503 -0.026886 0.000000 -0.003733 0.000000
# 3 0.006075 -0.026886 0.033914 0.000000 0.003806 0.000000
# 4 0.000000 0.000000 0.000000 0.051914 0.000000 0.027020
# 5 0.012681 -0.003733 0.003806 0.000000 0.052655 0.000000
# 6 0.000000 0.000000 0.000000 0.027020 0.000000 0.115796
#
#
# Mechanical properties :
#
#
# Convention : Reuss Voigt Hill
#
# Bulk Modulus (GPa) = 30.54585 34.02971 32.28778
# Shear Modulus (GPa) = 12.51969 18.65473 15.58721
#
# Velocity S-wave (km/s) = 2.70068 3.29663 3.01342
# Velocity P-wave (km/s) = 5.24596 5.85792 5.56037
#
# Compressibility (1/GPa) = 0.03273767
#
# Stress axis : x y z
#
# Youngs Moduli (GPa) = 52.63439 21.05147 29.48662
#
# Poissons Ratio (x) = 0.27425 -0.17912
# Poissons Ratio (y) = 0.68570 0.79277
# Poissons Ratio (z) = -0.31973 0.56598
#
# Static dielectric constant tensor:
#      x y z
#    x 1.581950 0.000000 0.005360 
#    y 0.000000 1.574120 0.000000 
#    z 0.005360 0.000000 1.578910 
# 
# From -- ./inp_files/75440.got.cif
#   From: 2010.05.17/outbox.cif.g08.bks.cpg/sg12_38_cif.got.tgz:75440.got - 2010.06.03 13:09:07.
