data_PCOD9186282
_publ_section_title
;
Structure prediction by ZEFSAII (Michael W. Deem and Ramdas Pophale) SiO2 
 PCOD9186282
Probable space group: C 2/M
;
_chemical_formula_sum "Si O2"
_cell_formula_units_Z 48
_cell_length_a 13.279116
_cell_length_b 18.821512
_cell_length_c 10.342300
_cell_angle_alpha 90.000000
_cell_angle_beta 73.833452
_cell_angle_gamma 90.000000
_cell_volume 2482.666959
_symmetry_space_group_name_H-M "C 2/M"
_symmetry_group_IT_number 12
_symmetry_cell_setting 'monoclinic'
loop_
_space_group_symop_operation_xyz
x,y,z
-x,y,-z
-x,-y,-z
x,-y,z
1/2+x,1/2+y,z
1/2-x,1/2+y,-z
1/2-x,1/2-y,-z
1/2+x,1/2-y,z
loop_
_atom_site_type_symbol
_atom_site_label
_atom_site_fract_x
_atom_site_fract_y
_atom_site_fract_z
Si Si1 0.624454 0.915840 0.954290
Si Si2 0.910715 0.216095 0.942946
Si Si3 0.204718 0.326150 0.162328
Si Si4 0.229245 0.085451 0.329381
Si Si5 0.221645 0.915402 0.623190
Si Si6 0.026732 0.917776 0.236928
O O1 0.687777 0.887270 0.806572
O O2 0.642679 0.000000 0.949444
O O3 0.500000 0.905190 0.000000
O O4 0.673279 0.883059 0.064909
O O5 0.880023 0.263701 0.830076
O O6 0.946339 0.138923 0.882286
O O7 0.812730 0.207420 0.073134
O O8 0.000000 0.249253 0.000000
O O9 0.222564 0.366061 0.290406
O O10 0.247653 0.109804 0.468738
O O11 0.110826 0.097327 0.320730
O O12 0.240636 0.000000 0.331871
O O13 0.095110 0.910719 0.682877
O O14 0.247967 0.000000 0.630077
O O15 0.044369 0.000000 0.190477
#
# Coordination Sequence:
#
# PCOD9186282 Si02
#       6
#     8   8   8   8   8   8
#     4  10  20  36  59  85 113 156 203 240 285 345
#     4  11  22  37  56  84 118 155 198 240 297 342
#     4  11  22  36  57  83 117 157 195 245 287 346
#     4   9  18  34  57  88 123 151 186 241 299 350
#     4  10  20  35  60  93 122 150 189 242 299 350
#     4  10  19  34  60  89 118 151 191 239 297 356
#
# _framework density 19.334047000000002
#
# number of rings (size 3 to 8) (size 9 to 14) (size 15 to 20)
#    0.000    1.833    3.333    1.500    0.000    3.000 
#    0.000    1.667    0.000    6.000    0.000    0.000 
#    0.000    0.000    0.000    0.000    0.000    0.000 
#
# Total GULP energy -133876.135161 kJ/mol
# GULP energy per Si atom -5578.172298 kJ/mol
# Density = 1.929004 g / cm^3
# Si number density = 19.334047 Si / 1000 Ang^3
#
#
#
# Elastic Constant Matrix: (Units=GPa)
#
#
# Indices 1 2 3 4 5 6 
#
# 1 103.1090 32.6907 50.1398 0.0000 18.3860 0.0000
# 2 32.6907 82.9433 47.9283 0.0000 14.5790 0.0000
# 3 50.1398 47.9283 118.7692 0.0000 31.3753 0.0000
# 4 0.0000 0.0000 0.0000 14.7436 0.0000 14.1916
# 5 18.3860 14.5790 31.3753 0.0000 26.5648 0.0000
# 6 0.0000 0.0000 0.0000 14.1916 0.0000 13.4460
#
#
#
# Elastic Compliance Matrix: (Units=1/GPa)
#
#
# Indices 1 2 3 4 5 6 
#
# 1 0.012779 -0.002402 -0.003542 0.000000 -0.003342 0.000000
# 2 -0.002402 0.016224 -0.005262 0.000000 -0.001027 0.000000
# 3 -0.003542 -0.005262 0.015448 0.000000 -0.012906 0.000000
# 4 0.000000 0.000000 0.000000 -4.254121 0.000000 4.490041
# 5 -0.003342 -0.001027 -0.012906 0.000000 0.055763 0.000000
# 6 0.000000 0.000000 0.000000 4.490041 0.000000 -4.664672
#
#
# Mechanical properties :
#
#
# Convention : Reuss Voigt Hill
#
# Bulk Modulus (GPa) = 45.37608 62.92655 54.15131
# Shear Modulus (GPa) = -0.56890 22.55505 10.99307
#
# Velocity S-wave (km/s) = -0.54304 3.41925 2.38709
# Velocity P-wave (km/s) = 4.80908 6.94306 5.97216
#
# Compressibility (1/GPa) = 0.02203804
#
# Stress axis : x y z
#
# Youngs Moduli (GPa) = 78.25579 61.63652 64.73414
#
# Poissons Ratio (x) = 0.14805 0.22931
# Poissons Ratio (y) = 0.18797 0.34062
# Poissons Ratio (z) = 0.27721 0.32432
#
# Static dielectric constant tensor:
#      x y z
#    x 1.711850 0.000000 -0.004790 
#    y 0.000000 1.703330 0.000000 
#    z -0.004790 0.000000 1.660560 
# 
# From -- ./inp_files/131074.got.cif
#   From: 2010.05.17/outbox.cif.g08.bks.cpg/sg12_66_cif.got.tgz:131074.got - 2010.06.03 13:09:07.
