data_PCOD9186217
_publ_section_title
;
Structure prediction by ZEFSAII (Michael W. Deem and Ramdas Pophale) SiO2 
 PCOD9186217
Probable space group: C 2/M
;
_chemical_formula_sum "Si O2"
_cell_formula_units_Z 52
_cell_length_a 24.278274
_cell_length_b 14.181401
_cell_length_c 12.916404
_cell_angle_alpha 90.000000
_cell_angle_beta 147.837352
_cell_angle_gamma 90.000000
_cell_volume 2367.309466
_symmetry_space_group_name_H-M "C 2/M"
_symmetry_group_IT_number 12
_symmetry_cell_setting 'monoclinic'
loop_
_space_group_symop_operation_xyz
x,y,z
-x,y,-z
-x,-y,-z
x,-y,z
1/2+x,1/2+y,z
1/2-x,1/2+y,-z
1/2-x,1/2-y,-z
1/2+x,1/2-y,z
loop_
_atom_site_type_symbol
_atom_site_label
_atom_site_fract_x
_atom_site_fract_y
_atom_site_fract_z
Si Si1 0.568608 0.893754 0.762880
Si Si2 0.023660 0.807285 0.654235
Si Si3 0.879875 0.831895 0.802330
Si Si4 0.307911 0.823932 0.847694
Si Si5 0.748657 0.340879 0.103130
Si Si6 0.368978 0.605826 0.568311
Si Si7 0.787691 0.000000 0.780862
O O1 0.496013 0.803984 0.625216
O O2 0.660332 0.877389 0.825710
O O3 0.525763 0.000000 0.684641
O O4 0.615333 0.877116 0.951859
O O5 0.000000 0.836523 0.500000
O O6 0.962713 0.865001 0.643404
O O7 0.144724 0.821336 0.871758
O O8 0.864801 0.743170 0.854678
O O9 0.858935 0.821179 0.646971
O O10 0.809071 0.916326 0.729702
O O11 0.000000 0.861520 0.000000
O O12 0.238489 0.755803 0.811082
O O13 0.232607 0.889857 0.663523
O O14 0.725772 0.419065 0.151087
O O15 0.387786 0.500000 0.637399
#
# Coordination Sequence:
#
# PCOD9186217 Si02
#       7
#     8   8   8   8   8   8   4
#     4  11  21  39  64  86 119 168 209 247 307 370
#     4  11  24  39  58  92 130 159 203 257 309 360
#     4  11  22  38  64  89 123 160 204 255 304 361
#     4  10  22  39  60  89 126 160 200 256 309 359
#     4  10  20  37  62  88 122 162 201 256 304 363
#     4  12  24  39  63  90 125 162 205 255 306 367
#     4  10  19  34  59  94 116 150 210 246 298 360
#
# _framework density 21.965866999999999
#
# number of rings (size 3 to 8) (size 9 to 14) (size 15 to 20)
#    0.000    1.231    1.538    7.615    3.231    0.615 
#    0.000    0.000    1.692   10.154    0.000    0.000 
#    0.000    0.000    0.000    0.000    0.000    0.000 
#
# Total GULP energy -144848.287827 kJ/mol
# GULP energy per Si atom -5571.087993 kJ/mol
# Density = 2.191587 g / cm^3
# Si number density = 21.965867 Si / 1000 Ang^3
#
#
#
# Elastic Constant Matrix: (Units=GPa)
#
#
# Indices 1 2 3 4 5 6 
#
# 1 98.3968 19.8231 29.8989 0.0000 -41.6741 0.0000
# 2 19.8231 73.3275 -17.1675 0.0000 -6.3181 0.0000
# 3 29.8989 -17.1675 58.7392 0.0000 -21.6710 0.0000
# 4 0.0000 0.0000 0.0000 9.9116 0.0000 -14.1997
# 5 -41.6741 -6.3181 -21.6710 0.0000 27.4311 0.0000
# 6 0.0000 0.0000 0.0000 -14.1997 0.0000 21.6387
#
#
#
# Elastic Compliance Matrix: (Units=1/GPa)
#
#
# Indices 1 2 3 4 5 6 
#
# 1 0.029736 -0.004264 -0.000109 0.000000 0.044107 0.000000
# 2 -0.004264 0.017257 0.008878 0.000000 0.004511 0.000000
# 3 -0.000109 0.008878 0.028747 0.000000 0.024589 0.000000
# 4 0.000000 0.000000 0.000000 1.684931 0.000000 1.105683
# 5 0.044107 0.004511 0.024589 0.000000 0.123929 0.000000
# 6 0.000000 0.000000 0.000000 1.105683 0.000000 0.771783
#
#
# Mechanical properties :
#
#
# Convention : Reuss Voigt Hill
#
# Bulk Modulus (GPa) = 11.79935 32.84138 22.32037
# Shear Modulus (GPa) = 1.86872 24.99021 13.42947
#
# Velocity S-wave (km/s) = 0.92336 3.37662 2.47529
# Velocity P-wave (km/s) = 2.55345 5.49414 4.28402
#
# Compressibility (1/GPa) = 0.08475044
#
# Stress axis : x y z
#
# Youngs Moduli (GPa) = 33.62935 57.94597 34.78656
#
# Poissons Ratio (x) = 0.24708 0.00381
# Poissons Ratio (y) = 0.14339 -0.30885
# Poissons Ratio (z) = 0.00368 -0.51447
#
# Static dielectric constant tensor:
#      x y z
#    x 1.796120 0.000000 0.019830 
#    y 0.000000 1.798340 0.000000 
#    z 0.019830 0.000000 1.840500 
# 
# From -- ./inp_files/176497.got.cif
#   From: 2010.05.17/outbox.cif.g08.bks.cpg/sg12_89_cif.got.tgz:176497.got - 2010.06.03 13:09:07.
