data_PCOD9186113
_publ_section_title
;
Structure prediction by ZEFSAII (Michael W. Deem and Ramdas Pophale) SiO2 
 PCOD9186113
Probable space group: C 2/M
;
_chemical_formula_sum "Si O2"
_cell_formula_units_Z 64
_cell_length_a 9.085707
_cell_length_b 21.003478
_cell_length_c 22.454604
_cell_angle_alpha 90.000000
_cell_angle_beta 134.690896
_cell_angle_gamma 90.000000
_cell_volume 3046.286312
_symmetry_space_group_name_H-M "C 2/M"
_symmetry_group_IT_number 12
_symmetry_cell_setting 'monoclinic'
loop_
_space_group_symop_operation_xyz
x,y,z
-x,y,-z
-x,-y,-z
x,-y,z
1/2+x,1/2+y,z
1/2-x,1/2+y,-z
1/2-x,1/2-y,-z
1/2+x,1/2-y,z
loop_
_atom_site_type_symbol
_atom_site_label
_atom_site_fract_x
_atom_site_fract_y
_atom_site_fract_z
Si Si1 0.095371 0.739846 0.194136
Si Si2 0.497350 0.322877 0.682122
Si Si3 0.433013 0.160276 0.263483
Si Si4 0.353903 0.345201 0.075670
Si Si5 0.166503 0.211728 0.599127
Si Si6 0.189409 0.070495 0.124059
Si Si7 0.568216 0.068808 0.929708
Si Si8 0.087770 0.927951 0.788498
O O1 0.281722 0.695740 0.222513
O O2 0.146885 0.661994 0.359915
O O3 0.993823 0.700100 0.219673
O O4 0.908772 0.771782 0.104086
O O5 0.750151 0.198163 0.754748
O O6 0.557029 0.309383 0.629998
O O7 0.467170 0.392380 0.700842
O O8 0.697824 0.277280 0.359781
O O9 0.354324 0.092181 0.220623
O O10 0.522269 0.373750 0.078205
O O11 0.405444 0.386408 0.149416
O O12 0.138330 0.370641 0.988278
O O13 0.000000 0.215674 0.500000
O O14 0.301295 0.070027 0.093172
O O15 0.102940 0.000000 0.109907
O O16 0.331391 0.068048 0.843466
O O17 0.611660 0.000000 0.972714
O O18 0.012564 0.000000 0.777006
#
# Coordination Sequence:
#
# PCOD9186113 Si02
#       8
#     8   8   8   8   8   8   8   8
#     4   9  18  32  51  72 100 136 167 210 256 297
#     4  10  20  37  57  81 110 136 174 212 254 317
#     4   9  18  33  52  75 104 132 169 207 249 314
#     4  11  20  33  53  77 103 134 181 230 266 297
#     4  10  19  34  59  87 108 131 166 214 263 307
#     4  10  20  34  53  75 102 139 177 217 265 310
#     4  10  20  33  50  75 105 137 179 226 264 302
#     4  11  22  36  55  76 104 144 180 213 257 309
#
# _framework density 21.009188000000002
#
# number of rings (size 3 to 8) (size 9 to 14) (size 15 to 20)
#    0.000    2.000    0.000    6.000    0.000    2.000 
#    0.000    2.500    0.000   10.875    0.000    0.000 
#    0.000    0.000    0.000    0.000    0.000    0.000 
#
# Total GULP energy -178141.318628 kJ/mol
# GULP energy per Si atom -5566.916207 kJ/mol
# Density = 2.096137 g / cm^3
# Si number density = 21.009188 Si / 1000 Ang^3
#
#
#
# Elastic Constant Matrix: (Units=GPa)
#
#
# Indices 1 2 3 4 5 6 
#
# 1 59.8110 -7.7449 3.9686 0.0001 -16.5945 0.0000
# 2 -7.7449 62.3658 34.6071 0.0001 -6.2832 0.0001
# 3 3.9686 34.6071 88.3036 0.0003 7.3817 0.0001
# 4 0.0001 0.0001 0.0003 16.2773 0.0001 0.7002
# 5 -16.5945 -6.2832 7.3817 0.0001 23.6474 0.0000
# 6 0.0000 0.0001 0.0001 0.7002 0.0000 19.9877
#
#
#
# Elastic Compliance Matrix: (Units=1/GPa)
#
#
# Indices 1 2 3 4 5 6 
#
# 1 0.024102 0.008565 -0.006206 0.000000 0.021126 0.000000
# 2 0.008565 0.025194 -0.011624 0.000000 0.016333 0.000000
# 3 -0.006206 -0.011624 0.017231 0.000000 -0.012822 0.000000
# 4 0.000000 0.000000 0.000000 0.061528 0.000000 -0.002155
# 5 0.021126 0.016333 -0.012822 0.000000 0.065456 0.000000
# 6 0.000000 0.000000 0.000000 -0.002155 0.000000 0.050106
#
#
# Mechanical properties :
#
#
# Convention : Reuss Voigt Hill
#
# Bulk Modulus (GPa) = 20.83469 30.23799 25.53634
# Shear Modulus (GPa) = 17.97622 23.95913 20.96767
#
# Velocity S-wave (km/s) = 2.92830 3.38066 3.16258
# Velocity P-wave (km/s) = 4.62296 5.44633 5.05145
#
# Compressibility (1/GPa) = 0.04799688
#
# Stress axis : x y z
#
# Youngs Moduli (GPa) = 41.49083 39.69211 58.03505
#
# Poissons Ratio (x) = -0.33997 0.36017
# Poissons Ratio (y) = -0.35538 0.67460
# Poissons Ratio (z) = 0.25750 0.46138
#
# Static dielectric constant tensor:
#      x y z
#    x 1.832850 0.000000 0.006920 
#    y 0.000000 1.857730 0.000000 
#    z 0.006920 0.000000 1.822520 
# 
# From -- ./inp_files/336695.got.cif
#   From: 2010.05.17/outbox.cif.g08.bks.cpg/sg12_169_cif.got.tgz:336695.got - 2010.06.03 13:09:07.
