data_PCOD9186803
_publ_section_title
;
Structure prediction by ZEFSAII (Michael W. Deem and Ramdas Pophale) SiO2 
 PCOD9186803
Probable space group: C 2/M
;
_chemical_formula_sum "Si O2"
_cell_formula_units_Z 40
_cell_length_a 13.369306
_cell_length_b 18.729550
_cell_length_c 10.304267
_cell_angle_alpha 90.000000
_cell_angle_beta 42.716765
_cell_angle_gamma 90.000000
_cell_volume 1750.342105
_symmetry_space_group_name_H-M "C 2/M"
_symmetry_group_IT_number 12
_symmetry_cell_setting 'monoclinic'
loop_
_space_group_symop_operation_xyz
x,y,z
-x,y,-z
-x,-y,-z
x,-y,z
1/2+x,1/2+y,z
1/2-x,1/2+y,-z
1/2-x,1/2-y,-z
1/2+x,1/2-y,z
loop_
_atom_site_type_symbol
_atom_site_label
_atom_site_fract_x
_atom_site_fract_y
_atom_site_fract_z
Si Si1 0.168607 0.918813 0.370913
Si Si2 0.332268 0.172671 0.697554
Si Si3 0.357949 0.796985 0.219387
Si Si4 0.295530 0.418544 0.957219
Si Si5 0.578833 0.652633 0.782329
O O1 0.261726 0.862165 0.363442
O O2 0.000000 0.899271 0.500000
O O3 0.170823 0.000000 0.417897
O O4 0.242977 0.917071 0.157207
O O5 0.500000 0.176655 0.500000
O O6 0.255279 0.250564 0.762188
O O7 0.299150 0.135022 0.865462
O O8 0.240211 0.129156 0.674657
O O9 0.409966 0.735760 0.271626
O O10 0.500000 0.818459 0.000000
O O11 0.280957 0.500000 0.017655
O O12 0.467685 0.395200 0.808189
O O13 0.500000 0.657569 0.000000
#
# Coordination Sequence:
#
# PCOD9186803 Si02
#       5
#     8   8   8   8   8
#     4  10  22  38  57  78 105 145 186 224 262 309
#     4   9  17  32  54  85 115 138 171 219 274 326
#     4   9  17  36  55  80 109 139 178 219 269 322
#     4  10  19  35  56  80 110 146 180 213 267 326
#     4   7  15  32  50  80 107 136 172 212 268 322
#
# _framework density 22.852675999999999
#
# number of rings (size 3 to 8) (size 9 to 14) (size 15 to 20)
#    1.200    1.800    2.000    0.600    0.000    5.200 
#    0.000    3.000    0.000    4.800    0.000    0.000 
#    0.000    0.000    0.000    0.000    0.000    0.200 
#
# Total GULP energy -111475.037874 kJ/mol
# GULP energy per Si atom -5573.751894 kJ/mol
# Density = 2.280066 g / cm^3
# Si number density = 22.852676 Si / 1000 Ang^3
#
#
#
# Elastic Constant Matrix: (Units=GPa)
#
#
# Indices 1 2 3 4 5 6 
#
# 1 42.0409 18.1716 37.2340 -0.0005 -5.6168 0.0004
# 2 18.1716 79.6091 32.5538 -0.0005 -9.1967 0.0004
# 3 37.2340 32.5538 105.9618 -0.0005 -29.1883 0.0005
# 4 -0.0005 -0.0005 -0.0005 23.6408 0.0006 -1.6952
# 5 -5.6168 -9.1967 -29.1883 0.0006 47.3438 -0.0005
# 6 0.0004 0.0004 0.0005 -1.6952 -0.0005 20.7592
#
#
#
# Elastic Compliance Matrix: (Units=1/GPa)
#
#
# Indices 1 2 3 4 5 6 
#
# 1 0.036032 -0.003499 -0.012764 0.000000 -0.004274 0.000000
# 2 -0.003499 0.014706 -0.003151 0.000000 0.000499 0.000000
# 3 -0.012764 -0.003151 0.017231 0.000000 0.008497 0.000000
# 4 0.000000 0.000000 0.000000 0.042549 0.000000 0.003475
# 5 -0.004274 0.000499 0.008497 0.000000 0.025950 0.000000
# 6 0.000000 0.000000 0.000000 0.003475 0.000000 0.048455
#
#
# Mechanical properties :
#
#
# Convention : Reuss Voigt Hill
#
# Bulk Modulus (GPa) = 34.31516 44.83674 39.57595
# Shear Modulus (GPa) = 21.41644 27.65891 24.53768
#
# Velocity S-wave (km/s) = 3.06462 3.48273 3.28034
# Velocity P-wave (km/s) = 5.25080 5.98624 5.63054
#
# Compressibility (1/GPa) = 0.02914164
#
# Stress axis : x y z
#
# Youngs Moduli (GPa) = 27.75309 67.99816 58.03487
#
# Poissons Ratio (x) = 0.23793 0.74073
# Poissons Ratio (y) = 0.09711 0.18287
# Poissons Ratio (z) = 0.35423 0.21427
#
# Static dielectric constant tensor:
#      x y z
#    x 1.900490 0.000000 0.033380 
#    y 0.000000 1.893750 0.000000 
#    z 0.033380 0.000000 1.896270 
# 
# From -- ./inp_files/146860.got.cif
#   From: 2010.05.17/outbox.cif.g08.bks.cpg/sg12_74_cif.got.tgz:146860.got - 2010.06.03 13:09:07.
