data_PCOD9186023
_publ_section_title
;
Structure prediction by ZEFSAII (Michael W. Deem and Ramdas Pophale) SiO2 
 PCOD9186023
Probable space group: C 2/M
;
_chemical_formula_sum "Si O2"
_cell_formula_units_Z 56
_cell_length_a 18.124431
_cell_length_b 14.254556
_cell_length_c 12.636411
_cell_angle_alpha 90.000000
_cell_angle_beta 54.860572
_cell_angle_gamma 90.000000
_cell_volume 2669.711965
_symmetry_space_group_name_H-M "C 2/M"
_symmetry_group_IT_number 12
_symmetry_cell_setting 'monoclinic'
loop_
_space_group_symop_operation_xyz
x,y,z
-x,y,-z
-x,-y,-z
x,-y,z
1/2+x,1/2+y,z
1/2-x,1/2+y,-z
1/2-x,1/2-y,-z
1/2+x,1/2-y,z
loop_
_atom_site_type_symbol
_atom_site_label
_atom_site_fract_x
_atom_site_fract_y
_atom_site_fract_z
Si Si1 0.603065 0.197644 0.405553
Si Si2 0.881886 0.105475 0.873721
Si Si3 0.431728 0.194340 0.799776
Si Si4 0.310541 0.892035 0.077571
Si Si5 0.620899 0.894004 0.606621
Si Si6 0.290007 0.777995 0.299202
Si Si7 0.893385 0.109030 0.107002
O O1 0.500000 0.234052 0.500000
O O2 0.612919 0.168285 0.275833
O O3 0.613357 0.118214 0.486325
O O4 0.683653 0.266752 0.367719
O O5 0.945110 0.193044 0.792373
O O6 0.793447 0.113801 0.874145
O O7 0.920350 0.000000 0.830205
O O8 0.853930 0.114594 0.020239
O O9 0.523845 0.137640 0.730793
O O10 0.367445 0.168272 0.948380
O O11 0.323363 0.851456 0.183273
O O12 0.338300 0.000000 0.048190
O O13 0.688244 0.821199 0.605331
O O14 0.643414 0.000000 0.615140
O O15 0.341845 0.681038 0.226327
O O16 0.887546 0.000000 0.147027
O O17 0.000000 0.131359 0.000000
#
# Coordination Sequence:
#
# PCOD9186023 Si02
#       7
#     8   8   8   8   8   8   8
#     4  10  24  43  68  90 122 172 231 273 316 373
#     4  10  19  34  58  91 129 168 212 259 314 388
#     4  11  20  40  64  94 134 171 211 267 332 390
#     4  11  22  34  61  99 132 166 206 260 334 404
#     4  11  26  43  64  93 130 176 223 269 321 385
#     4  12  22  41  67  92 135 172 209 271 334 391
#     4  10  21  36  58  93 131 171 212 255 319 399
#
# _framework density 20.976046
#
# number of rings (size 3 to 8) (size 9 to 14) (size 15 to 20)
#    0.000    1.286    2.857    3.429    0.000    3.714 
#    0.000    1.429    0.000   15.000    0.000    0.000 
#    0.000    0.000    0.000    0.000    0.000    0.000 
#
# Total GULP energy -156397.502934 kJ/mol
# GULP energy per Si atom -5585.625105 kJ/mol
# Density = 2.092830 g / cm^3
# Si number density = 20.976046 Si / 1000 Ang^3
#
#
#
# Elastic Constant Matrix: (Units=GPa)
#
#
# Indices 1 2 3 4 5 6 
#
# 1 88.7511 34.0981 15.3598 0.0000 2.7900 0.0000
# 2 34.0981 130.4873 39.2528 0.0000 1.3080 0.0000
# 3 15.3598 39.2528 51.4059 0.0000 4.5268 0.0000
# 4 0.0000 0.0000 0.0000 20.8972 0.0000 2.4965
# 5 2.7900 1.3080 4.5268 0.0000 18.9762 0.0000
# 6 0.0000 0.0000 0.0000 2.4965 0.0000 21.7532
#
#
#
# Elastic Compliance Matrix: (Units=1/GPa)
#
#
# Indices 1 2 3 4 5 6 
#
# 1 0.012661 -0.002846 -0.001495 0.000000 -0.001309 0.000000
# 2 -0.002846 0.010613 -0.007381 0.000000 0.001448 0.000000
# 3 -0.001495 -0.007381 0.026018 0.000000 -0.005478 0.000000
# 4 0.000000 0.000000 0.000000 0.048519 0.000000 -0.005568
# 5 -0.001309 0.001448 -0.005478 0.000000 0.054097 0.000000
# 6 0.000000 0.000000 0.000000 -0.005568 0.000000 0.046609
#
#
# Mechanical properties :
#
#
# Convention : Reuss Voigt Hill
#
# Bulk Modulus (GPa) = 38.68672 49.78508 44.23590
# Shear Modulus (GPa) = 21.68478 24.45421 23.06950
#
# Velocity S-wave (km/s) = 3.21875 3.41811 3.31992
# Velocity P-wave (km/s) = 5.68305 6.27405 5.98585
#
# Compressibility (1/GPa) = 0.02584867
#
# Stress axis : x y z
#
# Youngs Moduli (GPa) = 78.98533 94.22355 38.43452
#
# Poissons Ratio (x) = 0.26812 0.05745
# Poissons Ratio (y) = 0.22476 0.28369
# Poissons Ratio (z) = 0.11807 0.69548
#
# Static dielectric constant tensor:
#      x y z
#    x 1.774290 0.000000 0.006810 
#    y 0.000000 1.748190 0.000000 
#    z 0.006810 0.000000 1.742120 
# 
# From -- ./inp_files/156491.got.cif
#   From: 2010.05.17/outbox.cif.g08.bks.cpg/sg12_79_cif.got.tgz:156491.got - 2010.06.03 13:09:07.
