data_PCOD9186789
_publ_section_title
;
Structure prediction by ZEFSAII (Michael W. Deem and Ramdas Pophale) SiO2 
 PCOD9186789
Probable space group: C 2/M
;
_chemical_formula_sum "Si O2"
_cell_formula_units_Z 56
_cell_length_a 14.465265
_cell_length_b 14.131105
_cell_length_c 17.792859
_cell_angle_alpha 90.000000
_cell_angle_beta 125.740339
_cell_angle_gamma 90.000000
_cell_volume 2952.086498
_symmetry_space_group_name_H-M "C 2/M"
_symmetry_group_IT_number 12
_symmetry_cell_setting 'monoclinic'
loop_
_space_group_symop_operation_xyz
x,y,z
-x,y,-z
-x,-y,-z
x,-y,z
1/2+x,1/2+y,z
1/2-x,1/2+y,-z
1/2-x,1/2-y,-z
1/2+x,1/2-y,z
loop_
_atom_site_type_symbol
_atom_site_label
_atom_site_fract_x
_atom_site_fract_y
_atom_site_fract_z
Si Si1 0.047921 0.107230 0.600251
Si Si2 0.241252 0.242076 0.750548
Si Si3 0.069313 0.389716 0.719912
Si Si4 0.166392 0.708942 0.361523
Si Si5 0.874005 0.758586 0.967390
Si Si6 0.815205 0.608616 0.061758
Si Si7 0.800414 0.103086 0.539786
O O1 0.145241 0.164814 0.686973
O O2 0.000000 0.151681 0.500000
O O3 0.936379 0.100980 0.598522
O O4 0.085858 0.000000 0.601031
O O5 0.170476 0.340946 0.719871
O O6 0.331035 0.225739 0.726137
O O7 0.300751 0.231781 0.859011
O O8 0.047423 0.500000 0.689195
O O9 0.112796 0.388562 0.826878
O O10 0.956442 0.323825 0.665370
O O11 0.221138 0.806100 0.419247
O O12 0.248604 0.627203 0.433311
O O13 0.806182 0.843543 0.975957
O O14 0.873261 0.671926 0.025379
O O15 0.000000 0.783908 0.000000
O O16 0.802789 0.500000 0.032671
O O17 0.758969 0.000000 0.545211
#
# Coordination Sequence:
#
# PCOD9186789 Si02
#       7
#     8   8   8   8   8   8   8
#     4  10  19  35  56  79 112 145 183 234 286 335
#     4  11  22  36  59  86 114 146 191 233 287 336
#     4  10  21  38  58  83 116 152 188 231 284 342
#     4  11  21  35  59  82 114 152 194 233 283 339
#     4  10  21  38  60  85 116 148 188 236 282 338
#     4   9  20  39  60  83 116 151 185 230 285 342
#     4  10  21  36  54  79 113 151 190 236 284 334
#
# _framework density 18.969633999999999
#
# number of rings (size 3 to 8) (size 9 to 14) (size 15 to 20)
#    0.000    1.857    2.857    1.286    0.000    2.286 
#    0.000    0.000    0.000    3.000    0.000    0.000 
#    0.000    0.000    0.000    0.000    0.000    0.000 
#
# Total GULP energy -156018.814371 kJ/mol
# GULP energy per Si atom -5572.100513 kJ/mol
# Density = 1.892646 g / cm^3
# Si number density = 18.969634 Si / 1000 Ang^3
#
#
#
# Elastic Constant Matrix: (Units=GPa)
#
#
# Indices 1 2 3 4 5 6 
#
# 1 40.0590 -4.7586 -10.3138 0.0000 11.1078 0.0000
# 2 -4.7586 99.3165 10.2110 0.0000 6.1198 0.0000
# 3 -10.3138 10.2110 38.6648 0.0000 6.6712 0.0000
# 4 0.0000 0.0000 0.0000 23.5168 0.0000 -1.8731
# 5 11.1078 6.1198 6.6712 0.0000 23.7311 0.0000
# 6 0.0000 0.0000 0.0000 -1.8731 0.0000 13.3024
#
#
#
# Elastic Compliance Matrix: (Units=1/GPa)
#
#
# Indices 1 2 3 4 5 6 
#
# 1 0.033626 0.001588 0.011915 0.000000 -0.019498 0.000000
# 2 0.001588 0.010516 -0.001847 0.000000 -0.002936 0.000000
# 3 0.011915 -0.001847 0.031960 0.000000 -0.014085 0.000000
# 4 0.000000 0.000000 0.000000 0.043005 0.000000 0.006055
# 5 -0.019498 -0.002936 -0.014085 0.000000 0.055982 0.000000
# 6 0.000000 0.000000 0.000000 0.006055 0.000000 0.076027
#
#
# Mechanical properties :
#
#
# Convention : Reuss Voigt Hill
#
# Bulk Modulus (GPa) = 10.05921 18.70194 14.38057
# Shear Modulus (GPa) = 19.16132 24.30349 21.73241
#
# Velocity S-wave (km/s) = 3.18166 3.58324 3.38841
# Velocity P-wave (km/s) = 4.33724 5.19613 4.78599
#
# Compressibility (1/GPa) = 0.09941143
#
# Stress axis : x y z
#
# Youngs Moduli (GPa) = 29.73895 95.09603 31.28960
#
# Poissons Ratio (x) = -0.15098 -0.37280
# Poissons Ratio (y) = -0.04721 0.05779
# Poissons Ratio (z) = -0.35433 0.17565
#
# Static dielectric constant tensor:
#      x y z
#    x 1.692950 0.000000 -0.004350 
#    y 0.000000 1.677060 0.000000 
#    z -0.004350 0.000000 1.648610 
# 
# From -- ./inp_files/270363.got.cif
#   From: 2010.05.17/outbox.cif.g08.bks.cpg/sg12_136_cif.got.tgz:270363.got - 2010.06.03 13:09:07.
