data_PCOD9186639
_publ_section_title
;
Structure prediction by ZEFSAII (Michael W. Deem and Ramdas Pophale) SiO2 
 PCOD9186639
Probable space group: C 2/M
;
_chemical_formula_sum "Si O2"
_cell_formula_units_Z 56
_cell_length_a 20.987565
_cell_length_b 8.546859
_cell_length_c 18.450144
_cell_angle_alpha 90.000000
_cell_angle_beta 130.016649
_cell_angle_gamma 90.000000
_cell_volume 2534.640657
_symmetry_space_group_name_H-M "C 2/M"
_symmetry_group_IT_number 12
_symmetry_cell_setting 'monoclinic'
loop_
_space_group_symop_operation_xyz
x,y,z
-x,y,-z
-x,-y,-z
x,-y,z
1/2+x,1/2+y,z
1/2-x,1/2+y,-z
1/2-x,1/2-y,-z
1/2+x,1/2-y,z
loop_
_atom_site_type_symbol
_atom_site_label
_atom_site_fract_x
_atom_site_fract_y
_atom_site_fract_z
Si Si1 0.740300 0.312297 0.573920
Si Si2 0.377482 0.679491 0.391939
Si Si3 0.796244 0.321539 0.102877
Si Si4 0.282000 0.829329 0.829972
Si Si5 0.545082 0.310464 0.695110
Si Si6 0.081929 0.814476 0.281262
Si Si7 0.938571 0.821120 0.887763
O O1 0.733984 0.500000 0.569434
O O2 0.750000 0.250000 0.500000
O O3 0.660172 0.251666 0.561087
O O4 0.829264 0.260802 0.670643
O O5 0.403222 0.500000 0.426657
O O6 0.293655 0.674130 0.281740
O O7 0.442173 0.746316 0.379141
O O8 0.818773 0.500000 0.105202
O O9 0.730557 0.304249 0.120270
O O10 0.876635 0.235222 0.196387
O O11 0.750000 0.250000 0.000000
O O12 0.367267 0.801565 0.852262
O O13 0.279819 0.000000 0.864661
O O14 0.543487 0.500000 0.689580
O O15 0.464428 0.255581 0.680683
O O16 0.027073 0.793384 0.168203
O O17 0.094813 0.000000 0.301895
O O18 0.904869 0.000000 0.860641
O O19 0.000000 0.813311 0.000000
#
# Coordination Sequence:
#
# PCOD9186639 Si02
#       7
#     8   8   8   8   8   8   8
#     4  11  22  39  63  90 117 150 194 245 300 361
#     4   8  16  34  58  81 109 145 188 233 282 341
#     4  11  22  35  52  78 111 151 198 249 296 347
#     4  10  19  35  55  78 106 148 197 242 288 340
#     4   9  19  37  59  83 113 153 196 239 293 354
#     4  10  21  38  60  87 121 157 195 243 296 353
#     4  10  21  34  51  81 119 158 195 237 293 350
#
# _framework density 22.093861
#
# number of rings (size 3 to 8) (size 9 to 14) (size 15 to 20)
#    0.000    2.143    1.429    3.000    2.000    0.857 
#    0.000    1.429    0.000    4.286    0.000    0.000 
#    0.000    0.000    0.000    0.000    0.000    0.000 
#
# Total GULP energy -156060.979705 kJ/mol
# GULP energy per Si atom -5573.606418 kJ/mol
# Density = 2.204357 g / cm^3
# Si number density = 22.093861 Si / 1000 Ang^3
#
#
#
# Elastic Constant Matrix: (Units=GPa)
#
#
# Indices 1 2 3 4 5 6 
#
# 1 140.6328 8.8662 24.8388 0.0000 -29.8520 0.0000
# 2 8.8662 25.1448 7.5723 0.0000 -2.6489 0.0000
# 3 24.8388 7.5723 75.7632 0.0000 -25.8943 0.0000
# 4 0.0000 0.0000 0.0000 19.4024 0.0000 -2.1432
# 5 -29.8520 -2.6489 -25.8943 0.0000 28.9319 0.0000
# 6 0.0000 0.0000 0.0000 -2.1432 0.0000 21.4918
#
#
#
# Elastic Compliance Matrix: (Units=1/GPa)
#
#
# Indices 1 2 3 4 5 6 
#
# 1 0.009248 -0.002396 0.000567 0.000000 0.009831 0.000000
# 2 -0.002396 0.041625 -0.004203 0.000000 -0.002423 0.000000
# 3 0.000567 -0.004203 0.019452 0.000000 0.017610 0.000000
# 4 0.000000 0.000000 0.000000 0.052114 0.000000 0.005197
# 5 0.009831 -0.002423 0.017610 0.000000 0.060247 0.000000
# 6 0.000000 0.000000 0.000000 0.005197 0.000000 0.047048
#
#
# Mechanical properties :
#
#
# Convention : Reuss Voigt Hill
#
# Bulk Modulus (GPa) = 17.16383 36.01059 26.58721
# Shear Modulus (GPa) = 19.14112 27.31613 23.22862
#
# Velocity S-wave (km/s) = 2.94658 3.52002 3.24599
# Velocity P-wave (km/s) = 4.40022 5.73193 5.10964
#
# Compressibility (1/GPa) = 0.05826205
#
# Stress axis : x y z
#
# Youngs Moduli (GPa) = 108.12722 24.02400 51.40899
#
# Poissons Ratio (x) = 0.05757 -0.02917
# Poissons Ratio (y) = 0.25910 0.21606
# Poissons Ratio (z) = -0.06136 0.10097
#
# Static dielectric constant tensor:
#      x y z
#    x 1.876530 0.000000 -0.022910 
#    y 0.000000 1.789220 0.000000 
#    z -0.022910 0.000000 1.901300 
# 
# From -- ./inp_files/281756.got.cif
#   From: 2010.05.17/outbox.cif.g08.bks.cpg/sg12_141_cif.got.tgz:281756.got - 2010.06.03 13:09:07.
