data_PCOD9186274
_publ_section_title
;
Structure prediction by ZEFSAII (Michael W. Deem and Ramdas Pophale) SiO2 
 PCOD9186274
Probable space group: C 2/M
;
_chemical_formula_sum "Si O2"
_cell_formula_units_Z 64
_cell_length_a 21.677475
_cell_length_b 13.486884
_cell_length_c 12.085256
_cell_angle_alpha 90.000000
_cell_angle_beta 111.168851
_cell_angle_gamma 90.000000
_cell_volume 3294.840893
_symmetry_space_group_name_H-M "C 2/M"
_symmetry_group_IT_number 12
_symmetry_cell_setting 'monoclinic'
loop_
_space_group_symop_operation_xyz
x,y,z
-x,y,-z
-x,-y,-z
x,-y,z
1/2+x,1/2+y,z
1/2-x,1/2+y,-z
1/2-x,1/2-y,-z
1/2+x,1/2-y,z
loop_
_atom_site_type_symbol
_atom_site_label
_atom_site_fract_x
_atom_site_fract_y
_atom_site_fract_z
Si Si1 0.386259 0.109569 0.067791
Si Si2 0.654288 0.678567 0.490666
Si Si3 0.716344 0.788476 0.865541
Si Si4 0.492141 0.250608 0.866519
Si Si5 0.637558 0.883415 0.205401
Si Si6 0.518243 0.384634 0.338349
Si Si7 0.634240 0.608048 0.709120
Si Si8 0.768666 0.788055 0.665627
O O1 0.330857 0.124029 0.123763
O O2 0.442276 0.190643 0.123403
O O3 0.416251 0.000000 0.089015
O O4 0.356346 0.122395 0.924753
O O5 0.575647 0.685636 0.423444
O O6 0.659119 0.607283 0.599118
O O7 0.697177 0.772242 0.561822
O O8 0.686554 0.651928 0.393027
O O9 0.672334 0.696240 0.793716
O O10 0.760035 0.820312 0.787602
O O11 0.750000 0.750000 0.000000
O O12 0.430135 0.175932 0.812537
O O13 0.486166 0.348752 0.790620
O O14 0.500000 0.274438 0.000000
O O15 0.695156 0.819334 0.299124
O O16 0.636228 0.000000 0.233948
O O17 0.537768 0.500000 0.363486
O O18 0.444866 0.374671 0.340656
O O19 0.646510 0.500000 0.768638
#
# Coordination Sequence:
#
# PCOD9186274 Si02
#       8
#     8   8   8   8   8   8   8   8
#     4  10  20  36  58  86 117 154 193 235 285 347
#     4  10  21  38  57  83 118 150 197 248 284 339
#     4  11  21  36  60  88 125 156 189 238 292 357
#     4  10  20  36  59  85 119 148 187 244 299 353
#     4  10  19  34  60  89 114 149 194 235 285 349
#     4  11  21  36  61  88 112 149 198 246 302 355
#     4  10  22  39  62  89 114 151 201 246 294 350
#     4  10  21  36  58  86 120 158 195 233 297 345
#
# _framework density 19.424306999999999
#
# number of rings (size 3 to 8) (size 9 to 14) (size 15 to 20)
#    0.000    1.750    3.750    1.125    0.000    5.750 
#    0.000    1.250    0.000    4.500    0.000    4.375 
#    0.000    0.000    0.000    0.000    0.000    0.000 
#
# Total GULP energy -178262.891173 kJ/mol
# GULP energy per Si atom -5570.715349 kJ/mol
# Density = 1.938010 g / cm^3
# Si number density = 19.424307 Si / 1000 Ang^3
#
#
#
# Elastic Constant Matrix: (Units=GPa)
#
#
# Indices 1 2 3 4 5 6 
#
# 1 87.7198 22.6792 42.5146 0.0000 -17.2964 0.0000
# 2 22.6792 40.3304 19.4071 0.0000 -2.5934 0.0000
# 3 42.5146 19.4071 85.6709 0.0000 -9.7030 0.0000
# 4 0.0000 0.0000 0.0000 13.4119 0.0000 -3.7602
# 5 -17.2964 -2.5934 -9.7030 0.0000 39.1902 0.0000
# 6 0.0000 0.0000 0.0000 -3.7602 0.0000 12.9255
#
#
#
# Elastic Compliance Matrix: (Units=1/GPa)
#
#
# Indices 1 2 3 4 5 6 
#
# 1 0.017275 -0.006211 -0.006532 0.000000 0.005596 0.000000
# 2 -0.006211 0.030065 -0.003923 0.000000 -0.001723 0.000000
# 3 -0.006532 -0.003923 0.015893 0.000000 0.000792 0.000000
# 4 0.000000 0.000000 0.000000 0.081182 0.000000 0.023617
# 5 0.005596 -0.001723 0.000792 0.000000 0.028069 0.000000
# 6 0.000000 0.000000 0.000000 0.023617 0.000000 0.084237
#
#
# Mechanical properties :
#
#
# Convention : Reuss Voigt Hill
#
# Bulk Modulus (GPa) = 33.44552 42.54700 37.99626
# Shear Modulus (GPa) = 16.66555 21.71352 19.18953
#
# Velocity S-wave (km/s) = 2.93230 3.34706 3.14652
# Velocity P-wave (km/s) = 5.35913 6.07360 5.72752
#
# Compressibility (1/GPa) = 0.02989937
#
# Stress axis : x y z
#
# Youngs Moduli (GPa) = 57.88701 33.26102 62.92223
#
# Poissons Ratio (x) = 0.20659 0.41101
# Poissons Ratio (y) = 0.35955 0.24687
# Poissons Ratio (z) = 0.37812 0.13050
#
# Static dielectric constant tensor:
#      x y z
#    x 1.729470 0.000000 0.005790 
#    y 0.000000 1.638940 0.000000 
#    z 0.005790 0.000000 1.702630 
# 
# From -- ./inp_files/167292.got.cif
#   From: 2010.05.17/outbox.cif.g08.bks.cpg/sg12_84_cif.got.tgz:167292.got - 2010.06.03 13:09:07.
