data_PCOD9186422
_publ_section_title
;
Structure prediction by ZEFSAII (Michael W. Deem and Ramdas Pophale) SiO2 
 PCOD9186422
Probable space group: C 2/M
;
_chemical_formula_sum "Si O2"
_cell_formula_units_Z 48
_cell_length_a 8.005942
_cell_length_b 22.586808
_cell_length_c 12.559753
_cell_angle_alpha 90.000000
_cell_angle_beta 102.445512
_cell_angle_gamma 90.000000
_cell_volume 2217.794325
_symmetry_space_group_name_H-M "C 2/M"
_symmetry_group_IT_number 12
_symmetry_cell_setting 'monoclinic'
loop_
_space_group_symop_operation_xyz
x,y,z
-x,y,-z
-x,-y,-z
x,-y,z
1/2+x,1/2+y,z
1/2-x,1/2+y,-z
1/2-x,1/2-y,-z
1/2+x,1/2-y,z
loop_
_atom_site_type_symbol
_atom_site_label
_atom_site_fract_x
_atom_site_fract_y
_atom_site_fract_z
Si Si1 0.413366 0.068937 0.881793
Si Si2 0.425180 0.337892 0.695805
Si Si3 0.535557 0.891767 0.345447
Si Si4 0.575970 0.765066 0.623726
Si Si5 0.217715 0.932962 0.450430
Si Si6 0.510811 0.432472 0.874231
O O1 0.471798 0.097312 0.780068
O O2 0.209096 0.071108 0.866621
O O3 0.465273 0.000000 0.882364
O O4 0.500000 0.094358 0.000000
O O5 0.573903 0.289983 0.703734
O O6 0.259858 0.296570 0.651942
O O7 0.425546 0.387017 0.603829
O O8 0.421250 0.377895 0.801247
O O9 0.542866 0.821690 0.366393
O O10 0.372780 0.918756 0.387316
O O11 0.697860 0.921560 0.423892
O O12 0.500000 0.744023 0.500000
O O13 0.161604 0.000000 0.432642
O O14 0.448626 0.500000 0.839593
O O15 0.500000 0.426495 0.000000
#
# Coordination Sequence:
#
# PCOD9186422 Si02
#       6
#     8   8   8   8   8   8
#     4  10  22  38  64  97 128 166 210 267 327 382
#     4  11  24  40  64  93 125 170 217 261 322 378
#     4  10  19  36  60  95 131 165 215 259 313 385
#     4  11  23  41  63  94 128 176 215 257 316 383
#     4  10  19  34  62  96 129 165 206 266 323 384
#     4  10  24  46  67  93 130 170 216 270 330 387
#
# _framework density 21.643125000000001
#
# number of rings (size 3 to 8) (size 9 to 14) (size 15 to 20)
#    0.000    1.667    3.333    3.000    7.000    0.000 
#    0.000    1.667    0.000    4.000    0.000    0.000 
#    0.000    0.000    0.000    0.000    0.000    0.000 
#
# Total GULP energy -134091.242836 kJ/mol
# GULP energy per Si atom -5587.135118 kJ/mol
# Density = 2.159386 g / cm^3
# Si number density = 21.643125 Si / 1000 Ang^3
#
#
#
# Elastic Constant Matrix: (Units=GPa)
#
#
# Indices 1 2 3 4 5 6 
#
# 1 53.3223 18.8856 15.4838 0.0000 -4.9878 0.0000
# 2 18.8856 160.3000 38.5055 0.0000 -3.0434 0.0000
# 3 15.4838 38.5055 140.1485 0.0000 -9.9814 0.0000
# 4 0.0000 0.0000 0.0000 175.5900 0.0000 -93.2940
# 5 -4.9878 -3.0434 -9.9814 0.0000 22.7004 0.0000
# 6 0.0000 0.0000 0.0000 -93.2940 0.0000 62.0439
#
#
#
# Elastic Compliance Matrix: (Units=1/GPa)
#
#
# Indices 1 2 3 4 5 6 
#
# 1 0.020200 -0.001967 -0.001439 0.000000 0.003542 0.000000
# 2 -0.001967 0.006871 -0.001688 0.000000 -0.000253 0.000000
# 3 -0.001439 -0.001688 0.007969 0.000000 0.002961 0.000000
# 4 0.000000 0.000000 0.000000 0.028324 0.000000 0.042590
# 5 0.003542 -0.000253 0.002961 0.000000 0.046098 0.000000
# 6 0.000000 0.000000 0.000000 0.042590 0.000000 0.080159
#
#
# Mechanical properties :
#
#
# Convention : Reuss Voigt Hill
#
# Bulk Modulus (GPa) = 40.24022 55.50228 47.87125
# Shear Modulus (GPa) = 24.02769 70.79327 47.41048
#
# Velocity S-wave (km/s) = 3.33555 5.72541 4.68542
# Velocity P-wave (km/s) = 5.78511 8.33109 7.17198
#
# Compressibility (1/GPa) = 0.02485076
#
# Stress axis : x y z
#
# Youngs Moduli (GPa) = 49.50574 145.54326 125.48469
#
# Poissons Ratio (x) = 0.28627 0.18058
# Poissons Ratio (y) = 0.09737 0.21188
# Poissons Ratio (z) = 0.07124 0.24575
#
# Static dielectric constant tensor:
#      x y z
#    x 1.904380 0.000000 0.002330 
#    y 0.000000 1.763080 0.000000 
#    z 0.002330 0.000000 1.790150 
# 
# From -- ./inp_files/122042.got.cif
#   From: 2010.05.17/outbox.cif.g08.bks.cpg/sg12_62_cif.got.tgz:122042.got - 2010.06.03 13:09:07.
