data_PCOD9186623
_publ_section_title
;
Structure prediction by ZEFSAII (Michael W. Deem and Ramdas Pophale) SiO2 
 PCOD9186623
Probable space group: C 2/M
;
_chemical_formula_sum "Si O2"
_cell_formula_units_Z 56
_cell_length_a 19.601967
_cell_length_b 8.354126
_cell_length_c 21.443155
_cell_angle_alpha 90.000000
_cell_angle_beta 57.524360
_cell_angle_gamma 90.000000
_cell_volume 2962.348361
_symmetry_space_group_name_H-M "C 2/M"
_symmetry_group_IT_number 12
_symmetry_cell_setting 'monoclinic'
loop_
_space_group_symop_operation_xyz
x,y,z
-x,y,-z
-x,-y,-z
x,-y,z
1/2+x,1/2+y,z
1/2-x,1/2+y,-z
1/2-x,1/2-y,-z
1/2+x,1/2-y,z
loop_
_atom_site_type_symbol
_atom_site_label
_atom_site_fract_x
_atom_site_fract_y
_atom_site_fract_z
Si Si1 0.536868 0.682133 0.171881
Si Si2 0.531820 0.808079 0.918258
Si Si3 0.206879 0.306504 0.782630
Si Si4 0.502177 0.689474 0.569697
Si Si5 0.160916 0.681811 0.551324
Si Si6 0.884425 0.804241 0.739744
Si Si7 0.854123 0.820622 0.312118
O O1 0.565456 0.500000 0.147380
O O2 0.527948 0.766304 0.109566
O O3 0.585685 0.752579 0.206808
O O4 0.444640 0.675601 0.241262
O O5 0.623723 0.753892 0.857463
O O6 0.535807 0.000000 0.920119
O O7 0.500000 0.745131 0.000000
O O8 0.204316 0.500000 0.778338
O O9 0.290956 0.263717 0.773998
O O10 0.203609 0.231552 0.715460
O O11 0.500000 0.755850 0.500000
O O12 0.484820 0.500000 0.573595
O O13 0.592196 0.716596 0.551022
O O14 0.440338 0.751353 0.653847
O O15 0.155490 0.500000 0.532247
O O16 0.250000 0.750000 0.500000
O O17 0.145676 0.696626 0.632260
O O18 0.892020 0.000000 0.737508
O O19 0.834264 0.000000 0.344658
#
# Coordination Sequence:
#
# PCOD9186623 Si02
#       7
#     8   8   8   8   8   8   8
#     4   9  17  32  55  77 102 136 176 218 265 323
#     4   9  18  33  52  77 110 142 177 223 268 313
#     4   9  18  32  54  80 105 142 186 217 262 329
#     4  10  21  38  58  80 110 146 181 226 282 334
#     4  12  25  39  56  78 107 142 185 231 276 327
#     4   9  17  33  54  78 107 140 179 221 268 326
#     4  10  19  35  55  77 105 137 176 227 276 320
#
# _framework density 18.903922000000001
#
# number of rings (size 3 to 8) (size 9 to 14) (size 15 to 20)
#    0.000    2.286    1.429    1.714    2.000    1.143 
#    0.000    2.143    0.000    0.000    0.000    0.000 
#    0.000    0.000    0.000    0.000    0.000    0.000 
#
# Total GULP energy -156042.884149 kJ/mol
# GULP energy per Si atom -5572.960148 kJ/mol
# Density = 1.886090 g / cm^3
# Si number density = 18.903922 Si / 1000 Ang^3
#
#
#
# Elastic Constant Matrix: (Units=GPa)
#
#
# Indices 1 2 3 4 5 6 
#
# 1 150.3057 -3.5234 54.8991 0.0000 21.1011 0.0005
# 2 -3.5234 7.2261 2.9427 0.0000 0.4738 0.0008
# 3 54.8991 2.9427 91.9380 0.0000 23.5322 0.0000
# 4 0.0000 0.0000 0.0000 11.9210 0.0000 4.6062
# 5 21.1011 0.4738 23.5322 0.0000 26.0849 0.0000
# 6 0.0005 0.0008 0.0000 4.6062 0.0000 22.9745
#
#
#
# Elastic Compliance Matrix: (Units=1/GPa)
#
#
# Indices 1 2 3 4 5 6 
#
# 1 0.008986 0.006534 -0.004790 0.000000 -0.003067 0.000000
# 2 0.006534 0.145043 -0.008473 0.000003 -0.000276 -0.000005
# 3 -0.004790 -0.008473 0.016874 0.000000 -0.011193 0.000000
# 4 0.000000 0.000003 0.000000 0.090930 0.000000 -0.018231
# 5 -0.003067 -0.000276 -0.011193 0.000000 0.050920 0.000000
# 6 0.000000 -0.000005 0.000000 -0.018231 0.000000 0.047182
#
#
# Mechanical properties :
#
#
# Convention : Reuss Voigt Hill
#
# Bulk Modulus (GPa) = 6.35152 39.78960 23.07056
# Shear Modulus (GPa) = 11.74054 25.20617 18.47335
#
# Velocity S-wave (km/s) = 2.49482 3.65551 3.12945
# Velocity P-wave (km/s) = 3.41555 6.23787 5.02877
#
# Compressibility (1/GPa) = 0.15744270
#
# Stress axis : x y z
#
# Youngs Moduli (GPa) = 111.27873 6.89453 59.26431
#
# Poissons Ratio (x) = -0.04505 0.28389
# Poissons Ratio (y) = -0.72706 0.50217
# Poissons Ratio (z) = 0.53306 0.05842
#
# Static dielectric constant tensor:
#      x y z
#    x 1.649240 0.000000 -0.003130 
#    y 0.000000 1.714850 0.000000 
#    z -0.003130 0.000000 1.699870 
# 
# From -- ./inp_files/275320.got.cif
#   From: 2010.05.17/outbox.cif.g08.bks.cpg/sg12_138_cif.got.tgz:275320.got - 2010.06.03 13:09:07.
