data_PCOD9186156
_publ_section_title
;
Structure prediction by ZEFSAII (Michael W. Deem and Ramdas Pophale) SiO2 
 PCOD9186156
Probable space group: C 2/M
;
_chemical_formula_sum "Si O2"
_cell_formula_units_Z 64
_cell_length_a 17.459404
_cell_length_b 15.222695
_cell_length_c 16.667910
_cell_angle_alpha 90.000000
_cell_angle_beta 131.065495
_cell_angle_gamma 90.000000
_cell_volume 3340.026556
_symmetry_space_group_name_H-M "C 2/M"
_symmetry_group_IT_number 12
_symmetry_cell_setting 'monoclinic'
loop_
_space_group_symop_operation_xyz
x,y,z
-x,y,-z
-x,-y,-z
x,-y,z
1/2+x,1/2+y,z
1/2-x,1/2+y,-z
1/2-x,1/2-y,-z
1/2+x,1/2-y,z
loop_
_atom_site_type_symbol
_atom_site_label
_atom_site_fract_x
_atom_site_fract_y
_atom_site_fract_z
Si Si1 0.754151 0.848323 0.360117
Si Si2 0.379412 0.266223 0.013236
Si Si3 0.880476 0.790583 0.828061
Si Si4 0.379594 0.405207 0.300822
Si Si5 0.367326 0.903831 0.570291
Si Si6 0.238161 0.895848 0.949260
Si Si7 0.438483 0.282591 0.596374
Si Si8 0.344487 0.401805 0.665422
O O1 0.686995 0.776620 0.268970
O O2 0.804541 0.903831 0.324396
O O3 0.685153 0.896505 0.378397
O O4 0.845713 0.805082 0.473438
O O5 0.501086 0.267467 0.100357
O O6 0.333152 0.343794 0.036548
O O7 0.352092 0.285164 0.901620
O O8 0.334153 0.170832 0.007017
O O9 0.859704 0.882329 0.769244
O O10 0.433787 0.500000 0.337122
O O11 0.318269 0.395579 0.175812
O O12 0.458930 0.326477 0.363313
O O13 0.440735 0.821392 0.610016
O O14 0.272313 0.894321 0.443475
O O15 0.413394 0.000000 0.591470
O O16 0.257520 0.000000 0.981582
O O17 0.408693 0.331613 0.658604
O O18 0.378212 0.500000 0.667859
#
# Coordination Sequence:
#
# PCOD9186156 Si02
#       8
#     8   8   8   8   8   8   8   8
#     4  11  20  37  57  85 124 153 189 240 293 343
#     4  10  23  39  64  87 114 152 195 248 291 350
#     4  11  20  38  61  88 117 150 195 238 298 342
#     4  11  23  37  61  90 118 153 194 242 298 350
#     4  10  20  35  58  87 119 157 195 234 282 349
#     4  10  22  43  63  85 116 152 194 243 296 346
#     4  11  20  35  57  88 122 157 193 237 287 349
#     4  10  19  34  59  88 120 153 191 237 292 347
#
# _framework density 19.161522999999999
#
# number of rings (size 3 to 8) (size 9 to 14) (size 15 to 20)
#    0.000    1.500    3.750    2.625    0.000    4.000 
#    0.000    3.750    0.000    2.250    0.000    0.000 
#    0.000    0.000    0.000    0.000    0.000    0.000 
#
# Total GULP energy -178591.750917 kJ/mol
# GULP energy per Si atom -5580.992216 kJ/mol
# Density = 1.911791 g / cm^3
# Si number density = 19.161523 Si / 1000 Ang^3
#
#
#
# Elastic Constant Matrix: (Units=GPa)
#
#
# Indices 1 2 3 4 5 6 
#
# 1 73.6890 41.2888 21.8543 0.0000 -13.2661 0.0000
# 2 41.2888 143.0576 27.2807 0.0000 -1.5770 0.0000
# 3 21.8543 27.2807 70.3725 0.0000 -16.5544 0.0000
# 4 0.0000 0.0000 0.0000 17.9530 0.0000 16.0125
# 5 -13.2661 -1.5770 -16.5544 0.0000 20.7580 0.0000
# 6 0.0000 0.0000 0.0000 16.0125 0.0000 -241.6591
#
#
#
# Elastic Compliance Matrix: (Units=1/GPa)
#
#
# Indices 1 2 3 4 5 6 
#
# 1 0.018670 -0.005006 -0.001403 0.000000 0.010432 0.000000
# 2 -0.005006 0.008970 -0.003096 0.000000 -0.004987 0.000000
# 3 -0.001403 -0.003096 0.019178 0.000000 0.014162 0.000000
# 4 0.000000 0.000000 0.000000 0.052593 0.000000 0.003485
# 5 0.010432 -0.004987 0.014162 0.000000 0.065757 0.000000
# 6 0.000000 0.000000 0.000000 0.003485 0.000000 -0.003907
#
#
# Mechanical properties :
#
#
# Convention : Reuss Voigt Hill
#
# Bulk Modulus (GPa) = 35.96159 51.99630 43.97894
# Shear Modulus (GPa) = 26.37980 -27.47662 -0.54841
#
# Velocity S-wave (km/s) = 3.71443 -3.79086 -0.53556
# Velocity P-wave (km/s) = 6.09953 2.83441 4.75595
#
# Compressibility (1/GPa) = 0.02780745
#
# Stress axis : x y z
#
# Youngs Moduli (GPa) = 53.56313 111.47827 52.14425
#
# Poissons Ratio (x) = 0.55803 0.07317
# Poissons Ratio (y) = 0.26812 0.16144
# Poissons Ratio (z) = 0.07516 0.34513
#
# Static dielectric constant tensor:
#      x y z
#    x 1.671370 0.000000 -0.020450 
#    y 0.000000 1.708800 0.000000 
#    z -0.020450 0.000000 1.661860 
# 
# From -- ./inp_files/225763.got.cif
#   From: 2010.05.17/outbox.cif.g08.bks.cpg/sg12_113_cif.got.tgz:225763.got - 2010.06.03 13:09:07.
