data_PCOD9186566
_publ_section_title
;
Structure prediction by ZEFSAII (Michael W. Deem and Ramdas Pophale) SiO2 
 PCOD9186566
Probable space group: C 2/M
;
_chemical_formula_sum "Si O2"
_cell_formula_units_Z 40
_cell_length_a 11.511800
_cell_length_b 34.322260
_cell_length_c 5.334684
_cell_angle_alpha 90.000000
_cell_angle_beta 80.974255
_cell_angle_gamma 90.000000
_cell_volume 2081.693500
_symmetry_space_group_name_H-M "C 2/M"
_symmetry_group_IT_number 12
_symmetry_cell_setting 'monoclinic'
loop_
_space_group_symop_operation_xyz
x,y,z
-x,y,-z
-x,-y,-z
x,-y,z
1/2+x,1/2+y,z
1/2-x,1/2+y,-z
1/2-x,1/2-y,-z
1/2+x,1/2-y,z
loop_
_atom_site_type_symbol
_atom_site_label
_atom_site_fract_x
_atom_site_fract_y
_atom_site_fract_z
Si Si1 0.368697 0.324374 0.135641
Si Si2 0.768710 0.662844 0.331565
Si Si3 0.634024 0.079979 0.700470
Si Si4 0.574126 0.762626 0.730558
Si Si5 0.632378 0.046407 0.200701
O O1 0.324579 0.342926 0.411031
O O2 0.370684 0.277999 0.195047
O O3 0.500000 0.334555 0.000000
O O4 0.286744 0.333860 0.926186
O O5 0.856706 0.626280 0.309297
O O6 0.834680 0.703366 0.359571
O O7 0.690110 0.061257 0.435211
O O8 0.499504 0.064656 0.750449
O O9 0.690963 0.063382 0.933128
O O10 0.500000 0.755270 0.500000
O O11 0.500000 0.776174 0.000000
O O12 0.622246 0.000000 0.196180
#
# Coordination Sequence:
#
# PCOD9186566 Si02
#       5
#     8   8   8   8   8
#     4  11  23  42  56  75 105 156 202 246 291 331
#     4  12  23  36  59  83 116 141 194 251 283 328
#     4  10  20  30  52  81 112 145 186 208 270 322
#     4  11  23  37  59  82 112 149 191 230 302 354
#     4  10  19  35  54  79 125 158 171 201 265 363
#
# _framework density 19.215125
#
# number of rings (size 3 to 8) (size 9 to 14) (size 15 to 20)
#    0.000    1.200    0.000    9.600    5.600    0.000 
#    0.000    0.000    0.000    0.000    0.000    0.000 
#    0.000   92.800    0.000    0.000    0.000    0.000 
#
# Total GULP energy -111610.876843 kJ/mol
# GULP energy per Si atom -5580.543842 kJ/mol
# Density = 1.917139 g / cm^3
# Si number density = 19.215125 Si / 1000 Ang^3
#
#
#
# Elastic Constant Matrix: (Units=GPa)
#
#
# Indices 1 2 3 4 5 6 
#
# 1 15.9348 13.0602 15.4898 0.0000 -1.5998 0.0000
# 2 13.0602 44.7488 13.7088 0.0000 5.6471 0.0000
# 3 15.4898 13.7088 177.3807 0.0000 15.4016 0.0000
# 4 0.0000 0.0000 0.0000 8.6437 0.0000 2.9546
# 5 -1.5998 5.6471 15.4016 0.0000 23.0984 0.0000
# 6 0.0000 0.0000 0.0000 2.9546 0.0000 16.8334
#
#
#
# Elastic Compliance Matrix: (Units=1/GPa)
#
#
# Indices 1 2 3 4 5 6 
#
# 1 0.094780 -0.027621 -0.007747 0.000000 0.018483 0.000000
# 2 -0.027621 0.031427 0.000867 0.000000 -0.010174 0.000000
# 3 -0.007747 0.000867 0.006700 0.000000 -0.005216 0.000000
# 4 0.000000 0.000000 0.000000 0.123075 0.000000 -0.021602
# 5 0.018483 -0.010174 -0.005216 0.000000 0.050538 0.000000
# 6 0.000000 0.000000 0.000000 -0.021602 0.000000 0.063197
#
#
# Mechanical properties :
#
#
# Convention : Reuss Voigt Hill
#
# Bulk Modulus (GPa) = 15.64844 35.84245 25.74545
# Shear Modulus (GPa) = 10.86905 22.76880 16.81892
#
# Velocity S-wave (km/s) = 2.38092 3.44603 2.96175
# Velocity P-wave (km/s) = 3.96483 5.87599 5.01234
#
# Compressibility (1/GPa) = 0.06390413
#
# Stress axis : x y z
#
# Youngs Moduli (GPa) = 10.55070 31.81998 149.25393
#
# Poissons Ratio (x) = 0.87891 1.15625
# Poissons Ratio (y) = 0.29142 -0.12935
# Poissons Ratio (z) = 0.08173 -0.02758
#
# Static dielectric constant tensor:
#      x y z
#    x 1.668250 0.000000 -0.005600 
#    y 0.000000 1.640570 0.000000 
#    z -0.005600 0.000000 1.584790 
# 
# From -- ./inp_files/8117.got.cif
#   From: 2010.05.17/outbox.cif.g08.bks.cpg/sg12_5_cif.got.tgz:8117.got - 2010.06.03 13:09:07.
