data_PCOD9186537
_publ_section_title
;
Structure prediction by ZEFSAII (Michael W. Deem and Ramdas Pophale) SiO2 
 PCOD9186537
Probable space group: C 2/M
;
_chemical_formula_sum "Si O2"
_cell_formula_units_Z 40
_cell_length_a 14.727826
_cell_length_b 7.462843
_cell_length_c 26.346399
_cell_angle_alpha 90.000000
_cell_angle_beta 134.087063
_cell_angle_gamma 90.000000
_cell_volume 2079.984274
_symmetry_space_group_name_H-M "C 2/M"
_symmetry_group_IT_number 12
_symmetry_cell_setting 'monoclinic'
loop_
_space_group_symop_operation_xyz
x,y,z
-x,y,-z
-x,-y,-z
x,-y,z
1/2+x,1/2+y,z
1/2-x,1/2+y,-z
1/2-x,1/2-y,-z
1/2+x,1/2-y,z
loop_
_atom_site_type_symbol
_atom_site_label
_atom_site_fract_x
_atom_site_fract_y
_atom_site_fract_z
Si Si1 0.636703 0.281384 0.312112
Si Si2 0.382757 0.713160 0.579657
Si Si3 0.549691 0.704136 0.848449
Si Si4 0.508893 0.000000 0.917737
Si Si5 0.210818 0.500000 0.087285
Si Si6 0.083074 0.296042 0.577107
O O1 0.629560 0.500000 0.308467
O O2 0.613782 0.224947 0.361046
O O3 0.537038 0.224145 0.231118
O O4 0.779981 0.220945 0.357082
O O5 0.400401 0.500000 0.586133
O O6 0.250000 0.750000 0.500000
O O7 0.494432 0.797254 0.590940
O O8 0.507491 0.500000 0.845299
O O9 0.692393 0.668053 0.882973
O O10 0.533427 0.830185 0.890573
O O11 0.371995 0.000000 0.893190
O O12 0.612093 0.000000 0.002708
O O13 0.109817 0.500000 0.569538
O O14 0.000000 0.209271 0.500000
#
# Coordination Sequence:
#
# PCOD9186537 Si02
#       6
#     8   8   8   4   4   8
#     4   9  19  38  56  74 114 153 186 239 301 347
#     4  11  21  35  54  77 108 146 193 247 294 342
#     4   9  21  41  61  90 132 165 199 258 313 369
#     4  11  20  42  67  99 123 166 209 249 311 379
#     4   9  22  40  67  97 131 157 209 258 300 382
#     4  10  19  35  54  73 102 146 192 237 289 343
#
# _framework density 19.230915
#
# number of rings (size 3 to 8) (size 9 to 14) (size 15 to 20)
#    0.600    1.600    2.000    1.200    0.000    2.000 
#    7.200    1.000    0.000    0.000    0.000    0.000 
#    0.000    0.000    0.000    0.000    0.000    0.000 
#
# Total GULP energy -111435.041683 kJ/mol
# GULP energy per Si atom -5571.752084 kJ/mol
# Density = 1.918714 g / cm^3
# Si number density = 19.230915 Si / 1000 Ang^3
#
#
#
# Elastic Constant Matrix: (Units=GPa)
#
#
# Indices 1 2 3 4 5 6 
#
# 1 164.9541 19.0998 78.0002 0.0000 4.9975 0.0000
# 2 19.0998 76.6998 20.5924 0.0000 -3.4611 0.0000
# 3 78.0002 20.5924 142.6561 0.0000 9.7990 0.0000
# 4 0.0000 0.0000 0.0000 -2.8353 0.0000 -9.7222
# 5 4.9975 -3.4611 9.7990 0.0000 23.8681 0.0000
# 6 0.0000 0.0000 0.0000 -9.7222 0.0000 22.2299
#
#
#
# Elastic Compliance Matrix: (Units=1/GPa)
#
#
# Indices 1 2 3 4 5 6 
#
# 1 0.008232 -0.000879 -0.004370 0.000000 -0.000057 0.000000
# 2 -0.000879 0.013849 -0.001717 0.000000 0.002897 0.000000
# 3 -0.004370 -0.001717 0.009880 0.000000 -0.003390 0.000000
# 4 0.000000 0.000000 0.000000 -0.141099 0.000000 -0.061709
# 5 -0.000057 0.002897 -0.003390 0.000000 0.043721 0.000000
# 6 0.000000 0.000000 0.000000 -0.061709 0.000000 0.017996
#
#
# Mechanical properties :
#
#
# Convention : Reuss Voigt Hill
#
# Bulk Modulus (GPa) = 55.47135 68.85499 62.16317
# Shear Modulus (GPa) = -181.96814 26.42705 -77.77055
#
# Velocity S-wave (km/s) = -9.73797 3.71104 -6.36617
# Velocity P-wave (km/s) = 9.87573 7.36508 4.65218
#
# Compressibility (1/GPa) = 0.01802732
#
# Stress axis : x y z
#
# Youngs Moduli (GPa) = 121.47091 72.20946 101.21200
#
# Poissons Ratio (x) = 0.06349 0.44234
# Poissons Ratio (y) = 0.10680 0.17381
# Poissons Ratio (z) = 0.53088 0.12401
#
# Static dielectric constant tensor:
#      x y z
#    x 1.647750 0.000000 0.024800 
#    y 0.000000 1.748400 0.000000 
#    z 0.024800 0.000000 1.656590 
# 
# From -- ./inp_files/337586.got.cif
#   From: 2010.05.17/outbox.cif.g08.bks.cpg/sg12_169_cif.got.tgz:337586.got - 2010.06.03 13:09:07.
