data_PCOD9186457
_publ_section_title
;
Structure prediction by ZEFSAII (Michael W. Deem and Ramdas Pophale) SiO2 
 PCOD9186457
Probable space group: C 2/M
;
_chemical_formula_sum "Si O2"
_cell_formula_units_Z 64
_cell_length_a 17.851834
_cell_length_b 25.606025
_cell_length_c 18.149827
_cell_angle_alpha 90.000000
_cell_angle_beta 149.625017
_cell_angle_gamma 90.000000
_cell_volume 4195.209170
_symmetry_space_group_name_H-M "C 2/M"
_symmetry_group_IT_number 12
_symmetry_cell_setting 'monoclinic'
loop_
_space_group_symop_operation_xyz
x,y,z
-x,y,-z
-x,-y,-z
x,-y,z
1/2+x,1/2+y,z
1/2-x,1/2+y,-z
1/2-x,1/2-y,-z
1/2+x,1/2-y,z
loop_
_atom_site_type_symbol
_atom_site_label
_atom_site_fract_x
_atom_site_fract_y
_atom_site_fract_z
Si Si1 0.367051 0.938053 0.944683
Si Si2 0.382917 0.243535 0.463445
Si Si3 0.440620 0.188644 0.661320
Si Si4 0.619405 0.845862 0.931821
Si Si5 0.969578 0.059132 0.387716
Si Si6 0.542428 0.246483 0.122049
Si Si7 0.622570 0.344657 0.446297
Si Si8 0.937398 0.798618 0.170275
O O1 0.203746 0.928109 0.772255
O O2 0.378298 0.000000 0.970969
O O3 0.500000 0.925894 0.000000
O O4 0.373900 0.900775 0.021287
O O5 0.500000 0.231987 0.500000
O O6 0.400576 0.200555 0.543161
O O7 0.425670 0.299040 0.537621
O O8 0.217038 0.247282 0.289299
O O9 0.560511 0.149691 0.797923
O O10 0.291056 0.170289 0.573671
O O11 0.502499 0.244142 0.744225
O O12 0.514260 0.808973 0.893327
O O13 0.773696 0.814447 0.055975
O O14 0.000000 0.060280 0.500000
O O15 0.078023 0.100369 0.442073
O O16 0.994403 0.000000 0.381663
O O17 0.458760 0.289819 0.101586
O O18 0.500000 0.250006 0.000000
O O19 0.541459 0.340038 0.298890
#
# Coordination Sequence:
#
# PCOD9186457 Si02
#       8
#     8   8   8   8   8   8   8   8
#     4  10  22  38  51  72 106 135 169 217 258 292
#     4  11  22  32  47  71 102 136 165 203 248 297
#     4  10  20  35  50  69 101 131 171 207 248 296
#     4  11  21  33  54  73  96 138 176 204 249 302
#     4  10  22  36  52  75 101 134 176 217 252 293
#     4  11  22  32  46  72 104 131 168 204 244 301
#     4  11  18  35  54  66  98 139 169 204 250 297
#     4  10  19  35  49  71  97 133 169 208 248 295
#
# _framework density 15.255497
#
# number of rings (size 3 to 8) (size 9 to 14) (size 15 to 20)
#    0.000    1.500    5.000    3.000    7.000    2.000 
#    0.000    0.000    0.000    0.000    0.000    0.000 
#    0.000    6.000    0.000    0.000    0.000    0.000 
#
# Total GULP energy -178165.845822 kJ/mol
# GULP energy per Si atom -5567.682682 kJ/mol
# Density = 1.522077 g / cm^3
# Si number density = 15.255497 Si / 1000 Ang^3
#
#
#
# Elastic Constant Matrix: (Units=GPa)
#
#
# Indices 1 2 3 4 5 6 
#
# 1 87.2838 43.9346 48.9916 0.0000 4.0445 0.0000
# 2 43.9346 61.2434 33.4326 0.0000 0.2474 0.0000
# 3 48.9916 33.4326 109.3230 0.0000 -2.1062 0.0000
# 4 0.0000 0.0000 0.0000 7.1391 0.0000 -10.4300
# 5 4.0445 0.2474 -2.1062 0.0000 32.3788 0.0000
# 6 0.0000 0.0000 0.0000 -10.4300 0.0000 20.2914
#
#
#
# Elastic Compliance Matrix: (Units=1/GPa)
#
#
# Indices 1 2 3 4 5 6 
#
# 1 0.020714 -0.011704 -0.005758 0.000000 -0.002873 0.000000
# 2 -0.011704 0.026223 -0.002754 0.000000 0.001083 0.000000
# 3 -0.005758 -0.002754 0.012600 0.000000 0.001560 0.000000
# 4 0.000000 0.000000 0.000000 0.562435 0.000000 0.289097
# 5 -0.002873 0.001083 0.001560 0.000000 0.031336 0.000000
# 6 0.000000 0.000000 0.000000 0.289097 0.000000 0.197881
#
#
# Mechanical properties :
#
#
# Convention : Reuss Voigt Hill
#
# Bulk Modulus (GPa) = 52.34428 56.72976 54.53702
# Shear Modulus (GPa) = 5.56799 20.72795 13.14797
#
# Velocity S-wave (km/s) = 1.91252 3.69008 2.93892
# Velocity P-wave (km/s) = 6.26604 7.44465 6.88062
#
# Compressibility (1/GPa) = 0.01910428
#
# Stress axis : x y z
#
# Youngs Moduli (GPa) = 48.27753 38.13374 79.36559
#
# Poissons Ratio (x) = 0.44633 0.45703
# Poissons Ratio (y) = 0.56506 0.21854
# Poissons Ratio (z) = 0.27801 0.10500
#
# Static dielectric constant tensor:
#      x y z
#    x 1.525100 0.000000 0.008920 
#    y 0.000000 1.511260 0.000000 
#    z 0.008920 0.000000 1.578360 
# 
# From -- ./inp_files/279501.got.cif
#   From: 2010.05.17/outbox.cif.g08.bks.cpg/sg12_140_cif.got.tgz:279501.got - 2010.06.03 13:09:07.
