data_PCOD9186021
_publ_section_title
;
Structure prediction by ZEFSAII (Michael W. Deem and Ramdas Pophale) SiO2 
 PCOD9186021
Probable space group: C 2/M
;
_chemical_formula_sum "Si O2"
_cell_formula_units_Z 64
_cell_length_a 21.317445
_cell_length_b 14.335078
_cell_length_c 15.988354
_cell_angle_alpha 90.000000
_cell_angle_beta 144.783976
_cell_angle_gamma 90.000000
_cell_volume 2817.470753
_symmetry_space_group_name_H-M "C 2/M"
_symmetry_group_IT_number 12
_symmetry_cell_setting 'monoclinic'
loop_
_space_group_symop_operation_xyz
x,y,z
-x,y,-z
-x,-y,-z
x,-y,z
1/2+x,1/2+y,z
1/2-x,1/2+y,-z
1/2-x,1/2-y,-z
1/2+x,1/2-y,z
loop_
_atom_site_type_symbol
_atom_site_label
_atom_site_fract_x
_atom_site_fract_y
_atom_site_fract_z
Si Si1 0.585635 0.893876 0.497414
Si Si2 0.493290 0.694936 0.395239
Si Si3 0.270584 0.140195 0.510310
Si Si4 0.614072 0.248649 0.127947
Si Si5 0.244275 0.889110 0.163422
Si Si6 0.223673 0.105095 0.632515
Si Si7 0.549185 0.399678 0.195841
Si Si8 0.846668 0.107758 0.101607
O O1 0.504794 0.806857 0.404426
O O2 0.655445 0.882982 0.488432
O O3 0.661583 0.880302 0.662785
O O4 0.541193 0.000000 0.451763
O O5 0.500000 0.667544 0.500000
O O6 0.605243 0.648696 0.483140
O O7 0.387742 0.662101 0.228601
O O8 0.250000 0.250000 0.500000
O O9 0.301527 0.105211 0.635498
O O10 0.156405 0.093811 0.367903
O O11 0.649176 0.323374 0.096304
O O12 0.714760 0.179017 0.242574
O O13 0.585106 0.316320 0.174127
O O14 0.500000 0.194198 0.000000
O O15 0.218897 0.000000 0.137109
O O16 0.249734 0.865396 0.069490
O O17 0.211269 0.000000 0.650489
O O18 0.534915 0.500000 0.136068
O O19 0.451251 0.386707 0.153839
O O20 0.829187 0.000000 0.106946
#
# Coordination Sequence:
#
# PCOD9186021 Si02
#       8
#     8   8   8   8   8   8   8   8
#     4  11  22  38  64  95 128 164 204 253 319 385
#     4  12  25  43  66  92 117 164 217 265 313 361
#     4  12  18  33  59  88 121 158 193 238 306 374
#     4  12  22  33  56  87 124 165 200 240 308 381
#     4  10  19  34  58  91 127 159 198 252 315 373
#     4  12  25  40  58  86 127 167 208 255 305 370
#     4  11  18  27  49  83 119 148 180 233 298 359
#     4  10  21  35  57  90 123 154 201 263 311 357
#
# _framework density 22.715409000000001
#
# number of rings (size 3 to 8) (size 9 to 14) (size 15 to 20)
#    0.000    0.750    7.500    1.875    0.000    2.000 
#    0.000    0.625    0.000    0.750    0.000    0.000 
#    0.000    0.000    0.000    0.000    0.000    0.000 
#
# Total GULP energy -178410.633842 kJ/mol
# GULP energy per Si atom -5575.332308 kJ/mol
# Density = 2.266371 g / cm^3
# Si number density = 22.715409 Si / 1000 Ang^3
#
#
#
# Elastic Constant Matrix: (Units=GPa)
#
#
# Indices 1 2 3 4 5 6 
#
# 1 68.7984 15.2952 9.0615 0.0000 -22.1885 0.0000
# 2 15.2952 139.7106 43.2870 0.0000 -5.4814 0.0000
# 3 9.0615 43.2870 99.4429 0.0000 -26.5349 0.0000
# 4 0.0000 0.0000 0.0000 24.3608 0.0000 -5.6557
# 5 -22.1885 -5.4814 -26.5349 0.0000 31.4033 0.0000
# 6 0.0000 0.0000 0.0000 -5.6557 0.0000 10.2853
#
#
#
# Elastic Compliance Matrix: (Units=1/GPa)
#
#
# Indices 1 2 3 4 5 6 
#
# 1 0.020129 -0.002746 0.003910 0.000000 0.017047 0.000000
# 2 -0.002746 0.008753 -0.004738 0.000000 -0.004416 0.000000
# 3 0.003910 -0.004738 0.015853 0.000000 0.015331 0.000000
# 4 0.000000 0.000000 0.000000 0.047057 0.000000 0.025876
# 5 0.017047 -0.004416 0.015331 0.000000 0.056072 0.000000
# 6 0.000000 0.000000 0.000000 0.025876 0.000000 0.111454
#
#
# Mechanical properties :
#
#
# Convention : Reuss Voigt Hill
#
# Bulk Modulus (GPa) = 26.60609 49.24881 37.92745
# Shear Modulus (GPa) = 17.92141 29.23042 23.57592
#
# Velocity S-wave (km/s) = 2.81188 3.59111 3.22511
# Velocity P-wave (km/s) = 4.72022 6.23880 5.53186
#
# Compressibility (1/GPa) = 0.03758537
#
# Stress axis : x y z
#
# Youngs Moduli (GPa) = 49.68067 114.24459 63.07871
#
# Poissons Ratio (x) = 0.31374 -0.24663
# Poissons Ratio (y) = 0.13643 0.29889
# Poissons Ratio (z) = -0.19424 0.54134
#
# Static dielectric constant tensor:
#      x y z
#    x 1.872400 0.000000 -0.027820 
#    y 0.000000 1.905990 0.000000 
#    z -0.027820 0.000000 1.971250 
# 
# From -- ./inp_files/240728.got.cif
#   From: 2010.05.17/outbox.cif.g08.bks.cpg/sg12_121_cif.got.tgz:240728.got - 2010.06.03 13:09:07.
