data_PCOD9186505
_publ_section_title
;
Structure prediction by ZEFSAII (Michael W. Deem and Ramdas Pophale) SiO2 
 PCOD9186505
Probable space group: C 2/M
;
_chemical_formula_sum "Si O2"
_cell_formula_units_Z 64
_cell_length_a 16.499033
_cell_length_b 25.555512
_cell_length_c 12.719569
_cell_angle_alpha 90.000000
_cell_angle_beta 146.048917
_cell_angle_gamma 90.000000
_cell_volume 2995.207450
_symmetry_space_group_name_H-M "C 2/M"
_symmetry_group_IT_number 12
_symmetry_cell_setting 'monoclinic'
loop_
_space_group_symop_operation_xyz
x,y,z
-x,y,-z
-x,-y,-z
x,-y,z
1/2+x,1/2+y,z
1/2-x,1/2+y,-z
1/2-x,1/2-y,-z
1/2+x,1/2-y,z
loop_
_atom_site_type_symbol
_atom_site_label
_atom_site_fract_x
_atom_site_fract_y
_atom_site_fract_z
Si Si1 0.957198 0.292205 0.324071
Si Si2 0.661346 0.844987 0.991101
Si Si3 0.798514 0.749811 0.818969
Si Si4 0.526102 0.604380 0.641770
Si Si5 0.462989 0.940604 0.835759
Si Si6 0.163233 0.059341 0.389287
Si Si7 0.653966 0.299191 0.478431
Si Si8 0.239314 0.843536 0.344607
O O1 0.862070 0.260215 0.305860
O O2 0.037409 0.246974 0.344829
O O3 0.088305 0.333073 0.490189
O O4 0.841263 0.322652 0.129104
O O5 0.631998 0.793816 0.031965
O O6 0.813083 0.872320 0.180765
O O7 0.543658 0.890689 0.874630
O O8 0.781452 0.721770 0.688718
O O9 0.840384 0.809298 0.831709
O O10 0.500000 0.578153 0.500000
O O11 0.479543 0.571962 0.694756
O O12 0.419242 0.653927 0.536493
O O13 0.296631 0.935423 0.617495
O O14 0.508886 0.000000 0.852367
O O15 0.500000 0.937756 0.000000
O O16 0.193018 0.097672 0.322612
O O17 0.160259 0.000000 0.349972
O O18 0.704282 0.317816 0.420034
#
# Coordination Sequence:
#
# PCOD9186505 Si02
#       8
#     8   8   8   8   8   8   8   8
#     4  11  20  35  55  83 120 155 189 242 298 358
#     4  12  23  34  59  88 122 153 193 240 304 358
#     4  11  21  34  55  84 121 159 189 237 300 359
#     4  11  20  35  55  82 118 154 191 236 290 361
#     4  10  22  39  57  83 118 155 196 248 297 344
#     4  10  22  41  63  82 112 160 211 253 290 341
#     4  10  19  35  53  78 117 158 192 231 285 359
#     4  10  21  37  58  84 115 156 203 245 291 351
#
# _framework density 21.367467999999999
#
# number of rings (size 3 to 8) (size 9 to 14) (size 15 to 20)
#    0.000    1.375    3.750    4.125    1.750    1.750 
#    0.000    0.000    0.000    2.250    0.000    0.875 
#    0.000    0.000    0.000    0.000    0.000    0.000 
#
# Total GULP energy -178364.640551 kJ/mol
# GULP energy per Si atom -5573.895017 kJ/mol
# Density = 2.131883 g / cm^3
# Si number density = 21.367468 Si / 1000 Ang^3
#
#
#
# Elastic Constant Matrix: (Units=GPa)
#
#
# Indices 1 2 3 4 5 6 
#
# 1 75.7779 33.3145 10.3907 0.0000 9.9846 0.0000
# 2 33.3145 133.3890 14.0258 0.0000 -3.2268 0.0000
# 3 10.3907 14.0258 45.7407 0.0000 10.3336 0.0000
# 4 0.0000 0.0000 0.0000 72.0283 0.0000 3.5113
# 5 9.9846 -3.2268 10.3336 0.0000 15.0546 0.0000
# 6 0.0000 0.0000 0.0000 3.5113 0.0000 17.6314
#
#
#
# Elastic Compliance Matrix: (Units=1/GPa)
#
#
# Indices 1 2 3 4 5 6 
#
# 1 0.016760 -0.004523 0.000367 0.000000 -0.012337 0.000000
# 2 -0.004523 0.009165 -0.003437 0.000000 0.007324 0.000000
# 3 0.000367 -0.003437 0.027286 0.000000 -0.019709 0.000000
# 4 0.000000 0.000000 0.000000 0.014020 0.000000 -0.002792
# 5 -0.012337 0.007324 -0.019709 0.000000 0.089705 0.000000
# 6 0.000000 0.000000 0.000000 -0.002792 0.000000 0.057273
#
#
# Mechanical properties :
#
#
# Convention : Reuss Voigt Hill
#
# Bulk Modulus (GPa) = 26.29946 41.15219 33.72582
# Shear Modulus (GPa) = 20.65515 34.08798 27.37156
#
# Velocity S-wave (km/s) = 3.11249 3.99848 3.58298
# Velocity P-wave (km/s) = 5.02511 6.37324 5.73890
#
# Compressibility (1/GPa) = 0.03802360
#
# Stress axis : x y z
#
# Youngs Moduli (GPa) = 59.66531 109.10951 36.64923
#
# Poissons Ratio (x) = 0.49349 -0.01344
# Poissons Ratio (y) = 0.26986 0.12598
# Poissons Ratio (z) = -0.02188 0.37506
#
# Static dielectric constant tensor:
#      x y z
#    x 1.814310 0.000000 -0.024860 
#    y 0.000000 1.812760 0.000000 
#    z -0.024860 0.000000 1.832590 
# 
# From -- ./inp_files/149789.got.cif
#   From: 2010.05.17/outbox.cif.g08.bks.cpg/sg12_75_cif.got.tgz:149789.got - 2010.06.03 13:09:07.
