data_PCOD9186069
_publ_section_title
;
Structure prediction by ZEFSAII (Michael W. Deem and Ramdas Pophale) SiO2 
 PCOD9186069
Probable space group: C 2/M
;
_chemical_formula_sum "Si O2"
_cell_formula_units_Z 40
_cell_length_a 15.502256
_cell_length_b 22.705795
_cell_length_c 8.054205
_cell_angle_alpha 90.000000
_cell_angle_beta 143.512600
_cell_angle_gamma 90.000000
_cell_volume 1685.826182
_symmetry_space_group_name_H-M "C 2/M"
_symmetry_group_IT_number 12
_symmetry_cell_setting 'monoclinic'
loop_
_space_group_symop_operation_xyz
x,y,z
-x,y,-z
-x,-y,-z
x,-y,z
1/2+x,1/2+y,z
1/2-x,1/2+y,-z
1/2-x,1/2-y,-z
1/2+x,1/2-y,z
loop_
_atom_site_type_symbol
_atom_site_label
_atom_site_fract_x
_atom_site_fract_y
_atom_site_fract_z
Si Si1 0.440152 0.124116 0.721643
Si Si2 0.307531 0.686936 0.526857
Si Si3 0.393810 0.500000 0.180205
Si Si4 0.440085 0.000000 0.224229
Si Si5 0.685470 0.189170 0.965526
Si Si6 0.931763 0.873677 0.204824
O O1 0.270632 0.137874 0.479975
O O2 0.496947 0.059489 0.761338
O O3 0.500000 0.134136 0.000000
O O4 0.517036 0.173236 0.723622
O O5 0.250000 0.750000 0.500000
O O6 0.247673 0.682204 0.246978
O O7 0.477242 0.672195 0.765133
O O8 0.500000 0.500000 0.500000
O O9 0.430968 0.440348 0.141673
O O10 0.233759 0.500000 0.017190
O O11 0.500000 0.000000 0.500000
O O12 0.764601 0.142325 0.971587
O O13 0.750000 0.250000 0.000000
O O14 0.000000 0.872268 0.500000
#
# Coordination Sequence:
#
# PCOD9186069 Si02
#       6
#     8   8   4   4   8   8
#     4  10  22  39  61  90 125 167 218 261 317 389
#     4  10  21  36  56  91 125 158 208 265 317 371
#     4  10  20  38  68  93 117 162 220 255 305 384
#     4  12  25  42  66  99 132 162 215 279 329 376
#     4  10  19  34  59  84 117 164 211 253 307 378
#     4   9  18  34  59  86 115 153 211 255 295 372
#
# _framework density 23.727239999999998
#
# number of rings (size 3 to 8) (size 9 to 14) (size 15 to 20)
#    0.000    2.000    2.000    1.500    2.800    2.400 
#    0.000    0.000    0.000    1.200    0.000    0.000 
#    0.000    0.000    0.000    0.000    0.000    0.000 
#
# Total GULP energy -111636.929002 kJ/mol
# GULP energy per Si atom -5581.846450 kJ/mol
# Density = 2.367324 g / cm^3
# Si number density = 23.727240 Si / 1000 Ang^3
#
#
#
# Elastic Constant Matrix: (Units=GPa)
#
#
# Indices 1 2 3 4 5 6 
#
# 1 160.9117 66.2602 34.6707 0.0000 24.0124 0.0000
# 2 66.2602 136.8501 -11.1685 0.0000 13.7975 0.0000
# 3 34.6707 -11.1685 39.9950 0.0000 5.2976 0.0000
# 4 0.0000 0.0000 0.0000 12.9576 0.0000 4.8246
# 5 24.0124 13.7975 5.2976 0.0000 38.4525 0.0000
# 6 0.0000 0.0000 0.0000 4.8246 0.0000 59.3747
#
#
#
# Elastic Compliance Matrix: (Units=1/GPa)
#
#
# Indices 1 2 3 4 5 6 
#
# 1 0.011831 -0.006315 -0.011552 0.000000 -0.003531 0.000000
# 2 -0.006315 0.011211 0.008776 0.000000 -0.001288 0.000000
# 3 -0.011552 0.008776 0.037616 0.000000 -0.001117 0.000000
# 4 0.000000 0.000000 0.000000 0.079582 0.000000 -0.006467
# 5 -0.003531 -0.001288 -0.001117 0.000000 0.028827 0.000000
# 6 0.000000 0.000000 0.000000 -0.006467 0.000000 0.017368
#
#
# Mechanical properties :
#
#
# Convention : Reuss Voigt Hill
#
# Bulk Modulus (GPa) = 23.54315 57.47575 40.50945
# Shear Modulus (GPa) = 22.85453 38.68993 30.77223
#
# Velocity S-wave (km/s) = 3.10694 4.04247 3.60518
# Velocity P-wave (km/s) = 4.77648 6.78711 5.86854
#
# Compressibility (1/GPa) = 0.04247520
#
# Stress axis : x y z
#
# Youngs Moduli (GPa) = 84.52494 89.19845 26.58467
#
# Poissons Ratio (x) = 0.56329 0.30710
# Poissons Ratio (y) = 0.53378 -0.23330
# Poissons Ratio (z) = 0.97641 -0.78277
#
# Static dielectric constant tensor:
#      x y z
#    x 1.867250 0.000000 0.007290 
#    y 0.000000 1.996870 0.000000 
#    z 0.007290 0.000000 1.909990 
# 
# From -- ./inp_files/63813.got.cif
#   From: 2010.05.17/outbox.cif.g08.bks.cpg/sg12_32_cif.got.tgz:63813.got - 2010.06.03 13:09:07.
