data_PCOD9186171
_publ_section_title
;
Structure prediction by ZEFSAII (Michael W. Deem and Ramdas Pophale) SiO2 
 PCOD9186171
Probable space group: C 2/M
;
_chemical_formula_sum "Si O2"
_cell_formula_units_Z 64
_cell_length_a 33.344158
_cell_length_b 8.098565
_cell_length_c 15.621080
_cell_angle_alpha 90.000000
_cell_angle_beta 132.911397
_cell_angle_gamma 90.000000
_cell_volume 3089.524576
_symmetry_space_group_name_H-M "C 2/M"
_symmetry_group_IT_number 12
_symmetry_cell_setting 'monoclinic'
loop_
_space_group_symop_operation_xyz
x,y,z
-x,y,-z
-x,-y,-z
x,-y,z
1/2+x,1/2+y,z
1/2-x,1/2+y,-z
1/2-x,1/2-y,-z
1/2+x,1/2-y,z
loop_
_atom_site_type_symbol
_atom_site_label
_atom_site_fract_x
_atom_site_fract_y
_atom_site_fract_z
Si Si1 0.545178 0.799768 0.895695
Si Si2 0.371365 0.800156 0.488858
Si Si3 0.224563 0.309611 0.051688
Si Si4 0.749545 0.191791 0.726891
Si Si5 0.367068 0.802879 0.836975
Si Si6 0.062780 0.800634 0.583839
Si Si7 0.608107 0.304595 0.830865
Si Si8 0.421261 0.798394 0.741631
O O1 0.557236 0.728369 0.819446
O O2 0.485063 0.753155 0.840846
O O3 0.547265 0.000000 0.893087
O O4 0.592476 0.740657 0.029384
O O5 0.309008 0.738827 0.387320
O O6 0.407685 0.751664 0.460057
O O7 0.397168 0.742650 0.615775
O O8 0.369701 0.000000 0.487896
O O9 0.238315 0.500000 0.086373
O O10 0.245878 0.210489 0.164104
O O11 0.250000 0.250000 0.000000
O O12 0.159607 0.287285 0.947001
O O13 0.804069 0.269719 0.766602
O O14 0.750963 0.000000 0.705801
O O15 0.386937 0.739918 0.773611
O O16 0.374597 0.000000 0.847040
O O17 0.095491 0.746800 0.716430
O O18 0.000000 0.742025 0.500000
O O19 0.061710 0.000000 0.584559
O O20 0.620426 0.500000 0.846949
O O21 0.419283 0.000000 0.738369
#
# Coordination Sequence:
#
# PCOD9186171 Si02
#       8
#     8   8   8   8   8   8   8   8
#     4  10  19  34  59  89 118 152 195 243 293 352
#     4  10  22  39  59  84 115 156 201 244 289 342
#     4  12  24  39  59  84 113 149 192 237 290 347
#     4  11  23  39  58  84 120 156 195 245 293 344
#     4  10  20  36  60  88 117 155 198 243 296 353
#     4  10  22  39  58  84 119 157 194 235 289 347
#     4  11  22  36  57  85 118 154 189 235 290 345
#     4   9  19  37  60  86 117 153 199 248 295 348
#
# _framework density 20.715161999999999
#
# number of rings (size 3 to 8) (size 9 to 14) (size 15 to 20)
#    0.000    1.625    1.250    3.750    0.000    6.250 
#    0.000    1.250    0.000    1.500    0.000    0.000 
#    0.000    0.000    0.000    0.000    0.000    0.000 
#
# Total GULP energy -178866.532184 kJ/mol
# GULP energy per Si atom -5589.579131 kJ/mol
# Density = 2.066801 g / cm^3
# Si number density = 20.715162 Si / 1000 Ang^3
#
#
#
# Elastic Constant Matrix: (Units=GPa)
#
#
# Indices 1 2 3 4 5 6 
#
# 1 153.2664 -6.7551 62.5920 0.0000 -9.0451 0.0000
# 2 -6.7551 12.7868 3.8206 0.0000 -1.2710 0.0000
# 3 62.5920 3.8206 118.4544 0.0000 0.6033 0.0000
# 4 0.0000 0.0000 0.0000 3.0682 0.0000 3.9283
# 5 -9.0451 -1.2710 0.6033 0.0000 39.0322 0.0000
# 6 0.0000 0.0000 0.0000 3.9283 0.0000 22.7887
#
#
#
# Elastic Compliance Matrix: (Units=1/GPa)
#
#
# Indices 1 2 3 4 5 6 
#
# 1 0.008976 0.006460 -0.004963 0.000000 0.002367 0.000000
# 2 0.006460 0.083883 -0.006141 0.000000 0.004323 0.000000
# 3 -0.004963 -0.006141 0.011271 0.000000 -0.001524 0.000000
# 4 0.000000 0.000000 0.000000 0.418222 0.000000 -0.072093
# 5 0.002367 0.004323 -0.001524 0.000000 0.026333 0.000000
# 6 0.000000 0.000000 0.000000 -0.072093 0.000000 0.056309
#
#
# Mechanical properties :
#
#
# Convention : Reuss Voigt Hill
#
# Bulk Modulus (GPa) = 10.54398 44.86919 27.70658
# Shear Modulus (GPa) = 7.74119 27.96783 17.85451
#
# Velocity S-wave (km/s) = 1.93522 3.67838 2.93901
# Velocity P-wave (km/s) = 3.17718 6.30458 4.99210
#
# Compressibility (1/GPa) = 0.09484088
#
# Stress axis : x y z
#
# Youngs Moduli (GPa) = 111.40823 11.92136 88.72648
#
# Poissons Ratio (x) = -0.07701 0.44038
# Poissons Ratio (y) = -0.71972 0.54489
# Poissons Ratio (z) = 0.55296 0.07321
#
# Static dielectric constant tensor:
#      x y z
#    x 1.730480 0.000000 0.011460 
#    y 0.000000 1.734810 0.000000 
#    z 0.011460 0.000000 1.726930 
# 
# From -- ./inp_files/250063.got.cif
#   From: 2010.05.17/outbox.cif.g08.bks.cpg/sg12_126_cif.got.tgz:250063.got - 2010.06.03 13:09:07.
