data_PCOD9186099
_publ_section_title
;
Structure prediction by ZEFSAII (Michael W. Deem and Ramdas Pophale) SiO2 
 PCOD9186099
Probable space group: C 2/M
;
_chemical_formula_sum "Si O2"
_cell_formula_units_Z 56
_cell_length_a 16.803374
_cell_length_b 7.621817
_cell_length_c 23.475341
_cell_angle_alpha 90.000000
_cell_angle_beta 56.299919
_cell_angle_gamma 90.000000
_cell_volume 2501.300609
_symmetry_space_group_name_H-M "C 2/M"
_symmetry_group_IT_number 12
_symmetry_cell_setting 'monoclinic'
loop_
_space_group_symop_operation_xyz
x,y,z
-x,y,-z
-x,-y,-z
x,-y,z
1/2+x,1/2+y,z
1/2-x,1/2+y,-z
1/2-x,1/2-y,-z
1/2+x,1/2-y,z
loop_
_atom_site_type_symbol
_atom_site_label
_atom_site_fract_x
_atom_site_fract_y
_atom_site_fract_z
Si Si1 0.193889 0.797149 0.359222
Si Si2 0.091573 0.785618 0.927434
Si Si3 0.544564 0.293587 0.217450
Si Si4 0.773588 0.708360 0.925610
Si Si5 0.964840 0.207325 0.655593
Si Si6 0.187124 0.708803 0.580079
Si Si7 0.867387 0.786291 0.217173
O O1 0.093973 0.719797 0.375200
O O2 0.254677 0.719324 0.387881
O O3 0.265428 0.785174 0.276952
O O4 0.176866 0.000000 0.382628
O O5 0.187086 0.725251 0.921082
O O6 0.097455 0.732819 0.859383
O O7 0.089710 0.000000 0.928769
O O8 0.000000 0.726841 0.000000
O O9 0.527887 0.500000 0.232736
O O10 0.626789 0.276603 0.138057
O O11 0.570174 0.219288 0.269264
O O12 0.445945 0.222324 0.231390
O O13 0.777253 0.500000 0.918226
O O14 0.750000 0.750000 0.000000
O O15 0.079347 0.224593 0.612566
O O16 0.942641 0.000000 0.662688
O O17 0.177339 0.500000 0.591105
O O18 0.250000 0.750000 0.500000
O O19 0.862771 0.000000 0.219790
#
# Coordination Sequence:
#
# PCOD9186099 Si02
#       7
#     8   8   8   8   8   8   8
#     4  10  22  39  61  90 124 158 195 247 306 355
#     4   9  18  33  52  75 106 143 189 240 291 347
#     4  10  20  35  58  85 114 150 190 238 293 354
#     4  11  22  35  53  77 108 148 192 244 299 355
#     4  10  21  40  64  91 123 160 200 245 300 361
#     4  11  24  42  64  91 125 163 201 248 301 359
#     4  10  19  34  59  86 112 151 197 242 292 354
#
# _framework density 22.388354
#
# number of rings (size 3 to 8) (size 9 to 14) (size 15 to 20)
#    0.000    1.857    1.429    2.571    0.000    5.143 
#    0.000    3.571    0.000    3.000    0.000    0.000 
#    0.000    0.000    0.000    0.000    0.000    0.000 
#
# Total GULP energy -156381.846874 kJ/mol
# GULP energy per Si atom -5585.065960 kJ/mol
# Density = 2.233740 g / cm^3
# Si number density = 22.388354 Si / 1000 Ang^3
#
#
#
# Elastic Constant Matrix: (Units=GPa)
#
#
# Indices 1 2 3 4 5 6 
#
# 1 180.0469 2.2712 42.4159 0.0001 9.6948 0.0003
# 2 2.2712 46.8118 -18.1811 0.0002 6.5382 0.0008
# 3 42.4159 -18.1811 100.5990 0.0000 7.8618 -0.0001
# 4 0.0001 0.0002 0.0000 23.8579 0.0000 -6.3321
# 5 9.6948 6.5382 7.8618 0.0000 27.4778 0.0000
# 6 0.0003 0.0008 -0.0001 -6.3321 0.0000 11.2159
#
#
#
# Elastic Compliance Matrix: (Units=1/GPa)
#
#
# Indices 1 2 3 4 5 6 
#
# 1 0.006286 -0.001229 -0.002784 0.000000 -0.001129 0.000000
# 2 -0.001229 0.024531 0.005497 -0.000001 -0.006976 -0.000002
# 3 -0.002784 0.005497 0.012411 0.000000 -0.003876 0.000000
# 4 0.000000 -0.000001 0.000000 0.049302 0.000000 0.027834
# 5 -0.001129 -0.006976 -0.003876 0.000000 0.039560 0.000001
# 6 0.000000 -0.000002 0.000000 0.027834 0.000001 0.104873
#
#
# Mechanical properties :
#
#
# Convention : Reuss Voigt Hill
#
# Bulk Modulus (GPa) = 21.64723 42.27441 31.96082
# Shear Modulus (GPa) = 20.04847 32.57376 26.31112
#
# Velocity S-wave (km/s) = 2.99571 3.81851 3.43186
# Velocity P-wave (km/s) = 4.65357 6.19392 5.47815
#
# Compressibility (1/GPa) = 0.04619528
#
# Stress axis : x y z
#
# Youngs Moduli (GPa) = 159.07488 40.76484 80.57503
#
# Poissons Ratio (x) = 0.05009 0.22435
# Poissons Ratio (y) = 0.19546 -0.44290
# Poissons Ratio (z) = 0.44292 -0.22407
#
# Static dielectric constant tensor:
#      x y z
#    x 1.896880 0.000000 0.033160 
#    y 0.000000 1.817890 0.000000 
#    z 0.033160 0.000000 1.784560 
# 
# From -- ./inp_files/308901.got.cif
#   From: 2010.05.17/outbox.cif.g08.bks.cpg/sg12_155_cif.got.tgz:308901.got - 2010.06.03 13:09:07.
