data_PCOD9186645
_publ_section_title
;
Structure prediction by ZEFSAII (Michael W. Deem and Ramdas Pophale) SiO2 
 PCOD9186645
Probable space group: C 2/M
;
_chemical_formula_sum "Si O2"
_cell_formula_units_Z 48
_cell_length_a 31.254591
_cell_length_b 15.078725
_cell_length_c 9.734414
_cell_angle_alpha 90.000000
_cell_angle_beta 145.075691
_cell_angle_gamma 90.000000
_cell_volume 2626.388894
_symmetry_space_group_name_H-M "C 2/M"
_symmetry_group_IT_number 12
_symmetry_cell_setting 'monoclinic'
loop_
_space_group_symop_operation_xyz
x,y,z
-x,y,-z
-x,-y,-z
x,-y,z
1/2+x,1/2+y,z
1/2-x,1/2+y,-z
1/2-x,1/2-y,-z
1/2+x,1/2-y,z
loop_
_atom_site_type_symbol
_atom_site_label
_atom_site_fract_x
_atom_site_fract_y
_atom_site_fract_z
Si Si1 0.901639 0.601775 0.513717
Si Si2 0.368098 0.098719 0.107920
Si Si3 0.949565 0.712227 0.098537
Si Si4 0.561479 0.598273 0.043788
Si Si5 0.273812 0.365794 0.435977
Si Si6 0.817059 0.336432 0.546971
O O1 0.928543 0.500000 0.600514
O O2 0.872488 0.612426 0.281784
O O3 0.837970 0.619361 0.459065
O O4 0.968996 0.671151 0.710176
O O5 0.415356 0.170978 0.147742
O O6 0.399318 0.000000 0.159824
O O7 0.283430 0.100772 0.828902
O O8 0.945800 0.818687 0.078248
O O9 0.894343 0.678850 0.832792
O O10 0.552086 0.500000 0.957634
O O11 0.641859 0.601877 0.330557
O O12 0.500000 0.610948 0.000000
O O13 0.235875 0.385763 0.483843
O O14 0.279590 0.259754 0.429671
#
# Coordination Sequence:
#
# PCOD9186645 Si02
#       6
#     8   8   8   8   8   8
#     4  11  22  34  52  83 117 146 179 217 262 319
#     4  10  21  35  54  81 113 150 181 210 263 325
#     4  10  19  35  55  78 111 146 180 220 265 315
#     4  10  20  35  58  83 104 133 179 233 279 317
#     4   9  18  36  56  77 107 139 175 221 268 317
#     4   9  19  33  53  79 106 141 181 218 263 313
#
# _framework density 18.276045
#
# number of rings (size 3 to 8) (size 9 to 14) (size 15 to 20)
#    0.000    2.167    0.000    5.000    0.000    6.667 
#    0.000    0.000    0.000    2.000    0.000    2.333 
#    0.000    0.000    0.000    0.000    0.000    0.000 
#
# Total GULP energy -133872.401602 kJ/mol
# GULP energy per Si atom -5578.016733 kJ/mol
# Density = 1.823445 g / cm^3
# Si number density = 18.276045 Si / 1000 Ang^3
#
#
#
# Elastic Constant Matrix: (Units=GPa)
#
#
# Indices 1 2 3 4 5 6 
#
# 1 102.4603 41.3052 46.4950 0.0000 3.9778 0.0000
# 2 41.3052 109.2647 30.0156 0.0000 -4.7196 0.0000
# 3 46.4950 30.0156 43.9792 0.0000 13.0911 0.0000
# 4 0.0000 0.0000 0.0000 -28.0741 0.0000 -18.2943
# 5 3.9778 -4.7196 13.0911 0.0000 29.7009 0.0000
# 6 0.0000 0.0000 0.0000 -18.2943 0.0000 20.8454
#
#
#
# Elastic Compliance Matrix: (Units=1/GPa)
#
#
# Indices 1 2 3 4 5 6 
#
# 1 0.020282 -0.001083 -0.022840 0.000000 0.007179 0.000000
# 2 -0.001083 0.012320 -0.009080 0.000000 0.006105 0.000000
# 3 -0.022840 -0.009080 0.060545 0.000000 -0.025070 0.000000
# 4 0.000000 0.000000 0.000000 -0.022661 0.000000 -0.019887
# 5 0.007179 0.006105 -0.025070 0.000000 0.044728 0.000000
# 6 0.000000 0.000000 0.000000 -0.019887 0.000000 0.030519
#
#
# Mechanical properties :
#
#
# Convention : Reuss Voigt Hill
#
# Bulk Modulus (GPa) = 36.84708 54.59286 45.71997
# Shear Modulus (GPa) = 22.64632 13.68701 18.16666
#
# Velocity S-wave (km/s) = 3.52394 2.73958 3.15622
# Velocity P-wave (km/s) = 6.06323 6.32006 6.19298
#
# Compressibility (1/GPa) = 0.02713920
#
# Stress axis : x y z
#
# Youngs Moduli (GPa) = 49.30387 81.17153 16.51670
#
# Poissons Ratio (x) = 0.08790 0.37725
# Poissons Ratio (y) = 0.05339 0.14998
# Poissons Ratio (z) = 1.12612 0.73708
#
# Static dielectric constant tensor:
#      x y z
#    x 1.626720 0.000000 0.017000 
#    y 0.000000 1.671520 0.000000 
#    z 0.017000 0.000000 1.605820 
# 
# From -- ./inp_files/111753.got.cif
#   From: 2010.05.17/outbox.cif.g08.bks.cpg/sg12_56_cif.got.tgz:111753.got - 2010.06.03 13:09:07.
