data_PCOD9186654
_publ_section_title
;
Structure prediction by ZEFSAII (Michael W. Deem and Ramdas Pophale) SiO2 
 PCOD9186654
Probable space group: C 2/M
;
_chemical_formula_sum "Si O2"
_cell_formula_units_Z 48
_cell_length_a 10.204623
_cell_length_b 25.736082
_cell_length_c 13.352749
_cell_angle_alpha 90.000000
_cell_angle_beta 57.375246
_cell_angle_gamma 90.000000
_cell_volume 2953.489283
_symmetry_space_group_name_H-M "C 2/M"
_symmetry_group_IT_number 12
_symmetry_cell_setting 'monoclinic'
loop_
_space_group_symop_operation_xyz
x,y,z
-x,y,-z
-x,-y,-z
x,-y,z
1/2+x,1/2+y,z
1/2-x,1/2+y,-z
1/2-x,1/2-y,-z
1/2+x,1/2-y,z
loop_
_atom_site_type_symbol
_atom_site_label
_atom_site_fract_x
_atom_site_fract_y
_atom_site_fract_z
Si Si1 0.547255 0.904529 0.231317
Si Si2 0.922622 0.312311 0.924238
Si Si3 0.847543 0.898278 0.254300
Si Si4 0.345805 0.059503 0.493606
Si Si5 0.394818 0.000000 0.943794
Si Si6 0.029786 0.000000 0.106930
Si Si7 0.942651 0.808334 0.909544
O O1 0.517950 0.852086 0.182740
O O2 0.702664 0.898105 0.235575
O O3 0.406549 0.919193 0.363246
O O4 0.574212 0.950168 0.139636
O O5 0.950773 0.252687 0.879790
O O6 0.739024 0.322154 0.015320
O O7 0.000000 0.320022 0.000000
O O8 0.776996 0.906692 0.393756
O O9 0.949752 0.948666 0.184389
O O10 0.951468 0.847005 0.198213
O O11 0.500000 0.057867 0.500000
O O12 0.290432 0.000000 0.506461
O O13 0.500000 0.000000 0.000000
O O14 0.213786 0.000000 0.048410
O O15 0.000000 0.000000 0.000000
O O16 0.000000 0.813685 0.000000
#
# Coordination Sequence:
#
# PCOD9186654 Si02
#       7
#     8   8   8   8   4   4   8
#     4  11  19  35  55  79 113 144 179 221 271 324
#     4  10  21  34  54  80 109 146 177 217 279 326
#     4  11  19  33  57  83 108 137 186 229 267 312
#     4   9  18  32  53  81 108 142 177 223 269 312
#     4  12  24  33  51  83 117 144 170 219 279 338
#     4  12  20  31  55  83 107 138 176 226 271 314
#     4  10  19  35  55  79 110 140 180 229 270 313
#
# _framework density 16.251964000000001
#
# number of rings (size 3 to 8) (size 9 to 14) (size 15 to 20)
#    0.000    1.500    5.000    2.000    0.000    0.000 
#    0.000    0.833    0.000    5.000    0.000    0.000 
#    0.000    0.000    0.000    0.000    0.000    0.000 
#
# Total GULP energy -133924.685734 kJ/mol
# GULP energy per Si atom -5580.195239 kJ/mol
# Density = 1.621497 g / cm^3
# Si number density = 16.251964 Si / 1000 Ang^3
#
#
#
# Elastic Constant Matrix: (Units=GPa)
#
#
# Indices 1 2 3 4 5 6 
#
# 1 75.7750 20.0623 27.1622 0.0000 -4.7484 0.0000
# 2 20.0623 100.1291 68.0936 0.0000 -14.1148 0.0000
# 3 27.1622 68.0936 110.1627 0.0000 -16.3240 0.0000
# 4 0.0000 0.0000 0.0000 16.3391 0.0000 -2.2485
# 5 -4.7484 -14.1148 -16.3240 0.0000 21.0027 0.0000
# 6 0.0000 0.0000 0.0000 -2.2485 0.0000 30.7687
#
#
#
# Elastic Compliance Matrix: (Units=1/GPa)
#
#
# Indices 1 2 3 4 5 6 
#
# 1 0.014518 -0.000791 -0.003032 0.000000 0.000394 0.000000
# 2 -0.000791 0.017536 -0.010086 0.000000 0.003767 0.000000
# 3 -0.003032 -0.010086 0.016900 0.000000 0.005671 0.000000
# 4 0.000000 0.000000 0.000000 0.061825 0.000000 0.004518
# 5 0.000394 0.003767 0.005671 0.000000 0.054641 0.000000
# 6 0.000000 0.000000 0.000000 0.004518 0.000000 0.032831
#
#
# Mechanical properties :
#
#
# Convention : Reuss Voigt Hill
#
# Bulk Modulus (GPa) = 47.31533 57.41145 52.36339
# Shear Modulus (GPa) = 21.44879 25.00535 23.22707
#
# Velocity S-wave (km/s) = 3.63680 3.92676 3.78456
# Velocity P-wave (km/s) = 6.84192 7.48076 7.16846
#
# Compressibility (1/GPa) = 0.02113480
#
# Stress axis : x y z
#
# Youngs Moduli (GPa) = 68.87971 57.02689 59.17272
#
# Poissons Ratio (x) = 0.04513 0.17942
# Poissons Ratio (y) = 0.05451 0.59680
# Poissons Ratio (z) = 0.20885 0.57516
#
# Static dielectric constant tensor:
#      x y z
#    x 1.541390 0.000000 0.000220 
#    y 0.000000 1.552990 0.000000 
#    z 0.000220 0.000000 1.529980 
# 
# From -- ./inp_files/122486.got.cif
#   From: 2010.05.17/outbox.cif.g08.bks.cpg/sg12_62_cif.got.tgz:122486.got - 2010.06.03 13:09:07.
