data_PCOD9186915
_publ_section_title
;
Structure prediction by ZEFSAII (Michael W. Deem and Ramdas Pophale) SiO2 
 PCOD9186915
Probable space group: C 2/M
;
_chemical_formula_sum "Si O2"
_cell_formula_units_Z 48
_cell_length_a 20.938018
_cell_length_b 9.024515
_cell_length_c 32.458169
_cell_angle_alpha 90.000000
_cell_angle_beta 27.297842
_cell_angle_gamma 90.000000
_cell_volume 2812.760405
_symmetry_space_group_name_H-M "C 2/M"
_symmetry_group_IT_number 12
_symmetry_cell_setting 'monoclinic'
loop_
_space_group_symop_operation_xyz
x,y,z
-x,y,-z
-x,-y,-z
x,-y,z
1/2+x,1/2+y,z
1/2-x,1/2+y,-z
1/2-x,1/2-y,-z
1/2+x,1/2-y,z
loop_
_atom_site_type_symbol
_atom_site_label
_atom_site_fract_x
_atom_site_fract_y
_atom_site_fract_z
Si Si1 0.889372 0.177398 0.437780
Si Si2 0.643574 0.677960 0.940298
Si Si3 0.969364 0.678055 0.564544
Si Si4 0.676645 0.676306 0.228662
Si Si5 0.375155 0.322382 0.952721
Si Si6 0.685575 0.322371 0.771651
O O1 0.750000 0.250000 0.500000
O O2 0.935286 0.243300 0.455761
O O3 0.018533 0.210046 0.332897
O O4 0.874731 0.000000 0.449178
O O5 0.655370 0.500000 0.929919
O O6 0.771356 0.752871 0.843442
O O7 0.500000 0.722272 0.000000
O O8 0.634764 0.716441 0.993291
O O9 0.989700 0.500000 0.556252
O O10 0.808791 0.710016 0.668847
O O11 0.000000 0.721984 0.500000
O O12 0.692756 0.500000 0.218170
O O13 0.771645 0.744185 0.210466
O O14 0.364734 0.500000 0.955338
O O15 0.529557 0.278582 0.848795
O O16 0.250000 0.250000 0.000000
O O17 0.684831 0.500000 0.779337
#
# Coordination Sequence:
#
# PCOD9186915 Si02
#       6
#     8   8   8   8   8   8
#     4  10  21  37  56  80 111 143 177 221 271 321
#     4  10  19  35  57  78 104 139 181 216 254 319
#     4   9  18  34  58  83 106 138 180 221 267 324
#     4  10  20  33  54  84 108 133 176 226 267 306
#     4  10  21  36  53  75 106 143 177 215 262 311
#     4   9  17  34  56  75 103 144 179 213 262 318
#
# _framework density 17.065086000000001
#
# number of rings (size 3 to 8) (size 9 to 14) (size 15 to 20)
#    0.000    2.333    1.667    1.000    0.000    4.000 
#    3.000    0.000    0.000    0.000    0.000    0.000 
#    0.000    0.000    0.000    0.000    0.000    0.000 
#
# Total GULP energy -133869.510158 kJ/mol
# GULP energy per Si atom -5577.896257 kJ/mol
# Density = 1.702625 g / cm^3
# Si number density = 17.065086 Si / 1000 Ang^3
#
#
#
# Elastic Constant Matrix: (Units=GPa)
#
#
# Indices 1 2 3 4 5 6 
#
# 1 129.0734 48.3412 97.1237 0.0000 -11.2944 -0.0020
# 2 48.3412 28.7880 54.3444 -0.0017 -3.0005 -0.0021
# 3 97.1237 54.3444 139.9220 -0.0009 -9.2661 -0.0007
# 4 0.0000 -0.0017 -0.0009 27.0072 0.0003 -3.3858
# 5 -11.2944 -3.0005 -9.2661 0.0003 34.6297 -0.0002
# 6 -0.0020 -0.0021 -0.0007 -3.3858 -0.0002 27.7615
#
#
#
# Elastic Compliance Matrix: (Units=1/GPa)
#
#
# Indices 1 2 3 4 5 6 
#
# 1 0.021728 -0.030323 -0.003064 -0.000002 0.003639 -0.000001
# 2 -0.030323 0.172686 -0.046510 0.000011 -0.007372 0.000011
# 3 -0.003064 -0.046510 0.027492 -0.000002 0.002327 -0.000003
# 4 -0.000002 0.000011 -0.000002 0.037602 -0.000001 0.004586
# 5 0.003639 -0.007372 0.002327 -0.000001 0.030048 0.000000
# 6 -0.000001 0.000011 -0.000003 0.004586 0.000000 0.036580
#
#
# Mechanical properties :
#
#
# Convention : Reuss Voigt Hill
#
# Bulk Modulus (GPa) = 16.09989 77.48912 46.79451
# Shear Modulus (GPa) = 9.86906 24.41128 17.14017
#
# Velocity S-wave (km/s) = 2.40743 3.78627 3.17267
# Velocity P-wave (km/s) = 4.14518 8.03872 6.39545
#
# Compressibility (1/GPa) = 0.06211222
#
# Stress axis : x y z
#
# Youngs Moduli (GPa) = 46.02284 5.79086 36.37476
#
# Poissons Ratio (x) = 0.17560 0.11145
# Poissons Ratio (y) = 1.39557 1.69178
# Poissons Ratio (z) = 0.14101 0.26933
#
# Static dielectric constant tensor:
#      x y z
#    x 1.541930 0.000000 0.007270 
#    y 0.000000 1.570660 0.000000 
#    z 0.007270 0.000000 1.593480 
# 
# From -- ./inp_files/280073.got.cif
#   From: 2010.05.17/outbox.cif.g08.bks.cpg/sg12_141_cif.got.tgz:280073.got - 2010.06.03 13:09:07.
