data_PCOD9186532
_publ_section_title
;
Structure prediction by ZEFSAII (Michael W. Deem and Ramdas Pophale) SiO2 
 PCOD9186532
Probable space group: C 2/M
;
_chemical_formula_sum "Si O2"
_cell_formula_units_Z 64
_cell_length_a 19.798710
_cell_length_b 8.992678
_cell_length_c 29.912769
_cell_angle_alpha 90.000000
_cell_angle_beta 135.875520
_cell_angle_gamma 90.000000
_cell_volume 3707.906491
_symmetry_space_group_name_H-M "C 2/M"
_symmetry_group_IT_number 12
_symmetry_cell_setting 'monoclinic'
loop_
_space_group_symop_operation_xyz
x,y,z
-x,y,-z
-x,-y,-z
x,-y,z
1/2+x,1/2+y,z
1/2-x,1/2+y,-z
1/2-x,1/2-y,-z
1/2+x,1/2-y,z
loop_
_atom_site_type_symbol
_atom_site_label
_atom_site_fract_x
_atom_site_fract_y
_atom_site_fract_z
Si Si1 0.954560 0.671293 0.528713
Si Si2 0.961754 0.177076 0.838772
Si Si3 0.739688 0.679424 0.213573
Si Si4 0.267409 0.180126 0.392441
Si Si5 0.446234 0.676383 0.725546
Si Si6 0.834598 0.321712 0.069255
Si Si7 0.851065 0.678264 0.179860
Si Si8 0.363689 0.676803 0.350256
O O1 0.959108 0.500000 0.546161
O O2 0.843098 0.717153 0.467848
O O3 0.000000 0.674295 0.500000
O O4 0.024687 0.771729 0.591517
O O5 0.869469 0.220901 0.824520
O O6 0.936037 0.202762 0.774232
O O7 0.059775 0.264668 0.895764
O O8 0.978687 0.000000 0.851975
O O9 0.746691 0.500000 0.221893
O O10 0.771434 0.720294 0.178676
O O11 0.813591 0.754621 0.283047
O O12 0.307108 0.255869 0.366248
O O13 0.155154 0.221449 0.345234
O O14 0.272196 0.000000 0.388501
O O15 0.458903 0.500000 0.725199
O O16 0.543791 0.757758 0.757293
O O17 0.829616 0.500000 0.064584
O O18 0.826723 0.274306 0.117731
O O19 0.750000 0.250000 0.000000
O O20 0.858208 0.500000 0.182751
O O21 0.356745 0.500000 0.347189
#
# Coordination Sequence:
#
# PCOD9186532 Si02
#       8
#     8   8   8   8   8   8   8   8
#     4   8  15  27  43  62  91 130 171 210 252 307
#     4   9  17  31  54  78  99 130 169 206 245 289
#     4  10  19  35  54  72 101 137 171 205 248 305
#     4   9  16  29  47  68  94 131 174 211 253 307
#     4   9  16  29  50  74  99 128 165 210 255 301
#     4  10  20  36  57  81 107 134 166 200 242 292
#     4   9  20  35  53  77 103 132 167 208 247 292
#     4  11  20  27  42  70 102 131 164 211 262 301
#
# _framework density 17.260414000000001
#
# number of rings (size 3 to 8) (size 9 to 14) (size 15 to 20)
#    0.000    2.625    1.250    2.250    0.000    4.250 
#    0.000    0.625    0.000    4.500    0.000    0.000 
#    0.000    0.000    0.000    0.000    0.000    0.000 
#
# Total GULP energy -178374.089612 kJ/mol
# GULP energy per Si atom -5574.190300 kJ/mol
# Density = 1.722113 g / cm^3
# Si number density = 17.260414 Si / 1000 Ang^3
#
#
#
# Elastic Constant Matrix: (Units=GPa)
#
#
# Indices 1 2 3 4 5 6 
#
# 1 92.4054 29.9253 47.6398 0.0000 13.3984 0.0000
# 2 29.9253 31.6247 44.6763 0.0000 6.1103 0.0000
# 3 47.6398 44.6763 130.0456 0.0000 21.9673 0.0000
# 4 0.0000 0.0000 0.0000 21.4722 0.0000 7.6688
# 5 13.3984 6.1103 21.9673 0.0000 16.4135 0.0000
# 6 0.0000 0.0000 0.0000 7.6688 0.0000 16.3477
#
#
#
# Elastic Compliance Matrix: (Units=1/GPa)
#
#
# Indices 1 2 3 4 5 6 
#
# 1 0.016598 -0.014589 0.000392 0.000000 -0.008642 0.000000
# 2 -0.014589 0.074882 -0.022849 0.000000 0.014613 0.000000
# 3 0.000392 -0.022849 0.018106 0.000000 -0.016047 0.000000
# 4 0.000000 0.000000 0.000000 0.055945 0.000000 -0.026244
# 5 -0.008642 0.014613 -0.016047 0.000000 0.084016 0.000000
# 6 0.000000 0.000000 0.000000 -0.026244 0.000000 0.073482
#
#
# Mechanical properties :
#
#
# Convention : Reuss Voigt Hill
#
# Bulk Modulus (GPa) = 28.17523 55.39539 41.78531
# Shear Modulus (GPa) = 12.22636 19.63565 15.93100
#
# Velocity S-wave (km/s) = 2.66437 3.37651 3.04135
# Velocity P-wave (km/s) = 5.08175 6.88220 6.04933
#
# Compressibility (1/GPa) = 0.03549217
#
# Stress axis : x y z
#
# Youngs Moduli (GPa) = 60.24924 13.35439 55.22892
#
# Poissons Ratio (x) = 0.19483 -0.02162
# Poissons Ratio (y) = 0.87899 1.26193
# Poissons Ratio (z) = -0.02359 0.30514
#
# Static dielectric constant tensor:
#      x y z
#    x 1.585810 0.000000 0.009500 
#    y 0.000000 1.577070 0.000000 
#    z 0.009500 0.000000 1.585430 
# 
# From -- ./inp_files/378359.got.cif
#   From: 2010.05.17/outbox.cif.g08.bks.cpg/sg12_190_cif.got.tgz:378359.got - 2010.06.03 13:09:07.
