data_PCOD9186697
_publ_section_title
;
Structure prediction by ZEFSAII (Michael W. Deem and Ramdas Pophale) SiO2 
 PCOD9186697
Probable space group: C 2/M
;
_chemical_formula_sum "Si O2"
_cell_formula_units_Z 56
_cell_length_a 14.551581
_cell_length_b 14.056025
_cell_length_c 13.916120
_cell_angle_alpha 90.000000
_cell_angle_beta 103.532733
_cell_angle_gamma 90.000000
_cell_volume 2767.341408
_symmetry_space_group_name_H-M "C 2/M"
_symmetry_group_IT_number 12
_symmetry_cell_setting 'monoclinic'
loop_
_space_group_symop_operation_xyz
x,y,z
-x,y,-z
-x,-y,-z
x,-y,z
1/2+x,1/2+y,z
1/2-x,1/2+y,-z
1/2-x,1/2-y,-z
1/2+x,1/2-y,z
loop_
_atom_site_type_symbol
_atom_site_label
_atom_site_fract_x
_atom_site_fract_y
_atom_site_fract_z
Si Si1 0.449863 0.213735 0.187780
Si Si2 0.761148 0.610946 0.084478
Si Si3 0.578550 0.192535 0.602039
Si Si4 0.815176 0.889246 0.151312
Si Si5 0.772632 0.828366 0.586778
Si Si6 0.339329 0.759423 0.799781
Si Si7 0.610156 0.400999 0.549463
O O1 0.367911 0.150390 0.119636
O O2 0.459468 0.177928 0.300549
O O3 0.405831 0.320204 0.180757
O O4 0.551190 0.213862 0.162046
O O5 0.756973 0.500000 0.111134
O O6 0.697162 0.676888 0.137520
O O7 0.724416 0.620606 0.967067
O O8 0.500000 0.181868 0.500000
O O9 0.672563 0.132923 0.600876
O O10 0.617918 0.301723 0.607443
O O11 0.731800 0.846760 0.197738
O O12 0.835521 0.000000 0.172149
O O13 0.750000 0.750000 0.500000
O O14 0.826119 0.781339 0.689097
O O15 0.837750 0.896085 0.540116
O O16 0.500000 0.404553 0.500000
O O17 0.639169 0.500000 0.605430
#
# Coordination Sequence:
#
# PCOD9186697 Si02
#       7
#     8   8   8   8   8   8   8
#     4  11  21  38  64  92 120 162 207 252 306 365
#     4  10  23  42  62  89 126 163 203 256 315 370
#     4  10  19  36  58  81 116 158 199 241 293 355
#     4  10  23  42  62  90 126 160 203 261 314 363
#     4  10  19  35  55  82 116 157 196 237 292 350
#     4  11  21  38  64  93 119 163 207 251 307 368
#     4   9  18  31  50  79 112 147 192 240 285 340
#
# _framework density 20.236028999999998
#
# number of rings (size 3 to 8) (size 9 to 14) (size 15 to 20)
#    0.000    1.857    2.857    4.286    0.000    4.571 
#    0.000    4.286    0.000    3.429    0.000    0.000 
#    0.000    0.000    0.000    0.000    0.000    0.000 
#
# Total GULP energy -156198.774087 kJ/mol
# GULP energy per Si atom -5578.527646 kJ/mol
# Density = 2.018997 g / cm^3
# Si number density = 20.236029 Si / 1000 Ang^3
#
#
#
# Elastic Constant Matrix: (Units=GPa)
#
#
# Indices 1 2 3 4 5 6 
#
# 1 128.3497 12.0396 2.7147 0.0000 -3.3385 0.0000
# 2 12.0396 52.0576 2.8852 0.0000 -6.7878 0.0000
# 3 2.7147 2.8852 91.3673 0.0000 8.9662 0.0000
# 4 0.0000 0.0000 0.0000 14.3224 0.0000 -18.3456
# 5 -3.3385 -6.7878 8.9662 0.0000 18.2102 0.0000
# 6 0.0000 0.0000 0.0000 -18.3456 0.0000 46.0754
#
#
#
# Elastic Compliance Matrix: (Units=1/GPa)
#
#
# Indices 1 2 3 4 5 6 
#
# 1 0.007982 -0.001705 -0.000278 0.000000 0.000965 0.000000
# 2 -0.001705 0.020738 -0.001400 0.000000 0.008107 0.000000
# 3 -0.000278 -0.001400 0.011615 0.000000 -0.006291 0.000000
# 4 0.000000 0.000000 0.000000 0.142495 0.000000 0.056737
# 5 0.000965 0.008107 -0.006291 0.000000 0.061211 0.000000
# 6 0.000000 0.000000 0.000000 0.056737 0.000000 0.044294
#
#
# Mechanical properties :
#
#
# Convention : Reuss Voigt Hill
#
# Bulk Modulus (GPa) = 29.78853 34.11706 31.95280
# Shear Modulus (GPa) = 16.32437 32.66394 24.49415
#
# Velocity S-wave (km/s) = 2.84332 4.02200 3.48289
# Velocity P-wave (km/s) = 5.05290 6.20200 5.65671
#
# Compressibility (1/GPa) = 0.03356996
#
# Stress axis : x y z
#
# Youngs Moduli (GPa) = 125.28016 48.21969 86.09774
#
# Poissons Ratio (x) = 0.08221 0.02394
# Poissons Ratio (y) = 0.21358 0.12052
# Poissons Ratio (z) = 0.03483 0.06750
#
# Static dielectric constant tensor:
#      x y z
#    x 1.725100 0.000000 -0.012340 
#    y 0.000000 1.779620 0.000000 
#    z -0.012340 0.000000 1.730710 
# 
# From -- ./inp_files/214345.got.cif
#   From: 2010.05.17/outbox.cif.g08.bks.cpg/sg12_108_cif.got.tgz:214345.got - 2010.06.03 13:09:07.
