data_PCOD9186909
_publ_section_title
;
Structure prediction by ZEFSAII (Michael W. Deem and Ramdas Pophale) SiO2 
 PCOD9186909
Probable space group: C 2/M
;
_chemical_formula_sum "Si O2"
_cell_formula_units_Z 64
_cell_length_a 28.066975
_cell_length_b 15.031416
_cell_length_c 22.110924
_cell_angle_alpha 90.000000
_cell_angle_beta 24.916665
_cell_angle_gamma 90.000000
_cell_volume 3930.008220
_symmetry_space_group_name_H-M "C 2/M"
_symmetry_group_IT_number 12
_symmetry_cell_setting 'monoclinic'
loop_
_space_group_symop_operation_xyz
x,y,z
-x,y,-z
-x,-y,-z
x,-y,z
1/2+x,1/2+y,z
1/2-x,1/2+y,-z
1/2-x,1/2-y,-z
1/2+x,1/2-y,z
loop_
_atom_site_type_symbol
_atom_site_label
_atom_site_fract_x
_atom_site_fract_y
_atom_site_fract_z
Si Si1 0.874126 0.606949 0.130336
Si Si2 0.155271 0.601246 0.262627
Si Si3 0.811751 0.395631 0.070479
Si Si4 0.258525 0.602909 0.593375
Si Si5 0.882820 0.602234 0.556950
Si Si6 0.058561 0.601551 0.725838
Si Si7 0.183616 0.755574 0.139663
Si Si8 0.422062 0.234615 0.408092
O O1 0.886958 0.500000 0.106862
O O2 0.821603 0.639241 0.127890
O O3 0.794976 0.619631 0.278996
O O4 0.000000 0.641807 0.000000
O O5 0.194344 0.500000 0.207630
O O6 0.170287 0.623594 0.316305
O O7 0.206226 0.670092 0.156495
O O8 0.019262 0.601571 0.408829
O O9 0.780894 0.500000 0.106433
O O10 0.726527 0.339914 0.127932
O O11 0.937397 0.388255 0.897626
O O12 0.297983 0.500000 0.545683
O O13 0.157509 0.611723 0.661145
O O14 0.353896 0.675877 0.473165
O O15 0.851227 0.500000 0.577093
O O16 0.862515 0.675649 0.529242
O O17 0.063587 0.500000 0.696079
O O18 0.070805 0.671763 0.658532
O O19 0.049753 0.757244 0.281242
O O20 0.250000 0.750000 0.000000
#
# Coordination Sequence:
#
# PCOD9186909 Si02
#       8
#     8   8   8   8   8   8   8   8
#     4   9  16  32  56  78  98 130 179 225 259 300
#     4   8  16  31  50  69  96 130 168 214 254 293
#     4  10  20  34  54  77 105 137 174 221 264 306
#     4  10  21  35  53  79 108 139 173 216 269 318
#     4   8  15  30  50  73  95 124 168 214 257 297
#     4  10  19  35  57  78 102 132 178 230 266 301
#     4  11  22  34  49  76 109 140 178 212 253 327
#     4  11  21  33  52  78 109 140 170 214 267 319
#
# _framework density 16.284953000000002
#
# number of rings (size 3 to 8) (size 9 to 14) (size 15 to 20)
#    0.000    2.375    2.500    1.500    1.750    1.500 
#    0.000    0.000    0.000    2.250    0.000    0.000 
#    0.000    3.500    0.000    0.000    0.000    0.000 
#
# Total GULP energy -178344.577832 kJ/mol
# GULP energy per Si atom -5573.268057 kJ/mol
# Density = 1.624789 g / cm^3
# Si number density = 16.284953 Si / 1000 Ang^3
#
#
#
# Elastic Constant Matrix: (Units=GPa)
#
#
# Indices 1 2 3 4 5 6 
#
# 1 108.8198 70.3476 41.6526 -0.0001 11.1652 0.0000
# 2 70.3476 103.0842 51.1226 0.0000 -0.8929 0.0000
# 3 41.6526 51.1226 49.8610 -0.0001 2.6249 0.0001
# 4 -0.0001 0.0000 -0.0001 21.5147 0.0001 2.4377
# 5 11.1652 -0.8929 2.6249 0.0001 10.6562 -0.0001
# 6 0.0000 0.0000 0.0001 2.4377 -0.0001 32.0142
#
#
#
# Elastic Compliance Matrix: (Units=1/GPa)
#
#
# Indices 1 2 3 4 5 6 
#
# 1 0.021137 -0.013122 -0.003018 0.000000 -0.022502 0.000000
# 2 -0.013122 0.028371 -0.019225 0.000000 0.020862 0.000000
# 3 -0.003018 -0.019225 0.042761 0.000000 -0.008982 0.000000
# 4 0.000000 0.000000 0.000000 0.046884 -0.000001 -0.003570
# 5 -0.022502 0.020862 -0.008982 -0.000001 0.121379 0.000000
# 6 0.000000 0.000000 0.000000 -0.003570 0.000000 0.031508
#
#
# Mechanical properties :
#
#
# Convention : Reuss Voigt Hill
#
# Bulk Modulus (GPa) = 46.42939 65.33449 55.88194
# Shear Modulus (GPa) = 13.51538 19.41318 16.46428
#
# Velocity S-wave (km/s) = 2.88398 3.45642 3.18309
# Velocity P-wave (km/s) = 6.29780 7.49238 6.92091
#
# Compressibility (1/GPa) = 0.02153808
#
# Stress axis : x y z
#
# Youngs Moduli (GPa) = 47.31137 35.24756 23.38596
#
# Poissons Ratio (x) = 0.46254 0.07057
# Poissons Ratio (y) = 0.62084 0.44959
# Poissons Ratio (z) = 0.14278 0.67762
#
# Static dielectric constant tensor:
#      x y z
#    x 1.549160 0.000000 0.013590 
#    y 0.000000 1.546360 0.000000 
#    z 0.013590 0.000000 1.529250 
# 
# From -- ./inp_files/167309.got.cif
#   From: 2010.05.17/outbox.cif.g08.bks.cpg/sg12_84_cif.got.tgz:167309.got - 2010.06.03 13:09:07.
