data_PCOD9186241
_publ_section_title
;
Structure prediction by ZEFSAII (Michael W. Deem and Ramdas Pophale) SiO2 
 PCOD9186241
Probable space group: C 2/M
;
_chemical_formula_sum "Si O2"
_cell_formula_units_Z 64
_cell_length_a 31.064998
_cell_length_b 15.061929
_cell_length_c 21.874920
_cell_angle_alpha 90.000000
_cell_angle_beta 20.104321
_cell_angle_gamma 90.000000
_cell_volume 3518.167315
_symmetry_space_group_name_H-M "C 2/M"
_symmetry_group_IT_number 12
_symmetry_cell_setting 'monoclinic'
loop_
_space_group_symop_operation_xyz
x,y,z
-x,y,-z
-x,-y,-z
x,-y,z
1/2+x,1/2+y,z
1/2-x,1/2+y,-z
1/2-x,1/2-y,-z
1/2+x,1/2-y,z
loop_
_atom_site_type_symbol
_atom_site_label
_atom_site_fract_x
_atom_site_fract_y
_atom_site_fract_z
Si Si1 0.070446 0.602733 0.785989
Si Si2 0.494756 0.103867 0.434782
Si Si3 0.870539 0.275582 0.507664
Si Si4 0.231848 0.645318 0.034119
Si Si5 0.485827 0.600089 0.316480
Si Si6 0.536597 0.899505 0.199972
Si Si7 0.356672 0.396323 0.358919
Si Si8 0.906547 0.223504 0.175065
O O1 0.064544 0.500000 0.814623
O O2 0.211223 0.617967 0.571464
O O3 0.050330 0.677944 0.862745
O O4 0.975375 0.614830 0.856139
O O5 0.500000 0.117822 0.500000
O O6 0.394347 0.167755 0.536694
O O7 0.626906 0.125409 0.225376
O O8 0.466679 0.000000 0.460749
O O9 0.925950 0.176810 0.437581
O O10 0.729484 0.271508 0.673780
O O11 0.950594 0.328731 0.349635
O O12 0.171804 0.608440 0.051331
O O13 0.250000 0.750000 0.000000
O O14 0.364901 0.605943 0.875514
O O15 0.443462 0.500000 0.387446
O O16 0.439672 0.619484 0.308830
O O17 0.488969 0.000000 0.274699
O O18 0.369277 0.500000 0.325137
O O19 0.395480 0.334251 0.251375
O O20 0.000000 0.185356 0.000000
#
# Coordination Sequence:
#
# PCOD9186241 Si02
#       8
#     8   8   8   8   8   8   8   8
#     4  10  20  38  63  83 107 150 200 243 282 337
#     4  10  22  40  61  85 118 159 195 231 284 348
#     4  11  20  37  57  84 114 156 192 234 293 346
#     4  11  20  34  58  92 117 148 190 245 288 334
#     4  11  21  35  59  87 117 149 193 246 288 334
#     4  10  19  34  60  86 111 146 194 244 287 333
#     4  10  21  37  60  85 112 151 194 236 288 345
#     4  12  25  37  55  87 122 152 188 239 294 354
#
# _framework density 18.191289000000001
#
# number of rings (size 3 to 8) (size 9 to 14) (size 15 to 20)
#    0.000    1.375    5.000    3.375    0.000    2.000 
#    0.000    1.250    0.000    0.375    0.000    0.000 
#    0.000    0.000    0.000    0.000    0.000    0.000 
#
# Total GULP energy -178641.226464 kJ/mol
# GULP energy per Si atom -5582.538327 kJ/mol
# Density = 1.814988 g / cm^3
# Si number density = 18.191289 Si / 1000 Ang^3
#
#
#
# Elastic Constant Matrix: (Units=GPa)
#
#
# Indices 1 2 3 4 5 6 
#
# 1 123.7770 49.9642 35.3619 0.0000 -19.1555 0.0000
# 2 49.9642 110.6497 9.9199 0.0000 8.5339 0.0000
# 3 35.3619 9.9199 39.0643 0.0000 -18.1678 0.0000
# 4 0.0000 0.0000 0.0000 15.2137 0.0000 -7.3332
# 5 -19.1555 8.5339 -18.1678 0.0000 28.8823 0.0000
# 6 0.0000 0.0000 0.0000 -7.3332 0.0000 31.4015
#
#
#
# Elastic Compliance Matrix: (Units=1/GPa)
#
#
# Indices 1 2 3 4 5 6 
#
# 1 0.013682 -0.005865 -0.008297 0.000000 0.005588 0.000000
# 2 -0.005865 0.012547 -0.001993 0.000000 -0.008851 0.000000
# 3 -0.008297 -0.001993 0.044286 0.000000 0.022943 0.000000
# 4 0.000000 0.000000 0.000000 0.074068 0.000000 0.017297
# 5 0.005588 -0.008851 0.022943 0.000000 0.055377 0.000000
# 6 0.000000 0.000000 0.000000 0.017297 0.000000 0.035885
#
#
# Mechanical properties :
#
#
# Convention : Reuss Voigt Hill
#
# Bulk Modulus (GPa) = 26.17510 51.55367 38.86439
# Shear Modulus (GPa) = 17.80059 26.98251 22.39155
#
# Velocity S-wave (km/s) = 3.13153 3.85550 3.51222
# Velocity P-wave (km/s) = 5.24360 6.94414 6.15290
#
# Compressibility (1/GPa) = 0.03820424
#
# Stress axis : x y z
#
# Youngs Moduli (GPa) = 73.09029 79.69806 22.58065
#
# Poissons Ratio (x) = 0.46745 0.18734
# Poissons Ratio (y) = 0.42869 0.04501
# Poissons Ratio (z) = 0.60640 0.15887
#
# Static dielectric constant tensor:
#      x y z
#    x 1.626350 0.000000 -0.018720 
#    y 0.000000 1.652350 0.000000 
#    z -0.018720 0.000000 1.599500 
# 
# From -- ./inp_files/330342.got.cif
#   From: 2010.05.17/outbox.cif.g08.bks.cpg/sg12_166_cif.got.tgz:330342.got - 2010.06.03 13:09:07.
