data_PCOD9186325
_publ_section_title
;
Structure prediction by ZEFSAII (Michael W. Deem and Ramdas Pophale) SiO2 
 PCOD9186325
Probable space group: C 2/M
;
_chemical_formula_sum "Si O2"
_cell_formula_units_Z 64
_cell_length_a 21.094187
_cell_length_b 13.464515
_cell_length_c 18.778505
_cell_angle_alpha 90.000000
_cell_angle_beta 32.961904
_cell_angle_gamma 90.000000
_cell_volume 2901.872357
_symmetry_space_group_name_H-M "C 2/M"
_symmetry_group_IT_number 12
_symmetry_cell_setting 'monoclinic'
loop_
_space_group_symop_operation_xyz
x,y,z
-x,y,-z
-x,-y,-z
x,-y,z
1/2+x,1/2+y,z
1/2-x,1/2+y,-z
1/2-x,1/2-y,-z
1/2+x,1/2-y,z
loop_
_atom_site_type_symbol
_atom_site_label
_atom_site_fract_x
_atom_site_fract_y
_atom_site_fract_z
Si Si1 0.351573 0.882044 0.248307
Si Si2 0.997267 0.885045 0.230540
Si Si3 0.671862 0.884676 0.416540
Si Si4 0.625770 0.690390 0.375499
Si Si5 0.764215 0.380902 0.485403
Si Si6 0.418225 0.767097 0.967125
Si Si7 0.197483 0.884822 0.159940
Si Si8 0.637718 0.394136 0.873987
O O1 0.235470 0.858206 0.312906
O O2 0.324811 0.849127 0.355142
O O3 0.468180 0.826339 0.113012
O O4 0.371631 0.000000 0.227592
O O5 0.033352 0.813179 0.133497
O O6 0.102232 0.880777 0.187892
O O7 0.872868 0.855707 0.381748
O O8 0.985642 0.000000 0.217142
O O9 0.614232 0.799581 0.422654
O O10 0.677327 0.854669 0.494063
O O11 0.801987 0.885129 0.259573
O O12 0.629540 0.000000 0.450506
O O13 0.500000 0.638812 0.500000
O O14 0.650397 0.680619 0.269136
O O15 0.768515 0.500000 0.479347
O O16 0.324756 0.842048 0.020946
O O17 0.348810 0.702831 0.091335
O O18 0.209585 0.000000 0.171076
O O19 0.682703 0.500000 0.862111
O O20 0.500000 0.401357 0.000000
#
# Coordination Sequence:
#
# PCOD9186325 Si02
#       8
#     8   8   8   8   8   8   8   8
#     4  11  25  42  64  95 130 171 218 267 323 382
#     4  10  21  39  64  93 126 165 214 266 317 378
#     4  10  21  40  65  97 132 163 205 268 330 381
#     4  12  25  42  66  92 125 171 221 262 316 384
#     4   9  19  39  65  93 124 162 209 265 322 373
#     4  12  23  39  66  93 130 164 213 264 328 384
#     4  11  25  43  61  88 130 175 217 263 311 374
#     4  10  19  34  60  93 127 160 202 255 316 384
#
# _framework density 22.054725999999999
#
# number of rings (size 3 to 8) (size 9 to 14) (size 15 to 20)
#    0.000    1.375    1.250    4.500    0.000    7.250 
#    0.000    1.250    0.000    0.750    0.000    0.000 
#    0.000    0.000    0.000    0.000    0.000    0.000 
#
# Total GULP energy -178741.910279 kJ/mol
# GULP energy per Si atom -5585.684696 kJ/mol
# Density = 2.200453 g / cm^3
# Si number density = 22.054726 Si / 1000 Ang^3
#
#
#
# Elastic Constant Matrix: (Units=GPa)
#
#
# Indices 1 2 3 4 5 6 
#
# 1 78.2383 41.8025 22.3434 0.0000 -4.8696 0.0000
# 2 41.8025 112.8071 16.7078 0.0000 -7.3305 0.0000
# 3 22.3434 16.7078 71.8272 0.0000 1.2961 0.0000
# 4 0.0000 0.0000 0.0000 19.3870 0.0000 6.2572
# 5 -4.8696 -7.3305 1.2961 0.0000 32.4471 0.0000
# 6 0.0000 0.0000 0.0000 6.2572 0.0000 30.6081
#
#
#
# Elastic Compliance Matrix: (Units=1/GPa)
#
#
# Indices 1 2 3 4 5 6 
#
# 1 0.017020 -0.005619 -0.004013 0.000000 0.001445 0.000000
# 2 -0.005619 0.011190 -0.000886 0.000000 0.001720 0.000000
# 3 -0.004013 -0.000886 0.015402 0.000000 -0.001418 0.000000
# 4 0.000000 0.000000 0.000000 0.055225 0.000000 -0.011290
# 5 0.001445 0.001720 -0.001418 0.000000 0.031482 0.000000
# 6 0.000000 0.000000 0.000000 -0.011290 0.000000 0.034979
#
#
# Mechanical properties :
#
#
# Convention : Reuss Voigt Hill
#
# Bulk Modulus (GPa) = 44.29568 47.17555 45.73561
# Shear Modulus (GPa) = 25.79201 28.62302 27.20752
#
# Velocity S-wave (km/s) = 3.42344 3.60643 3.51613
# Velocity P-wave (km/s) = 5.97952 6.22724 6.10463
#
# Compressibility (1/GPa) = 0.02257557
#
# Stress axis : x y z
#
# Youngs Moduli (GPa) = 58.75595 89.36747 64.92463
#
# Poissons Ratio (x) = 0.50211 0.26057
# Poissons Ratio (y) = 0.33012 0.05753
# Poissons Ratio (z) = 0.23581 0.07919
#
# Static dielectric constant tensor:
#      x y z
#    x 1.802990 0.000000 -0.004500 
#    y 0.000000 1.896010 0.000000 
#    z -0.004500 0.000000 1.810350 
# 
# From -- ./inp_files/278154.got.cif
#   From: 2010.05.17/outbox.cif.g08.bks.cpg/sg12_140_cif.got.tgz:278154.got - 2010.06.03 13:09:07.
