data_PCOD9186008
_publ_section_title
;
Structure prediction by ZEFSAII (Michael W. Deem and Ramdas Pophale) SiO2 
 PCOD9186008
Probable space group: C 2/M
;
_chemical_formula_sum "Si O2"
_cell_formula_units_Z 40
_cell_length_a 13.339658
_cell_length_b 17.863581
_cell_length_c 6.845799
_cell_angle_alpha 90.000000
_cell_angle_beta 114.046198
_cell_angle_gamma 90.000000
_cell_volume 1489.743325
_symmetry_space_group_name_H-M "C 2/M"
_symmetry_group_IT_number 12
_symmetry_cell_setting 'monoclinic'
loop_
_space_group_symop_operation_xyz
x,y,z
-x,y,-z
-x,-y,-z
x,-y,z
1/2+x,1/2+y,z
1/2-x,1/2+y,-z
1/2-x,1/2-y,-z
1/2+x,1/2-y,z
loop_
_atom_site_type_symbol
_atom_site_label
_atom_site_fract_x
_atom_site_fract_y
_atom_site_fract_z
Si Si1 0.291002 0.000000 0.099692
Si Si2 0.813743 0.380884 0.811932
Si Si3 0.252965 0.780051 0.275433
Si Si4 0.000000 0.733404 0.500000
Si Si5 0.104455 0.135299 0.373458
Si Si6 0.041106 0.000000 0.815189
Si Si7 0.100711 0.500000 0.423249
O O1 0.338836 0.927793 0.025556
O O2 0.169155 0.000000 0.920935
O O3 0.300939 0.000000 0.339760
O O4 0.804595 0.292541 0.867802
O O5 0.694471 0.385404 0.610611
O O6 0.888244 0.425373 0.706094
O O7 0.250000 0.750000 0.500000
O O8 0.381192 0.800660 0.350808
O O9 0.172023 0.850551 0.225966
O O10 0.035805 0.789081 0.355569
O O11 0.015507 0.072606 0.309953
O O12 0.000000 0.000000 0.000000
O O13 0.000000 0.500000 0.500000
#
# Coordination Sequence:
#
# PCOD9186008 Si02
#       7
#     4   8   8   4   8   4   4
#     4  11  22  37  67  95 121 166 218 264 315 379
#     4   9  19  38  61  93 132 162 213 263 303 382
#     4   8  16  32  56  86 125 167 212 257 304 371
#     4   8  14  29  56  85 108 160 214 248 300 367
#     4  10  19  34  58  89 127 170 211 255 319 365
#     4  12  22  34  61  87 131 167 206 268 317 372
#     4  11  24  42  63  95 123 166 210 261 332 382
#
# _framework density 26.850263000000002
#
# number of rings (size 3 to 8) (size 9 to 14) (size 15 to 20)
#    0.000    2.800    0.000    4.800    0.000    2.800 
#   16.200    0.000    4.400   13.200    0.000    0.000 
#    0.000    0.000    0.000    0.000    0.000    0.000 
#
# Total GULP energy -111456.550116 kJ/mol
# GULP energy per Si atom -5572.827506 kJ/mol
# Density = 2.678915 g / cm^3
# Si number density = 26.850263 Si / 1000 Ang^3
#
#
#
# Elastic Constant Matrix: (Units=GPa)
#
#
# Indices 1 2 3 4 5 6 
#
# 1 189.5625 55.1113 22.7287 0.0000 19.7132 0.0000
# 2 55.1113 122.8787 34.6054 0.0000 3.0504 0.0000
# 3 22.7287 34.6054 82.2734 0.0000 -8.6561 0.0000
# 4 0.0000 0.0000 0.0000 41.7848 0.0000 15.0592
# 5 19.7132 3.0504 -8.6561 0.0000 34.9785 0.0000
# 6 0.0000 0.0000 0.0000 15.0592 0.0000 66.6235
#
#
#
# Elastic Compliance Matrix: (Units=1/GPa)
#
#
# Indices 1 2 3 4 5 6 
#
# 1 0.006533 -0.002516 -0.001141 0.000000 -0.003745 0.000000
# 2 -0.002516 0.010314 -0.003685 0.000000 -0.000393 0.000000
# 3 -0.001141 -0.003685 0.014498 0.000000 0.004552 0.000000
# 4 0.000000 0.000000 0.000000 0.026055 0.000000 -0.005889
# 5 -0.003745 -0.000393 0.004552 0.000000 0.031860 0.000000
# 6 0.000000 0.000000 0.000000 -0.005889 0.000000 0.016341
#
#
# Mechanical properties :
#
#
# Convention : Reuss Voigt Hill
#
# Bulk Modulus (GPa) = 60.01212 68.84504 64.42858
# Shear Modulus (GPa) = 39.73388 47.49530 43.61459
#
# Velocity S-wave (km/s) = 3.85103 4.21039 4.03471
# Velocity P-wave (km/s) = 6.49408 7.02371 6.76408
#
# Compressibility (1/GPa) = 0.01666330
#
# Stress axis : x y z
#
# Youngs Moduli (GPa) = 153.07105 96.95664 68.97327
#
# Poissons Ratio (x) = 0.24393 0.07867
# Poissons Ratio (y) = 0.38511 0.25413
# Poissons Ratio (z) = 0.17458 0.35724
#
# Static dielectric constant tensor:
#      x y z
#    x 2.214440 0.000000 -0.075010 
#    y 0.000000 2.378960 0.000000 
#    z -0.075010 0.000000 2.134830 
# 
# From -- ./inp_files/62972.got.cif
#   From: 2010.05.17/outbox.cif.g08.bks.cpg/sg12_32_cif.got.tgz:62972.got - 2010.06.03 13:09:07.
