data_PCOD9186148
_publ_section_title
;
Structure prediction by ZEFSAII (Michael W. Deem and Ramdas Pophale) SiO2 
 PCOD9186148
Probable space group: C 2/M
;
_chemical_formula_sum "Si O2"
_cell_formula_units_Z 64
_cell_length_a 18.229877
_cell_length_b 9.335979
_cell_length_c 32.792291
_cell_angle_alpha 90.000000
_cell_angle_beta 35.492120
_cell_angle_gamma 90.000000
_cell_volume 3240.303208
_symmetry_space_group_name_H-M "C 2/M"
_symmetry_group_IT_number 12
_symmetry_cell_setting 'monoclinic'
loop_
_space_group_symop_operation_xyz
x,y,z
-x,y,-z
-x,-y,-z
x,-y,z
1/2+x,1/2+y,z
1/2-x,1/2+y,-z
1/2-x,1/2-y,-z
1/2+x,1/2-y,z
loop_
_atom_site_type_symbol
_atom_site_label
_atom_site_fract_x
_atom_site_fract_y
_atom_site_fract_z
Si Si1 0.665044 0.162696 0.775627
Si Si2 0.272010 0.169349 0.867918
Si Si3 0.028898 0.164882 0.362357
Si Si4 0.662784 0.661591 0.699226
Si Si5 0.568774 0.165779 0.910084
Si Si6 0.966509 0.664191 0.560145
Si Si7 0.730429 0.168217 0.966178
Si Si8 0.014010 0.669385 0.700924
O O1 0.817506 0.166213 0.707917
O O2 0.620635 0.271496 0.761255
O O3 0.613834 0.194901 0.843539
O O4 0.626210 0.000000 0.782296
O O5 0.143873 0.230573 0.906022
O O6 0.299117 0.253454 0.897506
O O7 0.381913 0.193472 0.784798
O O8 0.262905 0.000000 0.880072
O O9 0.987882 0.239884 0.422975
O O10 0.986441 0.252849 0.342208
O O11 0.987945 0.000000 0.378881
O O12 0.615390 0.500000 0.715086
O O13 0.814633 0.658660 0.631426
O O14 0.617987 0.762029 0.683159
O O15 0.602475 0.000000 0.904925
O O16 0.418323 0.177316 0.977786
O O17 0.014102 0.500000 0.542132
O O18 0.000000 0.718926 0.500000
O O19 0.763750 0.000000 0.954554
O O20 0.750000 0.250000 0.000000
O O21 0.030735 0.500000 0.688402
#
# Coordination Sequence:
#
# PCOD9186148 Si02
#       8
#     8   8   8   8   8   8   8   8
#     4   9  18  34  56  82 112 146 183 230 285 338
#     4  11  24  40  60  84 112 150 194 238 288 346
#     4  10  19  34  59  88 116 147 188 235 279 331
#     4  10  21  35  56  86 117 149 190 234 280 332
#     4  10  21  39  61  83 111 148 189 234 289 347
#     4   9  19  38  62  87 119 156 190 227 276 335
#     4  11  25  42  60  83 114 150 191 239 291 346
#     4  11  23  38  57  83 118 154 190 236 290 341
#
# _framework density 19.751238000000001
#
# number of rings (size 3 to 8) (size 9 to 14) (size 15 to 20)
#    0.000    1.875    1.250    2.250    1.750    5.750 
#    0.000    0.625    0.000    0.000    0.000    0.000 
#    0.000    0.000    0.000    0.000    0.000    0.000 
#
# Total GULP energy -178804.809605 kJ/mol
# GULP energy per Si atom -5587.650300 kJ/mol
# Density = 1.970628 g / cm^3
# Si number density = 19.751238 Si / 1000 Ang^3
#
#
#
# Elastic Constant Matrix: (Units=GPa)
#
#
# Indices 1 2 3 4 5 6 
#
# 1 72.4527 65.6317 8.2763 0.0003 30.2518 0.0015
# 2 65.6317 124.7071 33.8525 0.0003 38.0255 0.0016
# 3 8.2763 33.8525 47.6209 0.0000 35.0217 0.0001
# 4 0.0003 0.0003 0.0000 21.9721 0.0000 8.4443
# 5 30.2518 38.0255 35.0217 0.0000 35.0349 0.0001
# 6 0.0015 0.0016 0.0001 8.4443 0.0001 37.6749
#
#
#
# Elastic Compliance Matrix: (Units=1/GPa)
#
#
# Indices 1 2 3 4 5 6 
#
# 1 8.133458 -2.532818 13.329018 -0.000035-17.598025 -0.000212
# 2 -2.532818 0.800924 -4.146735 0.000011 5.462911 0.000066
# 3 13.329018 -4.146735 21.924053 -0.000058-28.924383 -0.000348
# 4 -0.000035 0.000011 -0.000058 0.049802 0.000076 -0.011162
# 5 -17.598025 5.462911-28.924383 0.000076 38.208279 0.000459
# 6 -0.000212 0.000066 -0.000348 -0.011162 0.000459 0.029045
#
#
# Mechanical properties :
#
#
# Convention : Reuss Voigt Hill
#
# Bulk Modulus (GPa) = 0.02265 51.14465 25.58365
# Shear Modulus (GPa) = 0.07086 28.07106 14.07096
#
# Velocity S-wave (km/s) = 0.18961 3.77401 2.67199
# Velocity P-wave (km/s) = 0.24378 6.70384 4.74347
#
# Compressibility (1/GPa) = 44.15736376
#
# Stress axis : x y z
#
# Youngs Moduli (GPa) = 0.12295 1.24856 0.04561
#
# Poissons Ratio (x) = 3.16237 -0.60796
# Poissons Ratio (y) = 0.31141 0.18914
# Poissons Ratio (z) = -1.63879 5.17744
#
# Static dielectric constant tensor:
#      x y z
#    x 1.669450 0.000000 -0.010650 
#    y 0.000000 1.678340 0.000000 
#    z -0.010650 0.000000 1.704280 
# 
# From -- ./inp_files/377984.got.cif
#   From: 2010.05.17/outbox.cif.g08.bks.cpg/sg12_189_cif.got.tgz:377984.got - 2010.06.03 13:09:07.
