data_PCOD9186343
_publ_section_title
;
Structure prediction by ZEFSAII (Michael W. Deem and Ramdas Pophale) SiO2 
 PCOD9186343
Probable space group: C 2/M
;
_chemical_formula_sum "Si O2"
_cell_formula_units_Z 52
_cell_length_a 20.797851
_cell_length_b 11.439147
_cell_length_c 12.716074
_cell_angle_alpha 90.000000
_cell_angle_beta 117.533277
_cell_angle_gamma 90.000000
_cell_volume 2682.641727
_symmetry_space_group_name_H-M "C 2/M"
_symmetry_group_IT_number 12
_symmetry_cell_setting 'monoclinic'
loop_
_space_group_symop_operation_xyz
x,y,z
-x,y,-z
-x,-y,-z
x,-y,z
1/2+x,1/2+y,z
1/2-x,1/2+y,-z
1/2-x,1/2-y,-z
1/2+x,1/2-y,z
loop_
_atom_site_type_symbol
_atom_site_label
_atom_site_fract_x
_atom_site_fract_y
_atom_site_fract_z
Si Si1 0.446178 0.635939 0.766289
Si Si2 0.333141 0.746340 0.530308
Si Si3 0.944697 0.500000 0.178346
Si Si4 0.899154 0.756387 0.136387
Si Si5 0.407505 0.000000 0.614749
Si Si6 0.189896 0.738295 0.718669
Si Si7 0.654789 0.360081 0.118945
Si Si8 0.391907 0.000000 0.372412
O O1 0.465563 0.500000 0.784556
O O2 0.381852 0.660620 0.636260
O O3 0.517495 0.705447 0.785961
O O4 0.412343 0.667699 0.854296
O O5 0.250000 0.750000 0.500000
O O6 0.363896 0.877159 0.580680
O O7 0.332598 0.702536 0.408270
O O8 0.906181 0.618661 0.111668
O O9 0.932863 0.500000 0.294432
O O10 0.032646 0.500000 0.246619
O O11 0.851170 0.775072 0.205296
O O12 0.866550 0.829484 0.015916
O O13 0.434419 0.000000 0.513300
O O14 0.275578 0.718970 0.799022
O O15 0.159474 0.610475 0.671171
O O16 0.670023 0.500000 0.141433
#
# Coordination Sequence:
#
# PCOD9186343 Si02
#       8
#     8   8   4   8   4   8   8   4
#     4  11  24  42  66  89 121 165 211 254 301 366
#     4  11  22  38  64  92 122 156 202 252 313 367
#     4  10  19  36  56  88 123 155 190 249 304 368
#     4  11  23  40  60  93 126 160 204 251 311 363
#     4  10  19  34  61  86 117 155 194 251 299 366
#     4  10  20  37  63  92 122 158 198 259 307 357
#     4  11  22  41  67  89 118 165 218 257 292 357
#     4   8  17  30  58  89 114 143 203 244 301 347
#
# _framework density 19.383876999999998
#
# number of rings (size 3 to 8) (size 9 to 14) (size 15 to 20)
#    0.000    1.538    3.846    1.615    1.077    1.846 
#    0.000    4.615    1.692    0.000    0.000    0.000 
#    0.000    0.000    0.000    0.000    0.000    0.000 
#
# Total GULP energy -144830.356252 kJ/mol
# GULP energy per Si atom -5570.398317 kJ/mol
# Density = 1.933976 g / cm^3
# Si number density = 19.383877 Si / 1000 Ang^3
#
#
#
# Elastic Constant Matrix: (Units=GPa)
#
#
# Indices 1 2 3 4 5 6 
#
# 1 70.7213 8.7994 -3.7737 0.0000 -13.2241 0.0000
# 2 8.7994 30.0550 -16.8992 0.0000 -12.0632 0.0000
# 3 -3.7737 -16.8992 58.7331 0.0000 -16.3363 0.0000
# 4 0.0000 0.0000 0.0000 34.2820 0.0000 4.6353
# 5 -13.2241 -12.0632 -16.3363 0.0000 29.8159 0.0000
# 6 0.0000 0.0000 0.0000 4.6353 0.0000 24.8462
#
#
#
# Elastic Compliance Matrix: (Units=1/GPa)
#
#
# Indices 1 2 3 4 5 6 
#
# 1 0.016078 0.002005 0.004505 0.000000 0.010410 0.000000
# 2 0.002005 0.071309 0.034118 0.000000 0.048433 0.000000
# 3 0.004505 0.034118 0.037196 0.000000 0.036182 0.000000
# 4 0.000000 0.000000 0.000000 0.029925 0.000000 -0.005583
# 5 0.010410 0.048433 0.036182 0.000000 0.077576 0.000000
# 6 0.000000 0.000000 0.000000 -0.005583 0.000000 0.041289
#
#
# Mechanical properties :
#
#
# Convention : Reuss Voigt Hill
#
# Bulk Modulus (GPa) = 4.85819 15.08471 9.97145
# Shear Modulus (GPa) = 19.17692 29.21433 24.19563
#
# Velocity S-wave (km/s) = 3.14876 3.88641 3.53687
# Velocity P-wave (km/s) = 3.96628 5.28563 4.67275
#
# Compressibility (1/GPa) = 0.20583797
#
# Stress axis : x y z
#
# Youngs Moduli (GPa) = 62.19816 14.02354 26.88445
#
# Poissons Ratio (x) = -0.02811 -0.12112
# Poissons Ratio (y) = -0.12468 -0.91724
# Poissons Ratio (z) = -0.28023 -0.47845
#
# Static dielectric constant tensor:
#      x y z
#    x 1.724920 0.000000 -0.006890 
#    y 0.000000 1.875010 0.000000 
#    z -0.006890 0.000000 1.690340 
# 
# From -- ./inp_files/165578.got.cif
#   From: 2010.05.17/outbox.cif.g08.bks.cpg/sg12_83_cif.got.tgz:165578.got - 2010.06.03 13:09:07.
