data_PCOD9186510
_publ_section_title
;
Structure prediction by ZEFSAII (Michael W. Deem and Ramdas Pophale) SiO2 
 PCOD9186510
Probable space group: C 2/M
;
_chemical_formula_sum "Si O2"
_cell_formula_units_Z 58
_cell_length_a 17.944725
_cell_length_b 15.739574
_cell_length_c 9.211386
_cell_angle_alpha 90.000000
_cell_angle_beta 69.656573
_cell_angle_gamma 90.000000
_cell_volume 2439.407017
_symmetry_space_group_name_H-M "C 2/M"
_symmetry_group_IT_number 12
_symmetry_cell_setting 'monoclinic'
loop_
_space_group_symop_operation_xyz
x,y,z
-x,y,-z
-x,-y,-z
x,-y,z
1/2+x,1/2+y,z
1/2-x,1/2+y,-z
1/2-x,1/2-y,-z
1/2+x,1/2-y,z
loop_
_atom_site_type_symbol
_atom_site_label
_atom_site_fract_x
_atom_site_fract_y
_atom_site_fract_z
Si Si1 0.717193 0.905383 0.204240
Si Si2 0.500000 0.000000 0.500000
Si Si3 0.587005 0.902357 0.068574
Si Si4 0.399794 0.679489 0.361272
Si Si5 0.962460 0.091854 0.862793
Si Si6 0.742475 0.903537 0.532819
Si Si7 0.068224 0.361627 0.670597
Si Si8 0.651016 0.723504 0.936398
O O1 0.628700 0.906811 0.200584
O O2 0.724700 0.900982 0.371872
O O3 0.764179 0.823917 0.110933
O O4 0.751232 0.000000 0.141113
O O5 0.546249 0.927976 0.564221
O O6 0.495386 0.877831 0.158503
O O7 0.594259 0.000000 0.006655
O O8 0.634264 0.822853 0.969202
O O9 0.466887 0.608452 0.298611
O O10 0.320590 0.653362 0.500110
O O11 0.436691 0.767042 0.387751
O O12 0.376325 0.699291 0.208783
O O13 0.924651 0.000000 0.860882
O O14 0.903945 0.171594 0.912721
O O15 0.000000 0.088098 0.000000
O O16 0.659565 0.875233 0.656191
O O17 0.760594 0.000000 0.562214
#
# Coordination Sequence:
#
# PCOD9186510 Si02
#       8
#     8   2   8   8   8   8   8   8
#     4   9  19  33  56  83 111 146 193 240 283 329
#     4  12  24  40  60  78 110 144 206 242 284 344
#     4  11  21  34  52  80 116 156 193 230 281 344
#     4  10  21  35  54  82 116 146 187 236 295 345
#     4   9  16  29  52  79 110 145 180 222 278 337
#     4  10  19  35  57  84 113 144 189 242 287 332
#     4  12  22  37  56  82 111 148 188 245 288 340
#     4  10  19  35  53  79 118 151 187 232 286 351
#
# _framework density 23.77627
#
# number of rings (size 3 to 8) (size 9 to 14) (size 15 to 20)
#    0.000    1.793    2.759    2.483    1.931    3.310 
#    1.241    0.690    0.000    0.000    0.000    1.931 
#    0.000    0.000    0.000    0.000    0.000    0.000 
#
# Total GULP energy -161726.428436 kJ/mol
# GULP energy per Si atom -5576.773394 kJ/mol
# Density = 2.372215 g / cm^3
# Si number density = 23.776270 Si / 1000 Ang^3
#
#
#
# Elastic Constant Matrix: (Units=GPa)
#
#
# Indices 1 2 3 4 5 6 
#
# 1 54.0335 37.6330 38.1217 0.0000 -31.3681 0.0000
# 2 37.6330 195.2446 57.3151 0.0000 -27.4866 0.0000
# 3 38.1217 57.3151 68.7158 0.0000 -27.4806 0.0000
# 4 0.0000 0.0000 0.0000-4921.6637 0.0000 1559.9143
# 5 -31.3681 -27.4866 -27.4806 0.0000 30.7208 0.0000
# 6 0.0000 0.0000 0.0000 1559.9143 0.0000 -428.1122
#
#
#
# Elastic Compliance Matrix: (Units=1/GPa)
#
#
# Indices 1 2 3 4 5 6 
#
# 1 0.050813 -0.000731 -0.011043 0.000000 0.041351 0.000000
# 2 -0.000731 0.006842 -0.004907 0.000000 0.000986 0.000000
# 3 -0.011043 -0.004907 0.028815 0.000000 0.010110 0.000000
# 4 0.000000 0.000000 0.000000 0.001312 0.000000 0.004780
# 5 0.041351 0.000986 0.010110 0.000000 0.084699 0.000000
# 6 0.000000 0.000000 0.000000 0.004780 0.000000 0.015083
#
#
# Mechanical properties :
#
#
# Convention : Reuss Voigt Hill
#
# Bulk Modulus (GPa) = 18.82955 64.90374 41.86665
# Shear Modulus (GPa) = 20.95312 -1051.48275 -515.26481
#
# Velocity S-wave (km/s) = 2.97183 -21.05233 -14.73718
# Velocity P-wave (km/s) = 4.43986 23.73978 16.49037
#
# Compressibility (1/GPa) = 0.05310801
#
# Stress axis : x y z
#
# Youngs Moduli (GPa) = 19.68016 146.15749 34.70422
#
# Poissons Ratio (x) = 0.10683 0.38323
# Poissons Ratio (y) = 0.01438 0.17029
# Poissons Ratio (z) = 0.21732 0.71720
#
# Static dielectric constant tensor:
#      x y z
#    x 1.921610 0.000000 -0.000900 
#    y 0.000000 1.889870 0.000000 
#    z -0.000900 0.000000 1.955170 
# 
# From -- ./inp_files/167203.got.cif
#   From: 2010.05.17/outbox.cif.g08.bks.cpg/sg12_84_cif.got.tgz:167203.got - 2010.06.03 13:09:07.
