data_PCOD9186824
_publ_section_title
;
Structure prediction by ZEFSAII (Michael W. Deem and Ramdas Pophale) SiO2 
 PCOD9186824
Probable space group: C 2/M
;
_chemical_formula_sum "Si O2"
_cell_formula_units_Z 64
_cell_length_a 17.294586
_cell_length_b 14.917888
_cell_length_c 23.934283
_cell_angle_alpha 90.000000
_cell_angle_beta 27.345139
_cell_angle_gamma 90.000000
_cell_volume 2836.489429
_symmetry_space_group_name_H-M "C 2/M"
_symmetry_group_IT_number 12
_symmetry_cell_setting 'monoclinic'
loop_
_space_group_symop_operation_xyz
x,y,z
-x,y,-z
-x,-y,-z
x,-y,z
1/2+x,1/2+y,z
1/2-x,1/2+y,-z
1/2-x,1/2-y,-z
1/2+x,1/2-y,z
loop_
_atom_site_type_symbol
_atom_site_label
_atom_site_fract_x
_atom_site_fract_y
_atom_site_fract_z
Si Si1 0.272054 0.712929 0.103675
Si Si2 0.147912 0.104449 0.711707
Si Si3 0.628500 0.294743 0.834330
Si Si4 0.264383 0.400570 0.921716
Si Si5 0.323696 0.403922 0.552524
Si Si6 0.650700 0.779348 0.507382
Si Si7 0.501359 0.099261 0.312682
Si Si8 0.109210 0.599702 0.803932
O O1 0.319313 0.685000 0.136131
O O2 0.245919 0.819005 0.115021
O O3 0.102980 0.658230 0.202705
O O4 0.426082 0.690709 0.964880
O O5 0.197067 0.146720 0.739648
O O6 0.230054 0.166069 0.611052
O O7 0.944988 0.108095 0.835237
O O8 0.197805 0.000000 0.674406
O O9 0.657976 0.188772 0.806033
O O10 0.259850 0.500000 0.898632
O O11 0.096053 0.394423 0.068065
O O12 0.417515 0.500000 0.493192
O O13 0.416154 0.310585 0.480145
O O14 0.185339 0.409916 0.592363
O O15 0.213663 0.396651 0.679458
O O16 0.750000 0.750000 0.500000
O O17 0.513729 0.847113 0.619817
O O18 0.573892 0.000000 0.272204
O O19 0.141418 0.500000 0.807842
#
# Coordination Sequence:
#
# PCOD9186824 Si02
#       8
#     8   8   8   8   8   8   8   8
#     4  10  22  38  56  81 114 156 194 231 284 344
#     4  11  22  36  57  86 117 150 191 240 288 336
#     4  10  22  37  56  83 116 153 189 233 290 344
#     4   9  19  33  55  87 116 145 184 234 290 341
#     4   9  17  30  54  85 110 136 175 226 284 333
#     4  10  19  35  56  81 114 146 185 232 287 335
#     4  10  21  35  54  77 107 148 190 228 267 327
#     4   9  17  31  54  83 112 140 178 227 282 340
#
# _framework density 22.563103000000002
#
# number of rings (size 3 to 8) (size 9 to 14) (size 15 to 20)
#    0.000    2.250    1.250    1.875    1.750    3.000 
#    0.000    5.000    0.000    1.500    0.000    1.750 
#    0.000    0.000    0.000    0.000    0.000    0.000 
#
# Total GULP energy -178467.873596 kJ/mol
# GULP energy per Si atom -5577.121050 kJ/mol
# Density = 2.251175 g / cm^3
# Si number density = 22.563103 Si / 1000 Ang^3
#
#
#
# Elastic Constant Matrix: (Units=GPa)
#
#
# Indices 1 2 3 4 5 6 
#
# 1 42.9058 26.6212 18.9252 -0.0012 14.6211 -0.0007
# 2 26.6212 138.5797 49.8618 0.0113 22.7099 -0.0017
# 3 18.9252 49.8618 68.5657 0.0097 16.1444 -0.0033
# 4 -0.0012 0.0113 0.0097 8.8338 -0.0022 8.5518
# 5 14.6211 22.7099 16.1444 -0.0022 30.1520 0.0006
# 6 -0.0007 -0.0017 -0.0033 8.5518 0.0006 3.7170
#
#
#
# Elastic Compliance Matrix: (Units=1/GPa)
#
#
# Indices 1 2 3 4 5 6 
#
# 1 0.030303 -0.002674 -0.003929 -0.000006 -0.010576 0.000015
# 2 -0.002674 0.010466 -0.006090 0.000006 -0.003325 -0.000014
# 3 -0.003929 -0.006090 0.021248 0.000027 -0.004885 -0.000045
# 4 -0.000006 0.000006 0.000027 -0.092240 -0.000027 0.212217
# 5 -0.010576 -0.003325 -0.004885 -0.000027 0.043414 0.000047
# 6 0.000015 -0.000014 -0.000045 0.212217 0.000047 -0.219216
#
#
# Mechanical properties :
#
#
# Convention : Reuss Voigt Hill
#
# Bulk Modulus (GPa) = 27.29957 48.98530 38.14244
# Shear Modulus (GPa) = -29.68627 18.85009 -5.41809
#
# Velocity S-wave (km/s) = -3.63119 2.89353 -1.55130
# Velocity P-wave (km/s) = 2.33565 5.73767 3.70578
#
# Compressibility (1/GPa) = 0.03663061
#
# Stress axis : x y z
#
# Youngs Moduli (GPa) = 32.99958 95.54868 47.06377
#
# Poissons Ratio (x) = 0.25553 0.18492
# Poissons Ratio (y) = 0.08825 0.28661
# Poissons Ratio (z) = 0.12966 0.58187
#
# Static dielectric constant tensor:
#      x y z
#    x 1.851160 -0.000010 -0.063950 
#    y -0.000010 1.819530 0.000010 
#    z -0.063950 0.000010 1.870750 
# 
# From -- ./inp_files/344013.got.cif
#   From: 2010.05.17/outbox.cif.g08.bks.cpg/sg12_173_cif.got.tgz:344013.got - 2010.06.03 13:09:07.
