data_PCOD9186708
_publ_section_title
;
Structure prediction by ZEFSAII (Michael W. Deem and Ramdas Pophale) SiO2 
 PCOD9186708
Probable space group: C 2/M
;
_chemical_formula_sum "Si O2"
_cell_formula_units_Z 32
_cell_length_a 15.913530
_cell_length_b 17.962477
_cell_length_c 7.629840
_cell_angle_alpha 90.000000
_cell_angle_beta 137.731143
_cell_angle_gamma 90.000000
_cell_volume 1466.937984
_symmetry_space_group_name_H-M "C 2/M"
_symmetry_group_IT_number 12
_symmetry_cell_setting 'monoclinic'
loop_
_space_group_symop_operation_xyz
x,y,z
-x,y,-z
-x,-y,-z
x,-y,z
1/2+x,1/2+y,z
1/2-x,1/2+y,-z
1/2-x,1/2-y,-z
1/2+x,1/2-y,z
loop_
_atom_site_type_symbol
_atom_site_label
_atom_site_fract_x
_atom_site_fract_y
_atom_site_fract_z
Si Si1 0.264905 0.335183 0.094147
Si Si2 0.493216 0.164660 0.697003
Si Si3 0.273246 0.412171 0.742683
Si Si4 0.867586 0.801671 0.621433
O O1 0.301722 0.383417 0.983053
O O2 0.129607 0.365788 0.950246
O O3 0.848731 0.168640 0.395101
O O4 0.250000 0.250000 0.000000
O O5 0.500000 0.180878 0.500000
O O6 0.370060 0.113916 0.524936
O O7 0.477612 0.241907 0.775477
O O8 0.282711 0.500000 0.745528
O O9 0.362781 0.369046 0.747610
O O10 0.750000 0.750000 0.500000
#
# Coordination Sequence:
#
# PCOD9186708 Si02
#       4
#     8   8   8   8
#     4  11  19  35  58  85 108 146 188 225 274 322
#     4   9  18  33  58  85 107 142 188 228 272 320
#     4  10  22  37  54  84 120 143 176 229 284 330
#     4  10  19  35  55  84 110 143 186 227 269 324
#
# _framework density 21.814146000000001
#
# number of rings (size 3 to 8) (size 9 to 14) (size 15 to 20)
#    0.000    2.000    7.500    0.000    0.000    9.500 
#    0.000    1.250    0.000    3.750    0.000    0.000 
#    0.000    0.000    0.000    0.000    0.000    0.000 
#
# Total GULP energy -89363.135673 kJ/mol
# GULP energy per Si atom -5585.195980 kJ/mol
# Density = 2.176450 g / cm^3
# Si number density = 21.814146 Si / 1000 Ang^3
#
#
#
# Elastic Constant Matrix: (Units=GPa)
#
#
# Indices 1 2 3 4 5 6 
#
# 1 73.4931 57.8153 28.3793 0.0000 -23.5622 0.0000
# 2 57.8153 168.8843 27.4534 0.0000 -32.4859 0.0000
# 3 28.3793 27.4534 77.5923 0.0000 -24.7914 0.0000
# 4 0.0000 0.0000 0.0000 19.9244 0.0000 -7.9342
# 5 -23.5622 -32.4859 -24.7914 0.0000 29.9923 0.0000
# 6 0.0000 0.0000 0.0000 -7.9342 0.0000 19.6605
#
#
#
# Elastic Compliance Matrix: (Units=1/GPa)
#
#
# Indices 1 2 3 4 5 6 
#
# 1 0.021816 -0.005254 -0.003346 0.000000 0.008681 0.000000
# 2 -0.005254 0.008745 0.000727 0.000000 0.005946 0.000000
# 3 -0.003346 0.000727 0.018027 0.000000 0.013060 0.000000
# 4 0.000000 0.000000 0.000000 0.059800 0.000000 0.024133
# 5 0.008681 0.005946 0.013060 0.000000 0.057398 0.000000
# 6 0.000000 0.000000 0.000000 0.024133 0.000000 0.060603
#
#
# Mechanical properties :
#
#
# Convention : Reuss Voigt Hill
#
# Bulk Modulus (GPa) = 30.44912 60.80728 45.62820
# Shear Modulus (GPa) = 19.75643 27.67023 23.71333
#
# Velocity S-wave (km/s) = 3.01270 3.56540 3.30064
# Velocity P-wave (km/s) = 5.10789 6.69963 5.95717
#
# Compressibility (1/GPa) = 0.03284167
#
# Stress axis : x y z
#
# Youngs Moduli (GPa) = 45.83858 114.34463 55.47157
#
# Poissons Ratio (x) = 0.60082 0.18562
# Poissons Ratio (y) = 0.24086 -0.04034
# Poissons Ratio (z) = 0.15338 -0.08316
#
# Static dielectric constant tensor:
#      x y z
#    x 1.849750 0.000000 0.067920 
#    y 0.000000 1.741330 0.000000 
#    z 0.067920 0.000000 1.916260 
# 
# From -- ./inp_files/59906.got.cif
#   From: 2010.05.17/outbox.cif.g08.bks.cpg/sg12_30_cif.got.tgz:59906.got - 2010.06.03 13:09:07.
