data_PCOD9186261
_publ_section_title
;
Structure prediction by ZEFSAII (Michael W. Deem and Ramdas Pophale) SiO2 
 PCOD9186261
Probable space group: C 2/M
;
_chemical_formula_sum "Si O2"
_cell_formula_units_Z 56
_cell_length_a 12.682675
_cell_length_b 15.783806
_cell_length_c 26.648342
_cell_angle_alpha 90.000000
_cell_angle_beta 25.504919
_cell_angle_gamma 90.000000
_cell_volume 2296.969896
_symmetry_space_group_name_H-M "C 2/M"
_symmetry_group_IT_number 12
_symmetry_cell_setting 'monoclinic'
loop_
_space_group_symop_operation_xyz
x,y,z
-x,y,-z
-x,-y,-z
x,-y,z
1/2+x,1/2+y,z
1/2-x,1/2+y,-z
1/2-x,1/2-y,-z
1/2+x,1/2-y,z
loop_
_atom_site_type_symbol
_atom_site_label
_atom_site_fract_x
_atom_site_fract_y
_atom_site_fract_z
Si Si1 0.410996 0.093375 0.705614
Si Si2 0.500946 0.727489 0.364904
Si Si3 0.221960 0.171867 0.100640
Si Si4 0.209072 0.367158 0.128676
Si Si5 0.513014 0.595810 0.551339
Si Si6 0.971904 0.905997 0.725637
Si Si7 0.909579 0.408792 0.930929
O O1 0.342626 0.188067 0.714447
O O2 0.389236 0.101321 0.775572
O O3 0.694619 0.089008 0.566327
O O4 0.303187 0.000000 0.738660
O O5 0.250000 0.750000 0.500000
O O6 0.611234 0.660034 0.356926
O O7 0.422305 0.673995 0.349495
O O8 0.170313 0.266567 0.140213
O O9 0.042968 0.111397 0.208809
O O10 0.500000 0.152428 0.000000
O O11 0.243428 0.158306 0.032038
O O12 0.109499 0.405164 0.120112
O O13 0.500000 0.382810 0.000000
O O14 0.500000 0.626869 0.500000
O O15 0.412226 0.500000 0.597945
O O16 0.691691 0.902769 0.825923
O O17 0.071208 0.000000 0.671535
O O18 0.820284 0.500000 0.987765
#
# Coordination Sequence:
#
# PCOD9186261 Si02
#       7
#     8   8   8   8   8   8   8
#     4  10  21  37  56  79 111 151 191 232 277 333
#     4  10  20  36  56  81 114 146 180 226 289 345
#     4   9  18  35  55  81 114 148 186 233 284 339
#     4  11  22  37  57  79 115 159 200 235 277 338
#     4   9  19  35  59  90 116 136 174 235 295 347
#     4  10  19  34  60  88 114 146 186 235 291 348
#     4  10  21  34  54  85 116 149 188 237 291 338
#
# _framework density 24.379943999999998
#
# number of rings (size 3 to 8) (size 9 to 14) (size 15 to 20)
#    0.000    2.143    1.429    1.714    2.000    3.429 
#    0.000    0.000    0.000    0.429    0.000    0.000 
#    0.000    0.000    0.000    0.000    0.000    0.000 
#
# Total GULP energy -156309.635183 kJ/mol
# GULP energy per Si atom -5582.486971 kJ/mol
# Density = 2.432445 g / cm^3
# Si number density = 24.379944 Si / 1000 Ang^3
#
#
#
# Elastic Constant Matrix: (Units=GPa)
#
#
# Indices 1 2 3 4 5 6 
#
# 1 43.3181 16.5629 24.8288 0.0168 24.5266 0.0089
# 2 16.5629 135.6411 67.5669 -0.0059 37.8152 0.0144
# 3 24.8288 67.5669 93.3952 0.0635 23.0537 0.0403
# 4 0.0168 -0.0059 0.0635 3.5159 -0.0132 5.6809
# 5 24.5266 37.8152 23.0537 -0.0132 42.1025 -0.0057
# 6 0.0089 0.0144 0.0403 5.6809 -0.0057 16.1517
#
#
#
# Elastic Compliance Matrix: (Units=1/GPa)
#
#
# Indices 1 2 3 4 5 6 
#
# 1 0.039273 0.006368 -0.009237 -0.000181 -0.023541 0.000051
# 2 0.006368 0.014457 -0.009287 0.000263 -0.011610 -0.000090
# 3 -0.009237 -0.009287 0.019072 -0.000580 0.003279 0.000171
# 4 -0.000181 0.000263 -0.000580 0.658903 0.000361 -0.231751
# 5 -0.023541 -0.011610 0.003279 0.000361 0.046098 -0.000096
# 6 0.000051 -0.000090 0.000171 -0.231751 -0.000096 0.143425
#
#
# Mechanical properties :
#
#
# Convention : Reuss Voigt Hill
#
# Bulk Modulus (GPa) = 20.62173 54.47461 37.54817
# Shear Modulus (GPa) = 5.19911 23.24706 14.22308
#
# Velocity S-wave (km/s) = 1.46190 3.09128 2.41797
# Velocity P-wave (km/s) = 3.36547 5.92739 4.81977
#
# Compressibility (1/GPa) = 0.04849253
#
# Stress axis : x y z
#
# Youngs Moduli (GPa) = 25.46273 69.16825 52.43209
#
# Poissons Ratio (x) = -0.44050 0.48432
# Poissons Ratio (y) = -0.16216 0.48692
# Poissons Ratio (z) = 0.23520 0.64234
#
# Static dielectric constant tensor:
#      x y z
#    x 1.990790 0.000030 -0.019910 
#    y 0.000030 2.087030 -0.000010 
#    z -0.019910 -0.000010 1.925010 
# 
# From -- ./inp_files/361411.got.cif
#   From: 2010.05.17/outbox.cif.g08.bks.cpg/sg12_181_cif.got.tgz:361411.got - 2010.06.03 13:09:07.
