data_PCOD9186306
_publ_section_title
;
Structure prediction by ZEFSAII (Michael W. Deem and Ramdas Pophale) SiO2 
 PCOD9186306
Probable space group: C 2/M
;
_chemical_formula_sum "Si O2"
_cell_formula_units_Z 56
_cell_length_a 16.357945
_cell_length_b 14.955077
_cell_length_c 9.982028
_cell_angle_alpha 90.000000
_cell_angle_beta 97.109158
_cell_angle_gamma 90.000000
_cell_volume 2423.173429
_symmetry_space_group_name_H-M "C 2/M"
_symmetry_group_IT_number 12
_symmetry_cell_setting 'monoclinic'
loop_
_space_group_symop_operation_xyz
x,y,z
-x,y,-z
-x,-y,-z
x,-y,z
1/2+x,1/2+y,z
1/2-x,1/2+y,-z
1/2-x,1/2-y,-z
1/2+x,1/2-y,z
loop_
_atom_site_type_symbol
_atom_site_label
_atom_site_fract_x
_atom_site_fract_y
_atom_site_fract_z
Si Si1 0.237442 0.646343 0.954077
Si Si2 0.474519 0.398514 0.847841
Si Si3 0.734262 0.109475 0.391474
Si Si4 0.139835 0.152198 0.812789
Si Si5 0.309245 0.392226 0.689824
Si Si6 0.936306 0.340912 0.106839
Si Si7 0.545694 0.894662 0.377567
O O1 0.249972 0.631051 0.800426
O O2 0.146181 0.612583 0.968096
O O3 0.250000 0.750000 0.000000
O O4 0.313403 0.606243 0.052106
O O5 0.449409 0.500000 0.869894
O O6 0.554668 0.398358 0.770609
O O7 0.397839 0.354676 0.756174
O O8 0.500000 0.362024 0.000000
O O9 0.792508 0.150194 0.288945
O O10 0.772926 0.137424 0.541632
O O11 0.638508 0.138777 0.367106
O O12 0.737799 0.000000 0.379191
O O13 0.103328 0.249620 0.842759
O O14 0.314505 0.500000 0.679175
O O15 0.985418 0.384486 0.238994
O O16 0.000000 0.329589 0.000000
O O17 0.500000 0.855618 0.500000
O O18 0.557880 0.000000 0.407329
#
# Coordination Sequence:
#
# PCOD9186306 Si02
#       7
#     8   8   8   8   8   8   8
#     4  10  22  38  60  87 121 162 210 257 310 369
#     4  10  19  34  60  91 121 162 209 253 306 368
#     4  10  22  41  66  97 129 166 212 264 316 372
#     4  11  22  39  60  91 132 169 204 257 312 375
#     4  10  21  39  65  93 123 162 210 259 313 377
#     4  11  24  41  62  93 125 167 213 260 316 375
#     4  10  22  45  71  93 125 165 212 266 322 380
#
# _framework density 23.110192999999999
#
# number of rings (size 3 to 8) (size 9 to 14) (size 15 to 20)
#    0.000    1.714    1.429    2.571    2.000    3.143 
#    2.571    5.714    0.000    0.000    0.000    0.000 
#    0.000    0.000    0.000    0.000    0.000    0.000 
#
# Total GULP energy -156315.512822 kJ/mol
# GULP energy per Si atom -5582.696887 kJ/mol
# Density = 2.305759 g / cm^3
# Si number density = 23.110193 Si / 1000 Ang^3
#
#
#
# Elastic Constant Matrix: (Units=GPa)
#
#
# Indices 1 2 3 4 5 6 
#
# 1 209.2288 8.8356 46.0282 0.0000 -16.5575 0.0000
# 2 8.8356 30.0452 -1.8530 0.0000 -2.6490 0.0000
# 3 46.0282 -1.8530 92.1267 0.0000 -22.1666 0.0000
# 4 0.0000 0.0000 0.0000 20.3386 0.0000 -6.3043
# 5 -16.5575 -2.6490 -22.1666 0.0000 45.4311 0.0000
# 6 0.0000 0.0000 0.0000 -6.3043 0.0000 15.0472
#
#
#
# Elastic Compliance Matrix: (Units=1/GPa)
#
#
# Indices 1 2 3 4 5 6 
#
# 1 0.005478 -0.001718 -0.002623 0.000000 0.000616 0.000000
# 2 -0.001718 0.034131 0.002122 0.000000 0.002399 0.000000
# 3 -0.002623 0.002122 0.013605 0.000000 0.005806 0.000000
# 4 0.000000 0.000000 0.000000 0.056506 0.000000 0.023674
# 5 0.000616 0.002399 0.005806 0.000000 0.025209 0.000000
# 6 0.000000 0.000000 0.000000 0.023674 0.000000 0.076377
#
#
# Mechanical properties :
#
#
# Convention : Reuss Voigt Hill
#
# Bulk Modulus (GPa) = 20.50217 48.60247 34.55232
# Shear Modulus (GPa) = 21.55159 34.72270 28.13714
#
# Velocity S-wave (km/s) = 3.05709 3.88039 3.49308
# Velocity P-wave (km/s) = 4.62081 6.41506 5.59039
#
# Compressibility (1/GPa) = 0.04877533
#
# Stress axis : x y z
#
# Youngs Moduli (GPa) = 182.55333 29.29890 73.50366
#
# Poissons Ratio (x) = 0.05035 0.19281
# Poissons Ratio (y) = 0.31369 -0.15600
# Poissons Ratio (z) = 0.47885 -0.06218
#
# Static dielectric constant tensor:
#      x y z
#    x 1.947150 0.000000 0.030420 
#    y 0.000000 1.986540 0.000000 
#    z 0.030420 0.000000 1.853330 
# 
# From -- ./inp_files/64102.got.cif
#   From: 2010.05.17/outbox.cif.g08.bks.cpg/sg12_33_cif.got.tgz:64102.got - 2010.06.03 13:09:07.
