data_PCOD9186725
_publ_section_title
;
Structure prediction by ZEFSAII (Michael W. Deem and Ramdas Pophale) SiO2 
 PCOD9186725
Probable space group: C 2/M
;
_chemical_formula_sum "Si O2"
_cell_formula_units_Z 56
_cell_length_a 15.420377
_cell_length_b 18.124619
_cell_length_c 12.832084
_cell_angle_alpha 90.000000
_cell_angle_beta 118.500493
_cell_angle_gamma 90.000000
_cell_volume 3151.791990
_symmetry_space_group_name_H-M "C 2/M"
_symmetry_group_IT_number 12
_symmetry_cell_setting 'monoclinic'
loop_
_space_group_symop_operation_xyz
x,y,z
-x,y,-z
-x,-y,-z
x,-y,z
1/2+x,1/2+y,z
1/2-x,1/2+y,-z
1/2-x,1/2-y,-z
1/2+x,1/2-y,z
loop_
_atom_site_type_symbol
_atom_site_label
_atom_site_fract_x
_atom_site_fract_y
_atom_site_fract_z
Si Si1 0.116496 0.285219 0.299573
Si Si2 0.445335 0.332057 0.575969
Si Si3 0.213917 0.229754 0.148571
Si Si4 0.065107 0.333831 0.940035
Si Si5 0.754689 0.415682 0.052734
Si Si6 0.766236 0.915744 0.377323
Si Si7 0.146485 0.864878 0.789723
O O1 0.103841 0.236793 0.394750
O O2 0.175125 0.240150 0.243431
O O3 0.178267 0.359585 0.351141
O O4 0.010530 0.304872 0.189526
O O5 0.500000 0.310100 0.500000
O O6 0.362066 0.390612 0.497239
O O7 0.531076 0.363901 0.699011
O O8 0.233222 0.146402 0.126724
O O9 0.310044 0.281350 0.187404
O O10 0.132019 0.267795 0.026337
O O11 0.140038 0.393650 0.937558
O O12 0.000000 0.362303 0.000000
O O13 0.752521 0.500000 0.086512
O O14 0.676566 0.402068 0.914750
O O15 0.796939 0.904230 0.273720
O O16 0.740347 0.000000 0.381310
#
# Coordination Sequence:
#
# PCOD9186725 Si02
#       7
#     8   8   8   8   8   8   8
#     4  10  19  35  56  72  97 135 169 204 246 297
#     4  10  20  34  55  76  94 127 173 214 247 292
#     4   9  18  33  51  74 102 134 171 201 237 298
#     4   9  18  32  53  76  98 132 174 209 237 284
#     4  11  20  30  49  78 110 135 159 199 251 304
#     4  10  21  34  50  76 103 127 163 212 256 289
#     4   9  18  33  53  72  98 135 170 205 243 287
#
# _framework density 17.767669000000001
#
# number of rings (size 3 to 8) (size 9 to 14) (size 15 to 20)
#    0.000    2.286    0.000    5.143    0.000    4.000 
#    0.000    0.714    0.000    8.571    0.000    0.000 
#    0.000    0.000    0.000    0.000    0.000    0.000 
#
# Total GULP energy -156310.780441 kJ/mol
# GULP energy per Si atom -5582.527873 kJ/mol
# Density = 1.772723 g / cm^3
# Si number density = 17.767669 Si / 1000 Ang^3
#
#
#
# Elastic Constant Matrix: (Units=GPa)
#
#
# Indices 1 2 3 4 5 6 
#
# 1 66.1090 44.2228 23.9108 0.0000 3.4085 0.0000
# 2 44.2228 129.3065 31.4828 0.0000 -6.7246 0.0000
# 3 23.9108 31.4828 51.1438 0.0000 3.4607 0.0000
# 4 0.0000 0.0000 0.0000 8.0166 0.0000 -3.8064
# 5 3.4085 -6.7246 3.4607 0.0000 14.9381 0.0000
# 6 0.0000 0.0000 0.0000 -3.8064 0.0000 13.8660
#
#
#
# Elastic Compliance Matrix: (Units=1/GPa)
#
#
# Indices 1 2 3 4 5 6 
#
# 1 0.021848 -0.006388 -0.005842 0.000000 -0.006508 0.000000
# 2 -0.006388 0.011429 -0.004567 0.000000 0.007660 0.000000
# 3 -0.005842 -0.004567 0.025544 0.000000 -0.006641 0.000000
# 4 0.000000 0.000000 0.000000 0.143438 0.000000 0.039376
# 5 -0.006508 0.007660 -0.006641 0.000000 0.073414 0.000000
# 6 0.000000 0.000000 0.000000 0.039376 0.000000 0.082928
#
#
# Mechanical properties :
#
#
# Convention : Reuss Voigt Hill
#
# Bulk Modulus (GPa) = 39.63904 49.53243 44.58573
# Shear Modulus (GPa) = 12.48114 17.16034 14.82074
#
# Velocity S-wave (km/s) = 2.65328 3.11113 2.89128
# Velocity P-wave (km/s) = 5.63423 6.39092 6.02447
#
# Compressibility (1/GPa) = 0.02522766
#
# Stress axis : x y z
#
# Youngs Moduli (GPa) = 45.77023 87.49957 39.14741
#
# Poissons Ratio (x) = 0.55897 0.22869
# Poissons Ratio (y) = 0.29239 0.17878
# Poissons Ratio (z) = 0.26738 0.39960
#
# Static dielectric constant tensor:
#      x y z
#    x 1.616030 0.000000 0.008990 
#    y 0.000000 1.582460 0.000000 
#    z 0.008990 0.000000 1.619260 
# 
# From -- ./inp_files/145488.got.cif
#   From: 2010.05.17/outbox.cif.g08.bks.cpg/sg12_73_cif.got.tgz:145488.got - 2010.06.03 13:09:07.
