data_PCOD9186333
_publ_section_title
;
Structure prediction by ZEFSAII (Michael W. Deem and Ramdas Pophale) SiO2 
 PCOD9186333
Probable space group: C 2/M
;
_chemical_formula_sum "Si O2"
_cell_formula_units_Z 56
_cell_length_a 16.650910
_cell_length_b 24.403674
_cell_length_c 7.620706
_cell_angle_alpha 90.000000
_cell_angle_beta 130.067123
_cell_angle_gamma 90.000000
_cell_volume 2369.817672
_symmetry_space_group_name_H-M "C 2/M"
_symmetry_group_IT_number 12
_symmetry_cell_setting 'monoclinic'
loop_
_space_group_symop_operation_xyz
x,y,z
-x,y,-z
-x,-y,-z
x,-y,z
1/2+x,1/2+y,z
1/2-x,1/2+y,-z
1/2-x,1/2-y,-z
1/2+x,1/2-y,z
loop_
_atom_site_type_symbol
_atom_site_label
_atom_site_fract_x
_atom_site_fract_y
_atom_site_fract_z
Si Si1 0.487915 0.437338 0.696016
Si Si2 0.235113 0.670838 0.142078
Si Si3 0.500583 0.165859 0.788808
Si Si4 0.716122 0.561689 0.982536
Si Si5 0.205005 0.277991 0.612040
Si Si6 0.117283 0.559225 0.493267
Si Si7 0.293469 0.379521 0.585237
O O1 0.500000 0.428606 0.500000
O O2 0.450532 0.500000 0.666895
O O3 0.408248 0.395782 0.678210
O O4 0.606891 0.435528 0.937939
O O5 0.284723 0.731034 0.227420
O O6 0.232941 0.649016 0.338659
O O7 0.119205 0.676839 0.901440
O O8 0.287933 0.618295 0.127945
O O9 0.415422 0.206841 0.589356
O O10 0.461949 0.106873 0.667082
O O11 0.500000 0.168748 0.000000
O O12 0.710477 0.500000 0.890051
O O13 0.826528 0.562378 0.239118
O O14 0.250000 0.250000 0.500000
O O15 0.272976 0.334883 0.713536
O O16 0.069036 0.500000 0.399854
O O17 0.221706 0.568114 0.523265
#
# Coordination Sequence:
#
# PCOD9186333 Si02
#       7
#     8   8   8   8   8   8   8
#     4  10  19  34  60  95 133 175 223 269 322 398
#     4  11  21  40  67  91 126 173 218 271 337 393
#     4  11  20  39  63  93 126 168 218 272 325 395
#     4  10  23  41  63  95 140 179 215 272 334 395
#     4   9  19  37  63  93 121 159 222 278 328 379
#     4  10  22  39  59  95 136 169 215 270 327 391
#     4  10  19  36  62  94 126 170 223 273 321 386
#
# _framework density 23.630509
#
# number of rings (size 3 to 8) (size 9 to 14) (size 15 to 20)
#    0.000    1.857    5.714    0.429    0.000    2.571 
#    0.000   16.429    0.000    8.571    0.000    0.000 
#    0.000    0.000    0.000    0.000    0.000    0.000 
#
# Total GULP energy -156152.012653 kJ/mol
# GULP energy per Si atom -5576.857595 kJ/mol
# Density = 2.357673 g / cm^3
# Si number density = 23.630509 Si / 1000 Ang^3
#
#
#
# Elastic Constant Matrix: (Units=GPa)
#
#
# Indices 1 2 3 4 5 6 
#
# 1 62.8270 58.4438 31.3738 0.0000 24.9263 0.0000
# 2 58.4438 187.6017 80.8526 0.0000 23.0738 0.0000
# 3 31.3738 80.8526 113.5938 0.0000 25.6207 0.0000
# 4 0.0000 0.0000 0.0000 32.4834 0.0000 -0.8935
# 5 24.9263 23.0738 25.6207 0.0000 44.7679 0.0000
# 6 0.0000 0.0000 0.0000 -0.8935 0.0000 28.5686
#
#
#
# Elastic Compliance Matrix: (Units=1/GPa)
#
#
# Indices 1 2 3 4 5 6 
#
# 1 0.026944 -0.007056 0.000165 0.000000 -0.011460 0.000000
# 2 -0.007056 0.009572 -0.005325 0.000000 0.002042 0.000000
# 3 0.000165 -0.005325 0.013721 0.000000 -0.005200 0.000000
# 4 0.000000 0.000000 0.000000 0.030811 0.000000 0.000964
# 5 -0.011460 0.002042 -0.005200 0.000000 0.030641 0.000000
# 6 0.000000 0.000000 0.000000 0.000964 0.000000 0.035034
#
#
# Mechanical properties :
#
#
# Convention : Reuss Voigt Hill
#
# Bulk Modulus (GPa) = 38.75098 78.37366 58.56232
# Shear Modulus (GPa) = 27.81516 34.05413 30.93465
#
# Velocity S-wave (km/s) = 3.43459 3.80031 3.62207
# Velocity P-wave (km/s) = 5.67123 7.24533 6.50606
#
# Compressibility (1/GPa) = 0.02580580
#
# Stress axis : x y z
#
# Youngs Moduli (GPa) = 37.11334 104.46754 72.88164
#
# Poissons Ratio (x) = 0.73708 -0.01202
# Poissons Ratio (y) = 0.26186 0.38811
# Poissons Ratio (z) = -0.00612 0.55632
#
# Static dielectric constant tensor:
#      x y z
#    x 1.953120 0.000000 -0.073410 
#    y 0.000000 1.940080 0.000000 
#    z -0.073410 0.000000 1.966560 
# 
# From -- ./inp_files/80113.got.cif
#   From: 2010.05.17/outbox.cif.g08.bks.cpg/sg12_41_cif.got.tgz:80113.got - 2010.06.03 13:09:07.
