data_PCOD9186939
_publ_section_title
;
Structure prediction by ZEFSAII (Michael W. Deem and Ramdas Pophale) SiO2 
 PCOD9186939
Probable space group: C 2/M
;
_chemical_formula_sum "Si O2"
_cell_formula_units_Z 56
_cell_length_a 24.169657
_cell_length_b 15.120225
_cell_length_c 8.394423
_cell_angle_alpha 90.000000
_cell_angle_beta 109.623422
_cell_angle_gamma 90.000000
_cell_volume 2889.573342
_symmetry_space_group_name_H-M "C 2/M"
_symmetry_group_IT_number 12
_symmetry_cell_setting 'monoclinic'
loop_
_space_group_symop_operation_xyz
x,y,z
-x,y,-z
-x,-y,-z
x,-y,z
1/2+x,1/2+y,z
1/2-x,1/2+y,-z
1/2-x,1/2-y,-z
1/2+x,1/2-y,z
loop_
_atom_site_type_symbol
_atom_site_label
_atom_site_fract_x
_atom_site_fract_y
_atom_site_fract_z
Si Si1 0.181945 0.751166 0.882569
Si Si2 0.016332 0.782814 0.201351
Si Si3 0.774414 0.185527 0.391757
Si Si4 0.589919 0.602234 0.771067
Si Si5 0.161713 0.603959 0.106651
Si Si6 0.387266 0.596876 0.584366
Si Si7 0.543764 0.096702 0.192942
O O1 0.187312 0.756381 0.696811
O O2 0.145413 0.840267 0.887632
O O3 0.250000 0.750000 0.000000
O O4 0.153245 0.668061 0.945511
O O5 0.078489 0.829742 0.285386
O O6 0.022298 0.682253 0.268175
O O7 0.967772 0.843569 0.237385
O O8 0.000000 0.778884 0.000000
O O9 0.750000 0.250000 0.500000
O O10 0.721790 0.136069 0.249066
O O11 0.818344 0.115644 0.512503
O O12 0.589696 0.500000 0.825751
O O13 0.593260 0.599945 0.582101
O O14 0.165150 0.500000 0.067452
O O15 0.107740 0.614381 0.177420
O O16 0.401224 0.500000 0.661997
O O17 0.544130 0.000000 0.272812
O O18 0.500000 0.090347 0.000000
#
# Coordination Sequence:
#
# PCOD9186939 Si02
#       7
#     8   8   8   8   8   8   8
#     4   9  19  34  54  79 106 141 184 227 268 320
#     4  11  21  34  55  83 112 138 177 230 276 321
#     4  10  20  35  55  80 112 147 186 233 286 336
#     4  10  21  37  56  78 109 148 183 217 269 335
#     4  10  19  35  57  79 108 150 193 231 277 333
#     4  10  21  37  55  76 107 148 185 217 269 340
#     4   9  18  32  53  79 106 138 177 223 275 326
#
# _framework density 19.380022
#
# number of rings (size 3 to 8) (size 9 to 14) (size 15 to 20)
#    0.000    2.143    0.000    3.857    0.000    6.857 
#    0.000    1.429    0.000    6.000    0.000    0.000 
#    0.000    0.000    0.000    0.000    0.000    0.000 
#
# Total GULP energy -156092.269156 kJ/mol
# GULP energy per Si atom -5574.723898 kJ/mol
# Density = 1.933591 g / cm^3
# Si number density = 19.380022 Si / 1000 Ang^3
#
#
#
# Elastic Constant Matrix: (Units=GPa)
#
#
# Indices 1 2 3 4 5 6 
#
# 1 75.3810 48.8389 6.5860 0.0000 10.3607 0.0000
# 2 48.8389 191.5827 34.9815 0.0000 -3.3509 0.0000
# 3 6.5860 34.9815 32.1008 0.0000 16.7008 0.0000
# 4 0.0000 0.0000 0.0000 28.8407 0.0000 -0.2539
# 5 10.3607 -3.3509 16.7008 0.0000 28.3038 0.0000
# 6 0.0000 0.0000 0.0000 -0.2539 0.0000 34.4098
#
#
#
# Elastic Compliance Matrix: (Units=1/GPa)
#
#
# Indices 1 2 3 4 5 6 
#
# 1 0.018916 -0.007182 0.011530 0.000000 -0.014578 0.000000
# 2 -0.007182 0.010432 -0.017179 0.000000 0.014001 0.000000
# 3 0.011530 -0.017179 0.073245 0.000000 -0.049473 0.000000
# 4 0.000000 0.000000 0.000000 0.034675 0.000000 0.000256
# 5 -0.014578 0.014001 -0.049473 0.000000 0.071517 0.000000
# 6 0.000000 0.000000 0.000000 0.000256 0.000000 0.029063
#
#
# Mechanical properties :
#
#
# Convention : Reuss Voigt Hill
#
# Bulk Modulus (GPa) = 12.99853 53.31970 33.15912
# Shear Modulus (GPa) = 17.29182 32.22140 24.75661
#
# Velocity S-wave (km/s) = 2.99030 4.08193 3.57799
# Velocity P-wave (km/s) = 4.31790 7.05611 5.84948
#
# Compressibility (1/GPa) = 0.07693178
#
# Stress axis : x y z
#
# Youngs Moduli (GPa) = 52.86645 95.85705 13.65273
#
# Poissons Ratio (x) = 0.68848 -0.15742
# Poissons Ratio (y) = 0.37971 0.23454
# Poissons Ratio (z) = -0.60957 1.64670
#
# Static dielectric constant tensor:
#      x y z
#    x 1.722240 0.000000 0.000900 
#    y 0.000000 1.744020 0.000000 
#    z 0.000900 0.000000 1.671520 
# 
# From -- ./inp_files/96249.got.cif
#   From: 2010.05.17/outbox.cif.g08.bks.cpg/sg12_49_cif.got.tgz:96249.got - 2010.06.03 13:09:07.
