data_PCOD9186205
_publ_section_title
;
Structure prediction by ZEFSAII (Michael W. Deem and Ramdas Pophale) SiO2 
 PCOD9186205
Probable space group: C 2/M
;
_chemical_formula_sum "Si O2"
_cell_formula_units_Z 56
_cell_length_a 23.986604
_cell_length_b 8.885833
_cell_length_c 16.130476
_cell_angle_alpha 90.000000
_cell_angle_beta 122.538590
_cell_angle_gamma 90.000000
_cell_volume 2898.389857
_symmetry_space_group_name_H-M "C 2/M"
_symmetry_group_IT_number 12
_symmetry_cell_setting 'monoclinic'
loop_
_space_group_symop_operation_xyz
x,y,z
-x,y,-z
-x,-y,-z
x,-y,z
1/2+x,1/2+y,z
1/2-x,1/2+y,-z
1/2-x,1/2-y,-z
1/2+x,1/2-y,z
loop_
_atom_site_type_symbol
_atom_site_label
_atom_site_fract_x
_atom_site_fract_y
_atom_site_fract_z
Si Si1 0.223330 0.333804 0.059045
Si Si2 0.319510 0.680924 0.814772
Si Si3 0.454767 0.183115 0.544717
Si Si4 0.367398 0.336741 0.244969
Si Si5 0.824253 0.676035 0.361914
Si Si6 0.512227 0.322525 0.759999
Si Si7 0.958578 0.680511 0.884310
O O1 0.194612 0.500000 0.018706
O O2 0.181198 0.237309 0.090158
O O3 0.291790 0.353739 0.162126
O O4 0.250000 0.250000 0.000000
O O5 0.320584 0.500000 0.814429
O O6 0.251028 0.731722 0.713257
O O7 0.385291 0.749377 0.828466
O O8 0.500000 0.223988 0.500000
O O9 0.378074 0.234195 0.470720
O O10 0.480920 0.254882 0.650671
O O11 0.456493 0.000000 0.551725
O O12 0.391020 0.500000 0.298182
O O13 0.365386 0.205259 0.310073
O O14 0.409874 0.306635 0.197665
O O15 0.817302 0.500000 0.371328
O O16 0.496653 0.500000 0.755236
O O17 0.492474 0.238125 0.827383
O O18 0.954057 0.500000 0.880301
O O19 0.000000 0.725133 0.000000
#
# Coordination Sequence:
#
# PCOD9186205 Si02
#       7
#     8   8   8   8   8   8   8
#     4  10  20  34  53  82 115 151 194 243 299 358
#     4  10  21  39  61  85 115 153 197 247 298 356
#     4  10  19  34  59  91 127 163 196 239 295 355
#     4   9  19  33  51  80 118 153 188 235 292 348
#     4   9  18  34  58  88 120 156 193 232 289 350
#     4  11  23  38  59  89 122 158 202 249 296 353
#     4  11  26  46  65  86 113 155 205 254 304 359
#
# _framework density 19.321072999999998
#
# number of rings (size 3 to 8) (size 9 to 14) (size 15 to 20)
#    0.000    2.000    1.429    1.714    2.000    3.714 
#    0.000    0.714    0.000    0.000    0.000    0.000 
#    0.000    0.000    0.000    0.000    0.000    0.000 
#
# Total GULP energy -155880.293820 kJ/mol
# GULP energy per Si atom -5567.153351 kJ/mol
# Density = 1.927710 g / cm^3
# Si number density = 19.321073 Si / 1000 Ang^3
#
#
#
# Elastic Constant Matrix: (Units=GPa)
#
#
# Indices 1 2 3 4 5 6 
#
# 1 105.6701 21.6045 25.8385 0.0000 0.4849 0.0000
# 2 21.6045 45.8498 21.5776 0.0000 0.5886 0.0000
# 3 25.8385 21.5776 62.4135 0.0000 -7.1046 0.0000
# 4 0.0000 0.0000 0.0000 21.0786 0.0000 -5.8031
# 5 0.4849 0.5886 -7.1046 0.0000 27.1382 0.0000
# 6 0.0000 0.0000 0.0000 -5.8031 0.0000 30.6382
#
#
#
# Elastic Compliance Matrix: (Units=1/GPa)
#
#
# Indices 1 2 3 4 5 6 
#
# 1 0.011042 -0.003563 -0.003456 0.000000 -0.001025 0.000000
# 2 -0.003563 0.027439 -0.008320 0.000000 -0.002709 0.000000
# 3 -0.003456 -0.008320 0.020982 0.000000 0.005735 0.000000
# 4 0.000000 0.000000 0.000000 0.050052 0.000000 0.009480
# 5 -0.001025 -0.002709 0.005735 0.000000 0.038427 0.000000
# 6 0.000000 0.000000 0.000000 0.009480 0.000000 0.034435
#
#
# Mechanical properties :
#
#
# Convention : Reuss Voigt Hill
#
# Bulk Modulus (GPa) = 34.73973 39.10830 36.92401
# Shear Modulus (GPa) = 22.45687 25.43185 23.94436
#
# Velocity S-wave (km/s) = 3.41295 3.63199 3.52417
# Velocity P-wave (km/s) = 5.79226 6.15416 5.97595
#
# Compressibility (1/GPa) = 0.02878549
#
# Stress axis : x y z
#
# Youngs Moduli (GPa) = 90.56597 36.44382 47.65992
#
# Poissons Ratio (x) = 0.12986 0.16471
# Poissons Ratio (y) = 0.32271 0.39651
# Poissons Ratio (z) = 0.31298 0.30320
#
# Static dielectric constant tensor:
#      x y z
#    x 1.677450 0.000000 0.038820 
#    y 0.000000 1.640310 0.000000 
#    z 0.038820 0.000000 1.726850 
# 
# From -- ./inp_files/239012.got.cif
#   From: 2010.05.17/outbox.cif.g08.bks.cpg/sg12_120_cif.got.tgz:239012.got - 2010.06.03 13:09:07.
