data_PCOD9186761
_publ_section_title
;
Structure prediction by ZEFSAII (Michael W. Deem and Ramdas Pophale) SiO2 
 PCOD9186761
Probable space group: C 2/M
;
_chemical_formula_sum "Si O2"
_cell_formula_units_Z 64
_cell_length_a 14.595167
_cell_length_b 8.546426
_cell_length_c 30.186571
_cell_angle_alpha 90.000000
_cell_angle_beta 105.599380
_cell_angle_gamma 90.000000
_cell_volume 3626.672135
_symmetry_space_group_name_H-M "C 2/M"
_symmetry_group_IT_number 12
_symmetry_cell_setting 'monoclinic'
loop_
_space_group_symop_operation_xyz
x,y,z
-x,y,-z
-x,-y,-z
x,-y,z
1/2+x,1/2+y,z
1/2-x,1/2+y,-z
1/2-x,1/2-y,-z
1/2+x,1/2-y,z
loop_
_atom_site_type_symbol
_atom_site_label
_atom_site_fract_x
_atom_site_fract_y
_atom_site_fract_z
Si Si1 0.275207 0.687825 0.551525
Si Si2 0.855765 0.187726 0.698325
Si Si3 0.016429 0.188844 0.052253
Si Si4 0.795216 0.810793 0.870612
Si Si5 0.965321 0.809910 0.625676
Si Si6 0.174087 0.188170 0.624382
Si Si7 0.089643 0.311145 0.878391
Si Si8 0.098423 0.312627 0.198886
O O1 0.272381 0.500000 0.551306
O O2 0.250000 0.750000 0.500000
O O3 0.380939 0.737542 0.581293
O O4 0.204041 0.750216 0.579980
O O5 0.931596 0.237963 0.670406
O O6 0.754452 0.252677 0.668745
O O7 0.883131 0.246191 0.750233
O O8 0.851441 0.000000 0.697413
O O9 0.119459 0.236368 0.085070
O O10 0.938591 0.249774 0.076868
O O11 0.013279 0.000000 0.051980
O O12 0.000000 0.243321 0.000000
O O13 0.692444 0.758509 0.874583
O O14 0.823664 0.745537 0.826369
O O15 0.794783 0.000000 0.868176
O O16 0.069446 0.756016 0.625094
O O17 0.967408 0.000000 0.625699
O O18 0.174994 0.000000 0.623892
O O19 0.090069 0.500000 0.879863
O O20 0.003993 0.262298 0.834419
O O21 0.100036 0.500000 0.200751
#
# Coordination Sequence:
#
# PCOD9186761 Si02
#       8
#     8   8   8   8   8   8   8   8
#     4  10  20  36  54  77 106 138 172 209 252 299
#     4  10  20  36  54  75 103 135 166 202 250 303
#     4   9  18  32  50  73 101 132 166 203 247 301
#     4   9  18  34  52  71  99 133 165 203 251 298
#     4   8  18  35  54  74 102 136 169 203 248 301
#     4  10  19  35  56  78 102 133 171 212 251 294
#     4   9  19  34  51  72  99 130 167 209 250 292
#     4  10  20  34  51  74 100 128 166 209 248 293
#
# _framework density 17.647033
#
# number of rings (size 3 to 8) (size 9 to 14) (size 15 to 20)
#    0.000    2.625    0.000    2.250    0.000    3.250 
#    0.000   12.500    0.000    0.000    0.000    0.000 
#    0.000    0.000    0.000    0.000    0.000    0.000 
#
# Total GULP energy -178495.062170 kJ/mol
# GULP energy per Si atom -5577.970693 kJ/mol
# Density = 1.760687 g / cm^3
# Si number density = 17.647033 Si / 1000 Ang^3
#
#
#
# Elastic Constant Matrix: (Units=GPa)
#
#
# Indices 1 2 3 4 5 6 
#
# 1 178.8515 30.7034 89.7895 0.0000 -18.5322 0.0000
# 2 30.7034 31.9399 33.4072 0.0000 -3.0142 0.0000
# 3 89.7895 33.4072 180.0027 0.0000 -10.5208 0.0000
# 4 0.0000 0.0000 0.0000 27.3100 0.0000 -6.3793
# 5 -18.5322 -3.0142 -10.5208 0.0000 8.1984 0.0000
# 6 0.0000 0.0000 0.0000 -6.3793 0.0000 22.1051
#
#
#
# Elastic Compliance Matrix: (Units=1/GPa)
#
#
# Indices 1 2 3 4 5 6 
#
# 1 0.009524 -0.004533 -0.002972 0.000000 0.016049 0.000000
# 2 -0.004533 0.041233 -0.005518 0.000000 -0.002168 0.000000
# 3 -0.002972 -0.005518 0.008163 0.000000 0.001729 0.000000
# 4 0.000000 0.000000 0.000000 0.039263 0.000000 0.011331
# 5 0.016049 -0.002168 0.001729 0.000000 0.159677 0.000000
# 6 0.000000 0.000000 0.000000 0.011331 0.000000 0.048508
#
#
# Mechanical properties :
#
#
# Convention : Reuss Voigt Hill
#
# Bulk Modulus (GPa) = 30.41800 77.62158 54.01979
# Shear Modulus (GPa) = 14.56143 27.31562 20.93852
#
# Velocity S-wave (km/s) = 2.87566 3.93859 3.44832
# Velocity P-wave (km/s) = 5.31979 8.04763 6.82146
#
# Compressibility (1/GPa) = 0.03287527
#
# Stress axis : x y z
#
# Youngs Moduli (GPa) = 104.99577 24.25226 122.50407
#
# Poissons Ratio (x) = 0.10993 0.36403
# Poissons Ratio (y) = 0.47592 0.67601
# Poissons Ratio (z) = 0.31200 0.13383
#
# Static dielectric constant tensor:
#      x y z
#    x 1.595860 0.000000 0.007970 
#    y 0.000000 1.601500 0.000000 
#    z 0.007970 0.000000 1.572990 
# 
# From -- ./inp_files/359892.got.cif
#   From: 2010.05.17/outbox.cif.g08.bks.cpg/sg12_180_cif.got.tgz:359892.got - 2010.06.03 13:09:07.
