data_PCOD9186291
_publ_section_title
;
Structure prediction by ZEFSAII (Michael W. Deem and Ramdas Pophale) SiO2 
 PCOD9186291
Probable space group: C 2/M
;
_chemical_formula_sum "Si O2"
_cell_formula_units_Z 56
_cell_length_a 23.454067
_cell_length_b 13.933895
_cell_length_c 20.020850
_cell_angle_alpha 90.000000
_cell_angle_beta 23.675602
_cell_angle_gamma 90.000000
_cell_volume 2627.370402
_symmetry_space_group_name_H-M "C 2/M"
_symmetry_group_IT_number 12
_symmetry_cell_setting 'monoclinic'
loop_
_space_group_symop_operation_xyz
x,y,z
-x,y,-z
-x,-y,-z
x,-y,z
1/2+x,1/2+y,z
1/2-x,1/2+y,-z
1/2-x,1/2-y,-z
1/2+x,1/2-y,z
loop_
_atom_site_type_symbol
_atom_site_label
_atom_site_fract_x
_atom_site_fract_y
_atom_site_fract_z
Si Si1 0.917284 0.893724 0.190986
Si Si2 0.332756 0.824581 0.457455
Si Si3 0.646427 0.792665 0.809322
Si Si4 0.284892 0.614256 0.780334
Si Si5 0.019443 0.390020 0.827122
Si Si6 0.579372 0.271708 0.256112
Si Si7 0.670550 0.382861 0.023133
O O1 0.784870 0.891745 0.384180
O O2 0.872907 0.820289 0.180716
O O3 0.054872 0.864953 0.088021
O O4 0.941327 0.000000 0.139877
O O5 0.250000 0.750000 0.500000
O O6 0.448276 0.873091 0.284773
O O7 0.423381 0.771228 0.416200
O O8 0.764078 0.832466 0.732331
O O9 0.633072 0.832700 0.749143
O O10 0.500000 0.829984 0.000000
O O11 0.299510 0.500000 0.756068
O O12 0.404637 0.661975 0.696592
O O13 0.141163 0.633210 0.978901
O O14 0.040947 0.500000 0.820923
O O15 0.611344 0.337499 0.156093
O O16 0.690199 0.182049 0.140308
O O17 0.691055 0.500000 0.006271
#
# Coordination Sequence:
#
# PCOD9186291 Si02
#       7
#     8   8   8   8   8   8   8
#     4  11  23  40  62  89 119 156 203 248 294 351
#     4  12  22  38  59  86 121 160 193 240 301 357
#     4  10  19  36  60  87 120 155 199 245 294 341
#     4  10  21  37  61  91 119 155 199 244 294 351
#     4  10  19  34  60  90 120 153 195 244 295 349
#     4  11  21  36  58  84 123 158 193 245 299 353
#     4  10  20  35  58  89 120 155 198 246 297 350
#
# _framework density 21.314086
#
# number of rings (size 3 to 8) (size 9 to 14) (size 15 to 20)
#    0.000    1.429    2.857    4.714    0.000    4.286 
#    0.000    1.429    0.000    1.714    0.000    0.000 
#    0.000    0.000    0.000    0.000    0.000    0.000 
#
# Total GULP energy -156393.843440 kJ/mol
# GULP energy per Si atom -5585.494409 kJ/mol
# Density = 2.126557 g / cm^3
# Si number density = 21.314086 Si / 1000 Ang^3
#
#
#
# Elastic Constant Matrix: (Units=GPa)
#
#
# Indices 1 2 3 4 5 6 
#
# 1 109.5356 50.4361 27.1164 0.0002 -21.9825 -0.0003
# 2 50.4361 133.8781 20.3788 0.0003 -20.7643 -0.0004
# 3 27.1164 20.3788 56.5952 0.0002 -8.2246 -0.0004
# 4 0.0002 0.0003 0.0002 18.2656 -0.0002 8.9721
# 5 -21.9825 -20.7643 -8.2246 -0.0002 33.1609 0.0002
# 6 -0.0003 -0.0004 -0.0004 8.9721 0.0002 27.1006
#
#
#
# Elastic Compliance Matrix: (Units=1/GPa)
#
#
# Indices 1 2 3 4 5 6 
#
# 1 0.012768 -0.003353 -0.004134 0.000000 0.005339 0.000000
# 2 -0.003353 0.009455 -0.001308 0.000000 0.003373 0.000000
# 3 -0.004134 -0.001308 0.020337 0.000000 0.001484 0.000000
# 4 0.000000 0.000000 0.000000 0.065380 0.000000 -0.021645
# 5 0.005339 0.003373 0.001484 0.000000 0.036176 0.000000
# 6 0.000000 0.000000 0.000000 -0.021645 0.000000 0.044065
#
#
# Mechanical properties :
#
#
# Convention : Reuss Voigt Hill
#
# Bulk Modulus (GPa) = 40.04821 55.09684 47.57252
# Shear Modulus (GPa) = 23.35414 29.17726 26.26570
#
# Velocity S-wave (km/s) = 3.31375 3.70390 3.51424
# Velocity P-wave (km/s) = 5.78546 6.64815 6.23175
#
# Compressibility (1/GPa) = 0.02496991
#
# Stress axis : x y z
#
# Youngs Moduli (GPa) = 78.31890 105.76568 49.17163
#
# Poissons Ratio (x) = 0.35461 0.20330
# Poissons Ratio (y) = 0.26258 0.06431
# Poissons Ratio (z) = 0.32381 0.13833
#
# Static dielectric constant tensor:
#      x y z
#    x 1.787790 0.000000 0.018180 
#    y 0.000000 1.814390 0.000000 
#    z 0.018180 0.000000 1.807520 
# 
# From -- ./inp_files/284497.got.cif
#   From: 2010.05.17/outbox.cif.g08.bks.cpg/sg12_143_cif.got.tgz:284497.got - 2010.06.03 13:09:07.
