data_PCOD9186889
_publ_section_title
;
Structure prediction by ZEFSAII (Michael W. Deem and Ramdas Pophale) SiO2 
 PCOD9186889
Probable space group: C 2/M
;
_chemical_formula_sum "Si O2"
_cell_formula_units_Z 64
_cell_length_a 21.004007
_cell_length_b 7.541394
_cell_length_c 21.992718
_cell_angle_alpha 90.000000
_cell_angle_beta 62.869759
_cell_angle_gamma 90.000000
_cell_volume 3100.338777
_symmetry_space_group_name_H-M "C 2/M"
_symmetry_group_IT_number 12
_symmetry_cell_setting 'monoclinic'
loop_
_space_group_symop_operation_xyz
x,y,z
-x,y,-z
-x,-y,-z
x,-y,z
1/2+x,1/2+y,z
1/2-x,1/2+y,-z
1/2-x,1/2-y,-z
1/2+x,1/2-y,z
loop_
_atom_site_type_symbol
_atom_site_label
_atom_site_fract_x
_atom_site_fract_y
_atom_site_fract_z
Si Si1 0.300916 0.217138 0.291789
Si Si2 0.578000 0.716871 0.444452
Si Si3 0.222685 0.788155 0.444793
Si Si4 0.936449 0.703643 0.163582
Si Si5 0.350715 0.707636 0.083908
Si Si6 0.690564 0.791287 0.143029
Si Si7 0.594944 0.783817 0.074003
Si Si8 0.155794 0.786622 0.289475
O O1 0.278196 0.274313 0.369030
O O2 0.376568 0.282739 0.234207
O O3 0.234938 0.271173 0.277169
O O4 0.302484 0.000000 0.289384
O O5 0.500000 0.776817 0.500000
O O6 0.576906 0.500000 0.445313
O O7 0.643248 0.774646 0.460138
O O8 0.600725 0.771172 0.366073
O O9 0.250000 0.750000 0.500000
O O10 0.219601 0.000000 0.439961
O O11 0.946380 0.500000 0.178966
O O12 0.900556 0.705066 0.112683
O O13 0.015359 0.781392 0.124669
O O14 0.348113 0.500000 0.101382
O O15 0.270082 0.783194 0.118695
O O16 0.381976 0.726498 0.002967
O O17 0.649997 0.721072 0.101677
O O18 0.645975 0.771194 0.224557
O O19 0.700750 0.000000 0.127315
O O20 0.594238 0.000000 0.073983
O O21 0.155209 0.000000 0.290145
#
# Coordination Sequence:
#
# PCOD9186889 Si02
#       8
#     8   8   8   8   8   8   8   8
#     4   8  15  30  52  74  95 127 172 206 233 285
#     4   8  15  30  52  76 102 132 169 207 243 291
#     4   9  17  31  51  75 103 133 166 205 246 290
#     4  10  19  35  57  75  96 131 173 209 241 292
#     4  11  22  35  54  76 101 131 162 207 258 298
#     4  10  21  36  51  74 105 132 163 206 255 297
#     4  10  22  37  52  73 101 134 168 203 247 300
#     4   9  16  30  55  78  95 129 175 210 240 287
#
# _framework density 20.642904000000001
#
# number of rings (size 3 to 8) (size 9 to 14) (size 15 to 20)
#    0.000    2.625    1.250    2.625    0.000    3.000 
#    2.250    3.125    0.000    0.750    0.000    0.000 
#    0.000    0.000    0.000    0.000    0.000    0.000 
#
# Total GULP energy -178574.151167 kJ/mol
# GULP energy per Si atom -5580.442224 kJ/mol
# Density = 2.059592 g / cm^3
# Si number density = 20.642904 Si / 1000 Ang^3
#
#
#
# Elastic Constant Matrix: (Units=GPa)
#
#
# Indices 1 2 3 4 5 6 
#
# 1 53.1216 -2.4397 25.8018 -0.0002 -9.8215 -0.0012
# 2 -2.4397 50.7889 -11.2056 -0.0002 -5.5206 -0.0014
# 3 25.8018 -11.2056 111.3573 0.0000 -11.1031 -0.0005
# 4 -0.0002 -0.0002 0.0000 17.0599 0.0000 10.7526
# 5 -9.8215 -5.5206 -11.1031 0.0000 36.3999 -0.0002
# 6 -0.0012 -0.0014 -0.0005 10.7526 -0.0002 2.9456
#
#
#
# Elastic Compliance Matrix: (Units=1/GPa)
#
#
# Indices 1 2 3 4 5 6 
#
# 1 0.021918 0.000546 -0.004564 0.000004 0.004605 -0.000006
# 2 0.000546 0.020669 0.002352 0.000005 0.004000 -0.000008
# 3 -0.004564 0.002352 0.010507 0.000001 0.002330 -0.000001
# 4 0.000004 0.000005 0.000001 -0.045064 0.000003 0.164499
# 5 0.004605 0.004000 0.002330 0.000003 0.030032 -0.000004
# 6 -0.000006 -0.000008 -0.000001 0.164499 -0.000004 -0.260992
#
#
# Mechanical properties :
#
#
# Convention : Reuss Voigt Hill
#
# Bulk Modulus (GPa) = 20.09559 26.62009 23.35784
# Shear Modulus (GPa) = -24.62938 24.82185 0.09623
#
# Velocity S-wave (km/s) = -3.45790 3.47138 0.21615
# Velocity P-wave (km/s) = 2.48732 5.38432 3.37669
#
# Compressibility (1/GPa) = 0.04976215
#
# Stress axis : x y z
#
# Youngs Moduli (GPa) = 45.62430 48.38097 95.17746
#
# Poissons Ratio (x) = -0.02643 0.43443
# Poissons Ratio (y) = -0.02493 -0.22387
# Poissons Ratio (z) = 0.20825 -0.11380
#
# Static dielectric constant tensor:
#      x y z
#    x 1.720320 0.000000 -0.016260 
#    y 0.000000 1.779950 0.000000 
#    z -0.016260 0.000000 1.730150 
# 
# From -- ./inp_files/319926.got.cif
#   From: 2010.05.17/outbox.cif.g08.bks.cpg/sg12_160_cif.got.tgz:319926.got - 2010.06.03 13:09:07.
