data_PCOD9186874
_publ_section_title
;
Structure prediction by ZEFSAII (Michael W. Deem and Ramdas Pophale) SiO2 
 PCOD9186874
Probable space group: C 2/M
;
_chemical_formula_sum "Si O2"
_cell_formula_units_Z 56
_cell_length_a 8.793300
_cell_length_b 22.460964
_cell_length_c 29.967408
_cell_angle_alpha 90.000000
_cell_angle_beta 146.496943
_cell_angle_gamma 90.000000
_cell_volume 3267.036348
_symmetry_space_group_name_H-M "C 2/M"
_symmetry_group_IT_number 12
_symmetry_cell_setting 'monoclinic'
loop_
_space_group_symop_operation_xyz
x,y,z
-x,y,-z
-x,-y,-z
x,-y,z
1/2+x,1/2+y,z
1/2-x,1/2+y,-z
1/2-x,1/2-y,-z
1/2+x,1/2-y,z
loop_
_atom_site_type_symbol
_atom_site_label
_atom_site_fract_x
_atom_site_fract_y
_atom_site_fract_z
Si Si1 0.451426 0.500000 0.624296
Si Si2 0.085555 0.705119 0.167117
Si Si3 0.314543 0.627422 0.297833
Si Si4 0.402892 0.000000 0.550800
Si Si5 0.048544 0.726257 0.059161
Si Si6 0.366488 0.796840 0.422614
Si Si7 0.825696 0.627544 0.572600
Si Si8 0.013911 0.694581 0.300797
O O1 0.621867 0.559038 0.677405
O O2 0.180874 0.500000 0.589495
O O3 0.343103 0.500000 0.546448
O O4 0.191202 0.648558 0.220468
O O5 0.142274 0.696336 0.128390
O O6 0.252746 0.764065 0.225046
O O7 0.769874 0.722139 0.101464
O O8 0.606799 0.661991 0.372110
O O9 0.103186 0.652492 0.282569
O O10 0.390726 0.058884 0.577921
O O11 0.000000 0.692712 0.000000
O O12 0.750000 0.750000 0.000000
O O13 0.500000 0.772750 0.500000
O O14 0.581065 0.835957 0.447904
O O15 0.255945 0.743053 0.366164
O O16 0.500000 0.632296 0.500000
O O17 0.988395 0.656461 0.654237
#
# Coordination Sequence:
#
# PCOD9186874 Si02
#       8
#     4   8   8   4   8   8   8   8
#     4  11  22  38  58  72 100 149 209 240 287 318
#     4  10  19  35  56  86 124 144 171 223 274 336
#     4  11  22  36  55  76 108 151 188 231 280 325
#     4  11  23  40  54  70  98 146 206 271 274 313
#     4   9  18  33  58  90 121 145 169 202 266 343
#     4  11  21  35  52  73 104 142 187 231 288 347
#     4  12  24  36  53  74 101 144 196 246 289 319
#     4  11  23  34  52  80 113 146 175 231 292 336
#
# _framework density 17.140917000000002
#
# number of rings (size 3 to 8) (size 9 to 14) (size 15 to 20)
#    0.000    1.286    2.857    4.929    2.000    2.286 
#    0.000    0.000    0.000    0.000    0.000    5.000 
#    0.000    0.143    0.000    0.000    0.000    0.000 
#
# Total GULP energy -156267.248059 kJ/mol
# GULP energy per Si atom -5580.973145 kJ/mol
# Density = 1.710190 g / cm^3
# Si number density = 17.140917 Si / 1000 Ang^3
#
#
#
# Elastic Constant Matrix: (Units=GPa)
#
#
# Indices 1 2 3 4 5 6 
#
# 1 78.4971 24.8174 27.6119 0.0008 -11.8058 -0.0009
# 2 24.8174 116.9780 30.7390 0.0011 -10.4683 -0.0003
# 3 27.6119 30.7390 76.0848 0.0042 -12.4138 -0.0020
# 4 0.0008 0.0011 0.0042 3.7939 0.0006 6.4454
# 5 -11.8058 -10.4683 -12.4138 0.0006 41.2338 -0.0001
# 6 -0.0009 -0.0003 -0.0020 6.4454 -0.0001 20.7290
#
#
#
# Elastic Compliance Matrix: (Units=1/GPa)
#
#
# Indices 1 2 3 4 5 6 
#
# 1 0.015249 -0.001858 -0.004362 0.000003 0.002581 -0.000001
# 2 -0.001858 0.009860 -0.003142 0.000003 0.001025 -0.000001
# 3 -0.004362 -0.003142 0.016471 -0.000041 0.002912 0.000014
# 4 0.000003 0.000003 -0.000041 0.558739 -0.000019 -0.173733
# 5 0.002581 0.001025 0.002912 -0.000019 0.026128 0.000007
# 6 -0.000001 -0.000001 0.000014 -0.173733 0.000007 0.102261
#
#
# Mechanical properties :
#
#
# Convention : Reuss Voigt Hill
#
# Bulk Modulus (GPa) = 43.75262 48.65515 46.20389
# Shear Modulus (GPa) = 6.62206 25.71078 16.16642
#
# Velocity S-wave (km/s) = 1.96766 3.87714 3.07440
# Velocity P-wave (km/s) = 5.54463 6.96347 6.29416
#
# Compressibility (1/GPa) = 0.02285577
#
# Stress axis : x y z
#
# Youngs Moduli (GPa) = 65.57626 101.41784 60.71301
#
# Poissons Ratio (x) = 0.18843 0.26486
# Poissons Ratio (y) = 0.12183 0.19076
# Poissons Ratio (z) = 0.28607 0.31866
#
# Static dielectric constant tensor:
#      x y z
#    x 1.613220 0.000000 -0.022400 
#    y 0.000000 1.553410 0.000000 
#    z -0.022400 0.000000 1.621020 
# 
# From -- ./inp_files/302101.got.cif
#   From: 2010.05.17/outbox.cif.g08.bks.cpg/sg12_152_cif.got.tgz:302101.got - 2010.06.03 13:09:07.
