data_PCOD9186432
_publ_section_title
;
Structure prediction by ZEFSAII (Michael W. Deem and Ramdas Pophale) SiO2 
 PCOD9186432
Probable space group: C 2/M
;
_chemical_formula_sum "Si O2"
_cell_formula_units_Z 38
_cell_length_a 12.567875
_cell_length_b 26.670027
_cell_length_c 8.055214
_cell_angle_alpha 90.000000
_cell_angle_beta 35.754024
_cell_angle_gamma 90.000000
_cell_volume 1577.623000
_symmetry_space_group_name_H-M "C 2/M"
_symmetry_group_IT_number 12
_symmetry_cell_setting 'monoclinic'
loop_
_space_group_symop_operation_xyz
x,y,z
-x,y,-z
-x,-y,-z
x,-y,z
1/2+x,1/2+y,z
1/2-x,1/2+y,-z
1/2-x,1/2-y,-z
1/2+x,1/2-y,z
loop_
_atom_site_type_symbol
_atom_site_label
_atom_site_fract_x
_atom_site_fract_y
_atom_site_fract_z
Si Si1 0.626299 0.186082 0.505599
Si Si2 0.216470 0.427827 0.417650
Si Si3 0.000000 0.854132 0.500000
Si Si4 0.500000 0.000000 0.500000
Si Si5 0.045327 0.054575 0.211503
Si Si6 0.191979 0.726871 0.893061
O O1 0.500000 0.182703 0.500000
O O2 0.700646 0.131352 0.445018
O O3 0.778871 0.226729 0.267292
O O4 0.502499 0.203721 0.815708
O O5 0.333160 0.444912 0.427366
O O6 0.032718 0.456258 0.603417
O O7 0.337135 0.443142 0.104701
O O8 0.075172 0.893716 0.270055
O O9 0.163977 0.816523 0.338440
O O10 0.091303 0.000000 0.228379
O O11 0.250000 0.750000 0.000000
#
# Coordination Sequence:
#
# PCOD9186432 Si02
#       6
#     8   8   4   2   8   8
#     4  10  19  34  63  90 125 164 214 268 321 388
#     4  11  22  39  69  93 127 169 226 267 320 385
#     4  12  23  37  68  88 133 181 206 268 340 378
#     4  12  20  36  68  98 118 170 210 280 316 366
#     4  11  23  43  61  96 131 171 222 269 315 396
#     4  10  19  36  61  92 126 169 215 264 326 393
#
# _framework density 24.086869
#
# number of rings (size 3 to 8) (size 9 to 14) (size 15 to 20)
#    0.000    1.263    6.316    3.474    0.000    0.000 
#    0.000    2.105    4.632    2.526    0.000    0.000 
#    0.000    0.000    0.000    0.000    0.000    0.000 
#
# Total GULP energy -105951.525011 kJ/mol
# GULP energy per Si atom -5576.396053 kJ/mol
# Density = 2.403205 g / cm^3
# Si number density = 24.086869 Si / 1000 Ang^3
#
#
#
# Elastic Constant Matrix: (Units=GPa)
#
#
# Indices 1 2 3 4 5 6 
#
# 1 34.6223 16.9637 -10.1676 0.0000 -14.3634 0.0000
# 2 16.9637 260.7731 57.2743 0.0000 -9.7959 0.0000
# 3 -10.1676 57.2743 95.7985 0.0000 2.4994 0.0000
# 4 0.0000 0.0000 0.0000 65.9200 0.0000 12.3385
# 5 -14.3634 -9.7959 2.4994 0.0000 27.4063 0.0000
# 6 0.0000 0.0000 0.0000 12.3385 0.0000 -0.0347
#
#
#
# Elastic Compliance Matrix: (Units=1/GPa)
#
#
# Indices 1 2 3 4 5 6 
#
# 1 0.040101 -0.003113 0.005611 0.000000 0.019393 0.000000
# 2 -0.003113 0.004749 -0.003179 0.000000 0.000356 0.000000
# 3 0.005611 -0.003179 0.012918 0.000000 0.000626 0.000000
# 4 0.000000 0.000000 0.000000 0.000224 0.000000 0.079848
# 5 0.019393 0.000356 0.000626 0.000000 0.046722 0.000000
# 6 0.000000 0.000000 0.000000 0.079848 0.000000 -0.426595
#
#
# Mechanical properties :
#
#
# Convention : Reuss Voigt Hill
#
# Bulk Modulus (GPa) = 17.72807 57.70385 37.71596
# Shear Modulus (GPa) = -16.57176 40.46656 11.94740
#
# Velocity S-wave (km/s) = -2.62582 4.10326 2.22955
# Velocity P-wave (km/s) = 1.34804 6.81598 4.72442
#
# Compressibility (1/GPa) = 0.05640771
#
# Stress axis : x y z
#
# Youngs Moduli (GPa) = 24.93691 210.58153 77.41011
#
# Poissons Ratio (x) = 0.65544 -0.43435
# Poissons Ratio (y) = 0.07762 0.24607
# Poissons Ratio (z) = -0.13992 0.66938
#
# Static dielectric constant tensor:
#      x y z
#    x 2.212160 0.000000 -0.100960 
#    y 0.000000 1.905840 0.000000 
#    z -0.100960 0.000000 1.994580 
# 
# From -- ./inp_files/65113.got.cif
#   From: 2010.05.17/outbox.cif.g08.bks.cpg/sg12_33_cif.got.tgz:65113.got - 2010.06.03 13:09:07.
