data_PCOD9186470
_publ_section_title
;
Structure prediction by ZEFSAII (Michael W. Deem and Ramdas Pophale) SiO2 
 PCOD9186470
Probable space group: C 2/M
;
_chemical_formula_sum "Si O2"
_cell_formula_units_Z 48
_cell_length_a 14.487937
_cell_length_b 19.044200
_cell_length_c 12.435930
_cell_angle_alpha 90.000000
_cell_angle_beta 43.195788
_cell_angle_gamma 90.000000
_cell_volume 2348.642359
_symmetry_space_group_name_H-M "C 2/M"
_symmetry_group_IT_number 12
_symmetry_cell_setting 'monoclinic'
loop_
_space_group_symop_operation_xyz
x,y,z
-x,y,-z
-x,-y,-z
x,-y,z
1/2+x,1/2+y,z
1/2-x,1/2+y,-z
1/2-x,1/2-y,-z
1/2+x,1/2-y,z
loop_
_atom_site_type_symbol
_atom_site_label
_atom_site_fract_x
_atom_site_fract_y
_atom_site_fract_z
Si Si1 0.885520 0.662410 0.389631
Si Si2 0.362687 0.080998 0.185915
Si Si3 0.092834 0.826506 0.676082
Si Si4 0.093091 0.241443 0.009020
Si Si5 0.674225 0.155130 0.136173
Si Si6 0.647802 0.582380 0.187345
O O1 0.870381 0.631499 0.281724
O O2 0.895273 0.747663 0.382911
O O3 0.742651 0.644491 0.564273
O O4 0.030212 0.633629 0.306446
O O5 0.243070 0.102501 0.206642
O O6 0.338322 0.000000 0.242597
O O7 0.500000 0.078007 0.000000
O O8 0.011944 0.815186 0.854828
O O9 0.990587 0.874169 0.695058
O O10 0.132554 0.292881 0.072616
O O11 0.230894 0.200760 0.865909
O O12 0.000000 0.277540 0.000000
O O13 0.765229 0.099008 0.994959
O O14 0.621099 0.500000 0.215640
#
# Coordination Sequence:
#
# PCOD9186470 Si02
#       6
#     8   8   8   8   8   8
#     4  10  19  35  51  75 117 147 187 236 277 341
#     4  10  20  33  56  88 117 151 190 231 288 353
#     4   9  21  35  50  76 111 152 190 233 283 332
#     4   9  18  33  55  77 106 141 191 237 278 331
#     4   9  18  31  53  80 104 144 187 228 286 330
#     4  10  20  35  53  81 116 148 192 234 279 350
#
# _framework density 20.437339000000001
#
# number of rings (size 3 to 8) (size 9 to 14) (size 15 to 20)
#    0.000    2.500    1.667    1.000    4.667    1.333 
#    0.000    2.500    0.000    8.000    0.000    0.000 
#    0.000   12.000    0.000    0.000    0.000    0.000 
#
# Total GULP energy -133653.013154 kJ/mol
# GULP energy per Si atom -5568.875548 kJ/mol
# Density = 2.039082 g / cm^3
# Si number density = 20.437339 Si / 1000 Ang^3
#
#
#
# Elastic Constant Matrix: (Units=GPa)
#
#
# Indices 1 2 3 4 5 6 
#
# 1 78.0010 36.2068 18.1874 0.0000 -36.0462 -0.0001
# 2 36.2068 63.8319 21.0654 0.0001 -15.9601 0.0000
# 3 18.1874 21.0654 91.9784 0.0000 -43.2472 0.0000
# 4 0.0000 0.0001 0.0000 10.1262 0.0000 -10.8179
# 5 -36.0462 -15.9601 -43.2472 0.0000 35.0440 0.0000
# 6 -0.0001 0.0000 0.0000 -10.8179 0.0000 27.3936
#
#
#
# Elastic Compliance Matrix: (Units=1/GPa)
#
#
# Indices 1 2 3 4 5 6 
#
# 1 0.064877 -0.023789 0.045033 0.000000 0.111473 0.000000
# 2 -0.023789 0.026418 -0.017140 0.000000 -0.033591 0.000000
# 3 0.045033 -0.017140 0.057183 0.000000 0.109084 0.000000
# 4 0.000000 0.000000 0.000000 0.170818 -0.000001 0.067457
# 5 0.111473 -0.033591 0.109084 -0.000001 0.262517 0.000000
# 6 0.000000 0.000000 0.000000 0.067457 0.000000 0.063144
#
#
# Mechanical properties :
#
#
# Convention : Reuss Voigt Hill
#
# Bulk Modulus (GPa) = 6.38224 42.74781 24.56502
# Shear Modulus (GPa) = 7.25713 25.06954 16.16334
#
# Velocity S-wave (km/s) = 1.88643 3.50616 2.81530
# Velocity P-wave (km/s) = 2.80614 6.11170 4.75538
#
# Compressibility (1/GPa) = 0.15668486
#
# Stress axis : x y z
#
# Youngs Moduli (GPa) = 15.41375 37.85347 17.48773
#
# Poissons Ratio (x) = 0.90051 -0.78753
# Poissons Ratio (y) = 0.36668 0.29975
# Poissons Ratio (z) = -0.69413 0.64883
#
# Static dielectric constant tensor:
#      x y z
#    x 1.792360 0.000000 -0.004040 
#    y 0.000000 1.751060 0.000000 
#    z -0.004040 0.000000 1.818920 
# 
# From -- ./inp_files/217382.got.cif
#   From: 2010.05.17/outbox.cif.g08.bks.cpg/sg12_109_cif.got.tgz:217382.got - 2010.06.03 13:09:07.
