data_PCOD9186228
_publ_section_title
;
Structure prediction by ZEFSAII (Michael W. Deem and Ramdas Pophale) SiO2 
 PCOD9186228
Probable space group: C 2/M
;
_chemical_formula_sum "Si O2"
_cell_formula_units_Z 64
_cell_length_a 18.155030
_cell_length_b 20.399097
_cell_length_c 9.103511
_cell_angle_alpha 90.000000
_cell_angle_beta 86.341817
_cell_angle_gamma 90.000000
_cell_volume 3364.581373
_symmetry_space_group_name_H-M "C 2/M"
_symmetry_group_IT_number 12
_symmetry_cell_setting 'monoclinic'
loop_
_space_group_symop_operation_xyz
x,y,z
-x,y,-z
-x,-y,-z
x,-y,z
1/2+x,1/2+y,z
1/2-x,1/2+y,-z
1/2-x,1/2-y,-z
1/2+x,1/2-y,z
loop_
_atom_site_type_symbol
_atom_site_label
_atom_site_fract_x
_atom_site_fract_y
_atom_site_fract_z
Si Si1 0.676607 0.749093 0.833314
Si Si2 0.813646 0.427575 0.332379
Si Si3 0.072483 0.686018 0.259097
Si Si4 0.931405 0.815720 0.920909
Si Si5 0.325080 0.206584 0.478072
Si Si6 0.214749 0.349693 0.074058
Si Si7 0.027811 0.423756 0.828109
Si Si8 0.317862 0.572702 0.879165
O O1 0.644389 0.768661 0.682581
O O2 0.741315 0.695637 0.816096
O O3 0.617632 0.718252 0.947938
O O4 0.711078 0.809262 0.920805
O O5 0.823146 0.500000 0.397661
O O6 0.809371 0.369933 0.450395
O O7 0.883961 0.419125 0.212531
O O8 0.738344 0.426645 0.249809
O O9 0.048458 0.754240 0.185467
O O10 0.115151 0.707966 0.400608
O O11 0.133506 0.648469 0.149326
O O12 0.008532 0.631606 0.271291
O O13 0.879692 0.871307 0.857682
O O14 0.000000 0.844981 0.000000
O O15 0.250000 0.250000 0.500000
O O16 0.264841 0.411134 0.025968
O O17 0.007405 0.500000 0.797908
O O18 0.000000 0.411241 0.000000
O O19 0.349778 0.500000 0.889202
#
# Coordination Sequence:
#
# PCOD9186228 Si02
#       8
#     8   8   8   8   8   8   8   8
#     4   9  18  33  55  77 114 145 180 235 289 329
#     4  10  22  39  58  83 118 156 189 233 289 344
#     4  11  22  33  57  86 117 152 191 234 279 339
#     4  10  22  38  57  85 116 145 184 239 293 338
#     4  12  22  36  57  86 116 153 198 239 279 333
#     4   9  16  33  54  80 109 146 184 235 285 328
#     4  10  22  39  59  86 120 157 196 236 285 350
#     4  10  19  34  60  84 106 144 192 233 285 342
#
# _framework density 19.021682999999999
#
# number of rings (size 3 to 8) (size 9 to 14) (size 15 to 20)
#    0.000    1.875    2.500    2.625    3.500    2.750 
#    0.000    1.250    0.000    0.000    0.000    0.000 
#    0.000    5.250    0.000    0.000    0.000    0.000 
#
# Total GULP energy -178339.322424 kJ/mol
# GULP energy per Si atom -5573.103826 kJ/mol
# Density = 1.897839 g / cm^3
# Si number density = 19.021683 Si / 1000 Ang^3
#
#
#
# Elastic Constant Matrix: (Units=GPa)
#
#
# Indices 1 2 3 4 5 6 
#
# 1 82.2610 42.2595 15.3673 0.0000 21.8248 0.0000
# 2 42.2595 110.1625 21.6868 0.0000 7.3042 0.0000
# 3 15.3673 21.6868 52.8150 0.0000 20.0593 0.0000
# 4 0.0000 0.0000 0.0000 25.1068 0.0000 3.7149
# 5 21.8248 7.3042 20.0593 0.0000 21.4474 0.0000
# 6 0.0000 0.0000 0.0000 3.7149 0.0000 27.4881
#
#
#
# Elastic Compliance Matrix: (Units=1/GPa)
#
#
# Indices 1 2 3 4 5 6 
#
# 1 0.021855 -0.007997 0.006726 0.000000 -0.025807 0.000000
# 2 -0.007997 0.012808 -0.006772 0.000000 0.010109 0.000000
# 3 0.006726 -0.006772 0.033316 0.000000 -0.035698 0.000000
# 4 0.000000 0.000000 0.000000 0.040642 0.000000 -0.005493
# 5 -0.025807 0.010109 -0.035698 0.000000 0.102831 0.000000
# 6 0.000000 0.000000 0.000000 -0.005493 0.000000 0.037122
#
#
# Mechanical properties :
#
#
# Convention : Reuss Voigt Hill
#
# Bulk Modulus (GPa) = 19.27024 44.87399 32.07211
# Shear Modulus (GPa) = 17.73319 25.87012 21.80165
#
# Velocity S-wave (km/s) = 3.05661 3.69186 3.38915
# Velocity P-wave (km/s) = 4.75498 6.46648 5.67561
#
# Compressibility (1/GPa) = 0.05189350
#
# Stress axis : x y z
#
# Youngs Moduli (GPa) = 45.75628 78.07606 30.01583
#
# Poissons Ratio (x) = 0.62436 -0.20189
# Poissons Ratio (y) = 0.36590 0.20327
# Poissons Ratio (z) = -0.30776 0.52873
#
# Static dielectric constant tensor:
#      x y z
#    x 1.739900 0.000000 -0.018350 
#    y 0.000000 1.704820 0.000000 
#    z -0.018350 0.000000 1.701700 
# 
# From -- ./inp_files/77495.got.cif
#   From: 2010.05.17/outbox.cif.g08.bks.cpg/sg12_39_cif.got.tgz:77495.got - 2010.06.03 13:09:07.
