data_PCOD9186763
_publ_section_title
;
Structure prediction by ZEFSAII (Michael W. Deem and Ramdas Pophale) SiO2 
 PCOD9186763
Probable space group: C 2/M
;
_chemical_formula_sum "Si O2"
_cell_formula_units_Z 48
_cell_length_a 14.588358
_cell_length_b 8.600134
_cell_length_c 21.769964
_cell_angle_alpha 90.000000
_cell_angle_beta 88.982538
_cell_angle_gamma 90.000000
_cell_volume 2730.868957
_symmetry_space_group_name_H-M "C 2/M"
_symmetry_group_IT_number 12
_symmetry_cell_setting 'monoclinic'
loop_
_space_group_symop_operation_xyz
x,y,z
-x,y,-z
-x,-y,-z
x,-y,z
1/2+x,1/2+y,z
1/2-x,1/2+y,-z
1/2-x,1/2-y,-z
1/2+x,1/2-y,z
loop_
_atom_site_type_symbol
_atom_site_label
_atom_site_fract_x
_atom_site_fract_y
_atom_site_fract_z
Si Si1 0.599477 0.311265 0.667580
Si Si2 0.747129 0.314034 0.098753
Si Si3 0.110143 0.812892 0.334035
Si Si4 0.605364 0.812214 0.005366
Si Si5 0.747427 0.686555 0.764420
Si Si6 0.748725 0.186768 0.431364
O O1 0.597217 0.500000 0.667652
O O2 0.494997 0.257767 0.666936
O O3 0.656799 0.263990 0.727238
O O4 0.660668 0.264525 0.608206
O O5 0.745917 0.500000 0.103132
O O6 0.833269 0.267909 0.054531
O O7 0.753898 0.243043 0.166021
O O8 0.656952 0.257218 0.063626
O O9 0.166963 0.754430 0.274512
O O10 0.163205 0.749482 0.393012
O O11 0.111713 0.000000 0.335288
O O12 0.607458 0.000000 0.010204
O O13 0.500000 0.762964 0.000000
O O14 0.752506 0.500000 0.762281
O O15 0.750000 0.250000 0.500000
O O16 0.745659 0.000000 0.431982
#
# Coordination Sequence:
#
# PCOD9186763 Si02
#       6
#     8   8   8   8   8   8
#     4   8  18  35  54  74 102 137 171 207 254 307
#     4  10  20  34  53  78 105 135 172 212 255 305
#     4  10  19  35  56  78 102 133 173 216 257 302
#     4   9  19  36  55  76 104 136 171 213 258 302
#     4  10  20  36  54  75 105 139 171 209 256 306
#     4  10  20  36  54  77 106 138 172 209 255 305
#
# _framework density 17.576822
#
# number of rings (size 3 to 8) (size 9 to 14) (size 15 to 20)
#    0.000    2.500    0.000    3.000    0.000    3.000 
#    0.000   16.667    0.000    0.000    0.000    0.000 
#    0.000    0.000    0.000    0.000    0.000    0.000 
#
# Total GULP energy -133901.126705 kJ/mol
# GULP energy per Si atom -5579.213613 kJ/mol
# Density = 1.753682 g / cm^3
# Si number density = 17.576822 Si / 1000 Ang^3
#
#
#
# Elastic Constant Matrix: (Units=GPa)
#
#
# Indices 1 2 3 4 5 6 
#
# 1 188.5502 39.8558 94.5744 0.0000 9.3301 0.0000
# 2 39.8558 47.3786 44.9526 0.0000 2.9083 0.0000
# 3 94.5744 44.9526 181.3248 0.0000 8.6028 0.0000
# 4 0.0000 0.0000 0.0000 31.7731 0.0000 3.9392
# 5 9.3301 2.9083 8.6028 0.0000 6.2788 0.0000
# 6 0.0000 0.0000 0.0000 3.9392 0.0000 24.2501
#
#
#
# Elastic Compliance Matrix: (Units=1/GPa)
#
#
# Indices 1 2 3 4 5 6 
#
# 1 0.007792 -0.003401 -0.002937 0.000000 -0.005979 0.000000
# 2 -0.003401 0.029161 -0.005406 0.000000 -0.001047 0.000000
# 3 -0.002937 -0.005406 0.008622 0.000000 -0.004944 0.000000
# 4 0.000000 0.000000 0.000000 0.032120 0.000000 -0.005218
# 5 -0.005979 -0.001047 -0.004944 0.000000 0.175410 0.000000
# 6 0.000000 0.000000 0.000000 -0.005218 0.000000 0.042084
#
#
# Mechanical properties :
#
#
# Convention : Reuss Voigt Hill
#
# Bulk Modulus (GPa) = 45.27666 86.22436 65.75051
# Shear Modulus (GPa) = 15.33563 28.31845 21.82704
#
# Velocity S-wave (km/s) = 2.95700 4.01824 3.52775
# Velocity P-wave (km/s) = 6.12158 8.40776 7.35405
#
# Compressibility (1/GPa) = 0.02208643
#
# Stress axis : x y z
#
# Youngs Moduli (GPa) = 128.34445 34.29282 115.98656
#
# Poissons Ratio (x) = 0.11662 0.34067
# Poissons Ratio (y) = 0.43645 0.62701
# Poissons Ratio (z) = 0.37697 0.18538
#
# Static dielectric constant tensor:
#      x y z
#    x 1.593480 0.000000 -0.005380 
#    y 0.000000 1.597800 0.000000 
#    z -0.005380 0.000000 1.565380 
# 
# From -- ./inp_files/307984.got.cif
#   From: 2010.05.17/outbox.cif.g08.bks.cpg/sg12_154_cif.got.tgz:307984.got - 2010.06.03 13:09:07.
