data_PCOD9186301
_publ_section_title
;
Structure prediction by ZEFSAII (Michael W. Deem and Ramdas Pophale) SiO2 
 PCOD9186301
Probable space group: C 2/M
;
_chemical_formula_sum "Si O2"
_cell_formula_units_Z 48
_cell_length_a 9.110050
_cell_length_b 15.463122
_cell_length_c 26.772416
_cell_angle_alpha 90.000000
_cell_angle_beta 39.699086
_cell_angle_gamma 90.000000
_cell_volume 2409.018804
_symmetry_space_group_name_H-M "C 2/M"
_symmetry_group_IT_number 12
_symmetry_cell_setting 'monoclinic'
loop_
_space_group_symop_operation_xyz
x,y,z
-x,y,-z
-x,-y,-z
x,-y,z
1/2+x,1/2+y,z
1/2-x,1/2+y,-z
1/2-x,1/2-y,-z
1/2+x,1/2-y,z
loop_
_atom_site_type_symbol
_atom_site_label
_atom_site_fract_x
_atom_site_fract_y
_atom_site_fract_z
Si Si1 0.568280 0.152581 0.331129
Si Si2 0.573084 0.901013 0.830001
Si Si3 0.064680 0.097055 0.176128
Si Si4 0.723159 0.344023 0.326879
Si Si5 0.329379 0.656163 0.498027
Si Si6 0.764064 0.756567 0.937818
O O1 0.652712 0.247693 0.326926
O O2 0.417953 0.159127 0.319372
O O3 0.398334 0.114962 0.418360
O O4 0.801030 0.100601 0.262313
O O5 0.764842 0.880364 0.822363
O O6 0.684750 0.891746 0.746051
O O7 0.368894 0.831881 0.888435
O O8 0.498229 0.000000 0.857240
O O9 0.094297 0.166448 0.124602
O O10 0.123280 0.000000 0.144307
O O11 0.491131 0.383177 0.412696
O O12 0.500000 0.668784 0.500000
O O13 0.250000 0.750000 0.500000
O O14 0.500000 0.775831 0.000000
O O15 0.750000 0.750000 0.000000
#
# Coordination Sequence:
#
# PCOD9186301 Si02
#       6
#     8   8   8   8   8   8
#     4  10  19  34  60  90 126 169 212 255 307 363
#     4  11  25  44  65  95 130 164 205 258 313 371
#     4  11  25  44  66  94 129 167 206 253 313 377
#     4  10  19  34  60  90 127 168 211 257 307 361
#     4   8  16  30  51  86 123 163 211 256 298 355
#     4  12  26  46  71  94 120 159 205 255 314 376
#
# _framework density 19.925125999999999
#
# number of rings (size 3 to 8) (size 9 to 14) (size 15 to 20)
#    0.000    1.667    3.333    1.000    2.333    3.333 
#    0.000    0.833    0.000    5.000    0.000    0.000 
#    0.000    0.000    0.000    0.000    0.000    0.000 
#
# Total GULP energy -133773.777861 kJ/mol
# GULP energy per Si atom -5573.907411 kJ/mol
# Density = 1.987978 g / cm^3
# Si number density = 19.925126 Si / 1000 Ang^3
#
#
#
# Elastic Constant Matrix: (Units=GPa)
#
#
# Indices 1 2 3 4 5 6 
#
# 1 -53.4285 -40.1385 -46.3947 0.0001 25.3425 -0.0011
# 2 -40.1385 59.1116 10.5623 -0.0010 14.0253 0.0002
# 3 -46.3947 10.5623 100.0734 -0.0014 18.0995 0.0005
# 4 0.0001 -0.0010 -0.0014 -14.3890 -0.0015 -5.8240
# 5 25.3425 14.0253 18.0995 -0.0015 36.9493 0.0001
# 6 -0.0011 0.0002 0.0005 -5.8240 0.0001 19.4886
#
#
#
# Elastic Compliance Matrix: (Units=1/GPa)
#
#
# Indices 1 2 3 4 5 6 
#
# 1 -0.006641 -0.005866 -0.004045 0.000000 0.008763 0.000000
# 2 -0.005866 0.013462 -0.004327 0.000000 0.001033 -0.000001
# 3 -0.004045 -0.004327 0.008531 0.000000 0.000238 0.000000
# 4 0.000000 0.000000 0.000000 -0.061998 -0.000002 -0.018528
# 5 0.008763 0.001033 0.000238 -0.000002 0.020545 0.000000
# 6 0.000000 -0.000001 0.000000 -0.018528 0.000000 0.045775
#
#
# Mechanical properties :
#
#
# Convention : Reuss Voigt Hill
#
# Bulk Modulus (GPa) = -76.19979 -5.13168 -40.66573
# Shear Modulus (GPa) = 114.21951 20.52496 67.37224
#
# Velocity S-wave (km/s) = 7.57950 3.21301 5.82118
# Velocity P-wave (km/s) = 6.18646 3.34417 4.97272
#
# Compressibility (1/GPa) = -0.01312340
#
# Stress axis : x y z
#
# Youngs Moduli (GPa) = -150.57595 74.28267 117.21549
#
# Poissons Ratio (x) = 0.43574 0.47409
# Poissons Ratio (y) = -0.88328 0.50722
# Poissons Ratio (z) = -0.60902 0.32144
#
# Static dielectric constant tensor:
#      x y z
#    x 1.674290 0.000000 -0.002840 
#    y 0.000000 1.698550 -0.000010 
#    z -0.002840 -0.000010 1.764060 
# 
# From -- ./inp_files/372327.got.cif
#   From: 2010.05.17/outbox.cif.g08.bks.cpg/sg12_187_cif.got.tgz:372327.got - 2010.06.03 13:09:07.
