data_PCOD9186976
_publ_section_title
;
Structure prediction by ZEFSAII (Michael W. Deem and Ramdas Pophale) SiO2 
 PCOD9186976
Probable space group: C 2/M
;
_chemical_formula_sum "Si O2"
_cell_formula_units_Z 48
_cell_length_a 17.205891
_cell_length_b 14.012456
_cell_length_c 25.643179
_cell_angle_alpha 90.000000
_cell_angle_beta 25.802720
_cell_angle_gamma 90.000000
_cell_volume 2691.075359
_symmetry_space_group_name_H-M "C 2/M"
_symmetry_group_IT_number 12
_symmetry_cell_setting 'monoclinic'
loop_
_space_group_symop_operation_xyz
x,y,z
-x,y,-z
-x,-y,-z
x,-y,z
1/2+x,1/2+y,z
1/2-x,1/2+y,-z
1/2-x,1/2-y,-z
1/2+x,1/2-y,z
loop_
_atom_site_type_symbol
_atom_site_label
_atom_site_fract_x
_atom_site_fract_y
_atom_site_fract_z
Si Si1 0.413383 0.613062 0.262032
Si Si2 0.204378 0.386764 0.279415
Si Si3 0.819188 0.308704 0.172332
Si Si4 0.288688 0.114586 0.075801
Si Si5 0.021658 0.895268 0.425245
Si Si6 0.677352 0.786553 0.489151
O O1 0.403374 0.500000 0.277168
O O2 0.301310 0.630525 0.276894
O O3 0.623325 0.638132 0.137676
O O4 0.322585 0.665423 0.365020
O O5 0.223510 0.500000 0.255593
O O6 0.292244 0.305689 0.189732
O O7 0.995572 0.356405 0.405818
O O8 0.752722 0.350281 0.156886
O O9 0.703937 0.355494 0.288872
O O10 0.025363 0.337560 0.052866
O O11 0.312337 0.000000 0.062697
O O12 0.000000 0.905102 0.500000
O O13 0.883352 0.812846 0.497951
O O14 0.987403 0.000000 0.422461
O O15 0.750000 0.750000 0.500000
#
# Coordination Sequence:
#
# PCOD9186976 Si02
#       6
#     8   8   8   8   8   8
#     4  10  20  35  55  79 107 143 186 225 267 322
#     4  10  21  36  54  77 108 144 180 221 270 326
#     4  10  19  35  57  81 110 141 180 226 272 317
#     4  10  20  35  58  84 108 141 185 229 269 314
#     4  10  20  34  53  78 108 138 169 213 271 326
#     4  11  21  33  53  78 105 139 179 224 272 318
#
# _framework density 17.836735000000001
#
# number of rings (size 3 to 8) (size 9 to 14) (size 15 to 20)
#    0.000    1.833    0.000    7.000    0.000    4.667 
#    0.000    1.667    0.000    1.000    0.000    0.000 
#    0.000    0.000    0.000    0.000    0.000    0.000 
#
# Total GULP energy -133670.868560 kJ/mol
# GULP energy per Si atom -5569.619523 kJ/mol
# Density = 1.779614 g / cm^3
# Si number density = 17.836735 Si / 1000 Ang^3
#
#
#
# Elastic Constant Matrix: (Units=GPa)
#
#
# Indices 1 2 3 4 5 6 
#
# 1 109.2118 99.4197 115.3265 0.0887 -10.6186 0.2301
# 2 99.4197 230.1199 167.5779 0.1312 -0.9570 0.3482
# 3 115.3265 167.5779 223.5961 0.2035 -2.8821 0.5040
# 4 0.0887 0.1312 0.2035 16.6240 -0.0069 -15.2025
# 5 -10.6186 -0.9570 -2.8821 -0.0069 29.2671 -0.0184
# 6 0.2301 0.3482 0.5040 -15.2025 -0.0184 -63.0943
#
#
#
# Elastic Compliance Matrix: (Units=1/GPa)
#
#
# Indices 1 2 3 4 5 6 
#
# 1 0.022140 -0.002832 -0.009207 0.000008 0.007034 -0.000012
# 2 -0.002832 0.009934 -0.006001 0.000006 -0.001294 -0.000004
# 3 -0.009207 -0.006001 0.013690 -0.000027 -0.002188 0.000050
# 4 0.000008 0.000006 -0.000027 0.049293 0.000005 -0.011877
# 5 0.007034 -0.001294 -0.002188 0.000005 0.036462 -0.000011
# 6 -0.000012 -0.000004 0.000050 -0.011877 -0.000011 -0.012987
#
#
# Mechanical properties :
#
#
# Convention : Reuss Voigt Hill
#
# Bulk Modulus (GPa) = 103.24748 147.50845 125.37797
# Shear Modulus (GPa) = 31.67780 8.59959 20.13870
#
# Velocity S-wave (km/s) = 4.21882 2.19812 3.36379
# Velocity P-wave (km/s) = 9.04111 9.45098 9.24832
#
# Compressibility (1/GPa) = 0.00968547
#
# Stress axis : x y z
#
# Youngs Moduli (GPa) = 45.16660 100.66728 73.04440
#
# Poissons Ratio (x) = 0.28506 0.67249
# Poissons Ratio (y) = 0.12790 0.43835
# Poissons Ratio (z) = 0.41583 0.60412
#
# Static dielectric constant tensor:
#      x y z
#    x 1.623380 -0.000010 -0.025660 
#    y -0.000010 1.549540 -0.000010 
#    z -0.025660 -0.000010 1.612910 
# 
# From -- ./inp_files/142766.got.cif
#   From: 2010.05.17/outbox.cif.g08.bks.cpg/sg12_72_cif.got.tgz:142766.got - 2010.06.03 13:09:07.
