data_PCOD9186635
_publ_section_title
;
Structure prediction by ZEFSAII (Michael W. Deem and Ramdas Pophale) SiO2 
 PCOD9186635
Probable space group: C 2/M
;
_chemical_formula_sum "Si O2"
_cell_formula_units_Z 56
_cell_length_a 27.597691
_cell_length_b 7.624240
_cell_length_c 12.238465
_cell_angle_alpha 90.000000
_cell_angle_beta 77.035806
_cell_angle_gamma 90.000000
_cell_volume 2509.474338
_symmetry_space_group_name_H-M "C 2/M"
_symmetry_group_IT_number 12
_symmetry_cell_setting 'monoclinic'
loop_
_space_group_symop_operation_xyz
x,y,z
-x,y,-z
-x,-y,-z
x,-y,z
1/2+x,1/2+y,z
1/2-x,1/2+y,-z
1/2-x,1/2-y,-z
1/2+x,1/2-y,z
loop_
_atom_site_type_symbol
_atom_site_label
_atom_site_fract_x
_atom_site_fract_y
_atom_site_fract_z
Si Si1 0.870110 0.790530 0.436095
Si Si2 0.757008 0.711161 0.123482
Si Si3 0.482946 0.288096 0.386016
Si Si4 0.443119 0.214788 0.019721
Si Si5 0.920572 0.297025 0.791222
Si Si6 0.852627 0.710914 0.204799
Si Si7 0.167763 0.202903 0.317332
O O1 0.926810 0.723884 0.398046
O O2 0.843717 0.758273 0.334791
O O3 0.843357 0.718597 0.557847
O O4 0.874602 0.000000 0.449602
O O5 0.757336 0.500000 0.131245
O O6 0.808931 0.775020 0.147729
O O7 0.711441 0.779630 0.220523
O O8 0.750000 0.750000 0.000000
O O9 0.500000 0.242309 0.500000
O O10 0.484194 0.500000 0.376248
O O11 0.523311 0.216361 0.281447
O O12 0.420269 0.270588 0.914991
O O13 0.444287 0.000000 0.018401
O O14 0.500000 0.274206 0.000000
O O15 0.406371 0.273045 0.134451
O O16 0.905387 0.500000 0.801231
O O17 0.883129 0.206730 0.726415
O O18 0.853493 0.500000 0.197889
O O19 0.181637 0.000000 0.329051
#
# Coordination Sequence:
#
# PCOD9186635 Si02
#       7
#     8   8   8   8   8   8   8
#     4  10  21  37  57  81 112 152 194 229 277 345
#     4  10  22  40  63  86 112 149 191 238 291 343
#     4  10  19  35  55  77 114 159 190 224 280 339
#     4   9  18  33  52  76 111 148 177 220 285 342
#     4  11  21  33  56  87 113 144 192 242 283 331
#     4  10  21  38  58  82 114 148 187 238 293 336
#     4  10  21  39  58  79 112 153 189 228 287 349
#
# _framework density 22.315428000000001
#
# number of rings (size 3 to 8) (size 9 to 14) (size 15 to 20)
#    0.000    2.000    1.429    2.143    0.000    5.429 
#    0.000    1.429    0.000    3.857    0.000    0.000 
#    0.000    0.000    0.000    0.000    0.000    0.000 
#
# Total GULP energy -156494.921024 kJ/mol
# GULP energy per Si atom -5589.104322 kJ/mol
# Density = 2.226464 g / cm^3
# Si number density = 22.315428 Si / 1000 Ang^3
#
#
#
# Elastic Constant Matrix: (Units=GPa)
#
#
# Indices 1 2 3 4 5 6 
#
# 1 118.4223 -0.0416 71.9578 0.0000 -4.4542 0.0000
# 2 -0.0416 43.0886 -2.1033 0.0000 -3.3446 0.0000
# 3 71.9578 -2.1033 178.1508 0.0000 -1.3298 0.0000
# 4 0.0000 0.0000 0.0000 19.0363 0.0000 2.5950
# 5 -4.4542 -3.3446 -1.3298 0.0000 42.7135 0.0000
# 6 0.0000 0.0000 0.0000 2.5950 0.0000 0.1312
#
#
#
# Elastic Compliance Matrix: (Units=1/GPa)
#
#
# Indices 1 2 3 4 5 6 
#
# 1 0.011237 -0.000131 -0.004533 0.000000 0.001020 0.000000
# 2 -0.000131 0.023366 0.000342 0.000000 0.001827 0.000000
# 3 -0.004533 0.000342 0.007446 0.000000 -0.000214 0.000000
# 4 0.000000 0.000000 0.000000 -0.030979 0.000000 0.612613
# 5 0.001020 0.001827 -0.000214 0.000000 0.023655 0.000000
# 6 0.000000 0.000000 0.000000 0.612613 0.000000 -4.493997
#
#
# Mechanical properties :
#
#
# Convention : Reuss Voigt Hill
#
# Bulk Modulus (GPa) = 29.93388 53.25417 41.59402
# Shear Modulus (GPa) = -1.12625 30.36612 14.61993
#
# Velocity S-wave (km/s) = -0.71119 3.69286 2.56236
# Velocity P-wave (km/s) = 3.57333 6.48838 5.23774
#
# Compressibility (1/GPa) = 0.03340696
#
# Stress axis : x y z
#
# Youngs Moduli (GPa) = 88.99231 42.79659 134.29145
#
# Poissons Ratio (x) = 0.00561 0.60870
# Poissons Ratio (y) = 0.01168 -0.04599
# Poissons Ratio (z) = 0.40337 -0.01466
#
# Static dielectric constant tensor:
#      x y z
#    x 1.796110 0.000000 -0.016720 
#    y 0.000000 1.834330 0.000000 
#    z -0.016720 0.000000 1.808610 
# 
# From -- ./inp_files/180690.got.cif
#   From: 2010.05.17/outbox.cif.g08.bks.cpg/sg12_91_cif.got.tgz:180690.got - 2010.06.03 13:09:07.
