data_PCOD9186380
_publ_section_title
;
Structure prediction by ZEFSAII (Michael W. Deem and Ramdas Pophale) SiO2 
 PCOD9186380
Probable space group: C 2/M
;
_chemical_formula_sum "Si O2"
_cell_formula_units_Z 56
_cell_length_a 31.999388
_cell_length_b 14.325974
_cell_length_c 13.162377
_cell_angle_alpha 90.000000
_cell_angle_beta 25.737644
_cell_angle_gamma 90.000000
_cell_volume 2620.239523
_symmetry_space_group_name_H-M "C 2/M"
_symmetry_group_IT_number 12
_symmetry_cell_setting 'monoclinic'
loop_
_space_group_symop_operation_xyz
x,y,z
-x,y,-z
-x,-y,-z
x,-y,z
1/2+x,1/2+y,z
1/2-x,1/2+y,-z
1/2-x,1/2-y,-z
1/2+x,1/2-y,z
loop_
_atom_site_type_symbol
_atom_site_label
_atom_site_fract_x
_atom_site_fract_y
_atom_site_fract_z
Si Si1 0.222939 0.388685 0.775876
Si Si2 0.688526 0.108780 0.297034
Si Si3 0.883585 0.262951 0.143858
Si Si4 0.774477 0.386709 0.006386
Si Si5 0.120986 0.107673 0.997447
Si Si6 0.448456 0.386332 0.510741
Si Si7 0.612779 0.248630 0.631166
O O1 0.230908 0.500000 0.755852
O O2 0.152475 0.349377 0.844361
O O3 0.186527 0.358651 0.968483
O O4 0.326949 0.340820 0.531037
O O5 0.801598 0.111451 0.080650
O O6 0.637938 0.171235 0.492089
O O7 0.658516 0.000000 0.369424
O O8 0.678170 0.142555 0.203522
O O9 0.844814 0.172376 0.168729
O O10 0.854982 0.272421 0.323492
O O11 0.998135 0.247967 0.889333
O O12 0.777085 0.500000 0.997340
O O13 0.662208 0.358867 0.252424
O O14 0.113938 0.000000 0.980821
O O15 0.018273 0.140256 0.265737
O O16 0.500000 0.353076 0.500000
O O17 0.449397 0.500000 0.510439
#
# Coordination Sequence:
#
# PCOD9186380 Si02
#       7
#     8   8   8   8   8   8   8
#     4  11  24  43  67  96 133 172 209 261 329 390
#     4  10  20  37  64  94 122 162 210 258 314 376
#     4  11  25  45  64  92 129 168 217 272 325 376
#     4   9  18  34  58  91 130 165 203 257 318 384
#     4  10  19  34  61  93 125 161 206 259 317 376
#     4   9  14  25  50  88 126 158 196 244 304 373
#     4  11  25  45  66  90 128 169 219 274 315 381
#
# _framework density 21.372091999999999
#
# number of rings (size 3 to 8) (size 9 to 14) (size 15 to 20)
#    0.000    1.857    2.857    1.286    0.000    4.000 
#    0.000    3.571    0.000    2.571    0.000    0.000 
#    0.000    0.000    0.000    0.000    0.000    0.000 
#
# Total GULP energy -156392.900277 kJ/mol
# GULP energy per Si atom -5585.460724 kJ/mol
# Density = 2.132345 g / cm^3
# Si number density = 21.372092 Si / 1000 Ang^3
#
#
#
# Elastic Constant Matrix: (Units=GPa)
#
#
# Indices 1 2 3 4 5 6 
#
# 1 135.5896 44.5028 38.3874 0.0000 46.6785 0.0000
# 2 44.5028 97.3553 32.9641 0.0000 27.3848 0.0000
# 3 38.3874 32.9641 61.6658 0.0000 41.7973 0.0000
# 4 0.0000 0.0000 0.0000 36.6399 0.0000 10.5222
# 5 46.6785 27.3848 41.7973 0.0000 41.0697 0.0000
# 6 0.0000 0.0000 0.0000 10.5222 0.0000 24.8904
#
#
#
# Elastic Compliance Matrix: (Units=1/GPa)
#
#
# Indices 1 2 3 4 5 6 
#
# 1 0.013338 -0.002712 0.007080 0.000000 -0.020556 0.000000
# 2 -0.002712 0.013415 -0.004865 0.000000 -0.000911 0.000000
# 3 0.007080 -0.004865 0.056949 0.000000 -0.062761 0.000000
# 4 0.000000 0.000000 0.000000 0.031064 0.000000 -0.013132
# 5 -0.020556 -0.000911 -0.062761 0.000000 0.112193 0.000000
# 6 0.000000 0.000000 0.000000 -0.013132 0.000000 0.045728
#
#
# Mechanical properties :
#
#
# Convention : Reuss Voigt Hill
#
# Bulk Modulus (GPa) = 12.09080 58.47992 35.28536
# Shear Modulus (GPa) = 16.59753 32.43711 24.51732
#
# Velocity S-wave (km/s) = 2.78977 3.90003 3.39066
# Velocity P-wave (km/s) = 4.00583 6.90670 5.64576
#
# Compressibility (1/GPa) = 0.08270750
#
# Stress axis : x y z
#
# Youngs Moduli (GPa) = 74.97618 74.54346 17.55943
#
# Poissons Ratio (x) = 0.20215 -0.12432
# Poissons Ratio (y) = 0.20333 0.08543
# Poissons Ratio (z) = -0.53083 0.36268
#
# Static dielectric constant tensor:
#      x y z
#    x 1.816960 0.000000 -0.012560 
#    y 0.000000 1.767130 0.000000 
#    z -0.012560 0.000000 1.792350 
# 
# From -- ./inp_files/189619.got.cif
#   From: 2010.05.17/outbox.cif.g08.bks.cpg/sg12_95_cif.got.tgz:189619.got - 2010.06.03 13:09:07.
