data_PCOD9186485
_publ_section_title
;
Structure prediction by ZEFSAII (Michael W. Deem and Ramdas Pophale) SiO2 
 PCOD9186485
Probable space group: C 2/M
;
_chemical_formula_sum "Si O2"
_cell_formula_units_Z 56
_cell_length_a 21.476416
_cell_length_b 24.518118
_cell_length_c 5.151499
_cell_angle_alpha 90.000000
_cell_angle_beta 102.073443
_cell_angle_gamma 90.000000
_cell_volume 2652.578540
_symmetry_space_group_name_H-M "C 2/M"
_symmetry_group_IT_number 12
_symmetry_cell_setting 'monoclinic'
loop_
_space_group_symop_operation_xyz
x,y,z
-x,y,-z
-x,-y,-z
x,-y,z
1/2+x,1/2+y,z
1/2-x,1/2+y,-z
1/2-x,1/2-y,-z
1/2+x,1/2-y,z
loop_
_atom_site_type_symbol
_atom_site_label
_atom_site_fract_x
_atom_site_fract_y
_atom_site_fract_z
Si Si1 0.370371 0.613430 0.861175
Si Si2 0.838278 0.000000 0.021452
Si Si3 0.153275 0.322081 0.744890
Si Si4 0.056834 0.806188 0.341893
Si Si5 0.314016 0.698970 0.215219
Si Si6 0.743261 0.884297 0.468061
Si Si7 0.068529 0.688573 0.158035
Si Si8 0.752359 0.000000 0.437930
O O1 0.435438 0.637873 0.808183
O O2 0.316666 0.601853 0.598599
O O3 0.375983 0.556426 0.014147
O O4 0.336649 0.662474 0.992922
O O5 0.808594 0.000000 0.278168
O O6 0.779986 0.000000 0.757762
O O7 0.190840 0.264315 0.806376
O O8 0.203274 0.365449 0.680925
O O9 0.097883 0.321450 0.470907
O O10 0.118538 0.330551 0.986602
O O11 0.123346 0.804157 0.550861
O O12 0.060443 0.754330 0.155298
O O13 0.000000 0.802527 0.500000
O O14 0.254083 0.667964 0.292208
O O15 0.716476 0.942613 0.354708
O O16 0.000000 0.666970 0.000000
#
# Coordination Sequence:
#
# PCOD9186485 Si02
#       8
#     8   4   8   8   8   8   8   4
#     4  10  20  35  56  80 111 155 193 236 290 329
#     4  10  20  36  57  75 111 152 199 236 277 336
#     4  11  23  35  57  87 118 148 182 232 283 337
#     4  10  21  35  55  80 109 151 201 237 276 336
#     4  10  19  35  52  82 115 151 183 228 294 339
#     4  10  22  35  55  85 117 147 188 232 282 344
#     4  11  22  39  57  83 114 149 187 225 279 341
#     4  10  20  36  58  80 109 157 192 228 275 332
#
# _framework density 21.111532
#
# number of rings (size 3 to 8) (size 9 to 14) (size 15 to 20)
#    0.000    1.714    2.857    2.571    2.000    0.571 
#    0.000    0.357    0.000    0.857    0.000    3.000 
#    0.000    0.000    0.000    0.000    0.000    0.000 
#
# Total GULP energy -156074.214173 kJ/mol
# GULP energy per Si atom -5574.079078 kJ/mol
# Density = 2.106348 g / cm^3
# Si number density = 21.111532 Si / 1000 Ang^3
#
#
#
# Elastic Constant Matrix: (Units=GPa)
#
#
# Indices 1 2 3 4 5 6 
#
# 1 84.3841 6.2879 10.1839 0.0000 -6.4205 0.0000
# 2 6.2879 87.5464 -10.9116 0.0000 -20.1040 0.0000
# 3 10.1839 -10.9116 63.6125 0.0000 -0.5861 0.0000
# 4 0.0000 0.0000 0.0000 27.2036 0.0000 -11.6420
# 5 -6.4205 -20.1040 -0.5861 0.0000 50.2716 0.0000
# 6 0.0000 0.0000 0.0000 -11.6420 0.0000 15.4148
#
#
#
# Elastic Compliance Matrix: (Units=1/GPa)
#
#
# Indices 1 2 3 4 5 6 
#
# 1 0.012260 -0.000868 -0.002101 0.000000 0.001194 0.000000
# 2 -0.000868 0.012956 0.002408 0.000000 0.005098 0.000000
# 3 -0.002101 0.002408 0.016478 0.000000 0.000887 0.000000
# 4 0.000000 0.000000 0.000000 0.054316 0.000000 0.041022
# 5 0.001194 0.005098 0.000887 0.000000 0.022094 0.000000
# 6 0.000000 0.000000 0.000000 0.041022 0.000000 0.095855
#
#
# Mechanical properties :
#
#
# Convention : Reuss Voigt Hill
#
# Bulk Modulus (GPa) = 24.64736 27.40705 26.02721
# Shear Modulus (GPa) = 21.87203 33.91018 27.89110
#
# Velocity S-wave (km/s) = 3.22222 4.01214 3.63868
# Velocity P-wave (km/s) = 5.05409 5.87139 5.47800
#
# Compressibility (1/GPa) = 0.04057230
#
# Stress axis : x y z
#
# Youngs Moduli (GPa) = 81.56860 77.18550 60.68793
#
# Poissons Ratio (x) = 0.06701 0.12748
# Poissons Ratio (y) = 0.07081 -0.14615
# Poissons Ratio (z) = 0.17134 -0.18588
#
# Static dielectric constant tensor:
#      x y z
#    x 1.757730 0.000000 0.063140 
#    y 0.000000 1.862770 0.000000 
#    z 0.063140 0.000000 1.900870 
# 
# From -- ./inp_files/21665.got.cif
#   From: 2010.05.17/outbox.cif.g08.bks.cpg/sg12_11_cif.got.tgz:21665.got - 2010.06.03 13:09:07.
