data_PCOD9186944
_publ_section_title
;
Structure prediction by ZEFSAII (Michael W. Deem and Ramdas Pophale) SiO2 
 PCOD9186944
Probable space group: C 2/M
;
_chemical_formula_sum "Si O2"
_cell_formula_units_Z 58
_cell_length_a 25.393919
_cell_length_b 7.442839
_cell_length_c 24.235157
_cell_angle_alpha 90.000000
_cell_angle_beta 35.675271
_cell_angle_gamma 90.000000
_cell_volume 2671.312842
_symmetry_space_group_name_H-M "C 2/M"
_symmetry_group_IT_number 12
_symmetry_cell_setting 'monoclinic'
loop_
_space_group_symop_operation_xyz
x,y,z
-x,y,-z
-x,-y,-z
x,-y,z
1/2+x,1/2+y,z
1/2-x,1/2+y,-z
1/2-x,1/2-y,-z
1/2+x,1/2-y,z
loop_
_atom_site_type_symbol
_atom_site_label
_atom_site_fract_x
_atom_site_fract_y
_atom_site_fract_z
Si Si1 0.510941 0.220568 0.738652
Si Si2 0.290514 0.214308 0.405260
Si Si3 0.500000 0.500000 0.000000
Si Si4 0.875394 0.280101 0.050204
Si Si5 0.533605 0.209300 0.346875
Si Si6 0.851630 0.218194 0.564947
Si Si7 0.842077 0.713407 0.953523
Si Si8 0.292170 0.293995 0.734535
O O1 0.606886 0.281275 0.681092
O O2 0.497092 0.278602 0.686948
O O3 0.427579 0.283240 0.846512
O O4 0.513015 0.000000 0.736232
O O5 0.250000 0.250000 0.500000
O O6 0.222823 0.282017 0.415913
O O7 0.294507 0.000000 0.394123
O O8 0.461171 0.660299 0.991695
O O9 0.888587 0.500000 0.041798
O O10 0.797498 0.222175 0.160052
O O11 0.841618 0.232213 0.017589
O O12 0.450443 0.228395 0.459758
O O13 0.624103 0.291967 0.294657
O O14 0.554346 0.000000 0.322326
O O15 0.825574 0.284775 0.648049
O O16 0.852789 0.000000 0.564429
O O17 0.853480 0.500000 0.944889
O O18 0.750000 0.750000 0.000000
O O19 0.269183 0.500000 0.741636
#
# Coordination Sequence:
#
# PCOD9186944 Si02
#       8
#     8   8   2   8   8   8   8   8
#     4   9  19  35  58  87 119 161 199 246 320 376
#     4  10  19  35  57  79 112 152 195 242 297 364
#     4  12  26  44  76  94 138 176 218 286 330 410
#     4  10  24  45  70  99 131 176 224 275 338 399
#     4  11  21  34  57  88 125 162 203 255 309 378
#     4  10  21  36  58  83 117 164 205 250 308 368
#     4  10  21  39  66  96 130 168 217 275 334 403
#     4  10  22  40  60  87 120 160 212 258 309 378
#
# _framework density 21.712168999999999
#
# number of rings (size 3 to 8) (size 9 to 14) (size 15 to 20)
#    0.000    1.931    1.379    1.862    1.931    3.310 
#    0.000    5.517    3.034    0.000    0.000    0.000 
#    0.000    0.000    0.000    0.000    0.000    0.000 
#
# Total GULP energy -161732.423566 kJ/mol
# GULP energy per Si atom -5576.980123 kJ/mol
# Density = 2.166275 g / cm^3
# Si number density = 21.712169 Si / 1000 Ang^3
#
#
#
# Elastic Constant Matrix: (Units=GPa)
#
#
# Indices 1 2 3 4 5 6 
#
# 1 63.3445 8.4848 -20.8674 -0.0055 4.4538 0.0072
# 2 8.4848 76.5884 0.9064 0.0277 3.9646 -0.0303
# 3 -20.8674 0.9064 70.9622 -0.0035 6.5246 0.0049
# 4 -0.0055 0.0277 -0.0035 6.8463 -0.0172 3.3805
# 5 4.4538 3.9646 6.5246 -0.0172 29.9592 0.0100
# 6 0.0072 -0.0303 0.0049 3.3805 0.0100 17.4035
#
#
#
# Elastic Compliance Matrix: (Units=1/GPa)
#
#
# Indices 1 2 3 4 5 6 
#
# 1 0.018181 -0.001890 0.005710 0.000023 -0.003696 -0.000015
# 2 -0.001890 0.013343 -0.000602 -0.000079 -0.001354 0.000040
# 3 0.005710 -0.000602 0.016173 0.000008 -0.004292 -0.000007
# 4 0.000023 -0.000079 0.000008 0.161560 0.000108 -0.031382
# 5 -0.003696 -0.001354 -0.004292 0.000108 0.035042 -0.000041
# 6 -0.000015 0.000040 -0.000007 -0.031382 -0.000041 0.063556
#
#
# Mechanical properties :
#
#
# Convention : Reuss Voigt Hill
#
# Bulk Modulus (GPa) = 18.47265 20.88251 19.67758
# Shear Modulus (GPa) = 15.65121 25.66656 20.65888
#
# Velocity S-wave (km/s) = 2.68778 3.44194 3.08797
# Velocity P-wave (km/s) = 4.26130 5.04328 4.66869
#
# Compressibility (1/GPa) = 0.05413407
#
# Stress axis : x y z
#
# Youngs Moduli (GPa) = 55.00259 74.94294 61.82955
#
# Poissons Ratio (x) = 0.14167 -0.35307
# Poissons Ratio (y) = 0.10398 0.03721
# Poissons Ratio (z) = -0.31408 0.04511
#
# Static dielectric constant tensor:
#      x y z
#    x 1.720350 -0.000010 -0.006070 
#    y -0.000010 1.859000 0.000000 
#    z -0.006070 0.000000 1.782930 
# 
# From -- ./inp_files/324549.got.cif
#   From: 2010.05.17/outbox.cif.g08.bks.cpg/sg12_163_cif.got.tgz:324549.got - 2010.06.03 13:09:07.
