data_PCOD9186786
_publ_section_title
;
Structure prediction by ZEFSAII (Michael W. Deem and Ramdas Pophale) SiO2 
 PCOD9186786
Probable space group: C 2/M
;
_chemical_formula_sum "Si O2"
_cell_formula_units_Z 64
_cell_length_a 20.531810
_cell_length_b 7.540023
_cell_length_c 20.245317
_cell_angle_alpha 90.000000
_cell_angle_beta 110.670867
_cell_angle_gamma 90.000000
_cell_volume 2932.416639
_symmetry_space_group_name_H-M "C 2/M"
_symmetry_group_IT_number 12
_symmetry_cell_setting 'monoclinic'
loop_
_space_group_symop_operation_xyz
x,y,z
-x,y,-z
-x,-y,-z
x,-y,z
1/2+x,1/2+y,z
1/2-x,1/2+y,-z
1/2-x,1/2-y,-z
1/2+x,1/2-y,z
loop_
_atom_site_type_symbol
_atom_site_label
_atom_site_fract_x
_atom_site_fract_y
_atom_site_fract_z
Si Si1 0.543721 0.716254 0.951419
Si Si2 0.288707 0.707412 0.350110
Si Si3 0.809280 0.802100 0.571673
Si Si4 0.939570 0.783436 0.802017
Si Si5 0.210833 0.785458 0.194195
Si Si6 0.197072 0.212509 0.039695
Si Si7 0.054236 0.783597 0.576599
Si Si8 0.956760 0.217857 0.657830
O O1 0.545609 0.500000 0.949484
O O2 0.501228 0.775012 0.872366
O O3 0.500000 0.765199 0.000000
O O4 0.621772 0.780261 0.989878
O O5 0.285764 0.500000 0.366395
O O6 0.226684 0.795689 0.369521
O O7 0.270690 0.727187 0.266498
O O8 0.365307 0.775100 0.397881
O O9 0.750000 0.750000 0.500000
O O10 0.884317 0.713131 0.600532
O O11 0.826697 0.000000 0.558165
O O12 0.864243 0.727574 0.803217
O O13 0.954844 0.725856 0.733058
O O14 0.937976 0.000000 0.801913
O O15 0.217140 0.723630 0.120522
O O16 0.211290 0.000000 0.194644
O O17 0.191189 0.000000 0.044160
O O18 0.250000 0.250000 0.000000
O O19 0.000000 0.728134 0.500000
O O20 0.020568 0.730179 0.634448
O O21 0.056353 0.000000 0.574939
O O22 0.956955 0.000000 0.659007
#
# Coordination Sequence:
#
# PCOD9186786 Si02
#       8
#     8   8   8   8   8   8   8   8
#     4   9  15  27  51  80 103 131 182 236 268 304
#     4  11  22  35  56  85 113 143 181 226 278 334
#     4  11  21  35  57  83 111 143 183 228 274 327
#     4   9  15  27  51  80 104 130 178 236 278 308
#     4  10  19  35  56  79 111 149 181 222 280 333
#     4  10  21  35  55  83 115 147 182 227 279 331
#     4   9  18  33  51  75 108 141 177 225 275 317
#     4   9  17  30  51  77 102 135 180 227 268 312
#
# _framework density 21.825002000000001
#
# number of rings (size 3 to 8) (size 9 to 14) (size 15 to 20)
#    0.000    2.250    2.500    1.500    0.000    3.500 
#    0.000    2.500    0.000    9.375    0.000    0.000 
#    0.000    0.000    0.000    0.000    0.000    0.000 
#
# Total GULP energy -178674.791185 kJ/mol
# GULP energy per Si atom -5583.587225 kJ/mol
# Density = 2.177533 g / cm^3
# Si number density = 21.825002 Si / 1000 Ang^3
#
#
#
# Elastic Constant Matrix: (Units=GPa)
#
#
# Indices 1 2 3 4 5 6 
#
# 1 77.4039 -13.2682 4.8242 0.0000 6.3612 0.0000
# 2 -13.2682 49.5845 -5.8714 0.0000 2.1541 0.0000
# 3 4.8242 -5.8714 108.8679 0.0000 4.5308 0.0000
# 4 0.0000 0.0000 0.0000 11.5775 0.0000 -7.3445
# 5 6.3612 2.1541 4.5308 0.0000 40.1775 0.0000
# 6 0.0000 0.0000 0.0000 -7.3445 0.0000 -0.9847
#
#
#
# Elastic Compliance Matrix: (Units=1/GPa)
#
#
# Indices 1 2 3 4 5 6 
#
# 1 0.013774 0.003751 -0.000310 0.000000 -0.002347 0.000000
# 2 0.003751 0.021378 0.001064 0.000000 -0.001860 0.000000
# 3 -0.000310 0.001064 0.009301 0.000000 -0.001057 0.000000
# 4 0.000000 0.000000 0.000000 0.015070 0.000000 -0.112401
# 5 -0.002347 -0.001860 -0.001057 0.000000 0.025480 0.000000
# 6 0.000000 0.000000 0.000000 -0.112401 0.000000 -0.177184
#
#
# Mechanical properties :
#
#
# Convention : Reuss Voigt Hill
#
# Bulk Modulus (GPa) = 18.70460 23.02506 20.86483
# Shear Modulus (GPa) = -59.97427 26.83217 -16.57105
#
# Velocity S-wave (km/s) = -5.24779 3.51012 -2.75847
# Velocity P-wave (km/s) = 5.30379 5.19622 0.75150
#
# Compressibility (1/GPa) = 0.05346279
#
# Stress axis : x y z
#
# Youngs Moduli (GPa) = 72.59810 46.77677 107.52031
#
# Poissons Ratio (x) = -0.17546 0.03338
# Poissons Ratio (y) = -0.27232 -0.11442
# Poissons Ratio (z) = 0.02253 -0.04978
#
# Static dielectric constant tensor:
#      x y z
#    x 1.722290 0.000000 -0.013770 
#    y 0.000000 1.890100 0.000000 
#    z -0.013770 0.000000 1.796700 
# 
# From -- ./inp_files/319991.got.cif
#   From: 2010.05.17/outbox.cif.g08.bks.cpg/sg12_160_cif.got.tgz:319991.got - 2010.06.03 13:09:07.
