data_PCOD9186744
_publ_section_title
;
Structure prediction by ZEFSAII (Michael W. Deem and Ramdas Pophale) SiO2 
 PCOD9186744
Probable space group: C 2/M
;
_chemical_formula_sum "Si O2"
_cell_formula_units_Z 64
_cell_length_a 15.133314
_cell_length_b 7.591750
_cell_length_c 27.791561
_cell_angle_alpha 90.000000
_cell_angle_beta 105.221224
_cell_angle_gamma 90.000000
_cell_volume 3080.916146
_symmetry_space_group_name_H-M "C 2/M"
_symmetry_group_IT_number 12
_symmetry_cell_setting 'monoclinic'
loop_
_space_group_symop_operation_xyz
x,y,z
-x,y,-z
-x,-y,-z
x,-y,z
1/2+x,1/2+y,z
1/2-x,1/2+y,-z
1/2-x,1/2-y,-z
1/2+x,1/2-y,z
loop_
_atom_site_type_symbol
_atom_site_label
_atom_site_fract_x
_atom_site_fract_y
_atom_site_fract_z
Si Si1 0.941761 0.286173 0.135280
Si Si2 0.462133 0.783941 0.421542
Si Si3 0.457109 0.207329 0.945087
Si Si4 0.354460 0.210775 0.500258
Si Si5 0.910733 0.296503 0.309365
Si Si6 0.732546 0.716283 0.228491
Si Si7 0.045504 0.795043 0.247800
Si Si8 0.263999 0.287542 0.881871
O O1 0.945497 0.500000 0.137943
O O2 0.982009 0.222896 0.191588
O O3 0.836216 0.233131 0.115045
O O4 0.000458 0.220645 0.098435
O O5 0.564659 0.727847 0.452025
O O6 0.389640 0.729688 0.452499
O O7 0.433826 0.720057 0.364742
O O8 0.463444 0.000000 0.421016
O O9 0.348343 0.225845 0.925897
O O10 0.480203 0.000000 0.947896
O O11 0.500000 0.282625 0.000000
O O12 0.250000 0.250000 0.500000
O O13 0.360501 0.000000 0.500328
O O14 0.885913 0.500000 0.314618
O O15 0.825139 0.221188 0.267336
O O16 0.997120 0.291457 0.286233
O O17 0.732921 0.500000 0.226983
O O18 0.644318 0.773938 0.245893
O O19 0.725006 0.773202 0.171939
O O20 0.055449 0.000000 0.261092
O O21 0.266322 0.500000 0.881948
#
# Coordination Sequence:
#
# PCOD9186744 Si02
#       8
#     8   8   8   8   8   8   8   8
#     4  10  20  36  57  76 101 140 177 208 253 320
#     4   8  17  33  54  76 106 144 182 216 257 318
#     4  10  22  38  55  80 110 135 167 218 269 309
#     4   9  17  33  55  81 106 139 183 223 263 312
#     4  10  19  36  56  75 104 146 182 213 257 316
#     4   9  18  32  51  74 102 134 172 211 255 309
#     4  11  21  33  51  79 108 134 169 220 265 305
#     4  10  19  35  56  77 100 135 177 212 249 311
#
# _framework density 20.773042
#
# number of rings (size 3 to 8) (size 9 to 14) (size 15 to 20)
#    0.000    2.375    2.500    1.125    0.000    2.250 
#    0.000    5.000    0.000    0.000    0.000    0.000 
#    0.000    0.000    0.000    0.000    0.000    0.000 
#
# Total GULP energy -178609.349358 kJ/mol
# GULP energy per Si atom -5581.542167 kJ/mol
# Density = 2.072576 g / cm^3
# Si number density = 20.773042 Si / 1000 Ang^3
#
#
#
# Elastic Constant Matrix: (Units=GPa)
#
#
# Indices 1 2 3 4 5 6 
#
# 1 85.5999 -2.9067 -7.7853 0.0000 3.8364 0.0000
# 2 -2.9067 39.3686 6.4650 0.0000 0.6922 0.0000
# 3 -7.7853 6.4650 68.9317 0.0000 1.0143 0.0000
# 4 0.0000 0.0000 0.0000 -1.2976 0.0000 1.3214
# 5 3.8364 0.6922 1.0143 0.0000 20.5532 0.0000
# 6 0.0000 0.0000 0.0000 1.3214 0.0000 11.6466
#
#
#
# Elastic Compliance Matrix: (Units=1/GPa)
#
#
# Indices 1 2 3 4 5 6 
#
# 1 0.011930 0.000706 0.001315 0.000000 -0.002315 0.000000
# 2 0.000706 0.025852 -0.002332 0.000000 -0.000887 0.000000
# 3 0.001315 -0.002332 0.014888 0.000000 -0.000902 0.000000
# 4 0.000000 0.000000 0.000000 -0.690829 0.000000 0.078382
# 5 -0.002315 -0.000887 -0.000902 0.000000 0.049161 0.000000
# 6 0.000000 0.000000 0.000000 0.078382 0.000000 0.076969
#
#
# Mechanical properties :
#
#
# Convention : Reuss Voigt Hill
#
# Bulk Modulus (GPa) = 19.21353 20.60514 19.90933
# Shear Modulus (GPa) = -10.12024 19.38892 4.63434
#
# Velocity S-wave (km/s) = -2.20961 3.05842 1.49525
# Velocity P-wave (km/s) = 1.66117 4.73420 3.54768
#
# Compressibility (1/GPa) = 0.05204666
#
# Stress axis : x y z
#
# Youngs Moduli (GPa) = 83.82505 38.68241 67.16987
#
# Poissons Ratio (x) = -0.02729 -0.08835
# Poissons Ratio (y) = -0.05914 0.15663
# Poissons Ratio (z) = -0.11025 0.09020
#
# Static dielectric constant tensor:
#      x y z
#    x 1.724970 0.000000 0.001040 
#    y 0.000000 1.792520 0.000000 
#    z 0.001040 0.000000 1.721750 
# 
# From -- ./inp_files/359960.got.cif
#   From: 2010.05.17/outbox.cif.g08.bks.cpg/sg12_180_cif.got.tgz:359960.got - 2010.06.03 13:09:07.
