data_PCOD9186867
_publ_section_title
;
Structure prediction by ZEFSAII (Michael W. Deem and Ramdas Pophale) SiO2 
 PCOD9186867
Probable space group: C 2/M
;
_chemical_formula_sum "Si O2"
_cell_formula_units_Z 56
_cell_length_a 18.437412
_cell_length_b 20.073134
_cell_length_c 15.869386
_cell_angle_alpha 90.000000
_cell_angle_beta 151.949311
_cell_angle_gamma 90.000000
_cell_volume 2761.890104
_symmetry_space_group_name_H-M "C 2/M"
_symmetry_group_IT_number 12
_symmetry_cell_setting 'monoclinic'
loop_
_space_group_symop_operation_xyz
x,y,z
-x,y,-z
-x,-y,-z
x,-y,z
1/2+x,1/2+y,z
1/2-x,1/2+y,-z
1/2-x,1/2-y,-z
1/2+x,1/2-y,z
loop_
_atom_site_type_symbol
_atom_site_label
_atom_site_fract_x
_atom_site_fract_y
_atom_site_fract_z
Si Si1 0.570288 0.255116 0.753739
Si Si2 0.210506 0.785897 0.632808
Si Si3 0.128140 0.577090 0.205264
Si Si4 0.818546 0.797831 0.901690
Si Si5 0.116129 0.814405 0.298034
Si Si6 0.387241 0.928990 0.304706
Si Si7 0.426869 0.882951 0.660736
O O1 0.466563 0.265442 0.562966
O O2 0.745167 0.246595 0.903019
O O3 0.498576 0.311679 0.739684
O O4 0.515976 0.187072 0.742113
O O5 0.246236 0.863999 0.676566
O O6 0.286208 0.747121 0.787800
O O7 0.294957 0.754234 0.636534
O O8 0.181371 0.500000 0.254069
O O9 0.065922 0.589340 0.236980
O O10 0.000000 0.586551 0.000000
O O11 0.719263 0.864764 0.798777
O O12 0.992679 0.819989 0.096604
O O13 0.250125 0.867877 0.450875
O O14 0.500000 0.925917 0.500000
O O15 0.488863 0.925836 0.324124
O O16 0.302688 0.000000 0.220165
#
# Coordination Sequence:
#
# PCOD9186867 Si02
#       7
#     8   8   8   8   8   8   8
#     4  10  19  35  56  85 114 150 191 250 296 354
#     4  11  20  37  59  86 119 153 203 254 296 351
#     4  11  22  36  57  86 117 157 209 253 293 346
#     4  11  22  33  58  89 118 152 195 240 311 355
#     4  11  19  34  57  89 118 145 193 256 299 352
#     4  10  21  39  60  85 118 156 197 242 302 377
#     4  10  19  37  62  85 117 151 196 243 303 350
#
# _framework density 20.275969
#
# number of rings (size 3 to 8) (size 9 to 14) (size 15 to 20)
#    0.000    1.429    2.857    6.000    0.000    0.000 
#    0.000    1.429    0.000    5.143    0.000    0.000 
#    0.000    0.000    0.000    0.000    0.000    0.000 
#
# Total GULP energy -156117.749107 kJ/mol
# GULP energy per Si atom -5575.633897 kJ/mol
# Density = 2.022982 g / cm^3
# Si number density = 20.275969 Si / 1000 Ang^3
#
#
#
# Elastic Constant Matrix: (Units=GPa)
#
#
# Indices 1 2 3 4 5 6 
#
# 1 83.8836 20.8807 19.7604 0.0000 -15.6399 0.0000
# 2 20.8807 123.4257 33.3273 0.0000 -2.4259 0.0000
# 3 19.7604 33.3273 98.5861 0.0000 -6.0171 0.0000
# 4 0.0000 0.0000 0.0000 -6.4871 0.0000 8.5151
# 5 -15.6399 -2.4259 -6.0171 0.0000 32.0314 0.0000
# 6 0.0000 0.0000 0.0000 8.5151 0.0000 5.3888
#
#
#
# Elastic Compliance Matrix: (Units=1/GPa)
#
#
# Indices 1 2 3 4 5 6 
#
# 1 0.013968 -0.001746 -0.001822 0.000000 0.006346 0.000000
# 2 -0.001746 0.009135 -0.002780 0.000000 -0.000683 0.000000
# 3 -0.001822 -0.002780 0.011513 0.000000 0.001063 0.000000
# 4 0.000000 0.000000 0.000000 -0.050145 0.000000 0.079236
# 5 0.006346 -0.000683 0.001063 0.000000 0.034466 0.000000
# 6 0.000000 0.000000 0.000000 0.079236 0.000000 0.060365
#
#
# Mechanical properties :
#
#
# Convention : Reuss Voigt Hill
#
# Bulk Modulus (GPa) = 45.62067 50.42580 48.02324
# Shear Modulus (GPa) = 50.35034 21.64844 35.99939
#
# Velocity S-wave (km/s) = 4.98863 3.27110 4.21820
# Velocity P-wave (km/s) = 7.46529 6.26023 6.88916
#
# Compressibility (1/GPa) = 0.02191989
#
# Stress axis : x y z
#
# Youngs Moduli (GPa) = 71.59021 109.47367 86.85720
#
# Poissons Ratio (x) = 0.19118 0.15826
# Poissons Ratio (y) = 0.12502 0.24143
# Poissons Ratio (z) = 0.13045 0.30430
#
# Static dielectric constant tensor:
#      x y z
#    x 1.824370 0.000000 -0.046770 
#    y 0.000000 1.695900 0.000000 
#    z -0.046770 0.000000 1.788190 
# 
# From -- ./inp_files/77616.got.cif
#   From: 2010.05.17/outbox.cif.g08.bks.cpg/sg12_39_cif.got.tgz:77616.got - 2010.06.03 13:09:07.
