data_PCOD9186003
_publ_section_title
;
Structure prediction by ZEFSAII (Michael W. Deem and Ramdas Pophale) SiO2 
 PCOD9186003
Probable space group: C 2/M
;
_chemical_formula_sum "Si O2"
_cell_formula_units_Z 44
_cell_length_a 11.447253
_cell_length_b 26.573791
_cell_length_c 14.565441
_cell_angle_alpha 90.000000
_cell_angle_beta 149.321473
_cell_angle_gamma 90.000000
_cell_volume 2260.666250
_symmetry_space_group_name_H-M "C 2/M"
_symmetry_group_IT_number 12
_symmetry_cell_setting 'monoclinic'
loop_
_space_group_symop_operation_xyz
x,y,z
-x,y,-z
-x,-y,-z
x,-y,z
1/2+x,1/2+y,z
1/2-x,1/2+y,-z
1/2-x,1/2-y,-z
1/2+x,1/2-y,z
loop_
_atom_site_type_symbol
_atom_site_label
_atom_site_fract_x
_atom_site_fract_y
_atom_site_fract_z
Si Si1 0.753936 0.854088 0.382099
Si Si2 0.000000 0.134690 0.000000
Si Si3 0.227083 0.690479 0.977812
Si Si4 0.006973 0.883177 0.290718
Si Si5 0.807136 0.442236 0.790601
Si Si6 0.742714 0.558535 0.287924
O O1 0.792531 0.855769 0.517433
O O2 0.667787 0.907222 0.280865
O O3 0.000000 0.841180 0.500000
O O4 0.543089 0.818855 0.215116
O O5 0.809180 0.096690 0.829714
O O6 0.124798 0.168495 0.007536
O O7 0.327893 0.658035 0.131772
O O8 0.250000 0.750000 0.000000
O O9 0.083685 0.918981 0.260602
O O10 0.908693 0.919748 0.302344
O O11 0.784893 0.500000 0.749604
O O12 0.000000 0.437870 0.000000
O O13 0.691495 0.500000 0.232296
O O14 0.000000 0.561192 0.500000
#
# Coordination Sequence:
#
# PCOD9186003 Si02
#       6
#     8   4   8   8   8   8
#     4  10  22  38  61  90 124 156 197 248 296 352
#     4  10  23  40  60  86 118 152 197 244 290 350
#     4  11  24  43  63  86 116 157 200 251 304 350
#     4  10  21  37  59  85 122 154 199 245 294 354
#     4  10  19  34  58  89 124 158 192 234 294 358
#     4  10  20  36  58  84 118 157 195 236 286 348
#
# _framework density 19.463289
#
# number of rings (size 3 to 8) (size 9 to 14) (size 15 to 20)
#    0.000    1.818    1.818    1.909    0.000    7.636 
#    0.000    4.545    0.000    0.000    0.000    0.000 
#    0.000    0.000    0.000    0.000    0.000    0.000 
#
# Total GULP energy -122656.250846 kJ/mol
# GULP energy per Si atom -5575.284129 kJ/mol
# Density = 1.941899 g / cm^3
# Si number density = 19.463289 Si / 1000 Ang^3
#
#
#
# Elastic Constant Matrix: (Units=GPa)
#
#
# Indices 1 2 3 4 5 6 
#
# 1 33.2273 34.0851 8.9641 0.0002 -5.1436 0.0002
# 2 34.0851 157.4442 66.0089 0.0000 7.8210 0.0000
# 3 8.9641 66.0089 119.5252 0.0006 0.1378 0.0006
# 4 0.0002 0.0000 0.0006 8.4415 0.0003 -2.5518
# 5 -5.1436 7.8210 0.1378 0.0003 26.1752 0.0003
# 6 0.0002 0.0000 0.0006 -2.5518 0.0003 9.3944
#
#
#
# Elastic Compliance Matrix: (Units=1/GPa)
#
#
# Indices 1 2 3 4 5 6 
#
# 1 0.042335 -0.010935 0.002851 -0.000002 0.011572 -0.000002
# 2 -0.010935 0.011249 -0.005386 0.000001 -0.005482 0.000001
# 3 0.002851 -0.005386 0.011125 -0.000001 0.002111 -0.000001
# 4 -0.000002 0.000001 -0.000001 0.129060 -0.000003 0.035057
# 5 0.011572 -0.005482 0.002111 -0.000003 0.042105 -0.000003
# 6 -0.000002 0.000001 -0.000001 0.035057 -0.000003 0.115969
#
#
# Mechanical properties :
#
#
# Convention : Reuss Voigt Hill
#
# Bulk Modulus (GPa) = 26.47729 58.70143 42.58936
# Shear Modulus (GPa) = 12.77552 22.21147 17.49350
#
# Velocity S-wave (km/s) = 2.56479 3.38183 3.00124
# Velocity P-wave (km/s) = 4.73330 6.74348 5.82575
#
# Compressibility (1/GPa) = 0.03776821
#
# Stress axis : x y z
#
# Youngs Moduli (GPa) = 23.62090 88.89498 89.88995
#
# Poissons Ratio (x) = 0.97208 -0.25624
# Poissons Ratio (y) = 0.25830 0.48415
# Poissons Ratio (z) = -0.06733 0.47879
#
# Static dielectric constant tensor:
#      x y z
#    x 1.692700 0.000000 -0.012540 
#    y 0.000000 1.646200 0.000000 
#    z -0.012540 0.000000 1.764490 
# 
# From -- ./inp_files/209233.got.cif
#   From: 2010.05.17/outbox.cif.g08.bks.cpg/sg12_105_cif.got.tgz:209233.got - 2010.06.03 13:09:07.
