data_PCOD9186542
_publ_section_title
;
Structure prediction by ZEFSAII (Michael W. Deem and Ramdas Pophale) SiO2 
 PCOD9186542
Probable space group: C 2/M
;
_chemical_formula_sum "Si O2"
_cell_formula_units_Z 64
_cell_length_a 15.028515
_cell_length_b 11.559566
_cell_length_c 27.376066
_cell_angle_alpha 90.000000
_cell_angle_beta 39.661638
_cell_angle_gamma 90.000000
_cell_volume 3035.436703
_symmetry_space_group_name_H-M "C 2/M"
_symmetry_group_IT_number 12
_symmetry_cell_setting 'monoclinic'
loop_
_space_group_symop_operation_xyz
x,y,z
-x,y,-z
-x,-y,-z
x,-y,z
1/2+x,1/2+y,z
1/2-x,1/2+y,-z
1/2-x,1/2-y,-z
1/2+x,1/2-y,z
loop_
_atom_site_type_symbol
_atom_site_label
_atom_site_fract_x
_atom_site_fract_y
_atom_site_fract_z
Si Si1 0.268321 0.800948 0.924337
Si Si2 0.661065 0.636203 0.552903
Si Si3 0.350147 0.722803 0.332908
Si Si4 0.199734 0.301145 0.795347
Si Si5 0.074413 0.626097 0.043817
Si Si6 0.858567 0.128591 0.632214
Si Si7 0.511040 0.627109 0.817567
Si Si8 0.884219 0.371593 0.776045
O O1 0.333771 0.861837 0.944665
O O2 0.363769 0.688080 0.875376
O O3 0.299848 0.872903 0.862712
O O4 0.118767 0.742897 0.996640
O O5 0.709558 0.500000 0.525574
O O6 0.750000 0.750000 0.500000
O O7 0.643337 0.660463 0.618088
O O8 0.515523 0.645491 0.584979
O O9 0.201267 0.774402 0.379005
O O10 0.408792 0.636216 0.267378
O O11 0.455388 0.833263 0.284888
O O12 0.263406 0.365042 0.721551
O O13 0.102314 0.200572 0.815607
O O14 0.319867 0.234429 0.773091
O O15 0.089682 0.371103 0.874114
O O16 0.105806 0.500000 0.008353
O O17 0.847523 0.000000 0.615132
O O18 0.494371 0.500000 0.843058
O O19 0.875543 0.500000 0.757413
#
# Coordination Sequence:
#
# PCOD9186542 Si02
#       8
#     8   8   8   8   8   8   8   8
#     4   9  20  33  51  78 108 147 203 250 310 377
#     4  11  25  46  69 101 139 174 213 259 318 384
#     4  10  21  39  65  95 123 163 215 259 311 370
#     4  10  20  34  54  86 115 151 205 253 313 371
#     4  10  19  35  54  74 107 150 200 258 311 371
#     4  10  21  41  67  94 129 168 214 264 316 379
#     4   9  17  32  54  80 114 154 195 246 307 369
#     4  11  21  36  57  84 118 154 203 259 316 373
#
# _framework density 21.084281000000001
#
# number of rings (size 3 to 8) (size 9 to 14) (size 15 to 20)
#    0.000    2.000    1.250    3.000    0.000    2.000 
#    0.000    8.125    0.000    0.000    0.000    0.000 
#    0.000    0.000    0.000    0.000    0.000    0.000 
#
# Total GULP energy -178420.332095 kJ/mol
# GULP energy per Si atom -5575.635378 kJ/mol
# Density = 2.103629 g / cm^3
# Si number density = 21.084281 Si / 1000 Ang^3
#
#
#
# Elastic Constant Matrix: (Units=GPa)
#
#
# Indices 1 2 3 4 5 6 
#
# 1 57.4709 10.4124 7.2901 0.0000 -6.3333 0.0000
# 2 10.4124 120.0590 25.3352 0.0000 -14.8806 0.0000
# 3 7.2901 25.3352 32.2120 0.0000 -9.6449 0.0000
# 4 0.0000 0.0000 0.0000 3.4698 0.0000 -8.9117
# 5 -6.3333 -14.8806 -9.6449 0.0000 29.2799 0.0000
# 6 0.0000 0.0000 0.0000 -8.9117 0.0000 -6.4577
#
#
#
# Elastic Compliance Matrix: (Units=1/GPa)
#
#
# Indices 1 2 3 4 5 6 
#
# 1 0.018168 -0.000654 -0.002796 0.000000 0.002676 0.000000
# 2 -0.000654 0.010216 -0.007072 0.000000 0.002721 0.000000
# 3 -0.002796 -0.007072 0.039919 0.000000 0.008951 0.000000
# 4 0.000000 0.000000 0.000000 0.063419 0.000000 -0.087519
# 5 0.002676 0.002721 0.008951 0.000000 0.039063 0.000000
# 6 0.000000 0.000000 0.000000 -0.087519 0.000000 -0.034075
#
#
# Mechanical properties :
#
#
# Convention : Reuss Voigt Hill
#
# Bulk Modulus (GPa) = 21.15994 32.86859 27.01427
# Shear Modulus (GPa) = 28.81723 16.37199 22.59461
#
# Velocity S-wave (km/s) = 3.70099 2.78960 3.27713
# Velocity P-wave (km/s) = 5.32172 5.09890 5.21151
#
# Compressibility (1/GPa) = 0.04725911
#
# Stress axis : x y z
#
# Youngs Moduli (GPa) = 55.04125 97.89024 25.05046
#
# Poissons Ratio (x) = 0.06401 0.07004
# Poissons Ratio (y) = 0.03599 0.17716
# Poissons Ratio (z) = 0.15390 0.69228
#
# Static dielectric constant tensor:
#      x y z
#    x 1.791060 0.000000 -0.002600 
#    y 0.000000 1.734180 0.000000 
#    z -0.002600 0.000000 1.843790 
# 
# From -- ./inp_files/361041.got.cif
#   From: 2010.05.17/outbox.cif.g08.bks.cpg/sg12_181_cif.got.tgz:361041.got - 2010.06.03 13:09:07.
