data_PCOD9186435
_publ_section_title
;
Structure prediction by ZEFSAII (Michael W. Deem and Ramdas Pophale) SiO2 
 PCOD9186435
Probable space group: C 2/M
;
_chemical_formula_sum "Si O2"
_cell_formula_units_Z 58
_cell_length_a 27.725732
_cell_length_b 20.966958
_cell_length_c 15.468865
_cell_angle_alpha 90.000000
_cell_angle_beta 162.871468
_cell_angle_gamma 90.000000
_cell_volume 2648.415742
_symmetry_space_group_name_H-M "C 2/M"
_symmetry_group_IT_number 12
_symmetry_cell_setting 'monoclinic'
loop_
_space_group_symop_operation_xyz
x,y,z
-x,y,-z
-x,-y,-z
x,-y,z
1/2+x,1/2+y,z
1/2-x,1/2+y,-z
1/2-x,1/2-y,-z
1/2+x,1/2-y,z
loop_
_atom_site_type_symbol
_atom_site_label
_atom_site_fract_x
_atom_site_fract_y
_atom_site_fract_z
Si Si1 0.829176 0.427257 0.172970
Si Si2 0.524148 0.883644 0.160388
Si Si3 0.030030 0.813021 0.256267
Si Si4 0.324698 0.071834 0.962643
Si Si5 0.500000 0.000000 0.000000
Si Si6 0.863996 0.748594 0.832028
Si Si7 0.501231 0.654857 0.604215
Si Si8 0.374838 0.575472 0.704645
O O1 0.806578 0.500000 0.168871
O O2 0.000000 0.400067 0.500000
O O3 0.853806 0.431576 0.113378
O O4 0.666771 0.385403 0.904164
O O5 0.714968 0.888633 0.467193
O O6 0.476830 0.894391 0.177836
O O7 0.436005 0.820754 0.977772
O O8 0.450104 0.943523 0.983046
O O9 0.181351 0.766309 0.488236
O O10 0.013436 0.805561 0.331206
O O11 0.066918 0.883718 0.279181
O O12 0.872386 0.789335 0.933630
O O13 0.158511 0.110420 0.663821
O O14 0.302647 0.000000 0.893668
O O15 0.000000 0.777512 0.000000
O O16 0.500000 0.678902 0.500000
O O17 0.329253 0.500000 0.608185
O O18 0.500000 0.573625 0.000000
#
# Coordination Sequence:
#
# PCOD9186435 Si02
#       8
#     8   8   8   8   2   8   8   8
#     4   9  19  37  60  92 132 169 207 263 334 398
#     4  12  22  37  64  95 133 167 216 263 325 387
#     4  12  26  45  69  96 131 180 223 276 331 395
#     4  10  19  34  63  92 128 165 210 268 325 388
#     4  12  20  36  62  96 132 164 212 274 318 386
#     4  12  25  44  67  99 131 177 223 266 320 398
#     4  10  22  41  63  94 125 162 226 277 326 388
#     4  11  25  42  63 100 143 178 217 274 336 397
#
# _framework density 21.899884
#
# number of rings (size 3 to 8) (size 9 to 14) (size 15 to 20)
#    0.000    1.103    4.828    1.241    1.931    3.862 
#    0.000    3.448    0.000    0.000    0.000    0.000 
#    0.000    0.000    0.000    0.000    0.000    0.000 
#
# Total GULP energy -161572.502454 kJ/mol
# GULP energy per Si atom -5571.465602 kJ/mol
# Density = 2.185004 g / cm^3
# Si number density = 21.899884 Si / 1000 Ang^3
#
#
#
# Elastic Constant Matrix: (Units=GPa)
#
#
# Indices 1 2 3 4 5 6 
#
# 1 103.4985 9.7894 10.9611 0.0000 2.5244 0.0001
# 2 9.7894 40.0380 4.3883 0.0000 2.0673 0.0000
# 3 10.9611 4.3883 82.1034 0.0000 -8.2456 0.0001
# 4 0.0000 0.0000 0.0000 8.8162 0.0000 1.5427
# 5 2.5244 2.0673 -8.2456 0.0000 25.0245 0.0001
# 6 0.0001 0.0000 0.0001 1.5427 0.0001 7.0314
#
#
#
# Elastic Compliance Matrix: (Units=1/GPa)
#
#
# Indices 1 2 3 4 5 6 
#
# 1 0.010048 -0.002243 -0.001349 0.000000 -0.001273 0.000000
# 2 -0.002243 0.025789 -0.001314 0.000000 -0.002337 0.000000
# 3 -0.001349 -0.001314 0.012881 0.000000 0.004489 0.000000
# 4 0.000000 0.000000 0.000000 0.117956 0.000000 -0.025879
# 5 -0.001273 -0.002337 0.004489 0.000000 0.041761 0.000000
# 6 0.000000 0.000000 0.000000 -0.025879 0.000000 0.147897
#
#
# Mechanical properties :
#
#
# Convention : Reuss Voigt Hill
#
# Bulk Modulus (GPa) = 25.70298 30.65751 28.18024
# Shear Modulus (GPa) = 13.18865 21.54116 17.36491
#
# Velocity S-wave (km/s) = 2.45669 3.13967 2.81894
# Velocity P-wave (km/s) = 4.45075 5.21275 4.84675
#
# Compressibility (1/GPa) = 0.03890600
#
# Stress axis : x y z
#
# Youngs Moduli (GPa) = 99.52130 38.77567 77.63401
#
# Poissons Ratio (x) = 0.08698 0.10476
# Poissons Ratio (y) = 0.22324 0.10198
# Poissons Ratio (z) = 0.13429 0.05094
#
# Static dielectric constant tensor:
#      x y z
#    x 1.861040 0.000000 0.018490 
#    y 0.000000 1.825770 0.000000 
#    z 0.018490 0.000000 1.558090 
# 
# From -- ./inp_files/247317.got.cif
#   From: 2010.05.17/outbox.cif.g08.bks.cpg/sg12_124_cif.got.tgz:247317.got - 2010.06.03 13:09:07.
