data_PCOD9186165
_publ_section_title
;
Structure prediction by ZEFSAII (Michael W. Deem and Ramdas Pophale) SiO2 
 PCOD9186165
Probable space group: C 2/M
;
_chemical_formula_sum "Si O2"
_cell_formula_units_Z 56
_cell_length_a 28.016306
_cell_length_b 13.210250
_cell_length_c 14.458931
_cell_angle_alpha 90.000000
_cell_angle_beta 151.464719
_cell_angle_gamma 90.000000
_cell_volume 2556.307949
_symmetry_space_group_name_H-M "C 2/M"
_symmetry_group_IT_number 12
_symmetry_cell_setting 'monoclinic'
loop_
_space_group_symop_operation_xyz
x,y,z
-x,y,-z
-x,-y,-z
x,-y,z
1/2+x,1/2+y,z
1/2-x,1/2+y,-z
1/2-x,1/2-y,-z
1/2+x,1/2-y,z
loop_
_atom_site_type_symbol
_atom_site_label
_atom_site_fract_x
_atom_site_fract_y
_atom_site_fract_z
Si Si1 0.512113 0.614620 0.659711
Si Si2 0.638599 0.212445 0.787925
Si Si3 0.320917 0.743705 0.334366
Si Si4 0.366850 0.112752 0.038351
Si Si5 0.990443 0.884531 0.129017
Si Si6 0.211952 0.197707 0.527772
Si Si7 0.574635 0.829391 0.046555
O O1 0.525185 0.500000 0.653163
O O2 0.573026 0.689650 0.699344
O O3 0.397871 0.650018 0.464265
O O4 0.543416 0.623687 0.820997
O O5 0.640503 0.184681 0.682661
O O6 0.604152 0.132293 0.806131
O O7 0.750000 0.250000 0.000000
O O8 0.314397 0.772941 0.430856
O O9 0.214902 0.697949 0.124485
O O10 0.325628 0.000000 0.960485
O O11 0.447188 0.128180 0.093297
O O12 0.110320 0.863314 0.334188
O O13 0.970858 0.000000 0.064718
O O14 0.938054 0.793069 0.984783
O O15 0.250000 0.250000 0.500000
O O16 0.311691 0.140786 0.733794
O O17 0.500000 0.862567 0.000000
#
# Coordination Sequence:
#
# PCOD9186165 Si02
#       7
#     8   8   8   8   8   8   8
#     4  10  19  34  59  89 116 146 190 245 301 356
#     4  10  20  34  53  82 116 150 186 236 298 357
#     4   9  20  34  59  86 113 146 194 247 301 350
#     4  10  21  38  58  83 117 154 198 248 304 366
#     4  10  21  39  64  95 125 161 209 259 312 370
#     4  10  20  37  59  88 126 162 202 251 302 367
#     4  11  21  37  64  90 124 164 207 253 317 369
#
# _framework density 21.906594999999999
#
# number of rings (size 3 to 8) (size 9 to 14) (size 15 to 20)
#    0.000    2.000    2.857    0.857    0.000    7.429 
#    0.000    0.000    0.000    3.429    0.000    0.000 
#    0.000    0.000    0.000    0.000    0.000    0.000 
#
# Total GULP energy -156056.467898 kJ/mol
# GULP energy per Si atom -5573.445282 kJ/mol
# Density = 2.185673 g / cm^3
# Si number density = 21.906595 Si / 1000 Ang^3
#
#
#
# Elastic Constant Matrix: (Units=GPa)
#
#
# Indices 1 2 3 4 5 6 
#
# 1 201.4656 22.6349 4.3428 0.0000 -18.4275 0.0000
# 2 22.6349 50.5267 15.3445 0.0000 0.0514 0.0000
# 3 4.3428 15.3445 58.8293 0.0000 17.2553 0.0000
# 4 0.0000 0.0000 0.0000 14.0534 0.0000 2.4315
# 5 -18.4275 0.0514 17.2553 0.0000 36.3056 0.0000
# 6 0.0000 0.0000 0.0000 2.4315 0.0000 -5.5739
#
#
#
# Elastic Compliance Matrix: (Units=1/GPa)
#
#
# Indices 1 2 3 4 5 6 
#
# 1 0.005522 -0.002250 -0.000748 0.000000 0.003161 0.000000
# 2 -0.002250 0.022707 -0.006289 0.000000 0.001815 0.000000
# 3 -0.000748 -0.006289 0.021848 0.000000 -0.010755 0.000000
# 4 0.000000 0.000000 0.000000 0.066163 0.000000 0.028862
# 5 0.003161 0.001815 -0.010755 0.000000 0.034258 0.000000
# 6 0.000000 0.000000 0.000000 0.028862 0.000000 -0.166817
#
#
# Mechanical properties :
#
#
# Convention : Reuss Voigt Hill
#
# Bulk Modulus (GPa) = 31.74213 43.94067 37.84140
# Shear Modulus (GPa) = 391.96484 26.85699 209.41092
#
# Velocity S-wave (km/s) = 13.39082 3.50519 9.78776
# Velocity P-wave (km/s) = 15.92503 6.04016 12.04346
#
# Compressibility (1/GPa) = 0.03150388
#
# Stress axis : x y z
#
# Youngs Moduli (GPa) = 181.10502 44.03852 45.76977
#
# Poissons Ratio (x) = 0.09907 0.03424
# Poissons Ratio (y) = 0.40742 0.28785
# Poissons Ratio (z) = 0.13548 0.27696
#
# Static dielectric constant tensor:
#      x y z
#    x 1.921540 0.000000 -0.030790 
#    y 0.000000 1.839130 0.000000 
#    z -0.030790 0.000000 1.965030 
# 
# From -- ./inp_files/246603.got.cif
#   From: 2010.05.17/outbox.cif.g08.bks.cpg/sg12_124_cif.got.tgz:246603.got - 2010.06.03 13:09:07.
