data_PCOD9186190
_publ_section_title
;
Structure prediction by ZEFSAII (Michael W. Deem and Ramdas Pophale) SiO2 
 PCOD9186190
Probable space group: C 2/M
;
_chemical_formula_sum "Si O2"
_cell_formula_units_Z 48
_cell_length_a 20.601182
_cell_length_b 17.896115
_cell_length_c 9.934521
_cell_angle_alpha 90.000000
_cell_angle_beta 141.841264
_cell_angle_gamma 90.000000
_cell_volume 2262.952552
_symmetry_space_group_name_H-M "C 2/M"
_symmetry_group_IT_number 12
_symmetry_cell_setting 'monoclinic'
loop_
_space_group_symop_operation_xyz
x,y,z
-x,y,-z
-x,-y,-z
x,-y,z
1/2+x,1/2+y,z
1/2-x,1/2+y,-z
1/2-x,1/2-y,-z
1/2+x,1/2-y,z
loop_
_atom_site_type_symbol
_atom_site_label
_atom_site_fract_x
_atom_site_fract_y
_atom_site_fract_z
Si Si1 0.961559 0.303201 0.083220
Si Si2 0.810318 0.583523 0.162128
Si Si3 0.113438 0.114942 0.647794
Si Si4 0.125355 0.261391 0.796802
Si Si5 0.275395 0.084946 0.695494
Si Si6 0.851512 0.414375 0.533103
O O1 0.926120 0.246004 0.141963
O O2 0.055663 0.355399 0.291668
O O3 0.860132 0.356281 0.890517
O O4 0.000000 0.273678 0.000000
O O5 0.851745 0.500000 0.204506
O O6 0.887846 0.650400 0.247720
O O7 0.796824 0.593697 0.299902
O O8 0.702092 0.591888 0.902174
O O9 0.099458 0.204530 0.635917
O O10 0.165290 0.094990 0.591005
O O11 0.000000 0.083270 0.500000
O O12 0.250000 0.250000 0.000000
O O13 0.273616 0.094675 0.532398
O O14 0.312208 0.000000 0.783265
O O15 0.892972 0.500000 0.607598
#
# Coordination Sequence:
#
# PCOD9186190 Si02
#       6
#     8   8   8   8   8   8
#     4  10  19  34  59  90 122 160 195 236 305 372
#     4  10  21  39  61  89 120 152 200 254 305 354
#     4  11  24  40  61  83 118 167 211 249 289 350
#     4  10  21  39  58  84 125 158 197 252 297 349
#     4  10  19  37  60  88 123 158 203 249 293 360
#     4   9  20  35  58  93 126 153 187 248 318 364
#
# _framework density 21.211226
#
# number of rings (size 3 to 8) (size 9 to 14) (size 15 to 20)
#    0.000    2.000    3.333    1.000    2.333    4.000 
#    0.000    6.667    0.000    3.000    0.000    0.000 
#    0.000    0.000    0.000    0.000    0.000    0.000 
#
# Total GULP energy -133824.569634 kJ/mol
# GULP energy per Si atom -5576.023735 kJ/mol
# Density = 2.116295 g / cm^3
# Si number density = 21.211226 Si / 1000 Ang^3
#
#
#
# Elastic Constant Matrix: (Units=GPa)
#
#
# Indices 1 2 3 4 5 6 
#
# 1 169.6631 9.8242 31.6402 0.0000 -18.1674 0.0000
# 2 9.8242 71.4631 -8.4528 0.0000 -12.4585 0.0000
# 3 31.6402 -8.4528 46.5747 0.0000 -10.4918 0.0000
# 4 0.0000 0.0000 0.0000 -8.6426 0.0000 -19.0171
# 5 -18.1674 -12.4585 -10.4918 0.0000 38.8092 0.0000
# 6 0.0000 0.0000 0.0000 -19.0171 0.0000 23.4417
#
#
#
# Elastic Compliance Matrix: (Units=1/GPa)
#
#
# Indices 1 2 3 4 5 6 
#
# 1 0.007000 -0.001222 -0.004608 0.000000 0.001639 0.000000
# 2 -0.001222 0.015773 0.005009 0.000000 0.005846 0.000000
# 3 -0.004608 0.005009 0.027033 0.000000 0.006759 0.000000
# 4 0.000000 0.000000 0.000000 -0.041545 0.000000 -0.033703
# 5 0.001639 0.005846 0.006759 0.000000 0.030238 0.000000
# 6 0.000000 0.000000 0.000000 -0.033703 0.000000 0.015317
#
#
# Mechanical properties :
#
#
# Convention : Reuss Voigt Hill
#
# Bulk Modulus (GPa) = 20.76171 39.30264 30.03218
# Shear Modulus (GPa) = 69.92017 27.70095 48.81056
#
# Velocity S-wave (km/s) = 5.74764 3.61772 4.80225
# Velocity P-wave (km/s) = 7.33869 6.00166 6.70360
#
# Compressibility (1/GPa) = 0.04816559
#
# Stress axis : x y z
#
# Youngs Moduli (GPa) = 142.86710 63.40027 36.99205
#
# Poissons Ratio (x) = 0.07744 0.17044
# Poissons Ratio (y) = 0.17452 -0.18530
# Poissons Ratio (z) = 0.65827 -0.31759
#
# Static dielectric constant tensor:
#      x y z
#    x 1.807520 0.000000 0.017990 
#    y 0.000000 1.840840 0.000000 
#    z 0.017990 0.000000 1.824910 
# 
# From -- ./inp_files/77700.got.cif
#   From: 2010.05.17/outbox.cif.g08.bks.cpg/sg12_39_cif.got.tgz:77700.got - 2010.06.03 13:09:07.
