data_PCOD9186624
_publ_section_title
;
Structure prediction by ZEFSAII (Michael W. Deem and Ramdas Pophale) SiO2 
 PCOD9186624
Probable space group: C 2/M
;
_chemical_formula_sum "Si O2"
_cell_formula_units_Z 64
_cell_length_a 15.126056
_cell_length_b 8.259699
_cell_length_c 27.404502
_cell_angle_alpha 90.000000
_cell_angle_beta 105.457463
_cell_angle_gamma 90.000000
_cell_volume 3299.982549
_symmetry_space_group_name_H-M "C 2/M"
_symmetry_group_IT_number 12
_symmetry_cell_setting 'monoclinic'
loop_
_space_group_symop_operation_xyz
x,y,z
-x,y,-z
-x,-y,-z
x,-y,z
1/2+x,1/2+y,z
1/2-x,1/2+y,-z
1/2-x,1/2-y,-z
1/2+x,1/2-y,z
loop_
_atom_site_type_symbol
_atom_site_label
_atom_site_fract_x
_atom_site_fract_y
_atom_site_fract_z
Si Si1 0.245929 0.692688 0.054749
Si Si2 0.896526 0.304684 0.497399
Si Si3 0.277113 0.804046 0.772165
Si Si4 0.883009 0.192967 0.883522
Si Si5 0.212927 0.696028 0.422141
Si Si6 0.119107 0.305463 0.309007
Si Si7 0.930012 0.804753 0.247831
Si Si8 0.429368 0.302042 0.135349
O O1 0.250490 0.500000 0.055628
O O2 0.156605 0.744520 0.071567
O O3 0.334245 0.754417 0.098048
O O4 0.250000 0.750000 0.000000
O O5 0.900068 0.500000 0.498682
O O6 0.854937 0.250903 0.543756
O O7 0.816352 0.253332 0.448166
O O8 0.000000 0.247143 0.500000
O O9 0.317389 0.744809 0.829286
O O10 0.336321 0.744995 0.735000
O O11 0.171421 0.754877 0.750874
O O12 0.279939 0.000000 0.773869
O O13 0.984373 0.251526 0.884076
O O14 0.885210 0.000000 0.885771
O O15 0.213767 0.500000 0.422591
O O16 0.172797 0.752950 0.364629
O O17 0.126495 0.500000 0.309706
O O18 0.012671 0.259893 0.292308
O O19 0.941475 0.750334 0.193173
O O20 0.933788 0.000000 0.248873
O O21 0.428052 0.500000 0.135775
#
# Coordination Sequence:
#
# PCOD9186624 Si02
#       8
#     8   8   8   8   8   8   8   8
#     4  11  23  42  61  83 113 145 180 226 276 325
#     4   9  18  34  56  78 103 143 189 229 274 329
#     4  10  20  35  54  77 108 145 179 216 268 325
#     4  11  21  36  59  84 106 139 182 221 265 320
#     4   9  19  35  52  76 112 144 178 228 280 326
#     4  10  21  35  52  80 114 144 177 228 279 317
#     4  10  19  35  55  77 105 145 182 213 262 327
#     4   9  19  36  58  79 108 144 177 215 268 324
#
# _framework density 19.394043
#
# number of rings (size 3 to 8) (size 9 to 14) (size 15 to 20)
#    0.000    2.125    2.500    0.750    0.000    2.750 
#    0.000    5.000    0.000    0.000    0.000    0.000 
#    0.000    0.000    0.000    0.000    0.000    0.000 
#
# Total GULP energy -178615.674423 kJ/mol
# GULP energy per Si atom -5581.739826 kJ/mol
# Density = 1.934990 g / cm^3
# Si number density = 19.394043 Si / 1000 Ang^3
#
#
#
# Elastic Constant Matrix: (Units=GPa)
#
#
# Indices 1 2 3 4 5 6 
#
# 1 89.2087 7.9249 -8.5078 0.0000 6.1922 0.0000
# 2 7.9249 10.0731 4.2702 0.0000 -1.8788 0.0000
# 3 -8.5078 4.2702 51.3654 0.0000 3.6678 0.0000
# 4 0.0000 0.0000 0.0000 24.0024 0.0000 4.8259
# 5 6.1922 -1.8788 3.6678 0.0000 20.4541 0.0000
# 6 0.0000 0.0000 0.0000 4.8259 0.0000 22.3897
#
#
#
# Elastic Compliance Matrix: (Units=1/GPa)
#
#
# Indices 1 2 3 4 5 6 
#
# 1 0.013114 -0.012956 0.003665 0.000000 -0.005817 0.000000
# 2 -0.012956 0.118263 -0.013202 0.000000 0.017153 0.000000
# 3 0.003665 -0.013202 0.021615 0.000000 -0.006198 0.000000
# 4 0.000000 0.000000 0.000000 0.043550 0.000000 -0.009387
# 5 -0.005817 0.017153 -0.006198 0.000000 0.053338 0.000000
# 6 0.000000 0.000000 0.000000 -0.009387 0.000000 0.046687
#
#
# Mechanical properties :
#
#
# Convention : Reuss Voigt Hill
#
# Bulk Modulus (GPa) = 9.25879 17.55797 13.40838
# Shear Modulus (GPa) = 13.24308 23.16657 18.20482
#
# Velocity S-wave (km/s) = 2.61596 3.45993 3.06711
# Velocity P-wave (km/s) = 3.72944 5.00344 4.41266
#
# Compressibility (1/GPa) = 0.10800544
#
# Stress axis : x y z
#
# Youngs Moduli (GPa) = 76.25521 8.45572 46.26314
#
# Poissons Ratio (x) = 0.10955 -0.16953
# Poissons Ratio (y) = 0.98794 0.61078
# Poissons Ratio (z) = -0.27944 0.11164
#
# Static dielectric constant tensor:
#      x y z
#    x 1.648190 0.000000 0.022070 
#    y 0.000000 1.680140 0.000000 
#    z 0.022070 0.000000 1.629030 
# 
# From -- ./inp_files/360004.got.cif
#   From: 2010.05.17/outbox.cif.g08.bks.cpg/sg12_181_cif.got.tgz:360004.got - 2010.06.03 13:09:07.
