data_PCOD9186379
_publ_section_title
;
Structure prediction by ZEFSAII (Michael W. Deem and Ramdas Pophale) SiO2 
 PCOD9186379
Probable space group: C 2/M
;
_chemical_formula_sum "Si O2"
_cell_formula_units_Z 52
_cell_length_a 13.637978
_cell_length_b 21.565187
_cell_length_c 15.507256
_cell_angle_alpha 90.000000
_cell_angle_beta 153.493433
_cell_angle_gamma 90.000000
_cell_volume 2035.473397
_symmetry_space_group_name_H-M "C 2/M"
_symmetry_group_IT_number 12
_symmetry_cell_setting 'monoclinic'
loop_
_space_group_symop_operation_xyz
x,y,z
-x,y,-z
-x,-y,-z
x,-y,z
1/2+x,1/2+y,z
1/2-x,1/2+y,-z
1/2-x,1/2-y,-z
1/2+x,1/2-y,z
loop_
_atom_site_type_symbol
_atom_site_label
_atom_site_fract_x
_atom_site_fract_y
_atom_site_fract_z
Si Si1 0.318395 0.894323 0.738830
Si Si2 0.214207 0.253216 0.326312
Si Si3 0.306231 0.406607 0.178822
Si Si4 0.641425 0.500000 0.912616
Si Si5 0.232693 0.843889 0.192786
Si Si6 0.010565 0.567698 0.307081
Si Si7 0.104246 0.764400 0.772532
O O1 0.300253 0.819569 0.733130
O O2 0.162576 0.918027 0.694366
O O3 0.329704 0.908495 0.644818
O O4 0.553349 0.922071 0.954560
O O5 0.244032 0.192401 0.291852
O O6 0.419060 0.257669 0.552656
O O7 0.004609 0.250702 0.222788
O O8 0.446438 0.446215 0.223446
O O9 0.323394 0.334537 0.173216
O O10 0.776401 0.552939 0.075869
O O11 0.441371 0.884424 0.326898
O O12 0.220174 0.786829 0.115183
O O13 0.000000 0.878859 0.000000
O O14 0.081323 0.500000 0.395949
#
# Coordination Sequence:
#
# PCOD9186379 Si02
#       7
#     8   8   8   4   8   8   8
#     4  10  19  34  61  93 119 160 202 261 308 373
#     4  11  24  39  62  90 130 164 206 258 319 390
#     4  10  20  34  61  91 124 158 211 258 318 369
#     4   8  20  37  59  87 127 164 204 269 307 371
#     4  12  24  38  64  97 125 165 211 263 318 375
#     4   9  21  39  60  90 130 168 208 262 313 367
#     4  11  24  41  60  90 129 170 204 262 326 373
#
# _framework density 25.546883999999999
#
# number of rings (size 3 to 8) (size 9 to 14) (size 15 to 20)
#    0.462    1.231    3.077    1.385    5.385    2.769 
#    0.000    0.000    1.692    2.769    0.000    0.000 
#    0.000    0.000    0.000    0.000    0.000    0.000 
#
# Total GULP energy -144747.729208 kJ/mol
# GULP energy per Si atom -5567.220354 kJ/mol
# Density = 2.548874 g / cm^3
# Si number density = 25.546884 Si / 1000 Ang^3
#
#
#
# Elastic Constant Matrix: (Units=GPa)
#
#
# Indices 1 2 3 4 5 6 
#
# 1 116.2119 34.9564 15.5882 0.0000 4.7944 -0.0001
# 2 34.9564 123.0073 -3.8812 0.0000 0.5636 0.0000
# 3 15.5882 -3.8812 67.4071 -0.0005 -9.9290 -0.0004
# 4 0.0000 0.0000 -0.0005 17.1303 -0.0002 -3.7743
# 5 4.7944 0.5636 -9.9290 -0.0002 35.1697 -0.0003
# 6 -0.0001 0.0000 -0.0004 -3.7743 -0.0003 40.1968
#
#
#
# Elastic Compliance Matrix: (Units=1/GPa)
#
#
# Indices 1 2 3 4 5 6 
#
# 1 0.009936 -0.002902 -0.002773 0.000000 -0.002091 0.000000
# 2 -0.002902 0.008992 0.001279 0.000000 0.000613 0.000000
# 3 -0.002773 0.001279 0.016280 0.000001 0.004954 0.000000
# 4 0.000000 0.000000 0.000001 0.059609 0.000001 0.005597
# 5 -0.002091 0.000613 0.004954 0.000001 0.030107 0.000000
# 6 0.000000 0.000000 0.000000 0.005597 0.000000 0.025403
#
#
# Mechanical properties :
#
#
# Convention : Reuss Voigt Hill
#
# Bulk Modulus (GPa) = 37.85487 44.43925 41.14706
# Shear Modulus (GPa) = 29.77551 35.83021 32.80286
#
# Velocity S-wave (km/s) = 3.41768 3.74910 3.58722
# Velocity P-wave (km/s) = 5.51580 6.01447 5.77053
#
# Compressibility (1/GPa) = 0.02641668
#
# Stress axis : x y z
#
# Youngs Moduli (GPa) = 100.64491 111.21367 61.42607
#
# Poissons Ratio (x) = 0.32269 0.17032
# Poissons Ratio (y) = 0.29202 -0.07856
# Poissons Ratio (z) = 0.27906 -0.14223
#
# Static dielectric constant tensor:
#      x y z
#    x 2.057370 0.000000 0.033610 
#    y 0.000000 1.984290 0.000000 
#    z 0.033610 0.000000 2.152710 
# 
# From -- ./inp_files/272245.got.cif
#   From: 2010.05.17/outbox.cif.g08.bks.cpg/sg12_137_cif.got.tgz:272245.got - 2010.06.03 13:09:07.
