data_PCOD9186119
_publ_section_title
;
Structure prediction by ZEFSAII (Michael W. Deem and Ramdas Pophale) SiO2 
 PCOD9186119
Probable space group: C 2/M
;
_chemical_formula_sum "Si O2"
_cell_formula_units_Z 56
_cell_length_a 28.133382
_cell_length_b 8.305168
_cell_length_c 14.065633
_cell_angle_alpha 90.000000
_cell_angle_beta 60.091016
_cell_angle_gamma 90.000000
_cell_volume 2848.773076
_symmetry_space_group_name_H-M "C 2/M"
_symmetry_group_IT_number 12
_symmetry_cell_setting 'monoclinic'
loop_
_space_group_symop_operation_xyz
x,y,z
-x,y,-z
-x,-y,-z
x,-y,z
1/2+x,1/2+y,z
1/2-x,1/2+y,-z
1/2-x,1/2-y,-z
1/2+x,1/2-y,z
loop_
_atom_site_type_symbol
_atom_site_label
_atom_site_fract_x
_atom_site_fract_y
_atom_site_fract_z
Si Si1 0.380622 0.196907 0.189208
Si Si2 0.808682 0.191248 0.903776
Si Si3 0.476260 0.803230 0.237706
Si Si4 0.332118 0.192779 0.667396
Si Si5 0.238053 0.692608 0.618314
Si Si6 0.548449 0.196842 0.522318
Si Si7 0.596386 0.194850 0.049380
O O1 0.429143 0.248258 0.211413
O O2 0.321393 0.250658 0.285963
O O3 0.380627 0.000000 0.189167
O O4 0.391494 0.248851 0.070314
O O5 0.819601 0.253604 0.786750
O O6 0.856431 0.250353 0.926276
O O7 0.808416 0.000000 0.902218
O O8 0.750000 0.250000 0.000000
O O9 0.463064 0.751752 0.358225
O O10 0.536462 0.751071 0.144131
O O11 0.476334 0.000000 0.237454
O O12 0.285421 0.251961 0.642398
O O13 0.392113 0.250311 0.573687
O O14 0.332797 0.000000 0.664092
O O15 0.236530 0.500000 0.619703
O O16 0.250000 0.750000 0.500000
O O17 0.500000 0.248437 0.500000
O O18 0.548565 0.000000 0.522010
O O19 0.596015 0.000000 0.049367
#
# Coordination Sequence:
#
# PCOD9186119 Si02
#       7
#     8   8   8   8   8   8   8
#     4   9  18  32  53  82 112 145 188 239 287 336
#     4  12  25  41  60  83 114 150 191 236 286 345
#     4   9  16  29  53  85 116 146 187 236 281 331
#     4  11  22  38  61  87 116 150 190 237 291 345
#     4  11  22  37  57  82 116 155 197 243 291 343
#     4   9  17  30  52  83 115 148 188 233 281 341
#     4  10  19  34  59  87 113 144 187 239 292 340
#
# _framework density 19.657585999999998
#
# number of rings (size 3 to 8) (size 9 to 14) (size 15 to 20)
#    0.000    1.857    0.000    5.143    0.000    7.429 
#    0.000    0.714    0.000   14.571    0.000    0.000 
#    0.000    0.000    0.000    0.000    0.000    0.000 
#
# Total GULP energy -156508.344296 kJ/mol
# GULP energy per Si atom -5589.583725 kJ/mol
# Density = 1.961284 g / cm^3
# Si number density = 19.657586 Si / 1000 Ang^3
#
#
#
# Elastic Constant Matrix: (Units=GPa)
#
#
# Indices 1 2 3 4 5 6 
#
# 1 245.0509 26.8219 146.8763 0.0000 -1.2744 0.0000
# 2 26.8219 28.2009 30.7680 0.0000 -2.2918 0.0000
# 3 146.8763 30.7680 222.8424 0.0000 -1.1785 0.0000
# 4 0.0000 0.0000 0.0000 21.8371 0.0000 1.2659
# 5 -1.2744 -2.2918 -1.1785 0.0000 47.5649 0.0000
# 6 0.0000 0.0000 0.0000 1.2659 0.0000 27.1359
#
#
#
# Elastic Compliance Matrix: (Units=1/GPa)
#
#
# Indices 1 2 3 4 5 6 
#
# 1 0.006828 -0.001866 -0.004243 0.000000 -0.000012 0.000000
# 2 -0.001866 0.042426 -0.004618 0.000000 0.001880 0.000000
# 3 -0.004243 -0.004618 0.007921 0.000000 -0.000140 0.000000
# 4 0.000000 0.000000 0.000000 0.045918 0.000000 -0.002142
# 5 -0.000012 0.001880 -0.000140 0.000000 0.021111 0.000000
# 6 0.000000 0.000000 0.000000 -0.002142 0.000000 0.036952
#
#
# Mechanical properties :
#
#
# Convention : Reuss Voigt Hill
#
# Bulk Modulus (GPa) = 27.99477 100.55852 64.27664
# Shear Modulus (GPa) = 25.70502 38.74946 32.22724
#
# Velocity S-wave (km/s) = 3.62005 4.44466 4.05338
# Velocity P-wave (km/s) = 5.63428 8.80943 7.39430
#
# Compressibility (1/GPa) = 0.03572096
#
# Stress axis : x y z
#
# Youngs Moduli (GPa) = 146.45693 23.57066 126.25107
#
# Poissons Ratio (x) = 0.04399 0.53565
# Poissons Ratio (y) = 0.27330 0.58301
# Poissons Ratio (z) = 0.62138 0.10885
#
# Static dielectric constant tensor:
#      x y z
#    x 1.667440 0.000000 -0.015100 
#    y 0.000000 1.700770 0.000000 
#    z -0.015100 0.000000 1.655790 
# 
# From -- ./inp_files/180709.got.cif
#   From: 2010.05.17/outbox.cif.g08.bks.cpg/sg12_91_cif.got.tgz:180709.got - 2010.06.03 13:09:07.
