data_PCOD9186416
_publ_section_title
;
Structure prediction by ZEFSAII (Michael W. Deem and Ramdas Pophale) SiO2 
 PCOD9186416
Probable space group: C 2/M
;
_chemical_formula_sum "Si O2"
_cell_formula_units_Z 40
_cell_length_a 7.770821
_cell_length_b 17.228531
_cell_length_c 13.636608
_cell_angle_alpha 90.000000
_cell_angle_beta 62.773211
_cell_angle_gamma 90.000000
_cell_volume 1623.387558
_symmetry_space_group_name_H-M "C 2/M"
_symmetry_group_IT_number 12
_symmetry_cell_setting 'monoclinic'
loop_
_space_group_symop_operation_xyz
x,y,z
-x,y,-z
-x,-y,-z
x,-y,z
1/2+x,1/2+y,z
1/2-x,1/2+y,-z
1/2-x,1/2-y,-z
1/2+x,1/2-y,z
loop_
_atom_site_type_symbol
_atom_site_label
_atom_site_fract_x
_atom_site_fract_y
_atom_site_fract_z
Si Si1 0.339157 0.798371 0.389026
Si Si2 0.687211 0.090014 0.325290
Si Si3 0.312936 0.136140 0.095276
Si Si4 0.423668 0.584920 0.658129
Si Si5 0.060072 0.792833 0.834380
O O1 0.250000 0.750000 0.500000
O O2 0.435701 0.742389 0.279883
O O3 0.496798 0.858859 0.388485
O O4 0.168216 0.847669 0.382831
O O5 0.851831 0.090436 0.367502
O O6 0.788533 0.136758 0.209620
O O7 0.642934 0.000000 0.317006
O O8 0.136841 0.168254 0.076341
O O9 0.390799 0.216093 0.120993
O O10 0.500000 0.096956 0.000000
O O11 0.391084 0.500000 0.622255
O O12 0.297787 0.589501 0.791254
#
# Coordination Sequence:
#
# PCOD9186416 Si02
#       5
#     8   8   8   8   8
#     4  11  23  40  66  97 127 177 228 281 339 406
#     4  10  21  42  67  92 134 177 217 279 343 397
#     4  10  19  34  62  93 129 174 221 279 336 397
#     4   9  21  41  65  98 137 174 224 282 337 404
#     4  10  20  39  58  94 130 167 226 278 330 396
#
# _framework density 24.639835000000001
#
# number of rings (size 3 to 8) (size 9 to 14) (size 15 to 20)
#    0.000    2.000    2.000    1.200    0.000    2.000 
#    0.000    3.000    0.000    6.600    0.000    0.000 
#    0.000    0.000    0.000    0.000    0.000    0.000 
#
# Total GULP energy -111842.154103 kJ/mol
# GULP energy per Si atom -5592.107705 kJ/mol
# Density = 2.458375 g / cm^3
# Si number density = 24.639835 Si / 1000 Ang^3
#
#
#
# Elastic Constant Matrix: (Units=GPa)
#
#
# Indices 1 2 3 4 5 6 
#
# 1 79.8010 38.3172 44.7247 0.0000 -28.2774 0.0000
# 2 38.3172 164.4308 35.5741 0.0000 -13.5839 0.0000
# 3 44.7247 35.5741 118.4963 0.0000 -33.0112 0.0000
# 4 0.0000 0.0000 0.0000 8.2520 0.0000 -12.8184
# 5 -28.2774 -13.5839 -33.0112 0.0000 39.8594 0.0000
# 6 0.0000 0.0000 0.0000 -12.8184 0.0000 25.8088
#
#
#
# Elastic Compliance Matrix: (Units=1/GPa)
#
#
# Indices 1 2 3 4 5 6 
#
# 1 0.019489 -0.002923 -0.003775 0.000000 0.009703 0.000000
# 2 -0.002923 0.006961 -0.001174 0.000000 -0.000674 0.000000
# 3 -0.003775 -0.001174 0.012166 0.000000 0.006997 0.000000
# 4 0.000000 0.000000 0.000000 0.530363 0.000000 0.263415
# 5 0.009703 -0.000674 0.006997 0.000000 0.037537 0.000000
# 6 0.000000 0.000000 0.000000 0.263415 0.000000 0.169577
#
#
# Mechanical properties :
#
#
# Convention : Reuss Voigt Hill
#
# Bulk Modulus (GPa) = 43.72382 66.66224 55.19303
# Shear Modulus (GPa) = 6.25421 31.05818 18.65620
#
# Velocity S-wave (km/s) = 1.59492 3.55418 2.75463
# Velocity P-wave (km/s) = 4.60167 6.62996 5.70665
#
# Compressibility (1/GPa) = 0.02287083
#
# Stress axis : x y z
#
# Youngs Moduli (GPa) = 51.31151 143.65468 82.19775
#
# Poissons Ratio (x) = 0.41992 0.31030
# Poissons Ratio (y) = 0.14999 0.09652
# Poissons Ratio (z) = 0.19370 0.16869
#
# Static dielectric constant tensor:
#      x y z
#    x 2.030700 0.000000 0.005580 
#    y 0.000000 1.928090 0.000000 
#    z 0.005580 0.000000 2.013340 
# 
# From -- ./inp_files/305098.got.cif
#   From: 2010.05.17/outbox.cif.g08.bks.cpg/sg12_153_cif.got.tgz:305098.got - 2010.06.03 13:09:07.
