data_PCOD9186053
_publ_section_title
;
Structure prediction by ZEFSAII (Michael W. Deem and Ramdas Pophale) SiO2 
 PCOD9186053
Probable space group: C 2/M
;
_chemical_formula_sum "Si O2"
_cell_formula_units_Z 48
_cell_length_a 29.232078
_cell_length_b 13.822158
_cell_length_c 9.879759
_cell_angle_alpha 90.000000
_cell_angle_beta 32.740752
_cell_angle_gamma 90.000000
_cell_volume 2158.985194
_symmetry_space_group_name_H-M "C 2/M"
_symmetry_group_IT_number 12
_symmetry_cell_setting 'monoclinic'
loop_
_space_group_symop_operation_xyz
x,y,z
-x,y,-z
-x,-y,-z
x,-y,z
1/2+x,1/2+y,z
1/2-x,1/2+y,-z
1/2-x,1/2-y,-z
1/2+x,1/2-y,z
loop_
_atom_site_type_symbol
_atom_site_label
_atom_site_fract_x
_atom_site_fract_y
_atom_site_fract_z
Si Si1 0.362776 0.892902 0.927726
Si Si2 0.076811 0.107504 0.024637
Si Si3 0.622250 0.686283 0.181710
Si Si4 0.418474 0.724017 0.413357
Si Si5 0.694113 0.109878 0.237280
Si Si6 0.799300 0.889075 0.508770
O O1 0.299007 0.878571 0.211558
O O2 0.403952 0.000000 0.836489
O O3 0.409542 0.791245 0.793357
O O4 0.311412 0.894829 0.912835
O O5 0.087854 0.112491 0.157785
O O6 0.011717 0.190137 0.141296
O O7 0.046026 0.000000 0.062091
O O8 0.167020 0.123538 0.727026
O O9 0.596531 0.676740 0.400956
O O10 0.723934 0.672783 0.928168
O O11 0.390344 0.835104 0.503313
O O12 0.353860 0.679371 0.467588
O O13 0.701421 0.000000 0.269089
O O14 0.818871 0.000000 0.499116
#
# Coordination Sequence:
#
# PCOD9186053 Si02
#       6
#     8   8   8   8   8   8
#     4   9  17  33  58  85 107 138 185 224 261 319
#     4  11  25  36  52  84 117 143 172 224 284 323
#     4  11  20  36  57  85 112 139 176 228 281 313
#     4  11  20  37  56  81 107 147 187 217 263 325
#     4  10  19  34  59  84 107 140 184 228 265 313
#     4  10  19  35  57  80 108 144 183 217 264 327
#
# _framework density 22.232668
#
# number of rings (size 3 to 8) (size 9 to 14) (size 15 to 20)
#    0.000    1.667    3.333    3.000    0.000    4.667 
#    0.000    0.833    0.000    6.000    0.000    0.000 
#    0.000    0.000    0.000    0.000    0.000    0.000 
#
# Total GULP energy -133875.614420 kJ/mol
# GULP energy per Si atom -5578.150601 kJ/mol
# Density = 2.218207 g / cm^3
# Si number density = 22.232668 Si / 1000 Ang^3
#
#
#
# Elastic Constant Matrix: (Units=GPa)
#
#
# Indices 1 2 3 4 5 6 
#
# 1 25.7551 8.4150 -0.1200 0.0000 9.6738 0.0000
# 2 8.4150 94.2843 30.7144 0.0000 2.3599 0.0000
# 3 -0.1200 30.7144 65.6212 0.0000 0.8127 0.0000
# 4 0.0000 0.0000 0.0000 19.9927 0.0000 5.4932
# 5 9.6738 2.3599 0.8127 0.0000 25.5180 0.0000
# 6 0.0000 0.0000 0.0000 5.4932 0.0000 14.8903
#
#
#
# Elastic Compliance Matrix: (Units=1/GPa)
#
#
# Indices 1 2 3 4 5 6 
#
# 1 0.046866 -0.004537 0.002425 0.000000 -0.017424 0.000000
# 2 -0.004537 0.012978 -0.006091 0.000000 0.000714 0.000000
# 3 0.002425 -0.006091 0.018106 0.000000 -0.000933 0.000000
# 4 0.000000 0.000000 0.000000 0.055660 0.000000 -0.020534
# 5 -0.017424 0.000714 -0.000933 0.000000 0.045757 0.000000
# 6 0.000000 0.000000 0.000000 -0.020534 0.000000 0.074733
#
#
# Mechanical properties :
#
#
# Convention : Reuss Voigt Hill
#
# Bulk Modulus (GPa) = 16.24882 29.29772 22.77327
# Shear Modulus (GPa) = 17.18096 21.85696 19.51896
#
# Velocity S-wave (km/s) = 2.78291 3.13885 2.96622
# Velocity P-wave (km/s) = 4.20125 5.13253 4.69006
#
# Compressibility (1/GPa) = 0.06154294
#
# Stress axis : x y z
#
# Youngs Moduli (GPa) = 21.33764 77.05579 55.23005
#
# Poissons Ratio (x) = 0.34957 -0.13393
# Poissons Ratio (y) = 0.09680 0.33643
# Poissons Ratio (z) = -0.05174 0.46938
#
# Static dielectric constant tensor:
#      x y z
#    x 1.789410 0.000000 -0.017520 
#    y 0.000000 1.843140 0.000000 
#    z -0.017520 0.000000 1.849060 
# 
# From -- ./inp_files/104946.got.cif
#   From: 2010.05.17/outbox.cif.g08.bks.cpg/sg12_53_cif.got.tgz:104946.got - 2010.06.03 13:09:07.
