data_PCOD9186767
_publ_section_title
;
Structure prediction by ZEFSAII (Michael W. Deem and Ramdas Pophale) SiO2 
 PCOD9186767
Probable space group: C 2/M
;
_chemical_formula_sum "Si O2"
_cell_formula_units_Z 64
_cell_length_a 21.018558
_cell_length_b 9.238897
_cell_length_c 19.662351
_cell_angle_alpha 90.000000
_cell_angle_beta 90.000041
_cell_angle_gamma 90.000000
_cell_volume 3818.198366
_symmetry_space_group_name_H-M "C 2/M"
_symmetry_group_IT_number 12
_symmetry_cell_setting 'monoclinic'
loop_
_space_group_symop_operation_xyz
x,y,z
-x,y,-z
-x,-y,-z
x,-y,z
1/2+x,1/2+y,z
1/2-x,1/2+y,-z
1/2-x,1/2-y,-z
1/2+x,1/2-y,z
loop_
_atom_site_type_symbol
_atom_site_label
_atom_site_fract_x
_atom_site_fract_y
_atom_site_fract_z
Si Si1 0.190502 0.326903 0.034125
Si Si2 0.629018 0.173003 0.327406
Si Si3 0.129018 0.326997 0.172594
Si Si4 0.561039 0.172801 0.953241
Si Si5 0.809498 0.326903 0.534124
Si Si6 0.506942 0.328026 0.828241
Si Si7 0.938961 0.327199 0.453241
Si Si8 0.993058 0.171974 0.328241
O O1 0.199648 0.500000 0.031584
O O2 0.177377 0.286045 0.112779
O O3 0.250000 0.250000 0.000000
O O4 0.125633 0.293234 0.993231
O O5 0.651054 0.200366 0.250000
O O6 0.677376 0.213955 0.387222
O O7 0.562415 0.255257 0.337307
O O8 0.616867 0.000000 0.334070
O O9 0.116868 0.500000 0.165930
O O10 0.062415 0.244743 0.162693
O O11 0.553373 0.257292 0.883004
O O12 0.559065 0.000000 0.941021
O O13 0.500000 0.208957 0.000000
O O14 0.800352 0.500000 0.531584
O O15 0.750000 0.250000 0.500000
O O16 0.874367 0.293235 0.493230
O O17 0.502236 0.500000 0.838277
O O18 0.526305 0.300929 0.750000
O O19 0.940936 0.500000 0.441022
O O20 0.000000 0.291040 0.500000
O O21 0.946627 0.242708 0.383004
O O22 0.997764 0.000000 0.338277
#
# Coordination Sequence:
#
# PCOD9186767 Si02
#       8
#     8   8   8   8   8   8   8   8
#     4  10  21  36  54  79 108 140 177 218 265 318
#     4   9  17  33  56  77 101 138 180 218 260 316
#     4   9  17  33  56  77 101 138 180 218 260 316
#     4  10  19  35  56  78 105 139 180 218 257 316
#     4  10  21  36  54  79 108 140 177 218 265 318
#     4  10  20  32  50  81 113 138 172 222 274 315
#     4  10  19  35  56  78 105 139 180 218 257 316
#     4  10  20  32  50  81 113 138 172 222 274 315
#
# _framework density 16.761832999999999
#
# number of rings (size 3 to 8) (size 9 to 14) (size 15 to 20)
#    0.000    2.250    2.500    0.750    0.000    4.000 
#    0.000    1.250    0.000    4.500    0.000    0.000 
#    0.000    0.000    0.000    0.000    0.000    0.000 
#
# Total GULP energy -178489.619030 kJ/mol
# GULP energy per Si atom -5577.800595 kJ/mol
# Density = 1.672368 g / cm^3
# Si number density = 16.761833 Si / 1000 Ang^3
#
#
#
# Elastic Constant Matrix: (Units=GPa)
#
#
# Indices 1 2 3 4 5 6 
#
# 1 101.3736 40.5576 73.6303 0.0000 0.0002 0.0000
# 2 40.5576 32.1498 60.8426 0.0000 0.0004 0.0000
# 3 73.6303 60.8426 157.7816 0.0000 -0.0003 0.0000
# 4 0.0000 0.0000 0.0000 27.7275 0.0000 0.0000
# 5 0.0002 0.0004 -0.0003 0.0000 25.7551 0.0000
# 6 0.0000 0.0000 0.0000 0.0000 0.0000 29.3423
#
#
#
# Elastic Compliance Matrix: (Units=1/GPa)
#
#
# Indices 1 2 3 4 5 6 
#
# 1 0.020008 -0.028015 0.001466 0.000000 0.000000 0.000000
# 2 -0.028015 0.154326 -0.046437 0.000000 -0.000003 0.000000
# 3 0.001466 -0.046437 0.023560 0.000000 0.000001 0.000000
# 4 0.000000 0.000000 0.000000 0.036065 0.000000 0.000000
# 5 0.000000 -0.000003 0.000001 0.000000 0.038827 0.000000
# 6 0.000000 0.000000 0.000000 0.000000 0.000000 0.034080
#
#
# Mechanical properties :
#
#
# Convention : Reuss Voigt Hill
#
# Bulk Modulus (GPa) = 19.25921 71.26292 45.26106
# Shear Modulus (GPa) = 10.63501 24.31662 17.47581
#
# Velocity S-wave (km/s) = 2.52162 3.81296 3.23243
# Velocity P-wave (km/s) = 4.47135 7.87351 6.40254
#
# Compressibility (1/GPa) = 0.05192322
#
# Stress axis : x y z
#
# Youngs Moduli (GPa) = 49.98033 6.47980 42.44416
#
# Poissons Ratio (x) = 0.18153 -0.06222
# Poissons Ratio (y) = 1.40018 1.97097
# Poissons Ratio (z) = -0.07327 0.30090
#
# Static dielectric constant tensor:
#      x y z
#    x 1.527460 0.000000 0.000000 
#    y 0.000000 1.557900 0.000000 
#    z 0.000000 0.000000 1.589980 
# 
# From -- ./inp_files/281415.got.cif
#   From: 2010.05.17/outbox.cif.g08.bks.cpg/sg12_141_cif.got.tgz:281415.got - 2010.06.03 13:09:07.
