data_PCOD9186442
_publ_section_title
;
Structure prediction by ZEFSAII (Michael W. Deem and Ramdas Pophale) SiO2 
 PCOD9186442
Probable space group: C 2/M
;
_chemical_formula_sum "Si O2"
_cell_formula_units_Z 36
_cell_length_a 22.802617
_cell_length_b 14.350456
_cell_length_c 7.328925
_cell_angle_alpha 90.000000
_cell_angle_beta 141.902997
_cell_angle_gamma 90.000000
_cell_volume 1479.694683
_symmetry_space_group_name_H-M "C 2/M"
_symmetry_group_IT_number 12
_symmetry_cell_setting 'monoclinic'
loop_
_space_group_symop_operation_xyz
x,y,z
-x,y,-z
-x,-y,-z
x,-y,z
1/2+x,1/2+y,z
1/2-x,1/2+y,-z
1/2-x,1/2-y,-z
1/2+x,1/2-y,z
loop_
_atom_site_type_symbol
_atom_site_label
_atom_site_fract_x
_atom_site_fract_y
_atom_site_fract_z
Si Si1 0.201576 0.299580 0.133779
Si Si2 0.135517 0.317428 0.551254
Si Si3 0.421524 0.500000 0.974584
Si Si4 0.974793 0.799616 0.226843
Si Si5 0.781962 0.500000 0.680676
Si Si6 0.008756 0.500000 0.295515
O O1 0.270112 0.210181 0.326777
O O2 0.238059 0.401722 0.269736
O O3 0.171008 0.310034 0.847569
O O4 0.107927 0.273694 0.016405
O O5 0.072116 0.410632 0.388700
O O6 0.067140 0.230178 0.343850
O O7 0.306214 0.500000 0.675131
O O8 0.500000 0.500000 0.000000
O O9 0.445162 0.404548 0.132269
O O10 0.000000 0.785017 0.500000
O O11 0.899276 0.500000 0.951340
O O12 0.000000 0.500000 0.500000
#
# Coordination Sequence:
#
# PCOD9186442 Si02
#       6
#     8   8   4   8   4   4
#     4  10  20  35  63  96 124 167 217 267 322 382
#     4  10  19  34  63  96 126 161 220 272 317 377
#     4  12  27  42  61  92 137 177 216 265 335 398
#     4  10  21  42  65  90 126 172 221 273 317 381
#     4  12  22  39  63  90 127 174 210 257 334 391
#     4  12  18  37  62  91 128 170 215 271 321 384
#
# _framework density 24.329345
#
# number of rings (size 3 to 8) (size 9 to 14) (size 15 to 20)
#    0.000    1.333    4.444    2.333    0.000    1.778 
#    0.000    3.333    0.000    1.333    0.000    0.000 
#    0.000    0.000    0.000    0.000    0.000    0.000 
#
# Total GULP energy -100432.495354 kJ/mol
# GULP energy per Si atom -5579.583075 kJ/mol
# Density = 2.427397 g / cm^3
# Si number density = 24.329345 Si / 1000 Ang^3
#
#
#
# Elastic Constant Matrix: (Units=GPa)
#
#
# Indices 1 2 3 4 5 6 
#
# 1 48.7999 13.4229 23.6042 0.0000 16.3090 0.0000
# 2 13.4229 178.4524 51.0708 0.0000 24.9122 0.0000
# 3 23.6042 51.0708 106.6364 0.0000 19.4282 0.0000
# 4 0.0000 0.0000 0.0000 -6.0125 0.0000 115.6786
# 5 16.3090 24.9122 19.4282 0.0000 39.7579 0.0000
# 6 0.0000 0.0000 0.0000 115.6786 0.0000 -143.8481
#
#
#
# Elastic Compliance Matrix: (Units=1/GPa)
#
#
# Indices 1 2 3 4 5 6 
#
# 1 0.025297 0.000525 -0.004282 0.000000 -0.008614 0.000000
# 2 0.000525 0.006801 -0.002808 0.000000 -0.003105 0.000000
# 3 -0.004282 -0.002808 0.012108 0.000000 -0.002401 0.000000
# 4 0.000000 0.000000 0.000000 0.011493 0.000000 0.009242
# 5 -0.008614 -0.003105 -0.002401 0.000000 0.031804 0.000000
# 6 0.000000 0.000000 0.000000 0.009242 0.000000 0.000480
#
#
# Mechanical properties :
#
#
# Convention : Reuss Voigt Hill
#
# Bulk Modulus (GPa) = 32.17805 56.67604 44.42704
# Shear Modulus (GPa) = 44.85463 -5.63449 19.61007
#
# Velocity S-wave (km/s) = 4.29842 -1.52347 2.84214
# Velocity P-wave (km/s) = 6.15549 4.50015 5.39172
#
# Compressibility (1/GPa) = 0.03107709
#
# Stress axis : x y z
#
# Youngs Moduli (GPa) = 39.53009 147.03165 82.59311
#
# Poissons Ratio (x) = -0.07720 0.35364
# Poissons Ratio (y) = -0.02075 0.23191
# Poissons Ratio (z) = 0.16926 0.41284
#
# Static dielectric constant tensor:
#      x y z
#    x 1.951780 0.000000 -0.024030 
#    y 0.000000 1.877490 0.000000 
#    z -0.024030 0.000000 1.987510 
# 
# From -- ./inp_files/59010.got.cif
#   From: 2010.05.17/outbox.cif.g08.bks.cpg/sg12_30_cif.got.tgz:59010.got - 2010.06.03 13:09:07.
