data_PCOD9186027
_publ_section_title
;
Structure prediction by ZEFSAII (Michael W. Deem and Ramdas Pophale) SiO2 
 PCOD9186027
Probable space group: C 2/M
;
_chemical_formula_sum "Si O2"
_cell_formula_units_Z 42
_cell_length_a 10.102977
_cell_length_b 22.030949
_cell_length_c 10.003084
_cell_angle_alpha 90.000000
_cell_angle_beta 74.313808
_cell_angle_gamma 90.000000
_cell_volume 2143.547637
_symmetry_space_group_name_H-M "C 2/M"
_symmetry_group_IT_number 12
_symmetry_cell_setting 'monoclinic'
loop_
_space_group_symop_operation_xyz
x,y,z
-x,y,-z
-x,-y,-z
x,-y,z
1/2+x,1/2+y,z
1/2-x,1/2+y,-z
1/2-x,1/2-y,-z
1/2+x,1/2-y,z
loop_
_atom_site_type_symbol
_atom_site_label
_atom_site_fract_x
_atom_site_fract_y
_atom_site_fract_z
Si Si1 0.500000 0.000000 0.500000
Si Si2 0.143977 0.500000 0.034249
Si Si3 0.107138 0.399279 0.260822
Si Si4 0.045323 0.107891 0.340997
Si Si5 0.322259 0.828404 0.336666
Si Si6 0.444771 0.500000 0.862068
Si Si7 0.696907 0.691379 0.662282
O O1 0.576937 0.946507 0.389267
O O2 0.144367 0.440463 0.125268
O O3 0.279241 0.500000 0.908647
O O4 0.000000 0.500000 0.000000
O O5 0.231066 0.353917 0.255831
O O6 0.968287 0.360264 0.279158
O O7 0.203169 0.128460 0.310626
O O8 0.000000 0.084004 0.500000
O O9 0.952647 0.166983 0.338191
O O10 0.014534 0.058932 0.235211
O O11 0.311487 0.760029 0.284707
O O12 0.289591 0.816738 0.502902
O O13 0.500000 0.500000 0.000000
#
# Coordination Sequence:
#
# PCOD9186027 Si02
#       7
#     2   4   8   8   8   4   8
#     4  10  20  32  54  88 112 142 192 236 280 320
#     4  11  25  40  60  81 113 164 200 240 297 348
#     4  11  20  37  59  86 118 153 196 242 285 354
#     4  10  22  38  60  92 117 152 197 247 294 354
#     4  10  19  34  59  89 126 149 188 247 297 348
#     4  12  24  43  60  82 121 163 194 245 301 358
#     4  10  19  34  58  92 120 155 187 241 306 347
#
# _framework density 19.593685000000001
#
# number of rings (size 3 to 8) (size 9 to 14) (size 15 to 20)
#    0.000    1.524    1.905    3.714    0.000    4.571 
#    0.000    0.000    0.000   22.857    0.000    0.000 
#    0.000    0.000    0.000    0.000    0.000    0.000 
#
# Total GULP energy -117008.461464 kJ/mol
# GULP energy per Si atom -5571.831498 kJ/mol
# Density = 1.954909 g / cm^3
# Si number density = 19.593685 Si / 1000 Ang^3
#
#
#
# Elastic Constant Matrix: (Units=GPa)
#
#
# Indices 1 2 3 4 5 6 
#
# 1 84.0543 18.8586 4.3907 0.0000 4.1477 0.0000
# 2 18.8586 127.3426 28.0444 0.0000 11.5552 0.0000
# 3 4.3907 28.0444 46.5490 0.0000 9.5044 0.0000
# 4 0.0000 0.0000 0.0000 9.3900 0.0000 5.4946
# 5 4.1477 11.5552 9.5044 0.0000 28.9936 0.0000
# 6 0.0000 0.0000 0.0000 5.4946 0.0000 6.0741
#
#
#
# Elastic Compliance Matrix: (Units=1/GPa)
#
#
# Indices 1 2 3 4 5 6 
#
# 1 0.012339 -0.001753 0.000118 0.000000 -0.001105 0.000000
# 2 -0.001753 0.009407 -0.005131 0.000000 -0.001816 0.000000
# 3 0.000118 -0.005131 0.025881 0.000000 -0.006456 0.000000
# 4 0.000000 0.000000 0.000000 0.226263 0.000000 -0.204675
# 5 -0.001105 -0.001816 -0.006456 0.000000 0.037489 0.000000
# 6 0.000000 0.000000 0.000000 -0.204675 0.000000 0.349779
#
#
# Mechanical properties :
#
#
# Convention : Reuss Voigt Hill
#
# Bulk Modulus (GPa) = 29.33029 40.05925 34.69477
# Shear Modulus (GPa) = 7.28803 22.66837 14.97820
#
# Velocity S-wave (km/s) = 1.93071 3.40505 2.76785
# Velocity P-wave (km/s) = 4.46900 5.99570 5.28774
#
# Compressibility (1/GPa) = 0.03409444
#
# Stress axis : x y z
#
# Youngs Moduli (GPa) = 81.04552 106.29993 38.63786
#
# Poissons Ratio (x) = 0.18634 -0.00456
# Poissons Ratio (y) = 0.14207 0.19827
# Poissons Ratio (z) = -0.00956 0.54547
#
# Static dielectric constant tensor:
#      x y z
#    x 1.668190 0.000000 0.024550 
#    y 0.000000 1.682280 0.000000 
#    z 0.024550 0.000000 1.685260 
# 
# From -- ./inp_files/49234.got.cif
#   From: 2010.05.17/outbox.cif.g08.bks.cpg/sg12_25_cif.got.tgz:49234.got - 2010.06.03 13:09:07.
