data_PCOD9186224
_publ_section_title
;
Structure prediction by ZEFSAII (Michael W. Deem and Ramdas Pophale) SiO2 
 PCOD9186224
Probable space group: C 2/M
;
_chemical_formula_sum "Si O2"
_cell_formula_units_Z 56
_cell_length_a 5.905019
_cell_length_b 27.776883
_cell_length_c 18.932243
_cell_angle_alpha 90.000000
_cell_angle_beta 63.111277
_cell_angle_gamma 90.000000
_cell_volume 2769.596482
_symmetry_space_group_name_H-M "C 2/M"
_symmetry_group_IT_number 12
_symmetry_cell_setting 'monoclinic'
loop_
_space_group_symop_operation_xyz
x,y,z
-x,y,-z
-x,-y,-z
x,-y,z
1/2+x,1/2+y,z
1/2-x,1/2+y,-z
1/2-x,1/2-y,-z
1/2+x,1/2-y,z
loop_
_atom_site_type_symbol
_atom_site_label
_atom_site_fract_x
_atom_site_fract_y
_atom_site_fract_z
Si Si1 0.092439 0.271787 0.782105
Si Si2 0.747119 0.179038 0.076740
Si Si3 0.612354 0.731826 0.590406
Si Si4 0.565884 0.915888 0.916270
Si Si5 0.576803 0.054903 0.754681
Si Si6 0.588524 0.644076 0.313137
Si Si7 0.884324 0.877922 0.194501
O O1 0.372410 0.251311 0.763904
O O2 0.164571 0.323580 0.738262
O O3 0.958691 0.280379 0.877347
O O4 0.608095 0.132369 0.062641
O O5 0.823479 0.160874 0.143830
O O6 0.000000 0.192292 0.000000
O O7 0.750000 0.750000 0.500000
O O8 0.323777 0.753479 0.620549
O O9 0.561089 0.674452 0.606622
O O10 0.538106 0.942816 0.845480
O O11 0.858251 0.901177 0.871141
O O12 0.500000 0.940277 0.000000
O O13 0.807708 0.089642 0.696901
O O14 0.322567 0.080838 0.764672
O O15 0.607720 0.000000 0.728270
O O16 0.430276 0.645798 0.263383
#
# Coordination Sequence:
#
# PCOD9186224 Si02
#       7
#     8   8   8   8   8   8   8
#     4  12  25  37  57  87 118 161 218 262 322 393
#     4  11  21  35  55  76 114 162 222 281 337 396
#     4  10  23  42  69 109 147 173 211 252 311 390
#     4  10  19  34  60  77 110 161 217 286 360 402
#     4  10  23  38  58  91 121 159 225 281 337 404
#     4  11  22  39  66  88 130 173 205 266 332 386
#     4  10  19  36  57  82 115 164 214 271 342 389
#
# _framework density 20.219553999999999
#
# number of rings (size 3 to 8) (size 9 to 14) (size 15 to 20)
#    0.000    1.429    5.714    1.714    2.000    3.143 
#    0.000    0.714    0.000    0.000    0.000    4.000 
#    0.000    0.000    0.000    0.000    0.000    0.000 
#
# Total GULP energy -155977.782192 kJ/mol
# GULP energy per Si atom -5570.635078 kJ/mol
# Density = 2.017353 g / cm^3
# Si number density = 20.219554 Si / 1000 Ang^3
#
#
#
# Elastic Constant Matrix: (Units=GPa)
#
#
# Indices 1 2 3 4 5 6 
#
# 1 120.5944 49.2457 36.1330 0.0000 -15.4389 0.0000
# 2 49.2457 112.6023 43.2563 0.0000 0.3973 0.0000
# 3 36.1330 43.2563 87.8689 0.0000 -13.3661 0.0000
# 4 0.0000 0.0000 0.0000 17.2237 0.0000 -10.7552
# 5 -15.4389 0.3973 -13.3661 0.0000 23.1079 0.0000
# 6 0.0000 0.0000 0.0000 -10.7552 0.0000 -1.0833
#
#
#
# Elastic Compliance Matrix: (Units=1/GPa)
#
#
# Indices 1 2 3 4 5 6 
#
# 1 0.011432 -0.004464 -0.001458 0.000000 0.006871 0.000000
# 2 -0.004464 0.012979 -0.005528 0.000000 -0.006403 0.000000
# 3 -0.001458 -0.005528 0.015973 0.000000 0.008360 0.000000
# 4 0.000000 0.000000 0.000000 0.008064 0.000000 -0.080064
# 5 0.006871 -0.006403 0.008360 0.000000 0.052811 0.000000
# 6 0.000000 0.000000 0.000000 -0.080064 0.000000 -0.128216
#
#
# Mechanical properties :
#
#
# Convention : Reuss Voigt Hill
#
# Bulk Modulus (GPa) = 57.19390 64.25951 60.72671
# Shear Modulus (GPa) = 2823.62428 20.67836 1422.15132
#
# Velocity S-wave (km/s) = 37.41007 3.20142 26.54960
# Velocity P-wave (km/s) = 43.52431 6.74651 31.14387
#
# Compressibility (1/GPa) = 0.01748438
#
# Stress axis : x y z
#
# Youngs Moduli (GPa) = 87.47709 77.04755 62.60486
#
# Poissons Ratio (x) = 0.34390 0.09130
# Poissons Ratio (y) = 0.39045 0.34607
# Poissons Ratio (z) = 0.12757 0.42590
#
# Static dielectric constant tensor:
#      x y z
#    x 1.855400 0.000000 -0.008620 
#    y 0.000000 1.749850 0.000000 
#    z -0.008620 0.000000 1.789430 
# 
# From -- ./inp_files/298272.got.cif
#   From: 2010.05.17/outbox.cif.g08.bks.cpg/sg12_150_cif.got.tgz:298272.got - 2010.06.03 13:09:07.
