data_PCOD9186982
_publ_section_title
;
Structure prediction by ZEFSAII (Michael W. Deem and Ramdas Pophale) SiO2 
 PCOD9186982
Probable space group: C 2/M
;
_chemical_formula_sum "Si O2"
_cell_formula_units_Z 48
_cell_length_a 19.714898
_cell_length_b 7.549486
_cell_length_c 15.179934
_cell_angle_alpha 90.000000
_cell_angle_beta 99.335400
_cell_angle_gamma 90.000000
_cell_volume 2229.417663
_symmetry_space_group_name_H-M "C 2/M"
_symmetry_group_IT_number 12
_symmetry_cell_setting 'monoclinic'
loop_
_space_group_symop_operation_xyz
x,y,z
-x,y,-z
-x,-y,-z
x,-y,z
1/2+x,1/2+y,z
1/2-x,1/2+y,-z
1/2-x,1/2-y,-z
1/2+x,1/2-y,z
loop_
_atom_site_type_symbol
_atom_site_label
_atom_site_fract_x
_atom_site_fract_y
_atom_site_fract_z
Si Si1 0.801628 0.288844 0.433127
Si Si2 0.225347 0.217541 0.242795
Si Si3 0.430584 0.708170 0.756770
Si Si4 0.194493 0.287803 0.913219
Si Si5 0.061008 0.285413 0.448790
Si Si6 0.541554 0.206456 0.924573
O O1 0.810204 0.500000 0.422837
O O2 0.750000 0.250000 0.500000
O O3 0.767594 0.221797 0.336930
O O4 0.872498 0.217751 0.485479
O O5 0.145661 0.276103 0.232361
O O6 0.268760 0.277240 0.167857
O O7 0.223044 0.000000 0.242526
O O8 0.431170 0.500000 0.775813
O O9 0.441004 0.731176 0.653961
O O10 0.491786 0.785217 0.829147
O O11 0.187563 0.500000 0.901438
O O12 0.117779 0.218774 0.919798
O O13 0.250000 0.250000 0.000000
O O14 0.062418 0.500000 0.446581
O O15 0.000000 0.230632 0.500000
O O16 0.553662 0.000000 0.949161
O O17 0.500000 0.283353 0.000000
#
# Coordination Sequence:
#
# PCOD9186982 Si02
#       6
#     8   8   8   8   8   8
#     4  10  19  35  57  81 111 147 189 230 274 329
#     4   9  19  35  56  81 110 148 187 226 278 331
#     4  11  22  37  58  83 114 150 188 234 283 335
#     4  10  21  38  61  84 112 146 183 231 278 331
#     4  10  22  37  58  84 112 151 193 233 279 336
#     4  10  22  39  60  86 116 149 186 231 282 336
#
# _framework density 21.530284000000002
#
# number of rings (size 3 to 8) (size 9 to 14) (size 15 to 20)
#    0.000    2.000    1.667    1.500    2.333    1.333 
#    0.000    1.667    0.000    0.000    0.000    0.000 
#    0.000    0.000    0.000    0.000    0.000    0.000 
#
# Total GULP energy -133970.517991 kJ/mol
# GULP energy per Si atom -5582.104916 kJ/mol
# Density = 2.148128 g / cm^3
# Si number density = 21.530284 Si / 1000 Ang^3
#
#
#
# Elastic Constant Matrix: (Units=GPa)
#
#
# Indices 1 2 3 4 5 6 
#
# 1 235.6642 -6.6126 116.3328 0.0000 -8.9586 0.0000
# 2 -6.6126 48.6503 -14.2399 0.0000 -5.2163 0.0000
# 3 116.3328 -14.2399 185.1029 0.0000 -7.4856 0.0000
# 4 0.0000 0.0000 0.0000 12.4262 0.0000 -0.7796
# 5 -8.9586 -5.2163 -7.4856 0.0000 41.4790 0.0000
# 6 0.0000 0.0000 0.0000 -0.7796 0.0000 -0.8709
#
#
#
# Elastic Compliance Matrix: (Units=1/GPa)
#
#
# Indices 1 2 3 4 5 6 
#
# 1 0.006171 -0.000230 -0.003872 0.000000 0.000605 0.000000
# 2 -0.000230 0.021403 0.001912 0.000000 0.002987 0.000000
# 3 -0.003872 0.001912 0.008017 0.000000 0.000851 0.000000
# 4 0.000000 0.000000 0.000000 0.076196 0.000000 -0.068204
# 5 0.000605 0.002987 0.000851 0.000000 0.024769 0.000000
# 6 0.000000 0.000000 0.000000 -0.068204 0.000000 -1.087174
#
#
# Mechanical properties :
#
#
# Convention : Reuss Voigt Hill
#
# Bulk Modulus (GPa) = 32.03830 73.37534 52.70682
# Shear Modulus (GPa) = -5.34282 35.53601 15.09659
#
# Velocity S-wave (km/s) = -1.57700 4.06706 2.65085
# Velocity P-wave (km/s) = 3.40543 7.49724 5.82261
#
# Compressibility (1/GPa) = 0.03121265
#
# Stress axis : x y z
#
# Youngs Moduli (GPa) = 162.04766 46.72142 124.73438
#
# Poissons Ratio (x) = 0.01072 0.48291
# Poissons Ratio (y) = 0.03719 -0.23844
# Poissons Ratio (z) = 0.62737 -0.08931
#
# Static dielectric constant tensor:
#      x y z
#    x 1.850110 0.000000 -0.096830 
#    y 0.000000 1.819460 0.000000 
#    z -0.096830 0.000000 1.831070 
# 
# From -- ./inp_files/221635.got.cif
#   From: 2010.05.17/outbox.cif.g08.bks.cpg/sg12_111_cif.got.tgz:221635.got - 2010.06.03 13:09:07.
