data_PCOD9186211
_publ_section_title
;
Structure prediction by ZEFSAII (Michael W. Deem and Ramdas Pophale) SiO2 
 PCOD9186211
Probable space group: C 2/M
;
_chemical_formula_sum "Si O2"
_cell_formula_units_Z 56
_cell_length_a 19.464470
_cell_length_b 14.472150
_cell_length_c 9.736168
_cell_angle_alpha 90.000000
_cell_angle_beta 73.858861
_cell_angle_gamma 90.000000
_cell_volume 2634.493570
_symmetry_space_group_name_H-M "C 2/M"
_symmetry_group_IT_number 12
_symmetry_cell_setting 'monoclinic'
loop_
_space_group_symop_operation_xyz
x,y,z
-x,y,-z
-x,-y,-z
x,-y,z
1/2+x,1/2+y,z
1/2-x,1/2+y,-z
1/2-x,1/2-y,-z
1/2+x,1/2-y,z
loop_
_atom_site_type_symbol
_atom_site_label
_atom_site_fract_x
_atom_site_fract_y
_atom_site_fract_z
Si Si1 0.314119 0.105624 0.828623
Si Si2 0.774433 0.104796 0.380591
Si Si3 0.412510 0.298462 0.406635
Si Si4 0.372623 0.105098 0.364568
Si Si5 0.372107 0.293098 0.729250
Si Si6 0.725368 0.107276 0.833449
Si Si7 0.023349 0.110089 0.140488
O O1 0.244915 0.115042 0.768651
O O2 0.369209 0.183411 0.750926
O O3 0.339506 0.000000 0.797868
O O4 0.294181 0.121728 0.997441
O O5 0.832031 0.176397 0.402413
O O6 0.698618 0.111847 0.500810
O O7 0.801584 0.000000 0.389756
O O8 0.423471 0.189286 0.375887
O O9 0.414579 0.318058 0.567481
O O10 0.463681 0.357653 0.282135
O O11 0.342394 0.119958 0.227672
O O12 0.400155 0.000000 0.361987
O O13 0.291068 0.328233 0.756243
O O14 0.405211 0.341693 0.843660
O O15 0.748185 0.000000 0.802692
O O16 0.032036 0.000000 0.138142
O O17 0.000000 0.137448 0.000000
#
# Coordination Sequence:
#
# PCOD9186211 Si02
#       7
#     8   8   8   8   8   8   8
#     4  10  22  37  59  95 130 160 195 244 304 360
#     4  10  19  34  59  92 127 156 193 245 300 360
#     4  12  23  39  64  90 120 164 207 245 296 357
#     4  10  20  36  60  95 130 156 191 246 304 360
#     4  12  23  40  64  88 121 165 206 248 295 354
#     4  10  21  35  58  93 128 160 198 248 304 357
#     4  11  29  49  64  86 116 155 204 255 301 353
#
# _framework density 21.256457000000001
#
# number of rings (size 3 to 8) (size 9 to 14) (size 15 to 20)
#    0.000    1.286    2.857    3.000    4.000    2.286 
#    0.000    0.714    0.000    2.571    0.000    0.000 
#    0.000    0.000    0.000    0.000    0.000    0.000 
#
# Total GULP energy -156567.557026 kJ/mol
# GULP energy per Si atom -5591.698465 kJ/mol
# Density = 2.120808 g / cm^3
# Si number density = 21.256457 Si / 1000 Ang^3
#
#
#
# Elastic Constant Matrix: (Units=GPa)
#
#
# Indices 1 2 3 4 5 6 
#
# 1 11.9530 11.7339 0.5407 0.0000 5.6078 0.0000
# 2 11.7339 88.4445 24.8500 0.0000 7.8411 0.0000
# 3 0.5407 24.8500 115.7241 0.0000 17.4167 0.0000
# 4 0.0000 0.0000 0.0000 26.1067 0.0000 -0.7775
# 5 5.6078 7.8411 17.4167 0.0000 25.8707 0.0000
# 6 0.0000 0.0000 0.0000 -0.7775 0.0000 15.0637
#
#
#
# Elastic Compliance Matrix: (Units=1/GPa)
#
#
# Indices 1 2 3 4 5 6 
#
# 1 0.107969 -0.013948 0.005983 0.000000 -0.023204 0.000000
# 2 -0.013948 0.013940 -0.003057 0.000000 0.000857 0.000000
# 3 0.005983 -0.003057 0.010377 0.000000 -0.007356 0.000000
# 4 0.000000 0.000000 0.000000 0.038363 0.000000 0.001980
# 5 -0.023204 0.000857 -0.007356 0.000000 0.048376 0.000000
# 6 0.000000 0.000000 0.000000 0.001980 0.000000 0.066487
#
#
# Mechanical properties :
#
#
# Convention : Reuss Voigt Hill
#
# Bulk Modulus (GPa) = 9.07100 32.26342 20.66721
# Shear Modulus (GPa) = 14.52204 25.34136 19.93170
#
# Velocity S-wave (km/s) = 2.61661 3.45653 3.06547
# Velocity P-wave (km/s) = 3.66136 5.58044 4.71947
#
# Compressibility (1/GPa) = 0.11024148
#
# Stress axis : x y z
#
# Youngs Moduli (GPa) = 9.26190 71.73583 96.36803
#
# Poissons Ratio (x) = 1.00058 -0.57656
# Poissons Ratio (y) = 0.12919 0.29461
# Poissons Ratio (z) = -0.05541 0.21931
#
# Static dielectric constant tensor:
#      x y z
#    x 1.766460 0.000000 0.013290 
#    y 0.000000 1.777880 0.000000 
#    z 0.013290 0.000000 1.768990 
# 
# From -- ./inp_files/86337.got.cif
#   From: 2010.05.17/outbox.cif.g08.bks.cpg/sg12_44_cif.got.tgz:86337.got - 2010.06.03 13:09:07.
