data_PCOD9186129
_publ_section_title
;
Structure prediction by ZEFSAII (Michael W. Deem and Ramdas Pophale) SiO2 
 PCOD9186129
Probable space group: C 2/M
;
_chemical_formula_sum "Si O2"
_cell_formula_units_Z 64
_cell_length_a 29.793776
_cell_length_b 9.068169
_cell_length_c 23.886109
_cell_angle_alpha 90.000000
_cell_angle_beta 149.760777
_cell_angle_gamma 90.000000
_cell_volume 3250.021169
_symmetry_space_group_name_H-M "C 2/M"
_symmetry_group_IT_number 12
_symmetry_cell_setting 'monoclinic'
loop_
_space_group_symop_operation_xyz
x,y,z
-x,y,-z
-x,-y,-z
x,-y,z
1/2+x,1/2+y,z
1/2-x,1/2+y,-z
1/2-x,1/2-y,-z
1/2+x,1/2-y,z
loop_
_atom_site_type_symbol
_atom_site_label
_atom_site_fract_x
_atom_site_fract_y
_atom_site_fract_z
Si Si1 0.623302 0.324642 0.065713
Si Si2 0.297310 0.171027 0.186866
Si Si3 0.837838 0.825188 0.118137
Si Si4 0.106153 0.820571 0.476854
Si Si5 0.455601 0.172925 0.827773
Si Si6 0.030824 0.178282 0.277759
Si Si7 0.053944 0.168463 0.615036
Si Si8 0.209602 0.674014 0.267625
O O1 0.610080 0.500000 0.058334
O O2 0.696014 0.301960 0.094731
O O3 0.668078 0.258075 0.169706
O O4 0.532394 0.248231 0.948296
O O5 0.335072 0.272257 0.178668
O O6 0.363892 0.222065 0.307066
O O7 0.306811 0.000000 0.183002
O O8 0.929461 0.782714 0.186554
O O9 0.830364 0.000000 0.105645
O O10 0.750000 0.750000 0.000000
O O11 0.093227 0.777319 0.397796
O O12 0.195629 0.772478 0.605412
O O13 0.017286 0.778930 0.415193
O O14 0.107806 0.000000 0.479040
O O15 0.449486 0.248198 0.760419
O O16 0.362905 0.185240 0.761019
O O17 0.477024 0.000000 0.844372
O O18 0.035232 0.000000 0.277087
O O19 0.000000 0.159770 0.500000
O O20 0.083217 0.000000 0.659675
O O21 0.219079 0.500000 0.262782
#
# Coordination Sequence:
#
# PCOD9186129 Si02
#       8
#     8   8   8   8   8   8   8   8
#     4  11  24  41  61  88 122 159 200 245 302 369
#     4  11  23  37  55  84 120 154 191 236 291 346
#     4  11  22  37  58  85 117 154 200 242 287 349
#     4   9  18  37  61  87 120 159 200 243 294 357
#     4  11  24  40  61  91 120 152 201 256 308 356
#     4  10  21  39  61  85 120 162 202 244 294 358
#     4  10  19  34  59  87 115 155 201 237 283 352
#     4  10  22  41  65  90 118 154 199 254 306 355
#
# _framework density 19.69218
#
# number of rings (size 3 to 8) (size 9 to 14) (size 15 to 20)
#    0.000    1.625    1.250    3.375    0.000   10.250 
#    0.000    1.250    0.000    0.000    0.000    0.000 
#    0.000    0.000    0.000    0.000    0.000    0.000 
#
# Total GULP energy -178641.147106 kJ/mol
# GULP energy per Si atom -5582.535847 kJ/mol
# Density = 1.964736 g / cm^3
# Si number density = 19.692180 Si / 1000 Ang^3
#
#
#
# Elastic Constant Matrix: (Units=GPa)
#
#
# Indices 1 2 3 4 5 6 
#
# 1 60.8049 28.2461 17.7796 0.0000 -11.6282 0.0000
# 2 28.2461 38.1156 25.7343 0.0000 3.4916 0.0000
# 3 17.7796 25.7343 111.7497 0.0000 -2.5783 0.0000
# 4 0.0000 0.0000 0.0000 25.8674 0.0000 -5.6556
# 5 -11.6282 3.4916 -2.5783 0.0000 30.0043 0.0000
# 6 0.0000 0.0000 0.0000 -5.6556 0.0000 30.3302
#
#
#
# Elastic Compliance Matrix: (Units=1/GPa)
#
#
# Indices 1 2 3 4 5 6 
#
# 1 0.030375 -0.024661 0.001187 0.000000 0.014744 0.000000
# 2 -0.024661 0.051636 -0.008343 0.000000 -0.016283 0.000000
# 3 0.001187 -0.008343 0.010735 0.000000 0.002353 0.000000
# 4 0.000000 0.000000 0.000000 0.040302 0.000000 0.007515
# 5 0.014744 -0.016283 0.002353 0.000000 0.041140 0.000000
# 6 0.000000 0.000000 0.000000 0.007515 0.000000 0.034372
#
#
# Mechanical properties :
#
#
# Convention : Reuss Voigt Hill
#
# Bulk Modulus (GPa) = 34.35169 39.35449 36.85309
# Shear Modulus (GPa) = 17.73687 26.50104 22.11896
#
# Velocity S-wave (km/s) = 3.00443 3.67245 3.35511
# Velocity P-wave (km/s) = 5.43302 6.16528 5.81070
#
# Compressibility (1/GPa) = 0.02911065
#
# Stress axis : x y z
#
# Youngs Moduli (GPa) = 32.92215 19.36624 93.15003
#
# Poissons Ratio (x) = 0.47760 -0.11054
# Poissons Ratio (y) = 0.81191 0.77716
# Poissons Ratio (z) = -0.03907 0.16157
#
# Static dielectric constant tensor:
#      x y z
#    x 1.824000 0.000000 -0.222090 
#    y 0.000000 1.711330 0.000000 
#    z -0.222090 0.000000 2.070380 
# 
# From -- ./inp_files/353511.got.cif
#   From: 2010.05.17/outbox.cif.g08.bks.cpg/sg12_177_cif.got.tgz:353511.got - 2010.06.03 13:09:07.
