data_PCOD9186042
_publ_section_title
;
Structure prediction by ZEFSAII (Michael W. Deem and Ramdas Pophale) SiO2 
 PCOD9186042
Probable space group: C 2/M
;
_chemical_formula_sum "Si O2"
_cell_formula_units_Z 56
_cell_length_a 20.793325
_cell_length_b 16.819338
_cell_length_c 7.087577
_cell_angle_alpha 90.000000
_cell_angle_beta 114.729129
_cell_angle_gamma 90.000000
_cell_volume 2251.426890
_symmetry_space_group_name_H-M "C 2/M"
_symmetry_group_IT_number 12
_symmetry_cell_setting 'monoclinic'
loop_
_space_group_symop_operation_xyz
x,y,z
-x,y,-z
-x,-y,-z
x,-y,z
1/2+x,1/2+y,z
1/2-x,1/2+y,-z
1/2-x,1/2-y,-z
1/2+x,1/2-y,z
loop_
_atom_site_type_symbol
_atom_site_label
_atom_site_fract_x
_atom_site_fract_y
_atom_site_fract_z
Si Si1 0.160571 0.822045 0.378795
Si Si2 0.483974 0.408595 0.754823
Si Si3 0.593958 0.141446 0.925422
Si Si4 0.623675 0.314251 0.880383
Si Si5 0.196503 0.354264 0.569118
Si Si6 0.246013 0.591498 0.040092
Si Si7 0.054848 0.588578 0.263403
O O1 0.089758 0.863279 0.367132
O O2 0.176802 0.736662 0.492347
O O3 0.234784 0.871148 0.479792
O O4 0.144488 0.814596 0.131257
O O5 0.478746 0.500000 0.688242
O O6 0.552715 0.364273 0.759260
O O7 0.500000 0.408881 0.000000
O O8 0.607531 0.222088 0.829879
O O9 0.669500 0.099070 0.042956
O O10 0.523984 0.100240 0.754358
O O11 0.569560 0.151206 0.113122
O O12 0.688121 0.350376 0.838649
O O13 0.225647 0.378015 0.807246
O O14 0.123287 0.401561 0.472831
O O15 0.269664 0.500000 0.070697
O O16 0.058741 0.500000 0.186339
#
# Coordination Sequence:
#
# PCOD9186042 Si02
#       7
#     8   8   8   8   8   8   8
#     4   9  18  33  54  83 113 150 190 228 270 337
#     4   9  17  29  52  85 115 142 182 233 282 324
#     4  11  22  38  58  82 112 149 190 235 279 333
#     4  10  19  34  59  82 112 148 188 228 281 336
#     4  10  20  35  56  80 114 151 185 228 282 335
#     4  11  23  38  56  85 119 144 183 238 288 334
#     4  11  22  37  59  82 110 148 192 234 280 331
#
# _framework density 24.873114000000001
#
# number of rings (size 3 to 8) (size 9 to 14) (size 15 to 20)
#    0.000    1.857    1.429    3.857    4.000    4.571 
#    0.000    1.429    0.000    0.000    0.000    1.000 
#    0.000    0.000    0.000    0.000    0.000    0.000 
#
# Total GULP energy -156362.597533 kJ/mol
# GULP energy per Si atom -5584.378483 kJ/mol
# Density = 2.481650 g / cm^3
# Si number density = 24.873114 Si / 1000 Ang^3
#
#
#
# Elastic Constant Matrix: (Units=GPa)
#
#
# Indices 1 2 3 4 5 6 
#
# 1 159.4327 54.5092 21.2661 0.0000 26.6185 0.0000
# 2 54.5092 115.8374 -2.8457 0.0000 23.9425 0.0000
# 3 21.2661 -2.8457 50.9906 0.0000 17.1760 0.0000
# 4 0.0000 0.0000 0.0000 55.3309 0.0000 25.5715
# 5 26.6185 23.9425 17.1760 0.0000 45.1540 0.0000
# 6 0.0000 0.0000 0.0000 25.5715 0.0000 39.7974
#
#
#
# Elastic Compliance Matrix: (Units=1/GPa)
#
#
# Indices 1 2 3 4 5 6 
#
# 1 0.008189 -0.003556 -0.003008 0.000000 -0.001798 0.000000
# 2 -0.003556 0.011551 0.003997 0.000000 -0.005549 0.000000
# 3 -0.003008 0.003997 0.024322 0.000000 -0.009598 0.000000
# 4 0.000000 0.000000 0.000000 0.025707 0.000000 -0.016518
# 5 -0.001798 -0.005549 -0.009598 0.000000 0.029799 0.000000
# 6 0.000000 0.000000 0.000000 -0.016518 0.000000 0.035741
#
#
# Mechanical properties :
#
#
# Convention : Reuss Voigt Hill
#
# Bulk Modulus (GPa) = 25.68850 52.45777 39.07314
# Shear Modulus (GPa) = 32.59019 44.94520 38.76769
#
# Velocity S-wave (km/s) = 3.62367 4.25547 3.95222
# Velocity P-wave (km/s) = 5.27809 6.72914 6.04730
#
# Compressibility (1/GPa) = 0.03892792
#
# Stress axis : x y z
#
# Youngs Moduli (GPa) = 122.10840 86.57086 41.11485
#
# Poissons Ratio (x) = 0.30784 0.12369
# Poissons Ratio (y) = 0.43421 -0.16433
# Poissons Ratio (z) = 0.36734 -0.34601
#
# Static dielectric constant tensor:
#      x y z
#    x 2.030170 0.000000 -0.023320 
#    y 0.000000 1.899960 0.000000 
#    z -0.023320 0.000000 2.129550 
# 
# From -- ./inp_files/88095.got.cif
#   From: 2010.05.17/outbox.cif.g08.bks.cpg/sg12_45_cif.got.tgz:88095.got - 2010.06.03 13:09:07.
