data_PCOD9186797
_publ_section_title
;
Structure prediction by ZEFSAII (Michael W. Deem and Ramdas Pophale) SiO2 
 PCOD9186797
Probable space group: C 2/M
;
_chemical_formula_sum "Si O2"
_cell_formula_units_Z 56
_cell_length_a 19.128867
_cell_length_b 10.813100
_cell_length_c 17.012757
_cell_angle_alpha 90.000000
_cell_angle_beta 58.819656
_cell_angle_gamma 90.000000
_cell_volume 3010.616673
_symmetry_space_group_name_H-M "C 2/M"
_symmetry_group_IT_number 12
_symmetry_cell_setting 'monoclinic'
loop_
_space_group_symop_operation_xyz
x,y,z
-x,y,-z
-x,-y,-z
x,-y,z
1/2+x,1/2+y,z
1/2-x,1/2+y,-z
1/2-x,1/2-y,-z
1/2+x,1/2-y,z
loop_
_atom_site_type_symbol
_atom_site_label
_atom_site_fract_x
_atom_site_fract_y
_atom_site_fract_z
Si Si1 0.851463 0.856132 0.111231
Si Si2 0.803877 0.631909 0.030142
Si Si3 0.837583 0.357185 0.526239
Si Si4 0.864268 0.245711 0.851558
Si Si5 0.670296 0.142802 0.287171
Si Si6 0.530893 0.355039 0.817502
Si Si7 0.643863 0.640520 0.600662
O O1 0.841594 0.751815 0.050949
O O2 0.767385 0.850146 0.210990
O O3 0.926162 0.824017 0.125294
O O4 0.859847 0.000000 0.079541
O O5 0.832924 0.500000 0.044354
O O6 0.706473 0.643269 0.098390
O O7 0.824945 0.643694 0.925882
O O8 0.866368 0.500000 0.497031
O O9 0.846609 0.324188 0.612893
O O10 0.740507 0.357860 0.563722
O O11 0.874582 0.250710 0.449508
O O12 0.872483 0.278063 0.755489
O O13 0.949489 0.214490 0.841111
O O14 0.646367 0.000000 0.291299
O O15 0.511168 0.500000 0.832829
O O16 0.595799 0.338414 0.709524
O O17 0.624385 0.500000 0.584043
#
# Coordination Sequence:
#
# PCOD9186797 Si02
#       7
#     8   8   8   8   8   8   8
#     4   9  18  34  58  80 102 136 181 222 260 310
#     4  10  21  38  55  78 107 139 177 221 268 316
#     4   9  16  30  54  80 105 136 175 214 255 309
#     4  10  21  34  55  77 106 142 178 217 263 317
#     4   9  16  32  55  77 101 141 184 214 250 313
#     4  10  19  35  56  80 106 138 179 222 263 310
#     4   9  17  31  53  80 108 134 169 218 266 305
#
# _framework density 18.600840999999999
#
# number of rings (size 3 to 8) (size 9 to 14) (size 15 to 20)
#    0.000    2.571    1.429    0.857    0.000    4.571 
#    0.000   10.000    0.000    3.429    0.000    0.000 
#    0.000    0.000    0.000    0.000    0.000    0.000 
#
# Total GULP energy -156064.553589 kJ/mol
# GULP energy per Si atom -5573.734057 kJ/mol
# Density = 1.855850 g / cm^3
# Si number density = 18.600841 Si / 1000 Ang^3
#
#
#
# Elastic Constant Matrix: (Units=GPa)
#
#
# Indices 1 2 3 4 5 6 
#
# 1 78.4403 41.7244 7.8213 0.0000 13.9332 0.0000
# 2 41.7244 107.1971 48.2572 0.0000 22.9072 0.0000
# 3 7.8213 48.2572 47.3642 0.0000 16.8402 0.0000
# 4 0.0000 0.0000 0.0000 2.1092 0.0000 8.4944
# 5 13.9332 22.9072 16.8402 0.0000 20.8826 0.0000
# 6 0.0000 0.0000 0.0000 8.4944 0.0000 18.8827
#
#
#
# Elastic Compliance Matrix: (Units=1/GPa)
#
#
# Indices 1 2 3 4 5 6 
#
# 1 0.018777 -0.009908 0.010633 0.000000 -0.010234 0.000000
# 2 -0.009908 0.023146 -0.021407 0.000000 -0.001516 0.000000
# 3 0.010633 -0.021407 0.049548 0.000000 -0.023568 0.000000
# 4 0.000000 0.000000 0.000000 -0.584136 0.000000 0.262772
# 5 -0.010234 -0.001516 -0.023568 0.000000 0.075384 0.000000
# 6 0.000000 0.000000 0.000000 0.262772 0.000000 -0.065249
#
#
# Mechanical properties :
#
#
# Convention : Reuss Voigt Hill
#
# Bulk Modulus (GPa) = 19.95792 47.62305 33.79048
# Shear Modulus (GPa) = -11.77958 17.38816 2.80429
#
# Velocity S-wave (km/s) = -2.51924 3.06078 1.22918
# Velocity P-wave (km/s) = 1.51353 6.17652 4.49667
#
# Compressibility (1/GPa) = 0.05010542
#
# Stress axis : x y z
#
# Youngs Moduli (GPa) = 53.25776 43.20378 20.18257
#
# Poissons Ratio (x) = 0.42807 -0.21460
# Poissons Ratio (y) = 0.52769 0.43206
# Poissons Ratio (z) = -0.56629 0.92488
#
# Static dielectric constant tensor:
#      x y z
#    x 1.659850 0.000000 -0.002170 
#    y 0.000000 1.652580 0.000000 
#    z -0.002170 0.000000 1.642930 
# 
# From -- ./inp_files/223178.got.cif
#   From: 2010.05.17/outbox.cif.g08.bks.cpg/sg12_112_cif.got.tgz:223178.got - 2010.06.03 13:09:07.
