data_PCOD9186787
_publ_section_title
;
Structure prediction by ZEFSAII (Michael W. Deem and Ramdas Pophale) SiO2 
 PCOD9186787
Probable space group: C 2/M
;
_chemical_formula_sum "Si O2"
_cell_formula_units_Z 48
_cell_length_a 21.930780
_cell_length_b 14.124092
_cell_length_c 12.957865
_cell_angle_alpha 90.000000
_cell_angle_beta 143.322063
_cell_angle_gamma 90.000000
_cell_volume 2397.466116
_symmetry_space_group_name_H-M "C 2/M"
_symmetry_group_IT_number 12
_symmetry_cell_setting 'monoclinic'
loop_
_space_group_symop_operation_xyz
x,y,z
-x,y,-z
-x,-y,-z
x,-y,z
1/2+x,1/2+y,z
1/2-x,1/2+y,-z
1/2-x,1/2-y,-z
1/2+x,1/2-y,z
loop_
_atom_site_type_symbol
_atom_site_label
_atom_site_fract_x
_atom_site_fract_y
_atom_site_fract_z
Si Si1 0.040352 0.612276 0.408408
Si Si2 0.106915 0.108079 0.180258
Si Si3 0.296522 0.220667 0.453918
Si Si4 0.082879 0.103198 0.395620
Si Si5 0.152710 0.110933 0.857676
Si Si6 0.343869 0.809399 0.231628
O O1 0.032355 0.500000 0.403185
O O2 0.109362 0.647951 0.407618
O O3 0.105798 0.650758 0.595394
O O4 0.929048 0.658355 0.262793
O O5 0.202702 0.168074 0.273057
O O6 0.099599 0.102963 0.294595
O O7 0.115516 0.000000 0.152734
O O8 0.000000 0.149833 0.000000
O O9 0.250000 0.250000 0.500000
O O10 0.345465 0.312844 0.468731
O O11 0.963689 0.117582 0.258792
O O12 0.111943 0.000000 0.476129
O O13 0.163528 0.195437 0.788143
O O14 0.168250 0.000000 0.848835
O O15 0.237531 0.140977 0.057555
#
# Coordination Sequence:
#
# PCOD9186787 Si02
#       6
#     8   8   8   8   8   8
#     4  11  21  36  56  84 113 142 180 231 285 329
#     4   9  18  31  51  81 106 131 174 228 280 324
#     4  10  20  35  53  77 109 144 181 220 273 326
#     4   9  18  33  52  74 104 142 183 220 268 327
#     4  10  19  35  56  79 111 149 184 223 274 331
#     4  10  21  35  55  84 116 145 183 229 278 334
#
# _framework density 20.021137
#
# number of rings (size 3 to 8) (size 9 to 14) (size 15 to 20)
#    0.000    2.167    1.667    2.500    2.333    0.667 
#    0.000    2.500    0.000    0.500    0.000    0.000 
#    0.000    0.000    0.000    0.000    0.000    0.000 
#
# Total GULP energy -133783.684907 kJ/mol
# GULP energy per Si atom -5574.320204 kJ/mol
# Density = 1.997557 g / cm^3
# Si number density = 20.021137 Si / 1000 Ang^3
#
#
#
# Elastic Constant Matrix: (Units=GPa)
#
#
# Indices 1 2 3 4 5 6 
#
# 1 51.6131 26.6755 25.5218 0.0000 17.5598 0.0000
# 2 26.6755 174.9453 44.7112 0.0000 21.8328 0.0000
# 3 25.5218 44.7112 68.5108 0.0000 34.4709 0.0000
# 4 0.0000 0.0000 0.0000 27.8322 0.0000 21.8122
# 5 17.5598 21.8328 34.4709 0.0000 32.3194 0.0000
# 6 0.0000 0.0000 0.0000 21.8122 0.0000 5.4485
#
#
#
# Elastic Compliance Matrix: (Units=1/GPa)
#
#
# Indices 1 2 3 4 5 6 
#
# 1 0.025062 -0.001759 -0.004176 0.000000 -0.007975 0.000000
# 2 -0.001759 0.006985 -0.004338 0.000000 0.000864 0.000000
# 3 -0.004176 -0.004338 0.035322 0.000000 -0.032474 0.000000
# 4 0.000000 0.000000 0.000000 -0.016810 0.000000 0.067295
# 5 -0.007975 0.000864 -0.032474 0.000000 0.069326 0.000000
# 6 0.000000 0.000000 0.000000 0.067295 0.000000 -0.085868
#
#
# Mechanical properties :
#
#
# Convention : Reuss Voigt Hill
#
# Bulk Modulus (GPa) = 21.35666 54.32068 37.83867
# Shear Modulus (GPa) = 71.25458 26.33074 48.79266
#
# Velocity S-wave (km/s) = 5.97218 3.63043 4.94201
# Velocity P-wave (km/s) = 7.63192 6.69059 7.17670
#
# Compressibility (1/GPa) = 0.04682380
#
# Stress axis : x y z
#
# Youngs Moduli (GPa) = 39.90092 143.16096 28.31095
#
# Poissons Ratio (x) = 0.25182 0.11822
# Poissons Ratio (y) = 0.07019 0.12281
# Poissons Ratio (z) = 0.16662 0.62102
#
# Static dielectric constant tensor:
#      x y z
#    x 1.816770 0.000000 -0.020720 
#    y 0.000000 1.750120 0.000000 
#    z -0.020720 0.000000 1.696490 
# 
# From -- ./inp_files/215004.got.cif
#   From: 2010.05.17/outbox.cif.g08.bks.cpg/sg12_108_cif.got.tgz:215004.got - 2010.06.03 13:09:07.
