data_PCOD9186384
_publ_section_title
;
Structure prediction by ZEFSAII (Michael W. Deem and Ramdas Pophale) SiO2 
 PCOD9186384
Probable space group: C 2/M
;
_chemical_formula_sum "Si O2"
_cell_formula_units_Z 48
_cell_length_a 9.362492
_cell_length_b 27.121554
_cell_length_c 13.551570
_cell_angle_alpha 90.000000
_cell_angle_beta 33.562320
_cell_angle_gamma 90.000000
_cell_volume 1902.383110
_symmetry_space_group_name_H-M "C 2/M"
_symmetry_group_IT_number 12
_symmetry_cell_setting 'monoclinic'
loop_
_space_group_symop_operation_xyz
x,y,z
-x,y,-z
-x,-y,-z
x,-y,z
1/2+x,1/2+y,z
1/2-x,1/2+y,-z
1/2-x,1/2-y,-z
1/2+x,1/2-y,z
loop_
_atom_site_type_symbol
_atom_site_label
_atom_site_fract_x
_atom_site_fract_y
_atom_site_fract_z
Si Si1 0.057779 0.424823 0.354365
Si Si2 0.274197 0.815500 0.779810
Si Si3 0.335788 0.944905 0.284557
Si Si4 0.962660 0.233225 0.794607
Si Si5 0.574738 0.553328 0.126256
Si Si6 0.299194 0.632453 0.794927
O O1 0.094555 0.366893 0.317708
O O2 0.852457 0.442406 0.392877
O O3 0.347612 0.445352 0.177913
O O4 0.000000 0.437980 0.500000
O O5 0.476743 0.782437 0.723181
O O6 0.194191 0.787239 0.726596
O O7 0.000000 0.821966 0.000000
O O8 0.202849 0.898954 0.305364
O O9 0.249537 0.000000 0.303352
O O10 0.639016 0.941249 0.081535
O O11 0.879656 0.188907 0.768315
O O12 0.750000 0.250000 0.000000
O O13 0.568650 0.500000 0.180450
O O14 0.543100 0.599225 0.217939
O O15 0.000000 0.631508 0.000000
#
# Coordination Sequence:
#
# PCOD9186384 Si02
#       6
#     8   8   8   8   8   8
#     4  12  25  40  59  86 124 169 209 249 301 362
#     4  10  21  37  63  92 120 153 201 255 308 362
#     4  10  22  38  63  94 121 157 204 257 311 358
#     4  10  20  34  61  98 122 152 194 249 310 357
#     4  10  20  38  64  90 119 155 197 256 312 359
#     4  10  19  34  61  94 126 150 192 251 309 367
#
# _framework density 25.23151
#
# number of rings (size 3 to 8) (size 9 to 14) (size 15 to 20)
#    0.000    1.667    1.667    4.000    9.333    4.667 
#    0.000    1.667    0.000    2.000    0.000    0.000 
#    0.000    0.000    0.000    0.000    0.000    0.000 
#
# Total GULP energy -134193.121040 kJ/mol
# GULP energy per Si atom -5591.380043 kJ/mol
# Density = 2.517408 g / cm^3
# Si number density = 25.231510 Si / 1000 Ang^3
#
#
#
# Elastic Constant Matrix: (Units=GPa)
#
#
# Indices 1 2 3 4 5 6 
#
# 1 114.5907 34.6304 17.8927 0.0000 17.3816 0.0000
# 2 34.6304 146.6373 13.6342 0.0000 18.7526 0.0000
# 3 17.8927 13.6342 76.1041 0.0000 4.7159 0.0000
# 4 0.0000 0.0000 0.0000 -472.8924 0.0000 699.1494
# 5 17.3816 18.7526 4.7159 0.0000 33.7942 0.0000
# 6 0.0000 0.0000 0.0000 699.1494 0.0000 -982.6738
#
#
#
# Elastic Compliance Matrix: (Units=1/GPa)
#
#
# Indices 1 2 3 4 5 6 
#
# 1 0.010138 -0.001711 -0.001828 0.000000 -0.004009 0.000000
# 2 -0.001711 0.007717 -0.000776 0.000000 -0.003294 0.000000
# 3 -0.001828 -0.000776 0.013743 0.000000 -0.000547 0.000000
# 4 0.000000 0.000000 0.000000 0.040756 0.000000 0.028997
# 5 -0.004009 -0.003294 -0.000547 0.000000 0.033557 0.000000
# 6 0.000000 0.000000 0.000000 0.028997 0.000000 0.019613
#
#
# Mechanical properties :
#
#
# Convention : Reuss Voigt Hill
#
# Bulk Modulus (GPa) = 43.54331 52.18296 47.86314
# Shear Modulus (GPa) = 35.25825 -266.27607 -115.50891
#
# Velocity S-wave (km/s) = 3.74222 -10.28408 -6.77340
# Velocity P-wave (km/s) = 5.99727 10.96767 6.49317
#
# Compressibility (1/GPa) = 0.02296564
#
# Stress axis : x y z
#
# Youngs Moduli (GPa) = 98.64319 129.58251 72.76603
#
# Poissons Ratio (x) = 0.22177 0.13304
# Poissons Ratio (y) = 0.16882 0.05647
# Poissons Ratio (z) = 0.18036 0.10056
#
# Static dielectric constant tensor:
#      x y z
#    x 1.978360 0.000000 0.028920 
#    y 0.000000 1.979500 0.000000 
#    z 0.028920 0.000000 2.111100 
# 
# From -- ./inp_files/200138.got.cif
#   From: 2010.05.17/outbox.cif.g08.bks.cpg/sg12_101_cif.got.tgz:200138.got - 2010.06.03 13:09:07.
