data_PCOD9186643
_publ_section_title
;
Structure prediction by ZEFSAII (Michael W. Deem and Ramdas Pophale) SiO2 
 PCOD9186643
Probable space group: C 2/M
;
_chemical_formula_sum "Si O2"
_cell_formula_units_Z 48
_cell_length_a 23.756012
_cell_length_b 7.443899
_cell_length_c 12.221896
_cell_angle_alpha 90.000000
_cell_angle_beta 69.184499
_cell_angle_gamma 90.000000
_cell_volume 2020.219569
_symmetry_space_group_name_H-M "C 2/M"
_symmetry_group_IT_number 12
_symmetry_cell_setting 'monoclinic'
loop_
_space_group_symop_operation_xyz
x,y,z
-x,y,-z
-x,-y,-z
x,-y,z
1/2+x,1/2+y,z
1/2-x,1/2+y,-z
1/2-x,1/2-y,-z
1/2+x,1/2-y,z
loop_
_atom_site_type_symbol
_atom_site_label
_atom_site_fract_x
_atom_site_fract_y
_atom_site_fract_z
Si Si1 0.299166 0.204170 0.750355
Si Si2 0.321414 0.721592 0.263796
Si Si3 0.657004 0.706168 0.514933
Si Si4 0.933418 0.791510 0.055024
Si Si5 0.095131 0.718371 0.169456
Si Si6 0.481036 0.217096 0.390228
O O1 0.233279 0.283450 0.775012
O O2 0.328794 0.199605 0.608951
O O3 0.347787 0.283910 0.799641
O O4 0.404702 0.000000 0.828396
O O5 0.320874 0.500000 0.264592
O O6 0.312916 0.778045 0.395173
O O7 0.385445 0.784064 0.173420
O O8 0.674906 0.500000 0.487040
O O9 0.585491 0.713218 0.586386
O O10 0.904515 0.780339 0.955079
O O11 0.941595 0.000000 0.080987
O O12 0.000000 0.709559 0.000000
O O13 0.210703 0.500000 0.205063
O O14 0.032915 0.775632 0.270755
O O15 0.500000 0.269395 0.500000
O O16 0.478158 0.000000 0.389186
#
# Coordination Sequence:
#
# PCOD9186643 Si02
#       6
#     8   8   8   8   8   8
#     4  10  20  38  58  78 112 153 187 224 278 336
#     4   9  20  37  57  80 110 152 191 224 274 337
#     4  11  21  34  56  87 115 142 186 236 279 324
#     4  10  21  39  60  81 111 147 183 226 281 334
#     4  10  21  36  57  83 110 143 187 231 272 325
#     4  10  19  35  55  78 110 149 184 217 273 337
#
# _framework density 23.759793999999999
#
# number of rings (size 3 to 8) (size 9 to 14) (size 15 to 20)
#    0.000    2.000    1.667    2.000    0.000    4.000 
#    0.000    3.333    0.000    0.000    0.000    0.000 
#    0.000    0.000    0.000    0.000    0.000    0.000 
#
# Total GULP energy -134219.379173 kJ/mol
# GULP energy per Si atom -5592.474132 kJ/mol
# Density = 2.370572 g / cm^3
# Si number density = 23.759794 Si / 1000 Ang^3
#
#
#
# Elastic Constant Matrix: (Units=GPa)
#
#
# Indices 1 2 3 4 5 6 
#
# 1 138.6887 -1.7436 23.0619 0.0000 -6.7299 0.0000
# 2 -1.7436 78.7515 -11.0228 0.0000 -3.7424 0.0000
# 3 23.0619 -11.0228 85.8092 0.0000 2.9468 0.0000
# 4 0.0000 0.0000 0.0000 -3.9384 0.0000 8.0349
# 5 -6.7299 -3.7424 2.9468 0.0000 32.1744 0.0000
# 6 0.0000 0.0000 0.0000 8.0349 0.0000 0.7237
#
#
#
# Elastic Compliance Matrix: (Units=1/GPa)
#
#
# Indices 1 2 3 4 5 6 
#
# 1 0.007650 -0.000043 -0.002123 0.000000 0.001790 0.000000
# 2 -0.000043 0.012990 0.001634 0.000000 0.001352 0.000000
# 3 -0.002123 0.001634 0.012482 0.000000 -0.001397 0.000000
# 4 0.000000 0.000000 0.000000 -0.010736 0.000000 0.119194
# 5 0.001790 0.001352 -0.001397 0.000000 0.031740 0.000000
# 6 0.000000 0.000000 0.000000 0.119194 0.000000 0.058425
#
#
# Mechanical properties :
#
#
# Convention : Reuss Voigt Hill
#
# Bulk Modulus (GPa) = 31.19320 35.98227 33.58774
# Shear Modulus (GPa) = 40.22499 25.32221 32.77360
#
# Velocity S-wave (km/s) = 4.11905 3.26814 3.71802
# Velocity P-wave (km/s) = 5.98157 5.42384 5.70952
#
# Compressibility (1/GPa) = 0.03205827
#
# Stress axis : x y z
#
# Youngs Moduli (GPa) = 130.72415 76.98135 80.11442
#
# Poissons Ratio (x) = 0.00329 0.17007
# Poissons Ratio (y) = 0.00559 -0.13089
# Poissons Ratio (z) = 0.27751 -0.12577
#
# Static dielectric constant tensor:
#      x y z
#    x 1.906090 0.000000 -0.013870 
#    y 0.000000 1.917150 0.000000 
#    z -0.013870 0.000000 1.845400 
# 
# From -- ./inp_files/102401.got.cif
#   From: 2010.05.17/outbox.cif.g08.bks.cpg/sg12_52_cif.got.tgz:102401.got - 2010.06.03 13:09:07.
