data_PCOD9186233
_publ_section_title
;
Structure prediction by ZEFSAII (Michael W. Deem and Ramdas Pophale) SiO2 
 PCOD9186233
Probable space group: C 2/M
;
_chemical_formula_sum "Si O2"
_cell_formula_units_Z 56
_cell_length_a 19.748919
_cell_length_b 9.218838
_cell_length_c 19.100370
_cell_angle_alpha 90.000000
_cell_angle_beta 112.717501
_cell_angle_gamma 90.000000
_cell_volume 3207.672963
_symmetry_space_group_name_H-M "C 2/M"
_symmetry_group_IT_number 12
_symmetry_cell_setting 'monoclinic'
loop_
_space_group_symop_operation_xyz
x,y,z
-x,y,-z
-x,-y,-z
x,-y,z
1/2+x,1/2+y,z
1/2-x,1/2+y,-z
1/2-x,1/2-y,-z
1/2+x,1/2-y,z
loop_
_atom_site_type_symbol
_atom_site_label
_atom_site_fract_x
_atom_site_fract_y
_atom_site_fract_z
Si Si1 0.621890 0.172353 0.871393
Si Si2 0.712447 0.673643 0.703699
Si Si3 0.933075 0.672378 0.303138
Si Si4 0.577153 0.674609 0.995808
Si Si5 0.775591 0.174322 0.861378
Si Si6 0.705250 0.327837 0.542506
Si Si7 0.556876 0.166261 0.458434
O O1 0.573757 0.199374 0.782337
O O2 0.705614 0.212885 0.882812
O O3 0.621406 0.000000 0.885136
O O4 0.591912 0.255963 0.926207
O O5 0.712502 0.500000 0.711481
O O6 0.631169 0.736404 0.686098
O O7 0.763104 0.746800 0.782681
O O8 0.732049 0.710434 0.631577
O O9 0.917975 0.500000 0.308218
O O10 0.010499 0.702751 0.370433
O O11 0.575673 0.500000 0.988215
O O12 0.647367 0.711644 0.072143
O O13 0.500000 0.719943 0.000000
O O14 0.772035 0.000000 0.849756
O O15 0.710047 0.500000 0.537205
O O16 0.750000 0.250000 0.500000
O O17 0.622096 0.274139 0.500747
O O18 0.500000 0.168689 0.500000
O O19 0.584681 0.000000 0.463317
#
# Coordination Sequence:
#
# PCOD9186233 Si02
#       7
#     8   8   8   8   8   8   8
#     4   9  18  33  55  81 107 138 178 219 260 313
#     4  10  20  34  55  83 110 138 181 234 273 315
#     4   9  18  34  56  84 113 143 179 222 273 328
#     4  10  21  37  55  78 110 142 174 216 268 325
#     4   9  19  36  58  80 105 140 179 219 267 327
#     4  11  24  39  55  79 113 150 190 234 277 325
#     4  10  19  34  60  85 110 148 186 223 274 330
#
# _framework density 17.458138000000002
#
# number of rings (size 3 to 8) (size 9 to 14) (size 15 to 20)
#    0.000    2.286    1.429    2.143    0.000    5.714 
#    2.571    0.000    0.000    0.000    0.000    0.000 
#    0.000    0.000    0.000    0.000    0.000    0.000 
#
# Total GULP energy -156209.576366 kJ/mol
# GULP energy per Si atom -5578.913442 kJ/mol
# Density = 1.741840 g / cm^3
# Si number density = 17.458138 Si / 1000 Ang^3
#
#
#
# Elastic Constant Matrix: (Units=GPa)
#
#
# Indices 1 2 3 4 5 6 
#
# 1 89.4427 38.6175 81.2598 0.0000 -13.0512 0.0000
# 2 38.6175 37.7385 56.8405 0.0000 -14.2345 0.0000
# 3 81.2598 56.8405 150.3412 0.0000 -13.0381 0.0000
# 4 0.0000 0.0000 0.0000 28.6351 0.0000 -9.6537
# 5 -13.0512 -14.2345 -13.0381 0.0000 24.8718 0.0000
# 6 0.0000 0.0000 0.0000 -9.6537 0.0000 17.0782
#
#
#
# Elastic Compliance Matrix: (Units=1/GPa)
#
#
# Indices 1 2 3 4 5 6 
#
# 1 0.024058 -0.010580 -0.008835 0.000000 0.001937 0.000000
# 2 -0.010580 0.084009 -0.023420 0.000000 0.030251 0.000000
# 3 -0.008835 -0.023420 0.019608 0.000000 -0.007761 0.000000
# 4 0.000000 0.000000 0.000000 0.043144 0.000000 0.024388
# 5 0.001937 0.030251 -0.007761 0.000000 0.054467 0.000000
# 6 0.000000 0.000000 0.000000 0.024388 0.000000 0.072340
#
#
# Mechanical properties :
#
#
# Convention : Reuss Voigt Hill
#
# Bulk Modulus (GPa) = 23.80675 70.10645 46.95660
# Shear Modulus (GPa) = 12.58500 20.83734 16.71117
#
# Velocity S-wave (km/s) = 2.68781 3.45854 3.09724
# Velocity P-wave (km/s) = 4.82685 7.49618 6.30441
#
# Compressibility (1/GPa) = 0.04200489
#
# Stress axis : x y z
#
# Youngs Moduli (GPa) = 41.56591 11.90351 50.99847
#
# Poissons Ratio (x) = 0.12594 0.45059
# Poissons Ratio (y) = 0.43978 1.19437
# Poissons Ratio (z) = 0.36725 0.27878
#
# Static dielectric constant tensor:
#      x y z
#    x 1.585810 0.000000 0.010070 
#    y 0.000000 1.579920 0.000000 
#    z 0.010070 0.000000 1.598410 
# 
# From -- ./inp_files/275565.got.cif
#   From: 2010.05.17/outbox.cif.g08.bks.cpg/sg12_138_cif.got.tgz:275565.got - 2010.06.03 13:09:07.
