data_PCOD9186146
_publ_section_title
;
Structure prediction by ZEFSAII (Michael W. Deem and Ramdas Pophale) SiO2 
 PCOD9186146
Probable space group: C 2/M
;
_chemical_formula_sum "Si O2"
_cell_formula_units_Z 56
_cell_length_a 14.968252
_cell_length_b 14.856646
_cell_length_c 24.744329
_cell_angle_alpha 90.000000
_cell_angle_beta 28.814280
_cell_angle_gamma 90.000000
_cell_volume 2652.097029
_symmetry_space_group_name_H-M "C 2/M"
_symmetry_group_IT_number 12
_symmetry_cell_setting 'monoclinic'
loop_
_space_group_symop_operation_xyz
x,y,z
-x,y,-z
-x,-y,-z
x,-y,z
1/2+x,1/2+y,z
1/2-x,1/2+y,-z
1/2-x,1/2-y,-z
1/2+x,1/2-y,z
loop_
_atom_site_type_symbol
_atom_site_label
_atom_site_fract_x
_atom_site_fract_y
_atom_site_fract_z
Si Si1 0.597069 0.248947 0.181715
Si Si2 0.982045 0.261289 0.944803
Si Si3 0.837876 0.607668 0.439533
Si Si4 0.209894 0.810643 0.394091
Si Si5 0.986224 0.101315 0.319342
Si Si6 0.267565 0.892832 0.805733
Si Si7 0.708337 0.902881 0.754662
O O1 0.380322 0.250440 0.282524
O O2 0.598706 0.329678 0.223759
O O3 0.652909 0.154990 0.181893
O O4 0.761716 0.261609 0.052853
O O5 0.087281 0.164868 0.885530
O O6 0.082159 0.328747 0.850848
O O7 0.000000 0.285617 0.000000
O O8 0.812906 0.500000 0.445187
O O9 0.759785 0.658257 0.428157
O O10 0.719082 0.632976 0.555095
O O11 0.058046 0.623445 0.326812
O O12 0.237390 0.890504 0.336312
O O13 0.000000 0.776992 0.500000
O O14 0.098505 0.098187 0.315604
O O15 0.979815 0.000000 0.300097
O O16 0.236780 0.000000 0.827666
O O17 0.617677 0.000000 0.810597
#
# Coordination Sequence:
#
# PCOD9186146 Si02
#       7
#     8   8   8   8   8   8   8
#     4  10  22  37  56  84 114 149 190 230 277 330
#     4  10  20  37  55  81 112 147 190 236 273 323
#     4   9  18  32  54  84 115 143 180 230 283 338
#     4  11  22  35  54  82 116 150 181 228 287 342
#     4  10  19  34  59  88 115 145 186 234 282 331
#     4   9  18  33  54  80 109 144 184 228 276 324
#     4  11  22  35  57  86 115 149 185 229 287 338
#
# _framework density 21.115366999999999
#
# number of rings (size 3 to 8) (size 9 to 14) (size 15 to 20)
#    0.000    2.000    4.286    0.429    0.000    8.571 
#    0.000    0.000    0.000    1.286    0.000    0.000 
#    0.000    0.000    0.000    0.000    0.000    0.000 
#
# Total GULP energy -155998.982301 kJ/mol
# GULP energy per Si atom -5571.392225 kJ/mol
# Density = 2.106731 g / cm^3
# Si number density = 21.115367 Si / 1000 Ang^3
#
#
#
# Elastic Constant Matrix: (Units=GPa)
#
#
# Indices 1 2 3 4 5 6 
#
# 1 30.1474 19.5462 27.5081 0.0007 -0.8257 -0.0003
# 2 19.5462 92.8057 41.6905 -0.0108 8.3324 -0.0021
# 3 27.5081 41.6905 164.3024 -0.0204 -22.8218 -0.0051
# 4 0.0007 -0.0108 -0.0204 -240.8097 0.0122 -41.4235
# 5 -0.8257 8.3324 -22.8218 0.0122 27.7532 0.0029
# 6 -0.0003 -0.0021 -0.0051 -41.4235 0.0029 -1.5323
#
#
#
# Elastic Compliance Matrix: (Units=1/GPa)
#
#
# Indices 1 2 3 4 5 6 
#
# 1 0.042391 -0.006203 -0.005746 0.000001 -0.001601 0.000002
# 2 -0.006203 0.014401 -0.003660 -0.000001 -0.007517 0.000000
# 3 -0.005746 -0.003660 0.009151 0.000000 0.008453 0.000001
# 4 0.000001 -0.000001 0.000000 0.001138 0.000003 -0.030754
# 5 -0.001601 -0.007517 0.008453 0.000003 0.045192 -0.000004
# 6 0.000002 0.000000 0.000001 -0.030754 -0.000004 0.178785
#
#
# Mechanical properties :
#
#
# Convention : Reuss Voigt Hill
#
# Bulk Modulus (GPa) = 28.79726 51.63833 40.21779
# Shear Modulus (GPa) = 14.97681 -29.68370 -7.35344
#
# Velocity S-wave (km/s) = 2.66613 -3.75345 -1.86817
# Velocity P-wave (km/s) = 4.81096 2.39247 3.79929
#
# Compressibility (1/GPa) = 0.03472553
#
# Stress axis : x y z
#
# Youngs Moduli (GPa) = 23.58985 69.44123 109.27786
#
# Poissons Ratio (x) = 0.43077 0.62786
# Poissons Ratio (y) = 0.14634 0.39992
# Poissons Ratio (z) = 0.13554 0.25413
#
# Static dielectric constant tensor:
#      x y z
#    x 1.859840 0.000000 -0.044120 
#    y 0.000000 1.783680 0.000000 
#    z -0.044120 0.000000 1.793150 
# 
# From -- ./inp_files/340283.got.cif
#   From: 2010.05.17/outbox.cif.g08.bks.cpg/sg12_171_cif.got.tgz:340283.got - 2010.06.03 13:09:07.
