data_PCOD9186709
_publ_section_title
;
Structure prediction by ZEFSAII (Michael W. Deem and Ramdas Pophale) SiO2 
 PCOD9186709
Probable space group: C 2/M
;
_chemical_formula_sum "Si O2"
_cell_formula_units_Z 56
_cell_length_a 11.256611
_cell_length_b 27.862914
_cell_length_c 14.791204
_cell_angle_alpha 90.000000
_cell_angle_beta 139.587846
_cell_angle_gamma 90.000000
_cell_volume 3007.469978
_symmetry_space_group_name_H-M "C 2/M"
_symmetry_group_IT_number 12
_symmetry_cell_setting 'monoclinic'
loop_
_space_group_symop_operation_xyz
x,y,z
-x,y,-z
-x,-y,-z
x,-y,z
1/2+x,1/2+y,z
1/2-x,1/2+y,-z
1/2-x,1/2-y,-z
1/2+x,1/2-y,z
loop_
_atom_site_type_symbol
_atom_site_label
_atom_site_fract_x
_atom_site_fract_y
_atom_site_fract_z
Si Si1 0.031421 0.055932 0.308377
Si Si2 0.085264 0.943638 0.954148
Si Si3 0.950122 0.443277 0.575977
Si Si4 0.433559 0.113675 0.186858
Si Si5 0.595249 0.228156 0.842468
Si Si6 0.326522 0.772957 0.834795
Si Si7 0.324569 0.112503 0.834815
O O1 0.862793 0.086801 0.247005
O O2 0.232880 0.065240 0.462924
O O3 0.987386 0.000000 0.298621
O O4 0.044051 0.062355 0.206991
O O5 0.264208 0.912639 0.041622
O O6 0.132037 0.000000 0.988171
O O7 0.000000 0.928759 0.000000
O O8 0.990250 0.500000 0.617853
O O9 0.000000 0.434961 0.500000
O O10 0.050938 0.408688 0.704676
O O11 0.398666 0.170494 0.160347
O O12 0.612232 0.101935 0.230843
O O13 0.400653 0.239897 0.777722
O O14 0.649359 0.248385 0.775785
O O15 0.750000 0.250000 0.000000
O O16 0.301252 0.830082 0.827778
O O17 0.500000 0.760555 0.000000
O O18 0.500000 0.099856 0.000000
#
# Coordination Sequence:
#
# PCOD9186709 Si02
#       7
#     8   8   8   8   8   8   8
#     4  10  21  35  55  82 113 155 197 236 297 361
#     4  10  20  33  51  82 115 145 192 249 298 349
#     4  10  22  42  60  81 121 165 203 251 300 353
#     4  11  21  35  60  86 113 155 201 243 303 364
#     4   9  18  32  52  85 114 144 190 241 295 359
#     4   8  16  31  50  75 114 148 178 230 294 351
#     4  10  19  35  55  84 121 151 187 249 310 353
#
# _framework density 18.620301999999999
#
# number of rings (size 3 to 8) (size 9 to 14) (size 15 to 20)
#    0.000    2.286    1.429    2.143    0.000    6.000 
#    2.571    1.429    0.000    0.857    0.000    0.000 
#    0.000    0.000    0.000    0.000    0.000    0.000 
#
# Total GULP energy -156037.240956 kJ/mol
# GULP energy per Si atom -5572.758606 kJ/mol
# Density = 1.857792 g / cm^3
# Si number density = 18.620302 Si / 1000 Ang^3
#
#
#
# Elastic Constant Matrix: (Units=GPa)
#
#
# Indices 1 2 3 4 5 6 
#
# 1 122.3090 45.1444 8.2316 0.0000 1.3766 0.0000
# 2 45.1444 44.0535 29.5034 0.0000 -1.9543 0.0000
# 3 8.2316 29.5034 44.1842 0.0000 -3.2550 0.0000
# 4 0.0000 0.0000 0.0000 12.9450 0.0000 4.7366
# 5 1.3766 -1.9543 -3.2550 0.0000 22.2386 0.0000
# 6 0.0000 0.0000 0.0000 4.7366 0.0000 25.4867
#
#
#
# Elastic Compliance Matrix: (Units=1/GPa)
#
#
# Indices 1 2 3 4 5 6 
#
# 1 0.017823 -0.029005 0.015950 0.000000 -0.001318 0.000000
# 2 -0.029005 0.088269 -0.053409 0.000000 0.001735 0.000000
# 3 0.015950 -0.053409 0.055504 0.000000 0.002443 0.000000
# 4 0.000000 0.000000 0.000000 0.082886 0.000000 -0.015404
# 5 -0.001318 0.001735 0.002443 0.000000 0.045558 0.000000
# 6 0.000000 0.000000 0.000000 -0.015404 0.000000 0.042099
#
#
# Mechanical properties :
#
#
# Convention : Reuss Voigt Hill
#
# Bulk Modulus (GPa) = 34.88141 41.81173 38.34657
# Shear Modulus (GPa) = 10.53466 20.64523 15.58994
#
# Velocity S-wave (km/s) = 2.38116 3.33340 2.89667
# Velocity P-wave (km/s) = 5.13162 6.10893 5.64148
#
# Compressibility (1/GPa) = 0.02866857
#
# Stress axis : x y z
#
# Youngs Moduli (GPa) = 56.10661 11.32900 18.01668
#
# Poissons Ratio (x) = 0.32860 -0.28737
# Poissons Ratio (y) = 1.62738 0.96225
# Poissons Ratio (z) = -0.89492 0.60507
#
# Static dielectric constant tensor:
#      x y z
#    x 1.702300 0.000000 -0.019420 
#    y 0.000000 1.613000 0.000000 
#    z -0.019420 0.000000 1.642450 
# 
# From -- ./inp_files/209166.got.cif
#   From: 2010.05.17/outbox.cif.g08.bks.cpg/sg12_105_cif.got.tgz:209166.got - 2010.06.03 13:09:07.
