data_PCOD9186762
_publ_section_title
;
Structure prediction by ZEFSAII (Michael W. Deem and Ramdas Pophale) SiO2 
 PCOD9186762
Probable space group: C 2/M
;
_chemical_formula_sum "Si O2"
_cell_formula_units_Z 64
_cell_length_a 14.567003
_cell_length_b 8.640483
_cell_length_c 28.989632
_cell_angle_alpha 90.000000
_cell_angle_beta 88.333369
_cell_angle_gamma 90.000000
_cell_volume 3647.263772
_symmetry_space_group_name_H-M "C 2/M"
_symmetry_group_IT_number 12
_symmetry_cell_setting 'monoclinic'
loop_
_space_group_symop_operation_xyz
x,y,z
-x,y,-z
-x,-y,-z
x,-y,z
1/2+x,1/2+y,z
1/2-x,1/2+y,-z
1/2-x,1/2-y,-z
1/2+x,1/2-y,z
loop_
_atom_site_type_symbol
_atom_site_label
_atom_site_fract_x
_atom_site_fract_y
_atom_site_fract_z
Si Si1 0.099870 0.686736 0.379739
Si Si2 0.887125 0.813569 0.124553
Si Si3 0.250786 0.813939 0.051444
Si Si4 0.389452 0.813016 0.370637
Si Si5 0.756442 0.185870 0.801286
Si Si6 0.239997 0.815019 0.449049
Si Si7 0.749084 0.814746 0.301221
Si Si8 0.097104 0.812301 0.125943
O O1 0.101322 0.500000 0.382953
O O2 0.149967 0.753643 0.423972
O O3 0.163045 0.731483 0.335058
O O4 0.994680 0.736383 0.375262
O O5 0.835595 0.749853 0.080137
O O6 0.829476 0.753658 0.169140
O O7 0.992494 0.759313 0.125333
O O8 0.884942 0.000000 0.123822
O O9 0.159460 0.766159 0.081347
O O10 0.254450 0.000000 0.050875
O O11 0.250000 0.750000 0.000000
O O12 0.326535 0.769017 0.415469
O O13 0.339488 0.742932 0.326806
O O14 0.387623 0.000000 0.366836
O O15 0.758348 0.243969 0.749217
O O16 0.846750 0.234547 0.829158
O O17 0.751211 0.000000 0.802487
O O18 0.250000 0.750000 0.500000
O O19 0.237165 0.000000 0.450747
O O20 0.750480 0.000000 0.298072
O O21 0.094869 0.000000 0.126013
#
# Coordination Sequence:
#
# PCOD9186762 Si02
#       8
#     8   8   8   8   8   8   8   8
#     4   9  19  36  55  75 102 133 171 214 255 299
#     4  10  19  35  56  78 102 133 173 216 256 299
#     4  10  20  36  54  77 106 138 172 209 255 305
#     4   9  19  36  55  75 101 136 171 208 255 306
#     4  10  20  36  54  75 105 139 170 206 252 307
#     4  10  20  34  53  76 104 136 171 209 255 305
#     4  10  20  34  53  78 104 132 168 213 255 298
#     4   8  18  35  54  74 102 137 171 207 254 305
#
# _framework density 17.547401000000001
#
# number of rings (size 3 to 8) (size 9 to 14) (size 15 to 20)
#    0.000    2.500    0.000    2.625    0.000    3.500 
#    0.000   15.000    0.000    0.000    0.000    0.000 
#    0.000    0.000    0.000    0.000    0.000    0.000 
#
# Total GULP energy -178540.298548 kJ/mol
# GULP energy per Si atom -5579.384330 kJ/mol
# Density = 1.750746 g / cm^3
# Si number density = 17.547401 Si / 1000 Ang^3
#
#
#
# Elastic Constant Matrix: (Units=GPa)
#
#
# Indices 1 2 3 4 5 6 
#
# 1 172.3932 36.7537 86.8246 0.0000 20.5724 0.0000
# 2 36.7537 41.1118 42.5114 0.0000 3.7105 0.0000
# 3 86.8246 42.5114 176.7591 0.0000 7.7512 0.0000
# 4 0.0000 0.0000 0.0000 35.0337 0.0000 3.4983
# 5 20.5724 3.7105 7.7512 0.0000 8.7588 0.0000
# 6 0.0000 0.0000 0.0000 3.4983 0.0000 23.9667
#
#
#
# Elastic Compliance Matrix: (Units=1/GPa)
#
#
# Indices 1 2 3 4 5 6 
#
# 1 0.010931 -0.004373 -0.003405 0.000000 -0.020809 0.000000
# 2 -0.004373 0.034555 -0.006212 0.000000 0.001131 0.000000
# 3 -0.003405 -0.006212 0.008695 0.000000 0.002934 0.000000
# 4 0.000000 0.000000 0.000000 0.028966 0.000000 -0.004228
# 5 -0.020809 0.001131 0.002934 0.000000 0.159970 0.000000
# 6 0.000000 0.000000 0.000000 -0.004228 0.000000 0.042342
#
#
# Mechanical properties :
#
#
# Convention : Reuss Voigt Hill
#
# Bulk Modulus (GPa) = 38.16692 80.27151 59.21921
# Shear Modulus (GPa) = 15.51955 28.49680 22.00818
#
# Velocity S-wave (km/s) = 2.97717 4.03425 3.54533
# Velocity P-wave (km/s) = 5.79793 8.21858 7.11200
#
# Compressibility (1/GPa) = 0.02620070
#
# Stress axis : x y z
#
# Youngs Moduli (GPa) = 91.48063 28.93922 115.00342
#
# Poissons Ratio (x) = 0.12656 0.39160
# Poissons Ratio (y) = 0.40008 0.71441
# Poissons Ratio (z) = 0.31151 0.17977
#
# Static dielectric constant tensor:
#      x y z
#    x 1.593080 0.000000 -0.006020 
#    y 0.000000 1.596020 0.000000 
#    z -0.006020 0.000000 1.563300 
# 
# From -- ./inp_files/359923.got.cif
#   From: 2010.05.17/outbox.cif.g08.bks.cpg/sg12_180_cif.got.tgz:359923.got - 2010.06.03 13:09:07.
