data_PCOD9186252
_publ_section_title
;
Structure prediction by ZEFSAII (Michael W. Deem and Ramdas Pophale) SiO2 
 PCOD9186252
Probable space group: C 2/M
;
_chemical_formula_sum "Si O2"
_cell_formula_units_Z 64
_cell_length_a 26.020357
_cell_length_b 8.792054
_cell_length_c 15.055718
_cell_angle_alpha 90.000000
_cell_angle_beta 78.185447
_cell_angle_gamma 90.000000
_cell_volume 3371.365745
_symmetry_space_group_name_H-M "C 2/M"
_symmetry_group_IT_number 12
_symmetry_cell_setting 'monoclinic'
loop_
_space_group_symop_operation_xyz
x,y,z
-x,y,-z
-x,-y,-z
x,-y,z
1/2+x,1/2+y,z
1/2-x,1/2+y,-z
1/2-x,1/2-y,-z
1/2+x,1/2-y,z
loop_
_atom_site_type_symbol
_atom_site_label
_atom_site_fract_x
_atom_site_fract_y
_atom_site_fract_z
Si Si1 0.208580 0.180987 0.282977
Si Si2 0.236223 0.181327 0.910072
Si Si3 0.497414 0.814172 0.288369
Si Si4 0.096797 0.316736 0.370701
Si Si5 0.631914 0.675424 0.848991
Si Si6 0.107206 0.317544 0.572687
Si Si7 0.978839 0.318977 0.100627
Si Si8 0.300718 0.323044 0.356024
O O1 0.231076 0.245559 0.182153
O O2 0.150074 0.241662 0.317715
O O3 0.247020 0.240163 0.347943
O O4 0.209929 0.000000 0.280861
O O5 0.175105 0.208143 0.908641
O O6 0.244847 0.000000 0.905546
O O7 0.250000 0.250000 0.000000
O O8 0.545638 0.767479 0.333601
O O9 0.440974 0.765459 0.347559
O O10 0.503400 0.761532 0.184494
O O11 0.496563 0.000000 0.289282
O O12 0.101316 0.500000 0.360361
O O13 0.092003 0.282671 0.476879
O O14 0.614261 0.500000 0.863326
O O15 0.582734 0.784777 0.871009
O O16 0.663028 0.689051 0.745279
O O17 0.111745 0.500000 0.580169
O O18 0.162790 0.246318 0.580582
O O19 0.987766 0.500000 0.096401
O O20 0.000000 0.255292 0.000000
O O21 0.289756 0.500000 0.376770
#
# Coordination Sequence:
#
# PCOD9186252 Si02
#       8
#     8   8   8   8   8   8   8   8
#     4  11  23  39  58  83 117 155 196 240 292 347
#     4  10  21  38  60  87 116 149 193 239 290 350
#     4   9  18  35  57  82 114 150 192 239 287 349
#     4  10  21  37  57  82 116 155 194 240 294 351
#     4   9  19  35  54  78 109 144 181 228 282 337
#     4  10  19  34  60  87 109 147 197 241 292 353
#     4  10  20  33  53  83 113 144 186 232 281 337
#     4  10  20  36  59  84 112 147 189 239 295 349
#
# _framework density 18.983405999999999
#
# number of rings (size 3 to 8) (size 9 to 14) (size 15 to 20)
#    0.000    2.125    1.250    3.000    0.000    6.250 
#    0.000    2.500    0.000    1.500    0.000    0.000 
#    0.000    0.000    0.000    0.000    0.000    0.000 
#
# Total GULP energy -178626.303514 kJ/mol
# GULP energy per Si atom -5582.071985 kJ/mol
# Density = 1.894020 g / cm^3
# Si number density = 18.983406 Si / 1000 Ang^3
#
#
#
# Elastic Constant Matrix: (Units=GPa)
#
#
# Indices 1 2 3 4 5 6 
#
# 1 79.0959 24.5036 41.1733 0.0000 19.7950 0.0000
# 2 24.5036 28.2530 35.8319 0.0000 11.8433 0.0000
# 3 41.1733 35.8319 103.6355 0.0000 26.2324 0.0000
# 4 0.0000 0.0000 0.0000 17.6796 0.0000 2.0327
# 5 19.7950 11.8433 26.2324 0.0000 32.8353 0.0000
# 6 0.0000 0.0000 0.0000 2.0327 0.0000 30.2882
#
#
#
# Elastic Compliance Matrix: (Units=1/GPa)
#
#
# Indices 1 2 3 4 5 6 
#
# 1 0.018567 -0.011061 -0.002167 0.000000 -0.005473 0.000000
# 2 -0.011061 0.070813 -0.019193 0.000000 -0.003540 0.000000
# 3 -0.002167 -0.019193 0.018881 0.000000 -0.006855 0.000000
# 4 0.000000 0.000000 0.000000 0.057002 0.000000 -0.003826
# 5 -0.005473 -0.003540 -0.006855 0.000000 0.040508 0.000000
# 6 0.000000 0.000000 0.000000 -0.003826 0.000000 0.033273
#
#
# Mechanical properties :
#
#
# Convention : Reuss Voigt Hill
#
# Bulk Modulus (GPa) = 23.03108 46.00024 34.51566
# Shear Modulus (GPa) = 15.70551 23.45899 19.58225
#
# Velocity S-wave (km/s) = 2.87945 3.51916 3.21525
# Velocity P-wave (km/s) = 4.81804 6.38726 5.65732
#
# Compressibility (1/GPa) = 0.04341959
#
# Stress axis : x y z
#
# Youngs Moduli (GPa) = 53.85878 14.12168 52.96209
#
# Poissons Ratio (x) = 0.15620 0.11477
# Poissons Ratio (y) = 0.59571 1.01652
# Poissons Ratio (z) = 0.11672 0.27104
#
# Static dielectric constant tensor:
#      x y z
#    x 1.630760 0.000000 0.006100 
#    y 0.000000 1.643400 0.000000 
#    z 0.006100 0.000000 1.672880 
# 
# From -- ./inp_files/238641.got.cif
#   From: 2010.05.17/outbox.cif.g08.bks.cpg/sg12_120_cif.got.tgz:238641.got - 2010.06.03 13:09:07.
