data_PCOD9186948
_publ_section_title
;
Structure prediction by ZEFSAII (Michael W. Deem and Ramdas Pophale) SiO2 
 PCOD9186948
Probable space group: C 2/M
;
_chemical_formula_sum "Si O2"
_cell_formula_units_Z 64
_cell_length_a 29.250601
_cell_length_b 8.670688
_cell_length_c 31.940770
_cell_angle_alpha 90.000000
_cell_angle_beta 27.177995
_cell_angle_gamma 90.000000
_cell_volume 3700.141093
_symmetry_space_group_name_H-M "C 2/M"
_symmetry_group_IT_number 12
_symmetry_cell_setting 'monoclinic'
loop_
_space_group_symop_operation_xyz
x,y,z
-x,y,-z
-x,-y,-z
x,-y,z
1/2+x,1/2+y,z
1/2-x,1/2+y,-z
1/2-x,1/2-y,-z
1/2+x,1/2-y,z
loop_
_atom_site_type_symbol
_atom_site_label
_atom_site_fract_x
_atom_site_fract_y
_atom_site_fract_z
Si Si1 0.679110 0.183514 0.021058
Si Si2 0.107663 0.185992 0.545876
Si Si3 0.259057 0.186306 0.352400
Si Si4 0.969954 0.813681 0.303796
Si Si5 0.103557 0.315735 0.313591
Si Si6 0.113057 0.813890 0.395683
Si Si7 0.539865 0.684515 0.783172
Si Si8 0.817182 0.684450 0.839743
O O1 0.567576 0.247554 0.117280
O O2 0.678829 0.000000 0.024467
O O3 0.750000 0.250000 0.000000
O O4 0.728275 0.236560 0.937430
O O5 0.200270 0.238381 0.442291
O O6 0.102325 0.233099 0.598962
O O7 0.005225 0.244881 0.608260
O O8 0.106225 0.000000 0.545481
O O9 0.190744 0.231763 0.368526
O O10 0.369502 0.254453 0.262743
O O11 0.264749 0.000000 0.348200
O O12 0.078218 0.741212 0.225312
O O13 0.938401 0.769178 0.282913
O O14 0.980058 0.000000 0.296739
O O15 0.094259 0.500000 0.322527
O O16 0.138445 0.252872 0.329670
O O17 0.173798 0.276118 0.216766
O O18 0.000000 0.765110 0.500000
O O19 0.112549 0.000000 0.393760
O O20 0.534714 0.500000 0.789265
O O21 0.810103 0.500000 0.849894
#
# Coordination Sequence:
#
# PCOD9186948 Si02
#       8
#     8   8   8   8   8   8   8   8
#     4  12  23  37  59  84 110 143 184 227 273 322
#     4   9  17  33  53  74 106 148 190 224 263 319
#     4  10  21  36  54  77 108 148 191 229 273 324
#     4   9  18  32  52  76 106 147 188 223 263 319
#     4  10  20  32  52  84 114 140 177 227 280 326
#     4  10  19  35  57  80 107 146 190 229 273 327
#     4  11  23  37  53  79 113 147 186 227 275 327
#     4  10  20  34  54  82 113 142 177 224 276 327
#
# _framework density 17.296638000000002
#
# number of rings (size 3 to 8) (size 9 to 14) (size 15 to 20)
#    0.000    1.875    2.500    2.250    0.000    3.750 
#    0.000    0.000    0.000    0.750    0.000    5.250 
#    0.000    0.000    0.000    0.000    0.000    0.000 
#
# Total GULP energy -178629.787461 kJ/mol
# GULP energy per Si atom -5582.180858 kJ/mol
# Density = 1.725727 g / cm^3
# Si number density = 17.296638 Si / 1000 Ang^3
#
#
#
# Elastic Constant Matrix: (Units=GPa)
#
#
# Indices 1 2 3 4 5 6 
#
# 1 108.7637 28.9530 66.5039 0.0055 -0.2096 -0.0072
# 2 28.9530 24.4099 27.0754 -0.0014 -1.0931 0.0079
# 3 66.5039 27.0754 115.1267 0.0056 -3.1387 -0.0008
# 4 0.0055 -0.0014 0.0056 23.6605 -0.0110 2.6699
# 5 -0.2096 -1.0931 -3.1387 -0.0110 23.7150 0.0039
# 6 -0.0072 0.0079 -0.0008 2.6699 0.0039 19.3113
#
#
#
# Elastic Compliance Matrix: (Units=1/GPa)
#
#
# Indices 1 2 3 4 5 6 
#
# 1 0.016563 -0.012247 -0.006723 -0.000005 -0.001308 0.000012
# 2 -0.012247 0.064497 -0.008045 0.000013 0.001800 -0.000033
# 3 -0.006723 -0.008045 0.014502 -0.000002 0.001489 0.000001
# 4 -0.000005 0.000013 -0.000002 0.042934 0.000021 -0.005936
# 5 -0.001308 0.001800 0.001489 0.000021 0.042436 -0.000013
# 6 0.000012 -0.000033 0.000001 -0.005936 -0.000013 0.052604
#
#
# Mechanical properties :
#
#
# Convention : Reuss Voigt Hill
#
# Bulk Modulus (GPa) = 24.07743 54.81832 39.44788
# Shear Modulus (GPa) = 16.58874 21.72188 19.15531
#
# Velocity S-wave (km/s) = 3.10025 3.54763 3.33146
# Velocity P-wave (km/s) = 5.17358 6.96727 6.13631
#
# Compressibility (1/GPa) = 0.04153267
#
# Stress axis : x y z
#
# Youngs Moduli (GPa) = 60.37707 15.50465 68.95450
#
# Poissons Ratio (x) = 0.18988 0.46358
# Poissons Ratio (y) = 0.73941 0.55474
# Poissons Ratio (z) = 0.40592 0.12473
#
# Static dielectric constant tensor:
#      x y z
#    x 1.590510 0.000000 0.028320 
#    y 0.000000 1.580960 0.000000 
#    z 0.028320 0.000000 1.576550 
# 
# From -- ./inp_files/243989.got.cif
#   From: 2010.05.17/outbox.cif.g08.bks.cpg/sg12_122_cif.got.tgz:243989.got - 2010.06.03 13:09:07.
