data_PCOD9186058
_publ_section_title
;
Structure prediction by ZEFSAII (Michael W. Deem and Ramdas Pophale) SiO2 
 PCOD9186058
Probable space group: C 2/M
;
_chemical_formula_sum "Si O2"
_cell_formula_units_Z 48
_cell_length_a 10.022157
_cell_length_b 15.279477
_cell_length_c 18.683940
_cell_angle_alpha 90.000000
_cell_angle_beta 83.835683
_cell_angle_gamma 90.000000
_cell_volume 2844.590729
_symmetry_space_group_name_H-M "C 2/M"
_symmetry_group_IT_number 12
_symmetry_cell_setting 'monoclinic'
loop_
_space_group_symop_operation_xyz
x,y,z
-x,y,-z
-x,-y,-z
x,-y,z
1/2+x,1/2+y,z
1/2-x,1/2+y,-z
1/2-x,1/2-y,-z
1/2+x,1/2-y,z
loop_
_atom_site_type_symbol
_atom_site_label
_atom_site_fract_x
_atom_site_fract_y
_atom_site_fract_z
Si Si1 0.107930 0.166999 0.182241
Si Si2 0.067109 0.101831 0.345955
Si Si3 0.709563 0.336519 0.822978
Si Si4 0.634719 0.246295 0.448032
Si Si5 0.684870 0.500000 0.922183
Si Si6 0.750155 0.100582 0.341085
Si Si7 0.636654 0.500000 0.086293
O O1 0.108312 0.135988 0.264955
O O2 0.200598 0.251633 0.168043
O O3 0.950975 0.183211 0.170924
O O4 0.161032 0.086973 0.130943
O O5 0.126607 0.164470 0.402853
O O6 0.904950 0.107720 0.357995
O O7 0.104185 0.000000 0.351803
O O8 0.734128 0.412700 0.879525
O O9 0.747403 0.374077 0.742599
O O10 0.500000 0.233214 0.500000
O O11 0.750000 0.250000 0.500000
O O12 0.662487 0.168015 0.391090
O O13 0.523710 0.500000 0.919247
O O14 0.708547 0.500000 0.005536
O O15 0.707621 0.000000 0.351983
#
# Coordination Sequence:
#
# PCOD9186058 Si02
#       7
#     8   8   8   8   4   8   4
#     4  10  19  34  59  85 110 146 187 228 271 326
#     4  10  20  37  61  81 106 148 192 224 270 338
#     4  10  19  34  59  84 110 147 189 225 272 327
#     4  12  24  38  57  83 113 142 180 239 287 321
#     4   9  18  34  57  87 115 147 188 225 267 325
#     4  10  20  37  60  81 108 147 189 228 273 333
#     4   9  18  34  57  87 117 144 186 232 263 321
#
# _framework density 16.874131999999999
#
# number of rings (size 3 to 8) (size 9 to 14) (size 15 to 20)
#    0.000    1.833    5.000    0.000    0.000    2.000 
#    0.000    0.833    0.000    1.000    0.000    0.000 
#    0.000    0.000    0.000    0.000    0.000    0.000 
#
# Total GULP energy -133909.362341 kJ/mol
# GULP energy per Si atom -5579.556764 kJ/mol
# Density = 1.683573 g / cm^3
# Si number density = 16.874132 Si / 1000 Ang^3
#
#
#
# Elastic Constant Matrix: (Units=GPa)
#
#
# Indices 1 2 3 4 5 6 
#
# 1 65.3995 67.4158 55.5966 0.0000 -7.3242 0.0000
# 2 67.4158 189.9786 86.2936 0.0000 -13.7385 0.0000
# 3 55.5966 86.2936 130.1331 0.0000 -14.8396 0.0000
# 4 0.0000 0.0000 0.0000 29.3060 0.0000 -5.5041
# 5 -7.3242 -13.7385 -14.8396 0.0000 14.5813 0.0000
# 6 0.0000 0.0000 0.0000 -5.5041 0.0000 29.2354
#
#
#
# Elastic Compliance Matrix: (Units=1/GPa)
#
#
# Indices 1 2 3 4 5 6 
#
# 1 0.028888 -0.006642 -0.007915 0.000000 0.000197 0.000000
# 2 -0.006642 0.009127 -0.002958 0.000000 0.002253 0.000000
# 3 -0.007915 -0.002958 0.013865 0.000000 0.007348 0.000000
# 4 0.000000 0.000000 0.000000 0.035373 0.000000 0.006660
# 5 0.000197 0.002253 0.007348 0.000000 0.078282 0.000000
# 6 0.000000 0.000000 0.000000 0.006660 0.000000 0.035459
#
#
# Mechanical properties :
#
#
# Convention : Reuss Voigt Hill
#
# Bulk Modulus (GPa) = 59.34314 89.34700 74.34507
# Shear Modulus (GPa) = 20.69191 26.37155 23.53173
#
# Velocity S-wave (km/s) = 3.50558 3.95756 3.73841
# Velocity P-wave (km/s) = 7.18540 8.59925 7.92392
#
# Compressibility (1/GPa) = 0.01685115
#
# Stress axis : x y z
#
# Youngs Moduli (GPa) = 34.61676 109.56382 72.12216
#
# Poissons Ratio (x) = 0.72768 0.57085
# Poissons Ratio (y) = 0.22991 0.21333
# Poissons Ratio (z) = 0.27399 0.32408
#
# Static dielectric constant tensor:
#      x y z
#    x 1.547600 0.000000 0.000330 
#    y 0.000000 1.549290 0.000000 
#    z 0.000330 0.000000 1.561820 
# 
# From -- ./inp_files/255801.got.cif
#   From: 2010.05.17/outbox.cif.g08.bks.cpg/sg12_128_cif.got.tgz:255801.got - 2010.06.03 13:09:07.
