data_PCOD9186681
_publ_section_title
;
Structure prediction by ZEFSAII (Michael W. Deem and Ramdas Pophale) SiO2 
 PCOD9186681
Probable space group: C 2/M
;
_chemical_formula_sum "Si O2"
_cell_formula_units_Z 64
_cell_length_a 18.578555
_cell_length_b 20.937654
_cell_length_c 11.339334
_cell_angle_alpha 90.000000
_cell_angle_beta 48.690416
_cell_angle_gamma 90.000000
_cell_volume 3313.266145
_symmetry_space_group_name_H-M "C 2/M"
_symmetry_group_IT_number 12
_symmetry_cell_setting 'monoclinic'
loop_
_space_group_symop_operation_xyz
x,y,z
-x,y,-z
-x,-y,-z
x,-y,z
1/2+x,1/2+y,z
1/2-x,1/2+y,-z
1/2-x,1/2-y,-z
1/2+x,1/2-y,z
loop_
_atom_site_type_symbol
_atom_site_label
_atom_site_fract_x
_atom_site_fract_y
_atom_site_fract_z
Si Si1 0.767808 0.317932 0.542278
Si Si2 0.376367 0.429889 0.919027
Si Si3 0.805634 0.428893 0.051551
Si Si4 0.612924 0.323129 0.900288
Si Si5 0.897850 0.239681 0.556956
Si Si6 0.949069 0.893889 0.427339
Si Si7 0.218574 0.712418 0.917059
Si Si8 0.766167 0.431162 0.368593
O O1 0.750000 0.250000 0.500000
O O2 0.673261 0.336612 0.717257
O O3 0.849468 0.300160 0.548272
O O4 0.793941 0.371928 0.420246
O O5 0.373867 0.500000 0.977447
O O6 0.298748 0.429524 0.897749
O O7 0.478018 0.417188 0.749287
O O8 0.358359 0.375491 0.033478
O O9 0.847694 0.500000 0.973094
O O10 0.831920 0.354879 0.995097
O O11 0.805461 0.427336 0.193432
O O12 0.647874 0.255420 0.914892
O O13 0.500000 0.324686 0.000000
O O14 0.924934 0.181260 0.441359
O O15 0.818071 0.208816 0.732418
O O16 0.000000 0.257671 0.500000
O O17 0.848235 0.928344 0.525983
O O18 0.000000 0.902132 0.500000
O O19 0.250000 0.750000 0.000000
O O20 0.793433 0.500000 0.390691
#
# Coordination Sequence:
#
# PCOD9186681 Si02
#       8
#     8   8   8   8   8   8   8   8
#     4  11  22  40  59  84 120 155 205 250 288 358
#     4  11  22  35  54  85 123 162 196 233 289 371
#     4  10  19  35  55  81 113 147 189 244 297 342
#     4  11  25  38  57  84 123 164 193 245 301 353
#     4  10  21  35  59  87 115 153 199 249 296 344
#     4  11  18  30  53  82 120 152 194 233 285 352
#     4  11  20  37  59  86 116 149 202 246 292 360
#     4  11  20  32  54  81 113 154 193 239 295 342
#
# _framework density 19.316286999999999
#
# number of rings (size 3 to 8) (size 9 to 14) (size 15 to 20)
#    0.000    1.250    5.000    2.625    0.000    1.250 
#    0.000    0.000    0.000    0.750    0.000    1.750 
#    0.000    0.000    0.000    0.000    0.000    0.000 
#
# Total GULP energy -178441.668840 kJ/mol
# GULP energy per Si atom -5576.302151 kJ/mol
# Density = 1.927232 g / cm^3
# Si number density = 19.316287 Si / 1000 Ang^3
#
#
#
# Elastic Constant Matrix: (Units=GPa)
#
#
# Indices 1 2 3 4 5 6 
#
# 1 64.6413 27.5856 10.9919 0.0000 -0.4612 0.0000
# 2 27.5856 136.2933 12.6170 0.0000 10.1880 0.0000
# 3 10.9919 12.6170 24.9567 0.0000 7.2199 0.0000
# 4 0.0000 0.0000 0.0000 21.3524 0.0000 7.3654
# 5 -0.4612 10.1880 7.2199 0.0000 20.2381 0.0000
# 6 0.0000 0.0000 0.0000 7.3654 0.0000 25.2270
#
#
#
# Elastic Compliance Matrix: (Units=1/GPa)
#
#
# Indices 1 2 3 4 5 6 
#
# 1 0.018249 -0.003339 -0.007756 0.000000 0.004864 0.000000
# 2 -0.003339 0.008450 -0.001727 0.000000 -0.003714 0.000000
# 3 -0.007756 -0.001727 0.049240 0.000000 -0.016874 0.000000
# 4 0.000000 0.000000 0.000000 0.052078 0.000000 -0.015205
# 5 0.004864 -0.003714 -0.016874 0.000000 0.057412 0.000000
# 6 0.000000 0.000000 0.000000 -0.015205 0.000000 0.044079
#
#
# Mechanical properties :
#
#
# Convention : Reuss Voigt Hill
#
# Bulk Modulus (GPa) = 19.88298 36.47559 28.17928
# Shear Modulus (GPa) = 18.38784 25.00993 21.69888
#
# Velocity S-wave (km/s) = 3.08869 3.60218 3.35527
# Velocity P-wave (km/s) = 4.79956 6.01874 5.44339
#
# Compressibility (1/GPa) = 0.05029428
#
# Stress axis : x y z
#
# Youngs Moduli (GPa) = 54.79880 118.33703 20.30855
#
# Poissons Ratio (x) = 0.39513 0.15752
# Poissons Ratio (y) = 0.18298 0.03507
# Poissons Ratio (z) = 0.42504 0.20438
#
# Static dielectric constant tensor:
#      x y z
#    x 1.702100 0.000000 0.013150 
#    y 0.000000 1.738210 0.000000 
#    z 0.013150 0.000000 1.682530 
# 
# From -- ./inp_files/159540.got.cif
#   From: 2010.05.17/outbox.cif.g08.bks.cpg/sg12_80_cif.got.tgz:159540.got - 2010.06.03 13:09:07.
