data_PCOD9186806
_publ_section_title
;
Structure prediction by ZEFSAII (Michael W. Deem and Ramdas Pophale) SiO2 
 PCOD9186806
Probable space group: C 2/M
;
_chemical_formula_sum "Si O2"
_cell_formula_units_Z 48
_cell_length_a 19.266388
_cell_length_b 9.066589
_cell_length_c 22.605695
_cell_angle_alpha 90.000000
_cell_angle_beta 42.269502
_cell_angle_gamma 90.000000
_cell_volume 2656.018189
_symmetry_space_group_name_H-M "C 2/M"
_symmetry_group_IT_number 12
_symmetry_cell_setting 'monoclinic'
loop_
_space_group_symop_operation_xyz
x,y,z
-x,y,-z
-x,-y,-z
x,-y,z
1/2+x,1/2+y,z
1/2-x,1/2+y,-z
1/2-x,1/2-y,-z
1/2+x,1/2-y,z
loop_
_atom_site_type_symbol
_atom_site_label
_atom_site_fract_x
_atom_site_fract_y
_atom_site_fract_z
Si Si1 0.198180 0.173332 0.588694
Si Si2 0.703058 0.174921 0.709453
Si Si3 0.450746 0.328150 0.747254
Si Si4 0.110889 0.324956 0.961184
Si Si5 0.456422 0.174307 0.865740
Si Si6 0.213622 0.324703 0.226663
O O1 0.250000 0.250000 0.500000
O O2 0.229265 0.253234 0.629954
O O3 0.073936 0.186471 0.662857
O O4 0.223694 0.000000 0.574842
O O5 0.579642 0.196676 0.797082
O O6 0.762888 0.251607 0.725011
O O7 0.721904 0.000000 0.697072
O O8 0.422736 0.500000 0.760122
O O9 0.423405 0.267386 0.829745
O O10 0.391376 0.235007 0.735715
O O11 0.134912 0.500000 0.940350
O O12 0.196356 0.230897 0.874124
O O13 0.099519 0.288731 0.037644
O O14 0.000000 0.302609 0.000000
O O15 0.441491 0.000000 0.863122
O O16 0.213837 0.500000 0.231168
#
# Coordination Sequence:
#
# PCOD9186806 Si02
#       6
#     8   8   8   8   8   8
#     4  10  21  39  64  92 115 143 183 228 278 340
#     4  10  19  36  60  84 113 150 188 230 281 336
#     4  10  22  39  58  81 114 150 187 230 281 336
#     4  10  19  35  56  80 111 151 196 237 279 331
#     4   9  18  34  57  81 108 147 193 235 279 330
#     4  12  24  36  54  83 117 152 191 236 284 330
#
# _framework density 18.072165999999999
#
# number of rings (size 3 to 8) (size 9 to 14) (size 15 to 20)
#    0.000    1.833    1.667    3.000    0.000    4.333 
#    0.000    0.833    0.000    5.000    0.000    0.000 
#    0.000    0.000    0.000    0.000    0.000    0.000 
#
# Total GULP energy -134100.481330 kJ/mol
# GULP energy per Si atom -5587.520055 kJ/mol
# Density = 1.803103 g / cm^3
# Si number density = 18.072166 Si / 1000 Ang^3
#
#
#
# Elastic Constant Matrix: (Units=GPa)
#
#
# Indices 1 2 3 4 5 6 
#
# 1 102.9975 81.0938 42.5868 0.0000 31.4202 0.0000
# 2 81.0938 134.7410 62.5676 0.0000 27.6207 0.0001
# 3 42.5868 62.5676 96.3172 0.0000 38.0483 0.0000
# 4 0.0000 0.0000 0.0000 30.8052 0.0000 7.0969
# 5 31.4202 27.6207 38.0483 0.0000 25.8409 0.0000
# 6 0.0000 0.0001 0.0000 7.0969 0.0000 32.9042
#
#
#
# Elastic Compliance Matrix: (Units=1/GPa)
#
#
# Indices 1 2 3 4 5 6 
#
# 1 0.026183 -0.013891 0.009938 0.000000 -0.031621 0.000000
# 2 -0.013891 0.018086 -0.011096 0.000000 0.013897 0.000000
# 3 0.009938 -0.011096 0.031754 0.000000 -0.046979 0.000000
# 4 0.000000 0.000000 0.000000 0.034159 0.000000 -0.007368
# 5 -0.031621 0.013897 -0.046979 0.000000 0.131465 0.000000
# 6 0.000000 0.000000 0.000000 -0.007368 0.000000 0.031980
#
#
# Mechanical properties :
#
#
# Convention : Reuss Voigt Hill
#
# Bulk Modulus (GPa) = 21.77470 78.50579 50.14025
# Shear Modulus (GPa) = 15.67230 27.76388 21.71809
#
# Velocity S-wave (km/s) = 2.94803 3.92379 3.47038
# Velocity P-wave (km/s) = 4.86444 8.00391 6.62289
#
# Compressibility (1/GPa) = 0.04592486
#
# Stress axis : x y z
#
# Youngs Moduli (GPa) = 38.19271 55.29214 31.49173
#
# Poissons Ratio (x) = 0.76806 -0.31297
# Poissons Ratio (y) = 0.53053 0.34944
# Poissons Ratio (z) = -0.37956 0.61354
#
# Static dielectric constant tensor:
#      x y z
#    x 1.610320 0.000000 -0.008660 
#    y 0.000000 1.597690 0.000000 
#    z -0.008660 0.000000 1.597740 
# 
# From -- ./inp_files/313581.got.cif
#   From: 2010.05.17/outbox.cif.g08.bks.cpg/sg12_157_cif.got.tgz:313581.got - 2010.06.03 13:09:07.
