data_PCOD9186264
_publ_section_title
;
Structure prediction by ZEFSAII (Michael W. Deem and Ramdas Pophale) SiO2 
 PCOD9186264
Probable space group: C 2/M
;
_chemical_formula_sum "Si O2"
_cell_formula_units_Z 44
_cell_length_a 9.291495
_cell_length_b 26.053190
_cell_length_c 11.129336
_cell_angle_alpha 90.000000
_cell_angle_beta 39.296787
_cell_angle_gamma 90.000000
_cell_volume 1706.282536
_symmetry_space_group_name_H-M "C 2/M"
_symmetry_group_IT_number 12
_symmetry_cell_setting 'monoclinic'
loop_
_space_group_symop_operation_xyz
x,y,z
-x,y,-z
-x,-y,-z
x,-y,z
1/2+x,1/2+y,z
1/2-x,1/2+y,-z
1/2-x,1/2-y,-z
1/2+x,1/2-y,z
loop_
_atom_site_type_symbol
_atom_site_label
_atom_site_fract_x
_atom_site_fract_y
_atom_site_fract_z
Si Si1 0.043859 0.708698 0.110281
Si Si2 0.350258 0.299274 0.357903
Si Si3 0.637136 0.400954 0.731008
Si Si4 0.635051 0.000000 0.727750
Si Si5 0.959004 0.000000 0.734351
Si Si6 0.975525 0.396096 0.727730
Si Si7 0.000000 0.755663 0.500000
O O1 0.833037 0.747297 0.283389
O O2 0.043926 0.654234 0.176962
O O3 0.250000 0.750000 0.000000
O O4 0.000000 0.698919 0.000000
O O5 0.460296 0.343745 0.209115
O O6 0.078709 0.293156 0.547262
O O7 0.483256 0.296752 0.395303
O O8 0.487160 0.449389 0.796310
O O9 0.809660 0.394984 0.504571
O O10 0.767407 0.405678 0.771370
O O11 0.506081 0.052905 0.787168
O O12 0.832791 0.000000 0.496816
O O13 0.743064 0.000000 0.789159
#
# Coordination Sequence:
#
# PCOD9186264 Si02
#       7
#     8   8   8   4   4   8   4
#     4  12  26  41  57  82 119 163 208 246 286 345
#     4  11  21  36  57  85 117 152 192 243 301 355
#     4  10  19  34  60  88 117 148 187 241 302 358
#     4   9  19  35  58  88 123 152 185 236 298 360
#     4   9  19  31  53  96 127 144 176 237 310 361
#     4  10  20  38  60  85 117 155 193 235 294 357
#     4  10  20  34  58  88 112 140 190 246 304 362
#
# _framework density 25.787054000000001
#
# number of rings (size 3 to 8) (size 9 to 14) (size 15 to 20)
#    0.000    1.636    0.000    7.091    0.000    8.000 
#    0.000    0.455    0.000    1.091    0.000    5.091 
#    0.000    0.000    0.000    0.000    0.000    0.000 
#
# Total GULP energy -122673.701857 kJ/mol
# GULP energy per Si atom -5576.077357 kJ/mol
# Density = 2.572836 g / cm^3
# Si number density = 25.787054 Si / 1000 Ang^3
#
#
#
# Elastic Constant Matrix: (Units=GPa)
#
#
# Indices 1 2 3 4 5 6 
#
# 1 258.7296 135.4391 37.7780 0.0000 44.4384 0.0000
# 2 135.4391 264.6815 38.7379 0.0000 26.7629 0.0000
# 3 37.7780 38.7379 80.8066 0.0000 -7.1089 0.0000
# 4 0.0000 0.0000 0.0000 11.5005 0.0000 14.6059
# 5 44.4384 26.7629 -7.1089 0.0000 37.6334 0.0000
# 6 0.0000 0.0000 0.0000 14.6059 0.0000 50.5361
#
#
#
# Elastic Compliance Matrix: (Units=1/GPa)
#
#
# Indices 1 2 3 4 5 6 
#
# 1 0.006593 -0.002333 -0.002545 0.000000 -0.006606 0.000000
# 2 -0.002333 0.005340 -0.001587 0.000000 -0.001343 0.000000
# 3 -0.002545 -0.001587 0.014938 0.000000 0.006956 0.000000
# 4 0.000000 0.000000 0.000000 0.137379 0.000000 -0.039705
# 5 -0.006606 -0.001343 0.006956 0.000000 0.036642 0.000000
# 6 0.000000 0.000000 0.000000 -0.039705 0.000000 0.031263
#
#
# Mechanical properties :
#
#
# Convention : Reuss Voigt Hill
#
# Bulk Modulus (GPa) = 71.73605 114.23643 92.98624
# Shear Modulus (GPa) = 20.02153 46.08485 33.05319
#
# Velocity S-wave (km/s) = 2.78945 4.23203 3.58407
# Velocity P-wave (km/s) = 6.18496 8.26294 7.29829
#
# Compressibility (1/GPa) = 0.01393999
#
# Stress axis : x y z
#
# Youngs Moduli (GPa) = 151.68593 187.26560 66.94408
#
# Poissons Ratio (x) = 0.43689 0.17036
# Poissons Ratio (y) = 0.35389 0.10626
# Poissons Ratio (z) = 0.38602 0.29725
#
# Static dielectric constant tensor:
#      x y z
#    x 2.359500 0.000000 -0.343380 
#    y 0.000000 2.321360 0.000000 
#    z -0.343380 0.000000 2.701800 
# 
# From -- ./inp_files/124106.got.cif
#   From: 2010.05.17/outbox.cif.g08.bks.cpg/sg12_63_cif.got.tgz:124106.got - 2010.06.03 13:09:07.
