data_PCOD9186014
_publ_section_title
;
Structure prediction by ZEFSAII (Michael W. Deem and Ramdas Pophale) SiO2 
 PCOD9186014
Probable space group: C 2/M
;
_chemical_formula_sum "Si O2"
_cell_formula_units_Z 52
_cell_length_a 24.034642
_cell_length_b 14.581185
_cell_length_c 19.247686
_cell_angle_alpha 90.000000
_cell_angle_beta 21.696194
_cell_angle_gamma 90.000000
_cell_volume 2493.680880
_symmetry_space_group_name_H-M "C 2/M"
_symmetry_group_IT_number 12
_symmetry_cell_setting 'monoclinic'
loop_
_space_group_symop_operation_xyz
x,y,z
-x,y,-z
-x,-y,-z
x,-y,z
1/2+x,1/2+y,z
1/2-x,1/2+y,-z
1/2-x,1/2-y,-z
1/2+x,1/2-y,z
loop_
_atom_site_type_symbol
_atom_site_label
_atom_site_fract_x
_atom_site_fract_y
_atom_site_fract_z
Si Si1 0.216419 0.106806 0.574381
Si Si2 0.338715 0.105512 0.058001
Si Si3 0.316977 0.603179 0.625430
Si Si4 0.419286 0.247428 0.161257
Si Si5 0.988740 0.858181 0.720090
Si Si6 0.740674 0.000000 0.058695
Si Si7 0.062137 0.647139 0.202334
O O1 0.141554 0.175883 0.716373
O O2 0.143291 0.131326 0.585182
O O3 0.395166 0.122306 0.369305
O O4 0.185930 0.000000 0.624716
O O5 0.197846 0.113656 0.274103
O O6 0.392728 0.000000 0.002424
O O7 0.460690 0.179645 0.941824
O O8 0.324268 0.122247 0.992780
O O9 0.258050 0.500000 0.678968
O O10 0.211757 0.682165 0.716090
O O11 0.471863 0.610933 0.403750
O O12 0.500000 0.289915 0.000000
O O13 0.871034 0.920763 0.897103
O O14 0.938019 0.753332 0.780138
O O15 0.610387 0.919196 0.208033
#
# Coordination Sequence:
#
# PCOD9186014 Si02
#       7
#     8   8   8   8   8   4   8
#     4  12  22  38  65  91 122 162 207 269 304 360
#     4  10  19  34  58  90 126 158 193 251 313 372
#     4  10  19  34  58  90 126 158 193 251 313 372
#     4  10  20  34  58  94 124 159 202 255 318 365
#     4  12  23  41  63  92 123 165 209 254 314 366
#     4  12  26  42  61  90 129 164 210 254 302 384
#     4  12  23  41  63  92 123 165 209 254 314 366
#
# _framework density 20.852708
#
# number of rings (size 3 to 8) (size 9 to 14) (size 15 to 20)
#    0.000    0.923    6.154    2.308    0.000    2.154 
#    0.000    1.538    0.000    0.000    0.000    5.385 
#    0.000    0.000    0.000    0.000    0.000    0.000 
#
# Total GULP energy -144754.393638 kJ/mol
# GULP energy per Si atom -5567.476678 kJ/mol
# Density = 2.080525 g / cm^3
# Si number density = 20.852708 Si / 1000 Ang^3
#
#
#
# Elastic Constant Matrix: (Units=GPa)
#
#
# Indices 1 2 3 4 5 6 
#
# 1 44.2240 10.8067 25.8982 -0.0007 15.8138 0.0005
# 2 10.8067 174.7434 30.4852 -0.0007 13.5070 0.0006
# 3 25.8982 30.4852 91.8146 0.0000 8.8487 0.0000
# 4 -0.0007 -0.0007 0.0000 22.5765 0.0004 4.4458
# 5 15.8138 13.5070 8.8487 0.0004 42.0003 -0.0003
# 6 0.0005 0.0006 0.0000 4.4458 -0.0003 12.5454
#
#
#
# Elastic Compliance Matrix: (Units=1/GPa)
#
#
# Indices 1 2 3 4 5 6 
#
# 1 0.030676 0.000230 -0.007766 0.000002 -0.009988 -0.000002
# 2 0.000230 0.006178 -0.001956 0.000000 -0.001661 0.000000
# 3 -0.007766 -0.001956 0.013667 0.000000 0.000674 0.000001
# 4 0.000002 0.000000 0.000000 0.047617 -0.000001 -0.016874
# 5 -0.009988 -0.001661 0.000674 -0.000001 0.027962 0.000002
# 6 -0.000002 0.000000 0.000001 -0.016874 0.000002 0.085690
#
#
# Mechanical properties :
#
#
# Convention : Reuss Voigt Hill
#
# Bulk Modulus (GPa) = 31.71074 49.46248 40.58661
# Shear Modulus (GPa) = 20.72225 31.66389 26.19307
#
# Velocity S-wave (km/s) = 3.15579 3.90096 3.54799
# Velocity P-wave (km/s) = 5.34029 6.63788 6.02412
#
# Compressibility (1/GPa) = 0.03153505
#
# Stress axis : x y z
#
# Youngs Moduli (GPa) = 32.59931 161.86159 73.17047
#
# Poissons Ratio (x) = -0.03720 0.56827
# Poissons Ratio (y) = -0.00749 0.14312
# Poissons Ratio (z) = 0.25318 0.31661
#
# Static dielectric constant tensor:
#      x y z
#    x 1.804020 0.000000 -0.012470 
#    y 0.000000 1.696940 0.000000 
#    z -0.012470 0.000000 1.806560 
# 
# From -- ./inp_files/85857.got.cif
#   From: 2010.05.17/outbox.cif.g08.bks.cpg/sg12_43_cif.got.tgz:85857.got - 2010.06.03 13:09:07.
