data_PCOD9186093
_publ_section_title
;
Structure prediction by ZEFSAII (Michael W. Deem and Ramdas Pophale) SiO2 
 PCOD9186093
Probable space group: C 2/M
;
_chemical_formula_sum "Si O2"
_cell_formula_units_Z 52
_cell_length_a 14.832242
_cell_length_b 17.996330
_cell_length_c 8.796040
_cell_angle_alpha 90.000000
_cell_angle_beta 73.104429
_cell_angle_gamma 90.000000
_cell_volume 2246.546837
_symmetry_space_group_name_H-M "C 2/M"
_symmetry_group_IT_number 12
_symmetry_cell_setting 'monoclinic'
loop_
_space_group_symop_operation_xyz
x,y,z
-x,y,-z
-x,-y,-z
x,-y,z
1/2+x,1/2+y,z
1/2-x,1/2+y,-z
1/2-x,1/2-y,-z
1/2+x,1/2-y,z
loop_
_atom_site_type_symbol
_atom_site_label
_atom_site_fract_x
_atom_site_fract_y
_atom_site_fract_z
Si Si1 0.281434 0.852992 0.121598
Si Si2 0.939275 0.582834 0.877330
Si Si3 0.626062 0.815608 0.348212
Si Si4 0.082436 0.085403 0.723588
Si Si5 0.216022 0.415712 0.546525
Si Si6 0.000000 0.180657 0.500000
Si Si7 0.332085 0.693543 0.088407
O O1 0.268141 0.879604 0.297575
O O2 0.351325 0.781178 0.084961
O O3 0.332906 0.914336 0.994471
O O4 0.188722 0.830287 0.073657
O O5 0.960427 0.500000 0.808660
O O6 0.940106 0.644018 0.744054
O O7 0.000000 0.595241 0.000000
O O8 0.643029 0.868640 0.483637
O O9 0.585502 0.737556 0.424460
O O10 0.729771 0.808893 0.222631
O O11 0.185058 0.082730 0.591605
O O12 0.098515 0.138145 0.860987
O O13 0.017402 0.128028 0.635471
O O14 0.054300 0.000000 0.769345
O O15 0.183396 0.500000 0.582014
#
# Coordination Sequence:
#
# PCOD9186093 Si02
#       7
#     8   8   8   8   8   4   8
#     4  10  19  34  59  86 110 146 189 234 280 333
#     4  10  22  37  52  79 119 153 182 224 282 341
#     4  10  22  37  56  85 114 153 188 231 281 335
#     4  10  22  39  60  84 115 150 190 239 290 338
#     4  10  20  36  60  86 113 146 190 237 278 335
#     4  12  23  36  61  86 114 152 192 240 281 340
#     4   9  20  38  59  83 113 145 193 237 278 336
#
# _framework density 23.146636000000001
#
# number of rings (size 3 to 8) (size 9 to 14) (size 15 to 20)
#    0.000    2.000    0.000    3.000    4.308    6.769 
#    0.000    0.769    0.000    0.000    0.000   12.923 
#    0.000    0.000    0.000    0.000    0.000    0.000 
#
# Total GULP energy -145375.396295 kJ/mol
# GULP energy per Si atom -5591.361396 kJ/mol
# Density = 2.309395 g / cm^3
# Si number density = 23.146636 Si / 1000 Ang^3
#
#
#
# Elastic Constant Matrix: (Units=GPa)
#
#
# Indices 1 2 3 4 5 6 
#
# 1 42.0569 31.4223 11.0426 0.0000 0.5506 0.0000
# 2 31.4223 179.9165 60.7818 0.0000 34.2008 0.0000
# 3 11.0426 60.7818 118.9248 0.0000 26.0216 0.0000
# 4 0.0000 0.0000 0.0000 -22.1645 0.0000 0.2322
# 5 0.5506 34.2008 26.0216 0.0000 39.0451 0.0000
# 6 0.0000 0.0000 0.0000 0.2322 0.0000 21.1144
#
#
#
# Elastic Compliance Matrix: (Units=1/GPa)
#
#
# Indices 1 2 3 4 5 6 
#
# 1 0.028107 -0.005579 -0.000867 0.000000 0.005069 0.000000
# 2 -0.005579 0.008474 -0.002583 0.000000 -0.005623 0.000000
# 3 -0.000867 -0.002583 0.010901 0.000000 -0.004991 0.000000
# 4 0.000000 0.000000 0.000000 -0.045112 0.000000 0.000496
# 5 0.005069 -0.005623 -0.004991 0.000000 0.033791 0.000000
# 6 0.000000 0.000000 0.000000 0.000496 0.000000 0.047356
#
#
# Mechanical properties :
#
#
# Convention : Reuss Voigt Hill
#
# Bulk Modulus (GPa) = 33.98638 60.82128 47.40383
# Shear Modulus (GPa) = 44.88986 23.44244 34.16615
#
# Velocity S-wave (km/s) = 4.40860 3.18587 3.84614
# Velocity P-wave (km/s) = 6.37411 6.31400 6.34413
#
# Compressibility (1/GPa) = 0.02942355
#
# Stress axis : x y z
#
# Youngs Moduli (GPa) = 35.57791 118.00913 91.73342
#
# Poissons Ratio (x) = 0.65843 0.07956
# Poissons Ratio (y) = 0.19851 0.23691
# Poissons Ratio (z) = 0.03086 0.30477
#
# Static dielectric constant tensor:
#      x y z
#    x 1.918720 0.000000 -0.027160 
#    y 0.000000 1.856080 0.000000 
#    z -0.027160 0.000000 1.843560 
# 
# From -- ./inp_files/75313.got.cif
#   From: 2010.05.17/outbox.cif.g08.bks.cpg/sg12_38_cif.got.tgz:75313.got - 2010.06.03 13:09:07.
