data_PCOD9186959
_publ_section_title
;
Structure prediction by ZEFSAII (Michael W. Deem and Ramdas Pophale) SiO2 
 PCOD9186959
Probable space group: C 2/M
;
_chemical_formula_sum "Si O2"
_cell_formula_units_Z 48
_cell_length_a 19.392139
_cell_length_b 9.024586
_cell_length_c 30.237011
_cell_angle_alpha 90.000000
_cell_angle_beta 149.059878
_cell_angle_gamma 90.000000
_cell_volume 2720.664188
_symmetry_space_group_name_H-M "C 2/M"
_symmetry_group_IT_number 12
_symmetry_cell_setting 'monoclinic'
loop_
_space_group_symop_operation_xyz
x,y,z
-x,y,-z
-x,-y,-z
x,-y,z
1/2+x,1/2+y,z
1/2-x,1/2+y,-z
1/2-x,1/2-y,-z
1/2+x,1/2-y,z
loop_
_atom_site_type_symbol
_atom_site_label
_atom_site_fract_x
_atom_site_fract_y
_atom_site_fract_z
Si Si1 0.664850 0.825736 0.220860
Si Si2 0.873856 0.176528 0.463109
Si Si3 0.587526 0.176294 0.759105
Si Si4 0.025376 0.175516 0.634710
Si Si5 0.892962 0.175678 0.720640
Si Si6 0.872735 0.677063 0.899894
O O1 0.824983 0.801825 0.302893
O O2 0.609315 0.728480 0.229887
O O3 0.602663 0.793819 0.138569
O O4 0.646269 0.000000 0.220998
O O5 0.746538 0.267458 0.377171
O O6 0.000000 0.202825 0.500000
O O7 0.920354 0.212189 0.538501
O O8 0.843918 0.000000 0.444248
O O9 0.517037 0.232638 0.675045
O O10 0.510808 0.247115 0.758055
O O11 0.739462 0.236097 0.840283
O O12 0.584383 0.000000 0.759394
O O13 0.014826 0.000000 0.639155
O O14 0.903447 0.000000 0.723131
O O15 0.845668 0.500000 0.888662
O O16 0.000000 0.713193 0.000000
#
# Coordination Sequence:
#
# PCOD9186959 Si02
#       6
#     8   8   8   8   8   8
#     4   9  17  34  58  83 111 145 182 221 274 332
#     4  10  19  35  57  80 109 148 191 232 277 326
#     4  11  23  38  57  81 114 149 185 229 279 329
#     4   9  18  35  58  80 108 147 189 231 276 329
#     4  12  24  36  53  80 115 151 190 233 276 323
#     4   9  19  39  66  90 112 141 177 220 274 338
#
# _framework density 17.642749999999999
#
# number of rings (size 3 to 8) (size 9 to 14) (size 15 to 20)
#    0.000    2.000    1.667    4.000    0.000    4.667 
#    0.000    0.833    0.000    0.000    0.000    0.000 
#    0.000    0.000    0.000    0.000    0.000    0.000 
#
# Total GULP energy -134040.205545 kJ/mol
# GULP energy per Si atom -5585.008564 kJ/mol
# Density = 1.760259 g / cm^3
# Si number density = 17.642750 Si / 1000 Ang^3
#
#
#
# Elastic Constant Matrix: (Units=GPa)
#
#
# Indices 1 2 3 4 5 6 
#
# 1 115.2485 81.3232 58.0457 0.0000 -9.7207 0.0000
# 2 81.3232 103.1978 57.6299 0.0000 -5.9415 0.0000
# 3 58.0457 57.6299 96.4620 0.0001 -23.7823 0.0000
# 4 0.0000 0.0000 0.0001 21.9838 0.0000 0.2428
# 5 -9.7207 -5.9415 -23.7823 0.0000 18.7449 0.0000
# 6 0.0000 0.0000 0.0000 0.2428 0.0000 32.5656
#
#
#
# Elastic Compliance Matrix: (Units=1/GPa)
#
#
# Indices 1 2 3 4 5 6 
#
# 1 0.020579 -0.014170 -0.003483 0.000000 0.001761 0.000000
# 2 -0.014170 0.025515 -0.009509 0.000000 -0.011325 0.000000
# 3 -0.003483 -0.009509 0.024673 0.000000 0.026483 0.000000
# 4 0.000000 0.000000 0.000000 0.045492 0.000000 -0.000339
# 5 0.001761 -0.011325 0.026483 0.000000 0.084271 0.000000
# 6 0.000000 0.000000 0.000000 -0.000339 0.000000 0.030710
#
#
# Mechanical properties :
#
#
# Convention : Reuss Voigt Hill
#
# Bulk Modulus (GPa) = 60.81941 78.76734 69.79337
# Shear Modulus (GPa) = 17.17953 22.51950 19.84952
#
# Velocity S-wave (km/s) = 3.12387 3.57657 3.35786
# Velocity P-wave (km/s) = 6.89631 7.86120 7.39451
#
# Compressibility (1/GPa) = 0.01644212
#
# Stress axis : x y z
#
# Youngs Moduli (GPa) = 48.59397 39.19327 40.53010
#
# Poissons Ratio (x) = 0.55537 0.14118
# Poissons Ratio (y) = 0.68858 0.38539
# Poissons Ratio (z) = 0.16927 0.37268
#
# Static dielectric constant tensor:
#      x y z
#    x 1.593800 0.000000 -0.013870 
#    y 0.000000 1.583120 0.000000 
#    z -0.013870 0.000000 1.589340 
# 
# From -- ./inp_files/274051.got.cif
#   From: 2010.05.17/outbox.cif.g08.bks.cpg/sg12_138_cif.got.tgz:274051.got - 2010.06.03 13:09:07.
