data_PCOD9186127
_publ_section_title
;
Structure prediction by ZEFSAII (Michael W. Deem and Ramdas Pophale) SiO2 
 PCOD9186127
Probable space group: C 2/M
;
_chemical_formula_sum "Si O2"
_cell_formula_units_Z 40
_cell_length_a 7.850334
_cell_length_b 29.154164
_cell_length_c 9.365943
_cell_angle_alpha 90.000000
_cell_angle_beta 133.050499
_cell_angle_gamma 90.000000
_cell_volume 1566.428014
_symmetry_space_group_name_H-M "C 2/M"
_symmetry_group_IT_number 12
_symmetry_cell_setting 'monoclinic'
loop_
_space_group_symop_operation_xyz
x,y,z
-x,y,-z
-x,-y,-z
x,-y,z
1/2+x,1/2+y,z
1/2-x,1/2+y,-z
1/2-x,1/2-y,-z
1/2+x,1/2-y,z
loop_
_atom_site_type_symbol
_atom_site_label
_atom_site_fract_x
_atom_site_fract_y
_atom_site_fract_z
Si Si1 0.760738 0.693311 0.214016
Si Si2 0.480934 0.711354 0.318395
Si Si3 0.499219 0.898869 0.754233
Si Si4 0.658596 0.611608 0.790755
Si Si5 0.674303 0.551008 0.237994
O O1 0.711364 0.703260 0.354107
O O2 0.870704 0.739936 0.215872
O O3 0.918034 0.649507 0.266758
O O4 0.500000 0.686058 0.000000
O O5 0.500000 0.709518 0.500000
O O6 0.331325 0.666616 0.195760
O O7 0.248942 0.899984 0.684841
O O8 0.575833 0.937240 0.686789
O O9 0.664867 0.905395 0.987155
O O10 0.416121 0.590080 0.705666
O O11 0.657982 0.500000 0.289054
O O12 0.500000 0.552618 0.000000
#
# Coordination Sequence:
#
# PCOD9186127 Si02
#       5
#     8   8   8   8   8
#     4  12  22  39  60  84 120 162 208 245 291 355
#     4  12  25  38  56  87 126 160 199 250 301 351
#     4  10  19  34  59  87 114 154 203 247 287 354
#     4  10  20  35  56  85 119 154 197 243 298 355
#     4   9  17  33  56  86 121 151 191 253 305 345
#
# _framework density 25.535806000000001
#
# number of rings (size 3 to 8) (size 9 to 14) (size 15 to 20)
#    0.000    1.400    4.000    3.000    2.800    0.800 
#    0.000    4.000    0.000    0.600    0.000    1.400 
#    0.000    0.000    0.000    0.000    0.000    0.000 
#
# Total GULP energy -111952.304423 kJ/mol
# GULP energy per Si atom -5597.615221 kJ/mol
# Density = 2.547769 g / cm^3
# Si number density = 25.535806 Si / 1000 Ang^3
#
#
#
# Elastic Constant Matrix: (Units=GPa)
#
#
# Indices 1 2 3 4 5 6 
#
# 1 183.1256 35.0335 22.8876 0.0000 -33.0307 0.0000
# 2 35.0335 96.5834 3.5373 0.0000 -15.9063 0.0000
# 3 22.8876 3.5373 95.2002 0.0000 -24.3970 0.0000
# 4 0.0000 0.0000 0.0000 17.5659 0.0000 -4.0747
# 5 -33.0307 -15.9063 -24.3970 0.0000 47.0207 0.0000
# 6 0.0000 0.0000 0.0000 -4.0747 0.0000 31.7537
#
#
#
# Elastic Compliance Matrix: (Units=1/GPa)
#
#
# Indices 1 2 3 4 5 6 
#
# 1 0.006532 -0.001738 -0.000554 0.000000 0.003713 0.000000
# 2 -0.001738 0.011459 0.000776 0.000000 0.003058 0.000000
# 3 -0.000554 0.000776 0.012198 0.000000 0.006202 0.000000
# 4 0.000000 0.000000 0.000000 0.058675 0.000000 0.007529
# 5 0.003713 0.003058 0.006202 0.000000 0.028128 0.000000
# 6 0.000000 0.000000 0.000000 0.007529 0.000000 0.032459
#
#
# Mechanical properties :
#
#
# Convention : Reuss Voigt Hill
#
# Bulk Modulus (GPa) = 36.82253 55.31399 46.06826
# Shear Modulus (GPa) = 30.95282 40.16478 35.55880
#
# Velocity S-wave (km/s) = 3.48535 3.97026 3.73568
# Velocity P-wave (km/s) = 5.53608 6.53649 6.05697
#
# Compressibility (1/GPa) = 0.02715729
#
# Stress axis : x y z
#
# Youngs Moduli (GPa) = 153.08791 87.26548 81.98053
#
# Poissons Ratio (x) = 0.15163 0.04544
# Poissons Ratio (y) = 0.26600 -0.06359
# Poissons Ratio (z) = 0.08485 -0.06769
#
# Static dielectric constant tensor:
#      x y z
#    x 2.044780 0.000000 0.038280 
#    y 0.000000 1.930820 0.000000 
#    z 0.038280 0.000000 2.127230 
# 
# From -- ./inp_files/41876.got.cif
#   From: 2010.05.17/outbox.cif.g08.bks.cpg/sg12_21_cif.got.tgz:41876.got - 2010.06.03 13:09:07.
