data_PCOD9186483
_publ_section_title
;
Structure prediction by ZEFSAII (Michael W. Deem and Ramdas Pophale) SiO2 
 PCOD9186483
Probable space group: C 2/M
;
_chemical_formula_sum "Si O2"
_cell_formula_units_Z 56
_cell_length_a 14.326754
_cell_length_b 30.361810
_cell_length_c 14.172158
_cell_angle_alpha 90.000000
_cell_angle_beta 148.883665
_cell_angle_gamma 90.000000
_cell_volume 3185.774155
_symmetry_space_group_name_H-M "C 2/M"
_symmetry_group_IT_number 12
_symmetry_cell_setting 'monoclinic'
loop_
_space_group_symop_operation_xyz
x,y,z
-x,y,-z
-x,-y,-z
x,-y,z
1/2+x,1/2+y,z
1/2-x,1/2+y,-z
1/2-x,1/2-y,-z
1/2+x,1/2-y,z
loop_
_atom_site_type_symbol
_atom_site_label
_atom_site_fract_x
_atom_site_fract_y
_atom_site_fract_z
Si Si1 0.046435 0.252543 0.282358
Si Si2 0.321652 0.876821 0.576141
Si Si3 0.997724 0.447739 0.386047
Si Si4 0.459054 0.166470 0.074443
Si Si5 0.659451 0.610169 0.067841
Si Si6 0.936674 0.686991 0.341155
Si Si7 0.445215 0.345086 0.209979
O O1 0.250000 0.250000 0.500000
O O2 0.920183 0.271369 0.257888
O O3 0.022820 0.287249 0.177195
O O4 0.991610 0.203291 0.210507
O O5 0.354358 0.922585 0.549835
O O6 0.437849 0.869802 0.771539
O O7 0.408378 0.841940 0.576684
O O8 0.116290 0.862759 0.416039
O O9 0.011869 0.500000 0.389959
O O10 0.807029 0.428010 0.187473
O O11 0.000000 0.436026 0.500000
O O12 0.500000 0.164659 0.000000
O O13 0.245767 0.159702 0.904262
O O14 0.766066 0.654249 0.194975
O O15 0.500000 0.598456 0.000000
O O16 0.579773 0.622065 0.898193
O O17 0.000000 0.699166 0.500000
#
# Coordination Sequence:
#
# PCOD9186483 Si02
#       7
#     8   8   8   8   8   8   8
#     4  11  22  39  54  80 121 155 205 262 296 338
#     4  10  20  41  59  83 119 154 195 240 302 361
#     4  10  20  38  64  94 128 153 185 247 305 372
#     4  11  24  40  59  86 116 159 213 253 294 344
#     4  11  21  33  58  89 118 162 195 230 298 376
#     4  10  19  35  52  77 114 154 200 242 286 345
#     4  12  21  39  60  79 121 162 200 251 298 354
#
# _framework density 17.578144999999999
#
# number of rings (size 3 to 8) (size 9 to 14) (size 15 to 20)
#    0.000    1.286    7.143    3.857    0.000    2.571 
#    0.000    0.714    0.000    0.429    0.000    1.000 
#    0.000    0.000    0.000    0.000    0.000    0.000 
#
# Total GULP energy -156240.471746 kJ/mol
# GULP energy per Si atom -5580.016848 kJ/mol
# Density = 1.753814 g / cm^3
# Si number density = 17.578145 Si / 1000 Ang^3
#
#
#
# Elastic Constant Matrix: (Units=GPa)
#
#
# Indices 1 2 3 4 5 6 
#
# 1 91.0148 21.3644 41.2578 0.0001 -11.9947 0.0001
# 2 21.3644 69.8160 26.7110 -0.0002 -5.9039 -0.0001
# 3 41.2578 26.7110 95.0352 0.0016 10.1571 0.0010
# 4 0.0001 -0.0002 0.0016 696.5901 0.0007 437.3733
# 5 -11.9947 -5.9039 10.1571 0.0007 36.8616 0.0004
# 6 0.0001 -0.0001 0.0010 437.3733 0.0004 295.0485
#
#
#
# Elastic Compliance Matrix: (Units=1/GPa)
#
#
# Indices 1 2 3 4 5 6 
#
# 1 0.015377 -0.001470 -0.006978 0.000000 0.006691 0.000000
# 2 -0.001470 0.016762 -0.004439 0.000000 0.003429 0.000000
# 3 -0.006978 -0.004439 0.015577 0.000000 -0.007274 0.000000
# 4 0.000000 0.000000 0.000000 0.020731 0.000000 -0.030731
# 5 0.006691 0.003429 -0.007274 0.000000 0.031859 0.000000
# 6 0.000000 0.000000 0.000000 -0.030731 0.000000 0.048944
#
#
# Mechanical properties :
#
#
# Convention : Reuss Voigt Hill
#
# Bulk Modulus (GPa) = 45.57621 48.28137 46.92879
# Shear Modulus (GPa) = 27.42170 216.80221 122.11196
#
# Velocity S-wave (km/s) = 3.95395 11.11773 8.34379
# Velocity P-wave (km/s) = 6.84318 13.86837 10.93528
#
# Compressibility (1/GPa) = 0.02194127
#
# Stress axis : x y z
#
# Youngs Moduli (GPa) = 65.03179 59.65963 64.19830
#
# Poissons Ratio (x) = 0.08771 0.44795
# Poissons Ratio (y) = 0.09561 0.28500
# Poissons Ratio (z) = 0.45376 0.26485
#
# Static dielectric constant tensor:
#      x y z
#    x 1.583790 0.000000 -0.004710 
#    y 0.000000 1.605900 0.000000 
#    z -0.004710 0.000000 1.566890 
# 
# From -- ./inp_files/219378.got.cif
#   From: 2010.05.17/outbox.cif.g08.bks.cpg/sg12_110_cif.got.tgz:219378.got - 2010.06.03 13:09:07.
