data_PCOD9186960
_publ_section_title
;
Structure prediction by ZEFSAII (Michael W. Deem and Ramdas Pophale) SiO2 
 PCOD9186960
Probable space group: C 2/M
;
_chemical_formula_sum "Si O2"
_cell_formula_units_Z 56
_cell_length_a 19.348867
_cell_length_b 7.871885
_cell_length_c 28.069782
_cell_angle_alpha 90.000000
_cell_angle_beta 142.105416
_cell_angle_gamma 90.000000
_cell_volume 2625.975275
_symmetry_space_group_name_H-M "C 2/M"
_symmetry_group_IT_number 12
_symmetry_cell_setting 'monoclinic'
loop_
_space_group_symop_operation_xyz
x,y,z
-x,y,-z
-x,-y,-z
x,-y,z
1/2+x,1/2+y,z
1/2-x,1/2+y,-z
1/2-x,1/2-y,-z
1/2+x,1/2-y,z
loop_
_atom_site_type_symbol
_atom_site_label
_atom_site_fract_x
_atom_site_fract_y
_atom_site_fract_z
Si Si1 0.355236 0.695250 0.524372
Si Si2 0.725869 0.202462 0.622683
Si Si3 0.827250 0.795918 0.204799
Si Si4 0.891302 0.206610 0.341432
Si Si5 0.103424 0.794859 0.025857
Si Si6 0.484806 0.707828 0.764510
Si Si7 0.380288 0.704290 0.069968
O O1 0.370098 0.500000 0.545440
O O2 0.250000 0.750000 0.500000
O O3 0.326221 0.715402 0.452857
O O4 0.480757 0.771402 0.597450
O O5 0.660593 0.237346 0.636416
O O6 0.855597 0.261205 0.695863
O O7 0.725068 0.000000 0.614339
O O8 0.821699 0.737768 0.256621
O O9 0.721799 0.749900 0.114368
O O10 0.942025 0.737384 0.241251
O O11 0.831941 0.000000 0.208636
O O12 0.892349 0.000000 0.343574
O O13 0.099958 0.000000 0.022440
O O14 0.083230 0.731284 0.961575
O O15 0.000000 0.730395 0.000000
O O16 0.484616 0.500000 0.764356
O O17 0.550889 0.767997 0.847420
O O18 0.390465 0.500000 0.076597
O O19 0.250000 0.750000 0.000000
#
# Coordination Sequence:
#
# PCOD9186960 Si02
#       7
#     8   8   8   8   8   8   8
#     4  11  23  42  67  91 122 158 196 239 290 348
#     4  11  23  39  63  92 121 156 197 240 291 350
#     4  10  20  38  60  80 109 151 197 239 286 348
#     4  10  23  41  60  86 121 159 194 239 297 350
#     4  10  22  36  54  81 115 149 188 239 296 348
#     4   9  19  36  58  82 112 152 194 237 291 350
#     4  10  19  35  57  80 109 149 193 238 289 345
#
# _framework density 21.325410000000002
#
# number of rings (size 3 to 8) (size 9 to 14) (size 15 to 20)
#    0.000    1.857    1.429    2.143    2.000    6.000 
#    0.000    4.286    0.000    0.000    0.000    0.000 
#    0.000    0.000    0.000    0.000    0.000    0.000 
#
# Total GULP energy -156320.360456 kJ/mol
# GULP energy per Si atom -5582.870016 kJ/mol
# Density = 2.127687 g / cm^3
# Si number density = 21.325410 Si / 1000 Ang^3
#
#
#
# Elastic Constant Matrix: (Units=GPa)
#
#
# Indices 1 2 3 4 5 6 
#
# 1 125.6562 -5.3732 2.4926 0.0000 -6.8433 0.0001
# 2 -5.3732 14.5081 -17.1730 0.0000 6.1266 0.0000
# 3 2.4926 -17.1730 63.5449 0.0000 -3.6596 0.0000
# 4 0.0000 0.0000 0.0000 22.1870 0.0000 1.9411
# 5 -6.8433 6.1266 -3.6596 0.0000 38.8738 0.0000
# 6 0.0001 0.0000 0.0000 1.9411 0.0000 24.5659
#
#
#
# Elastic Compliance Matrix: (Units=1/GPa)
#
#
# Indices 1 2 3 4 5 6 
#
# 1 0.008142 0.003377 0.000649 0.000000 0.000962 0.000000
# 2 0.003377 0.110281 0.028861 0.000000 -0.014069 0.000000
# 3 0.000649 0.028861 0.023382 0.000000 -0.002233 0.000000
# 4 0.000000 0.000000 0.000000 0.045385 0.000000 -0.003586
# 5 0.000962 -0.014069 -0.002233 0.000000 0.027901 0.000000
# 6 0.000000 0.000000 0.000000 -0.003586 0.000000 0.040990
#
#
# Mechanical properties :
#
#
# Convention : Reuss Voigt Hill
#
# Bulk Modulus (GPa) = 4.81745 18.17799 11.49772
# Shear Modulus (GPa) = 19.26770 32.04287 25.65528
#
# Velocity S-wave (km/s) = 3.00910 3.88050 3.47225
# Velocity P-wave (km/s) = 3.78640 5.34980 4.63450
#
# Compressibility (1/GPa) = 0.20757864
#
# Stress axis : x y z
#
# Youngs Moduli (GPa) = 122.81745 9.06774 42.76712
#
# Poissons Ratio (x) = -0.03062 -0.02774
# Poissons Ratio (y) = -0.41476 -1.23429
# Poissons Ratio (z) = -0.07967 -0.26170
#
# Static dielectric constant tensor:
#      x y z
#    x 0.262950 0.000000 0.708120 
#    y 0.000000 1.778930 0.000000 
#    z 0.708120 0.000000 1.414290 
# 
# From -- ./inp_files/363228.got.cif
#   From: 2010.05.17/outbox.cif.g08.bks.cpg/sg12_182_cif.got.tgz:363228.got - 2010.06.03 13:09:07.
