data_PCOD9186596
_publ_section_title
;
Structure prediction by ZEFSAII (Michael W. Deem and Ramdas Pophale) SiO2 
 PCOD9186596
Probable space group: C 2/M
;
_chemical_formula_sum "Si O2"
_cell_formula_units_Z 64
_cell_length_a 20.717494
_cell_length_b 9.270356
_cell_length_c 27.763881
_cell_angle_alpha 90.000000
_cell_angle_beta 48.597819
_cell_angle_gamma 90.000000
_cell_volume 3999.675959
_symmetry_space_group_name_H-M "C 2/M"
_symmetry_group_IT_number 12
_symmetry_cell_setting 'monoclinic'
loop_
_space_group_symop_operation_xyz
x,y,z
-x,y,-z
-x,-y,-z
x,-y,z
1/2+x,1/2+y,z
1/2-x,1/2+y,-z
1/2-x,1/2-y,-z
1/2+x,1/2-y,z
loop_
_atom_site_type_symbol
_atom_site_label
_atom_site_fract_x
_atom_site_fract_y
_atom_site_fract_z
Si Si1 0.483697 0.170467 0.951298
Si Si2 0.857831 0.172966 0.169883
Si Si3 0.722612 0.324870 0.165461
Si Si4 0.141510 0.669543 0.426690
Si Si5 0.412728 0.334952 0.693595
Si Si6 0.250494 0.166879 0.299673
Si Si7 0.519799 0.832190 0.568267
Si Si8 0.716642 0.828686 0.969466
O O1 0.547689 0.268618 0.889025
O O2 0.501341 0.000000 0.933442
O O3 0.500000 0.195022 0.000000
O O4 0.384272 0.200236 0.989387
O O5 0.796038 0.242888 0.159398
O O6 0.822117 0.238159 0.237541
O O7 0.852614 0.000000 0.172005
O O8 0.734403 0.500000 0.165538
O O9 0.631294 0.286125 0.234875
O O10 0.733145 0.289306 0.104355
O O11 0.164758 0.500000 0.418895
O O12 0.216480 0.762832 0.365782
O O13 0.061173 0.676160 0.428798
O O14 0.101822 0.721374 0.497110
O O15 0.439893 0.500000 0.685352
O O16 0.331837 0.331165 0.696171
O O17 0.488979 0.246975 0.631390
O O18 0.276147 0.000000 0.292389
O O19 0.534050 0.000000 0.571365
O O20 0.726290 0.000000 0.970951
O O21 0.750000 0.750000 0.000000
#
# Coordination Sequence:
#
# PCOD9186596 Si02
#       8
#     8   8   8   8   8   8   8   8
#     4  10  19  35  55  70  91 126 159 188 233 287
#     4  11  20  28  44  69  92 113 147 199 237 268
#     4   9  17  32  47  62  87 122 154 184 231 285
#     4   8  13  21  31  45  69 103 140 178 219 265
#     4   8  14  22  35  52  72 101 144 185 214 259
#     4   9  16  25  36  52  77 110 145 181 223 275
#     4   8  13  20  30  45  70 102 136 176 224 267
#     4  10  21  36  54  72  95 125 155 193 237 286
#
# _framework density 16.001297000000001
#
# number of rings (size 3 to 8) (size 9 to 14) (size 15 to 20)
#    0.000    2.875    1.250    3.000    0.000    4.750 
#    0.000    2.500    0.000    0.000    0.000    0.000 
#    0.000    0.000    0.000    1.125    0.000   15.000 
#
# Total GULP energy -178142.753324 kJ/mol
# GULP energy per Si atom -5566.961041 kJ/mol
# Density = 1.596488 g / cm^3
# Si number density = 16.001297 Si / 1000 Ang^3
#
#
#
# Elastic Constant Matrix: (Units=GPa)
#
#
# Indices 1 2 3 4 5 6 
#
# 1 36.5066 22.2666 35.7082 0.0000 6.4693 0.0003
# 2 22.2666 68.8663 79.0641 0.0000 0.6113 0.0007
# 3 35.7082 79.0641 186.6146 0.0000 7.9936 0.0000
# 4 0.0000 0.0000 0.0000 29.6092 0.0000 0.4118
# 5 6.4693 0.6113 7.9936 0.0000 6.8944 0.0000
# 6 0.0003 0.0007 0.0000 0.4118 0.0000 13.4384
#
#
#
# Elastic Compliance Matrix: (Units=1/GPa)
#
#
# Indices 1 2 3 4 5 6 
#
# 1 0.042629 -0.011508 -0.001696 0.000000 -0.037014 0.000000
# 2 -0.011508 0.032352 -0.012464 0.000000 0.022380 -0.000001
# 3 -0.001696 -0.012464 0.011415 0.000000 -0.010539 0.000001
# 4 0.000000 0.000000 0.000000 0.033788 0.000000 -0.001035
# 5 -0.037014 0.022380 -0.010539 0.000000 0.190013 -0.000001
# 6 0.000000 -0.000001 0.000001 -0.001035 -0.000001 0.074445
#
#
# Mechanical properties :
#
#
# Convention : Reuss Voigt Hill
#
# Bulk Modulus (GPa) = 28.52074 62.89615 45.70845
# Shear Modulus (GPa) = 11.16909 20.31830 15.74369
#
# Velocity S-wave (km/s) = 2.64486 3.56728 3.14012
# Velocity P-wave (km/s) = 5.21438 7.50730 6.46333
#
# Compressibility (1/GPa) = 0.03506220
#
# Stress axis : x y z
#
# Youngs Moduli (GPa) = 23.45802 30.90985 87.60336
#
# Poissons Ratio (x) = 0.35570 0.14857
# Poissons Ratio (y) = 0.26995 1.09185
# Poissons Ratio (z) = 0.03978 0.38525
#
# Static dielectric constant tensor:
#      x y z
#    x 1.498980 0.000000 0.000240 
#    y 0.000000 1.536390 0.000000 
#    z 0.000240 0.000000 1.573990 
# 
# From -- ./inp_files/365156.got.cif
#   From: 2010.05.17/outbox.cif.g08.bks.cpg/sg12_183_cif.got.tgz:365156.got - 2010.06.03 13:09:07.
