data_PCOD9186689
_publ_section_title
;
Structure prediction by ZEFSAII (Michael W. Deem and Ramdas Pophale) SiO2 
 PCOD9186689
Probable space group: C 2/M
;
_chemical_formula_sum "Si O2"
_cell_formula_units_Z 56
_cell_length_a 13.698676
_cell_length_b 12.820029
_cell_length_c 18.326829
_cell_angle_alpha 90.000000
_cell_angle_beta 60.717737
_cell_angle_gamma 90.000000
_cell_volume 2807.251565
_symmetry_space_group_name_H-M "C 2/M"
_symmetry_group_IT_number 12
_symmetry_cell_setting 'monoclinic'
loop_
_space_group_symop_operation_xyz
x,y,z
-x,y,-z
-x,-y,-z
x,-y,z
1/2+x,1/2+y,z
1/2-x,1/2+y,-z
1/2-x,1/2-y,-z
1/2+x,1/2-y,z
loop_
_atom_site_type_symbol
_atom_site_label
_atom_site_fract_x
_atom_site_fract_y
_atom_site_fract_z
Si Si1 0.542966 0.331811 0.906188
Si Si2 0.922605 0.878861 0.330991
Si Si3 0.847482 0.382931 0.146054
Si Si4 0.625005 0.617514 0.484945
Si Si5 0.621737 0.322681 0.166623
Si Si6 0.695551 0.880375 0.210202
Si Si7 0.751240 0.760675 0.684892
O O1 0.562488 0.206756 0.900766
O O2 0.452157 0.352692 0.876314
O O3 0.668643 0.375295 0.847421
O O4 0.500000 0.368161 0.000000
O O5 0.889074 0.851403 0.425673
O O6 0.856006 0.803629 0.302086
O O7 0.051689 0.864164 0.262177
O O8 0.893288 0.000000 0.329865
O O9 0.889647 0.500000 0.131745
O O10 0.745788 0.370094 0.125387
O O11 0.790093 0.349505 0.244051
O O12 0.500000 0.611931 0.500000
O O13 0.673505 0.500000 0.464917
O O14 0.691118 0.692688 0.407131
O O15 0.640565 0.198134 0.171358
O O16 0.675521 0.821550 0.294849
O O17 0.658898 0.000000 0.220857
#
# Coordination Sequence:
#
# PCOD9186689 Si02
#       7
#     8   8   8   8   8   8   8
#     4  10  22  40  60  84 116 149 190 242 287 347
#     4  11  20  34  59  83 109 153 195 232 284 340
#     4  10  21  36  59  85 115 152 192 236 286 342
#     4  10  20  33  53  82 114 149 192 238 282 330
#     4  10  20  39  59  85 114 154 193 238 282 347
#     4  10  22  38  59  86 117 154 191 234 289 344
#     4  10  19  35  55  81 117 147 193 239 279 331
#
# _framework density 19.948336999999999
#
# number of rings (size 3 to 8) (size 9 to 14) (size 15 to 20)
#    0.000    2.143    2.857    3.429    0.000    5.143 
#    0.000    1.429    0.000    9.429    0.000    0.000 
#    0.000    0.000    0.000    0.000    0.000    0.000 
#
# Total GULP energy -156191.374879 kJ/mol
# GULP energy per Si atom -5578.263389 kJ/mol
# Density = 1.990293 g / cm^3
# Si number density = 19.948337 Si / 1000 Ang^3
#
#
#
# Elastic Constant Matrix: (Units=GPa)
#
#
# Indices 1 2 3 4 5 6 
#
# 1 58.6005 -11.6687 16.4806 0.0000 14.9570 0.0000
# 2 -11.6687 84.8855 6.5522 0.0000 4.7577 0.0000
# 3 16.4806 6.5522 87.0933 0.0000 15.7761 0.0000
# 4 0.0000 0.0000 0.0000 5.8971 0.0000 2.6421
# 5 14.9570 4.7577 15.7761 0.0000 20.2882 0.0000
# 6 0.0000 0.0000 0.0000 2.6421 0.0000 5.8309
#
#
#
# Elastic Compliance Matrix: (Units=1/GPa)
#
#
# Indices 1 2 3 4 5 6 
#
# 1 0.022503 0.004132 -0.001616 0.000000 -0.016302 0.000000
# 2 0.004132 0.012712 -0.000752 0.000000 -0.005442 0.000000
# 3 -0.001616 -0.000752 0.013498 0.000000 -0.009128 0.000000
# 4 0.000000 0.000000 0.000000 0.212771 0.000000 -0.096412
# 5 -0.016302 -0.005442 -0.009128 0.000000 0.069682 0.000000
# 6 0.000000 0.000000 0.000000 -0.096412 0.000000 0.215187
#
#
# Mechanical properties :
#
#
# Convention : Reuss Voigt Hill
#
# Bulk Modulus (GPa) = 19.14289 28.14528 23.64408
# Shear Modulus (GPa) = 8.92477 21.01758 14.97117
#
# Velocity S-wave (km/s) = 2.11746 3.24944 2.74249
# Velocity P-wave (km/s) = 3.94908 5.31208 4.68046
#
# Compressibility (1/GPa) = 0.05223873
#
# Stress axis : x y z
#
# Youngs Moduli (GPa) = 44.43895 78.66810 74.08611
#
# Poissons Ratio (x) = -0.32504 0.11973
# Poissons Ratio (y) = -0.18361 0.05574
# Poissons Ratio (z) = 0.07182 0.05919
#
# Static dielectric constant tensor:
#      x y z
#    x 1.709910 0.000000 0.013400 
#    y 0.000000 1.720250 0.000000 
#    z 0.013400 0.000000 1.751650 
# 
# From -- ./inp_files/269805.got.cif
#   From: 2010.05.17/outbox.cif.g08.bks.cpg/sg12_135_cif.got.tgz:269805.got - 2010.06.03 13:09:07.
