data_PCOD9186097
_publ_section_title
;
Structure prediction by ZEFSAII (Michael W. Deem and Ramdas Pophale) SiO2 
 PCOD9186097
Probable space group: C 2/M
;
_chemical_formula_sum "Si O2"
_cell_formula_units_Z 48
_cell_length_a 7.253440
_cell_length_b 23.979207
_cell_length_c 13.811954
_cell_angle_alpha 90.000000
_cell_angle_beta 94.808705
_cell_angle_gamma 90.000000
_cell_volume 2393.881278
_symmetry_space_group_name_H-M "C 2/M"
_symmetry_group_IT_number 12
_symmetry_cell_setting 'monoclinic'
loop_
_space_group_symop_operation_xyz
x,y,z
-x,y,-z
-x,-y,-z
x,-y,z
1/2+x,1/2+y,z
1/2-x,1/2+y,-z
1/2-x,1/2-y,-z
1/2+x,1/2-y,z
loop_
_atom_site_type_symbol
_atom_site_label
_atom_site_fract_x
_atom_site_fract_y
_atom_site_fract_z
Si Si1 0.941033 0.852191 0.893262
Si Si2 0.179143 0.195472 0.305732
Si Si3 0.099371 0.436023 0.900055
Si Si4 0.092647 0.891079 0.600544
Si Si5 0.712284 0.437372 0.802378
Si Si6 0.070949 0.309386 0.396763
O O1 0.890858 0.808403 0.807408
O O2 0.764326 0.892727 0.897111
O O3 0.105583 0.891463 0.860418
O O4 0.000000 0.828955 0.000000
O O5 0.166270 0.257429 0.347685
O O6 0.389251 0.175465 0.327541
O O7 0.048075 0.155324 0.362989
O O8 0.166780 0.500000 0.893150
O O9 0.931792 0.427067 0.817424
O O10 0.000000 0.430993 0.000000
O O11 0.135948 0.932197 0.690483
O O12 0.282489 0.858698 0.585494
O O13 0.000000 0.915036 0.500000
O O14 0.681520 0.500000 0.839465
O O15 0.000000 0.292167 0.500000
#
# Coordination Sequence:
#
# PCOD9186097 Si02
#       6
#     8   8   8   8   8   8
#     4  11  22  38  58  85 120 154 194 236 287 342
#     4  11  23  36  59  87 114 148 194 243 288 334
#     4  10  19  34  59  86 111 150 196 239 282 331
#     4  11  22  38  60  88 117 152 191 235 292 345
#     4  10  22  38  60  88 119 153 192 236 283 340
#     4  12  21  38  64  86 112 148 195 244 286 338
#
# _framework density 20.051120999999998
#
# number of rings (size 3 to 8) (size 9 to 14) (size 15 to 20)
#    0.000    1.167    5.000    2.500    0.000    1.000 
#    0.000    0.833    0.000    0.500    0.000    0.000 
#    0.000    0.000    0.000    0.000    0.000    0.000 
#
# Total GULP energy -134130.681328 kJ/mol
# GULP energy per Si atom -5588.778389 kJ/mol
# Density = 2.000548 g / cm^3
# Si number density = 20.051121 Si / 1000 Ang^3
#
#
#
# Elastic Constant Matrix: (Units=GPa)
#
#
# Indices 1 2 3 4 5 6 
#
# 1 78.0383 1.6547 3.8383 0.0000 14.2827 0.0000
# 2 1.6547 26.3926 0.7925 0.0000 -3.4445 0.0000
# 3 3.8383 0.7925 120.4945 0.0000 21.6255 0.0000
# 4 0.0000 0.0000 0.0000 14.6679 0.0000 2.6463
# 5 14.2827 -3.4445 21.6255 0.0000 32.8592 0.0000
# 6 0.0000 0.0000 0.0000 2.6463 0.0000 18.9108
#
#
#
# Elastic Compliance Matrix: (Units=1/GPa)
#
#
# Indices 1 2 3 4 5 6 
#
# 1 0.014062 -0.001795 0.000788 0.000000 -0.006819 0.000000
# 2 -0.001795 0.038775 -0.001210 0.000000 0.005641 0.000000
# 3 0.000788 -0.001210 0.009487 0.000000 -0.006713 0.000000
# 4 0.000000 0.000000 0.000000 0.069942 0.000000 -0.009787
# 5 -0.006819 0.005641 -0.006713 0.000000 0.038406 0.000000
# 6 0.000000 0.000000 0.000000 -0.009787 0.000000 0.054249
#
#
# Mechanical properties :
#
#
# Convention : Reuss Voigt Hill
#
# Bulk Modulus (GPa) = 17.27497 26.38847 21.83172
# Shear Modulus (GPa) = 20.10847 27.86357 23.98602
#
# Velocity S-wave (km/s) = 3.17023 3.73181 3.46243
# Velocity P-wave (km/s) = 4.69411 5.63540 5.18615
#
# Compressibility (1/GPa) = 0.05788721
#
# Stress axis : x y z
#
# Youngs Moduli (GPa) = 71.11617 25.79009 105.41014
#
# Poissons Ratio (x) = 0.04630 -0.08302
# Poissons Ratio (y) = 0.12766 0.12758
# Poissons Ratio (z) = -0.05601 0.03121
#
# Static dielectric constant tensor:
#      x y z
#    x 1.706210 0.000000 0.019750 
#    y 0.000000 1.667850 0.000000 
#    z 0.019750 0.000000 1.736640 
# 
# From -- ./inp_files/192066.got.cif
#   From: 2010.05.17/outbox.cif.g08.bks.cpg/sg12_97_cif.got.tgz:192066.got - 2010.06.03 13:09:07.
