data_PCOD9186011
_publ_section_title
;
Structure prediction by ZEFSAII (Michael W. Deem and Ramdas Pophale) SiO2 
 PCOD9186011
Probable space group: C 2/M
;
_chemical_formula_sum "Si O2"
_cell_formula_units_Z 36
_cell_length_a 5.314539
_cell_length_b 34.996041
_cell_length_c 10.048724
_cell_angle_alpha 90.000000
_cell_angle_beta 109.488992
_cell_angle_gamma 90.000000
_cell_volume 1761.860516
_symmetry_space_group_name_H-M "C 2/M"
_symmetry_group_IT_number 12
_symmetry_cell_setting 'monoclinic'
loop_
_space_group_symop_operation_xyz
x,y,z
-x,y,-z
-x,-y,-z
x,-y,z
1/2+x,1/2+y,z
1/2-x,1/2+y,-z
1/2-x,1/2-y,-z
1/2+x,1/2-y,z
loop_
_atom_site_type_symbol
_atom_site_label
_atom_site_fract_x
_atom_site_fract_y
_atom_site_fract_z
Si Si1 0.724474 0.043747 0.656171
Si Si2 0.187340 0.734380 0.340386
Si Si3 0.000000 0.087605 0.500000
Si Si4 0.182454 0.115777 0.160906
Si Si5 0.244025 0.353479 0.293317
O O1 0.500000 0.046459 0.500000
O O2 0.710186 0.074479 0.770354
O O3 0.979895 0.059107 0.620130
O O4 0.739771 0.000000 0.701638
O O5 0.250000 0.750000 0.500000
O O6 0.373184 0.757859 0.272347
O O7 0.260563 0.690191 0.340496
O O8 0.232733 0.117763 0.576092
O O9 0.450513 0.139816 0.181830
O O10 0.990391 0.134784 0.240368
O O11 0.000000 0.111737 0.000000
#
# Coordination Sequence:
#
# PCOD9186011 Si02
#       5
#     8   8   4   8   8
#     4  10  20  36  59  89 125 158 201 261 312 356
#     4  10  20  34  56  92 126 151 189 249 308 357
#     4  10  19  34  58  90 122 160 198 256 312 360
#     4  11  24  42  62  88 124 170 210 245 298 369
#     4  11  22  38  64  90 124 159 205 254 302 359
#
# _framework density 20.432946999999999
#
# number of rings (size 3 to 8) (size 9 to 14) (size 15 to 20)
#    0.000    1.556    2.222    3.667    0.000    5.778 
#    0.000    0.000    0.000   17.333    0.000    0.000 
#    0.000    0.000    0.000    0.000    0.000    0.000 
#
# Total GULP energy -100292.931075 kJ/mol
# GULP energy per Si atom -5571.829504 kJ/mol
# Density = 2.038644 g / cm^3
# Si number density = 20.432947 Si / 1000 Ang^3
#
#
#
# Elastic Constant Matrix: (Units=GPa)
#
#
# Indices 1 2 3 4 5 6 
#
# 1 106.0288 37.2611 7.3654 0.0000 7.2615 0.0000
# 2 37.2611 178.1935 37.0894 0.0000 -0.3997 0.0000
# 3 7.3654 37.0894 70.4647 0.0000 18.1994 0.0000
# 4 0.0000 0.0000 0.0000 12.0144 0.0000 1.6702
# 5 7.2615 -0.3997 18.1994 0.0000 28.7269 0.0000
# 6 0.0000 0.0000 0.0000 1.6702 0.0000 22.2117
#
#
#
# Elastic Compliance Matrix: (Units=1/GPa)
#
#
# Indices 1 2 3 4 5 6 
#
# 1 0.010432 -0.002404 0.001034 0.000000 -0.003325 0.000000
# 2 -0.002404 0.007025 -0.004339 0.000000 0.003454 0.000000
# 3 0.001034 -0.004339 0.019669 0.000000 -0.012782 0.000000
# 4 0.000000 0.000000 0.000000 0.084112 0.000000 -0.006325
# 5 -0.003325 0.003454 -0.012782 0.000000 0.043797 0.000000
# 6 0.000000 0.000000 0.000000 -0.006325 0.000000 0.045497
#
#
# Mechanical properties :
#
#
# Convention : Reuss Voigt Hill
#
# Bulk Modulus (GPa) = 38.89797 57.56875 48.23336
# Shear Modulus (GPa) = 21.69009 30.78867 26.23938
#
# Velocity S-wave (km/s) = 3.26164 3.88598 3.58742
# Velocity P-wave (km/s) = 5.76737 6.95486 6.38877
#
# Compressibility (1/GPa) = 0.02570828
#
# Stress axis : x y z
#
# Youngs Moduli (GPa) = 95.85731 142.34092 50.84262
#
# Poissons Ratio (x) = 0.34220 -0.05256
# Poissons Ratio (y) = 0.23045 0.22059
# Poissons Ratio (z) = -0.09910 0.61757
#
# Static dielectric constant tensor:
#      x y z
#    x 1.861210 0.000000 -0.027950 
#    y 0.000000 1.701070 0.000000 
#    z -0.027950 0.000000 1.669000 
# 
# From -- ./inp_files/115581.got.cif
#   From: 2010.05.17/outbox.cif.g08.bks.cpg/sg12_58_cif.got.tgz:115581.got - 2010.06.03 13:09:07.
