data_PCOD9186605
_publ_section_title
;
Structure prediction by ZEFSAII (Michael W. Deem and Ramdas Pophale) SiO2 
 PCOD9186605
Probable space group: C 2/M
;
_chemical_formula_sum "Si O2"
_cell_formula_units_Z 48
_cell_length_a 27.018008
_cell_length_b 8.966875
_cell_length_c 12.189429
_cell_angle_alpha 90.000000
_cell_angle_beta 107.241825
_cell_angle_gamma 90.000000
_cell_volume 2820.392044
_symmetry_space_group_name_H-M "C 2/M"
_symmetry_group_IT_number 12
_symmetry_cell_setting 'monoclinic'
loop_
_space_group_symop_operation_xyz
x,y,z
-x,y,-z
-x,-y,-z
x,-y,z
1/2+x,1/2+y,z
1/2-x,1/2+y,-z
1/2-x,1/2-y,-z
1/2+x,1/2-y,z
loop_
_atom_site_type_symbol
_atom_site_label
_atom_site_fract_x
_atom_site_fract_y
_atom_site_fract_z
Si Si1 0.880190 0.324006 0.402339
Si Si2 0.557465 0.179888 0.994420
Si Si3 0.806502 0.822374 0.534130
Si Si4 0.072618 0.175459 0.768271
Si Si5 0.471497 0.830963 0.631770
Si Si6 0.380963 0.827199 0.751534
O O1 0.868816 0.500000 0.390704
O O2 0.838453 0.242319 0.451458
O O3 0.886973 0.254194 0.287183
O O4 0.935202 0.308135 0.502668
O O5 0.599527 0.217159 0.115555
O O6 0.556660 0.000000 0.980823
O O7 0.500000 0.223124 0.000000
O O8 0.570903 0.254875 0.888276
O O9 0.750000 0.750000 0.500000
O O10 0.838551 0.772266 0.663188
O O11 0.803544 0.000000 0.525774
O O12 0.016252 0.213354 0.680340
O O13 0.081461 0.000000 0.777908
O O14 0.432065 0.824896 0.708226
O O15 0.493703 0.000000 0.642612
O O16 0.363107 0.000000 0.741559
#
# Coordination Sequence:
#
# PCOD9186605 Si02
#       6
#     8   8   8   8   8   8
#     4  10  21  37  55  75 103 141 184 224 270 325
#     4  10  19  35  55  74 105 153 195 221 256 316
#     4  11  22  38  61  86 111 136 172 223 279 328
#     4  12  23  31  46  76 113 147 181 224 270 316
#     4   9  17  32  51  72 102 144 185 221 262 320
#     4   9  18  34  56  80 107 142 187 227 265 315
#
# _framework density 17.018910999999999
#
# number of rings (size 3 to 8) (size 9 to 14) (size 15 to 20)
#    0.000    1.833    1.667    5.000    0.000    6.333 
#    0.000    0.000    0.000    1.000    0.000    0.000 
#    0.000    0.000    0.000    0.000    0.000    0.000 
#
# Total GULP energy -134011.594759 kJ/mol
# GULP energy per Si atom -5583.816448 kJ/mol
# Density = 1.698018 g / cm^3
# Si number density = 17.018911 Si / 1000 Ang^3
#
#
#
# Elastic Constant Matrix: (Units=GPa)
#
#
# Indices 1 2 3 4 5 6 
#
# 1 80.5590 64.4768 65.6505 0.0000 -0.7933 0.0000
# 2 64.4768 121.6725 79.0288 0.0000 -4.9525 0.0000
# 3 65.6505 79.0288 128.9912 0.0000 -27.3693 0.0000
# 4 0.0000 0.0000 0.0000 25.3809 0.0000 -0.1057
# 5 -0.7933 -4.9525 -27.3693 0.0000 20.1927 0.0000
# 6 0.0000 0.0000 0.0000 -0.1057 0.0000 26.6500
#
#
#
# Elastic Compliance Matrix: (Units=1/GPa)
#
#
# Indices 1 2 3 4 5 6 
#
# 1 0.030963 -0.006560 -0.016595 0.000000 -0.022886 0.000000
# 2 -0.006560 0.017126 -0.008867 0.000000 -0.008076 0.000000
# 3 -0.016595 -0.008867 0.029521 0.000000 0.037187 0.000000
# 4 0.000000 0.000000 0.000000 0.039400 0.000000 0.000156
# 5 -0.022886 -0.008076 0.037187 0.000000 0.097047 0.000000
# 6 0.000000 0.000000 0.000000 0.000156 0.000000 0.037524
#
#
# Mechanical properties :
#
#
# Convention : Reuss Voigt Hill
#
# Bulk Modulus (GPa) = 73.71992 83.28165 78.50078
# Shear Modulus (GPa) = 15.61780 22.58249 19.10014
#
# Velocity S-wave (km/s) = 3.03260 3.64662 3.35369
# Velocity P-wave (km/s) = 7.46141 8.17138 7.82446
#
# Compressibility (1/GPa) = 0.01356486
#
# Stress axis : x y z
#
# Youngs Moduli (GPa) = 32.29711 58.39084 33.87373
#
# Poissons Ratio (x) = 0.38307 0.56213
# Poissons Ratio (y) = 0.21188 0.30036
# Poissons Ratio (z) = 0.53597 0.51776
#
# Static dielectric constant tensor:
#      x y z
#    x 1.564340 0.000000 -0.012900 
#    y 0.000000 1.565250 0.000000 
#    z -0.012900 0.000000 1.590660 
# 
# From -- ./inp_files/185958.got.cif
#   From: 2010.05.17/outbox.cif.g08.bks.cpg/sg12_93_cif.got.tgz:185958.got - 2010.06.03 13:09:07.
