data_PCOD9186993
_publ_section_title
;
Structure prediction by ZEFSAII (Michael W. Deem and Ramdas Pophale) SiO2 
 PCOD9186993
Probable space group: C 2/M
;
_chemical_formula_sum "Si O2"
_cell_formula_units_Z 40
_cell_length_a 20.873369
_cell_length_b 15.406077
_cell_length_c 10.200450
_cell_angle_alpha 90.000000
_cell_angle_beta 32.894095
_cell_angle_gamma 90.000000
_cell_volume 1781.451834
_symmetry_space_group_name_H-M "C 2/M"
_symmetry_group_IT_number 12
_symmetry_cell_setting 'monoclinic'
loop_
_space_group_symop_operation_xyz
x,y,z
-x,y,-z
-x,-y,-z
x,-y,z
1/2+x,1/2+y,z
1/2-x,1/2+y,-z
1/2-x,1/2-y,-z
1/2+x,1/2-y,z
loop_
_atom_site_type_symbol
_atom_site_label
_atom_site_fract_x
_atom_site_fract_y
_atom_site_fract_z
Si Si1 0.127507 0.596744 0.848831
Si Si2 0.278602 0.098088 0.760768
Si Si3 0.299463 0.736958 0.590977
Si Si4 0.873988 0.164118 0.745213
Si Si5 0.481873 0.177935 0.723222
O O1 0.175785 0.500000 0.747628
O O2 0.096606 0.616433 0.053371
O O3 0.220200 0.670545 0.647086
O O4 0.000000 0.600054 0.000000
O O5 0.233494 0.172978 0.739366
O O6 0.418136 0.121860 0.523650
O O7 0.263530 0.000000 0.741458
O O8 0.213324 0.112452 0.010681
O O9 0.322365 0.691890 0.694303
O O10 0.432918 0.764236 0.326597
O O11 0.000000 0.119262 0.500000
O O12 0.910044 0.253109 0.760553
#
# Coordination Sequence:
#
# PCOD9186993 Si02
#       5
#     8   8   8   8   8
#     4  11  23  39  60  84 107 143 195 239 277 322
#     4  10  20  33  55  85 112 146 187 222 268 336
#     4   9  21  36  55  82 118 142 184 228 278 329
#     4  10  19  35  57  81 118 152 176 222 281 338
#     4   9  19  36  60  78 110 151 178 227 277 333
#
# _framework density 22.453595
#
# number of rings (size 3 to 8) (size 9 to 14) (size 15 to 20)
#    1.200    1.000    2.000    1.200    0.000    2.000 
#    0.000    5.000    0.000    0.600    0.000    0.000 
#    0.000    0.000    0.000    0.000    0.000    0.000 
#
# Total GULP energy -111480.299987 kJ/mol
# GULP energy per Si atom -5574.014999 kJ/mol
# Density = 2.240249 g / cm^3
# Si number density = 22.453595 Si / 1000 Ang^3
#
#
#
# Elastic Constant Matrix: (Units=GPa)
#
#
# Indices 1 2 3 4 5 6 
#
# 1 68.9119 23.6226 -4.4153 0.0000 -11.7232 0.0000
# 2 23.6226 140.9151 13.5029 0.0000 -20.5979 0.0000
# 3 -4.4153 13.5029 80.2428 0.0000 1.3961 0.0000
# 4 0.0000 0.0000 0.0000 16.0033 0.0000 -7.7362
# 5 -11.7232 -20.5979 1.3961 0.0000 27.3910 0.0000
# 6 0.0000 0.0000 0.0000 -7.7362 0.0000 8.6773
#
#
#
# Elastic Compliance Matrix: (Units=1/GPa)
#
#
# Indices 1 2 3 4 5 6 
#
# 1 0.016193 -0.002044 0.001142 0.000000 0.005335 0.000000
# 2 -0.002044 0.008402 -0.001623 0.000000 0.005526 0.000000
# 3 0.001142 -0.001623 0.012822 0.000000 -0.001385 0.000000
# 4 0.000000 0.000000 0.000000 0.109815 0.000000 0.097905
# 5 0.005335 0.005526 -0.001385 0.000000 0.043018 0.000000
# 6 0.000000 0.000000 0.000000 0.097905 0.000000 0.202529
#
#
# Mechanical properties :
#
#
# Convention : Reuss Voigt Hill
#
# Bulk Modulus (GPa) = 30.89444 39.49892 35.19668
# Shear Modulus (GPa) = 12.23635 27.57165 19.90400
#
# Velocity S-wave (km/s) = 2.33697 3.50800 2.98056
# Velocity P-wave (km/s) = 4.59032 5.83418 5.24922
#
# Compressibility (1/GPa) = 0.03236828
#
# Stress axis : x y z
#
# Youngs Moduli (GPa) = 61.75602 119.01331 77.99007
#
# Poissons Ratio (x) = 0.24328 -0.08908
# Poissons Ratio (y) = 0.12624 0.12654
# Poissons Ratio (z) = -0.07053 0.19310
#
# Static dielectric constant tensor:
#      x y z
#    x 1.922600 0.000000 -0.003370 
#    y 0.000000 1.845010 0.000000 
#    z -0.003370 0.000000 1.891890 
# 
# From -- ./inp_files/166482.got.cif
#   From: 2010.05.17/outbox.cif.g08.bks.cpg/sg12_84_cif.got.tgz:166482.got - 2010.06.03 13:09:07.
