data_PCOD9186622
_publ_section_title
;
Structure prediction by ZEFSAII (Michael W. Deem and Ramdas Pophale) SiO2 
 PCOD9186622
Probable space group: C 2/M
;
_chemical_formula_sum "Si O2"
_cell_formula_units_Z 56
_cell_length_a 18.344227
_cell_length_b 13.793139
_cell_length_c 15.350961
_cell_angle_alpha 90.000000
_cell_angle_beta 133.985215
_cell_angle_gamma 90.000000
_cell_volume 2794.733381
_symmetry_space_group_name_H-M "C 2/M"
_symmetry_group_IT_number 12
_symmetry_cell_setting 'monoclinic'
loop_
_space_group_symop_operation_xyz
x,y,z
-x,y,-z
-x,-y,-z
x,-y,z
1/2+x,1/2+y,z
1/2-x,1/2+y,-z
1/2-x,1/2-y,-z
1/2+x,1/2-y,z
loop_
_atom_site_type_symbol
_atom_site_label
_atom_site_fract_x
_atom_site_fract_y
_atom_site_fract_z
Si Si1 0.613602 0.741602 0.804719
Si Si2 0.417255 0.887246 0.086131
Si Si3 0.280607 0.883841 0.447038
Si Si4 0.847720 0.617089 0.699316
Si Si5 0.563266 0.385635 0.309890
Si Si6 0.762931 0.385787 0.811024
Si Si7 0.944667 0.755368 0.539965
O O1 0.648254 0.821151 0.902387
O O2 0.543242 0.664518 0.798710
O O3 0.688198 0.681803 0.804715
O O4 0.531948 0.793072 0.672837
O O5 0.534549 0.855792 0.189171
O O6 0.411948 0.000000 0.107873
O O7 0.369941 0.880900 0.950929
O O8 0.311081 0.856198 0.572184
O O9 0.162227 0.859863 0.335894
O O10 0.356459 0.821409 0.452316
O O11 0.293228 0.000000 0.448186
O O12 0.845049 0.500000 0.699719
O O13 0.780143 0.646876 0.725997
O O14 0.553739 0.500000 0.302511
O O15 0.587460 0.345947 0.427161
O O16 0.730648 0.500000 0.786111
O O17 0.000000 0.789763 0.500000
#
# Coordination Sequence:
#
# PCOD9186622 Si02
#       7
#     8   8   8   8   8   8   8
#     4  10  21  34  50  77 109 139 168 206 260 311
#     4  10  19  35  55  77 103 137 175 214 259 303
#     4  10  19  35  57  77 104 141 172 207 255 304
#     4   9  17  31  53  79 104 131 169 214 259 303
#     4   9  20  35  53  76 104 138 172 208 256 311
#     4  10  20  32  53  81 107 132 170 218 261 306
#     4  10  22  34  50  78 108 136 172 213 249 307
#
# _framework density 20.037690000000001
#
# number of rings (size 3 to 8) (size 9 to 14) (size 15 to 20)
#    0.857    1.429    1.429    1.714    2.000    2.286 
#    0.000    0.000    0.000    0.000    0.000    0.000 
#    0.000    9.143    0.000    0.000    0.000    0.000 
#
# Total GULP energy -156065.362735 kJ/mol
# GULP energy per Si atom -5573.762955 kJ/mol
# Density = 1.999208 g / cm^3
# Si number density = 20.037690 Si / 1000 Ang^3
#
#
#
# Elastic Constant Matrix: (Units=GPa)
#
#
# Indices 1 2 3 4 5 6 
#
# 1 84.8022 31.5792 1.4436 0.0000 11.9489 0.0000
# 2 31.5792 71.6023 0.5015 0.0000 5.6171 0.0000
# 3 1.4436 0.5015 30.9535 0.0000 6.3007 0.0000
# 4 0.0000 0.0000 0.0000 21.8137 0.0000 -0.5891
# 5 11.9489 5.6171 6.3007 0.0000 22.0490 0.0000
# 6 0.0000 0.0000 0.0000 -0.5891 0.0000 24.9992
#
#
#
# Elastic Compliance Matrix: (Units=1/GPa)
#
#
# Indices 1 2 3 4 5 6 
#
# 1 0.015005 -0.006090 0.000784 0.000000 -0.006804 0.000000
# 2 -0.006090 0.016731 0.000222 0.000000 -0.001025 0.000000
# 3 0.000784 0.000222 0.034363 0.000000 -0.010301 0.000000
# 4 0.000000 0.000000 0.000000 0.045872 0.000000 0.001081
# 5 -0.006804 -0.001025 -0.010301 0.000000 0.052246 0.000000
# 6 0.000000 0.000000 0.000000 0.001081 0.000000 0.040027
#
#
# Mechanical properties :
#
#
# Convention : Reuss Voigt Hill
#
# Bulk Modulus (GPa) = 17.87910 28.26738 23.07324
# Shear Modulus (GPa) = 21.45415 24.02797 22.74106
#
# Velocity S-wave (km/s) = 3.27569 3.46662 3.37250
# Velocity P-wave (km/s) = 4.82172 5.49190 5.16768
#
# Compressibility (1/GPa) = 0.05593122
#
# Stress axis : x y z
#
# Youngs Moduli (GPa) = 66.64351 59.77057 29.10089
#
# Poissons Ratio (x) = 0.36398 -0.02281
# Poissons Ratio (y) = 0.40583 -0.00645
# Poissons Ratio (z) = -0.05224 -0.01325
#
# Static dielectric constant tensor:
#      x y z
#    x 1.738210 0.000000 0.030350 
#    y 0.000000 1.700820 0.000000 
#    z 0.030350 0.000000 1.757200 
# 
# From -- ./inp_files/225366.got.cif
#   From: 2010.05.17/outbox.cif.g08.bks.cpg/sg12_113_cif.got.tgz:225366.got - 2010.06.03 13:09:07.
