data_PCOD9186101
_publ_section_title
;
Structure prediction by ZEFSAII (Michael W. Deem and Ramdas Pophale) SiO2 
 PCOD9186101
Probable space group: C 2/M
;
_chemical_formula_sum "Si O2"
_cell_formula_units_Z 56
_cell_length_a 29.684903
_cell_length_b 9.119465
_cell_length_c 11.814503
_cell_angle_alpha 90.000000
_cell_angle_beta 68.944787
_cell_angle_gamma 90.000000
_cell_volume 2984.773006
_symmetry_space_group_name_H-M "C 2/M"
_symmetry_group_IT_number 12
_symmetry_cell_setting 'monoclinic'
loop_
_space_group_symop_operation_xyz
x,y,z
-x,y,-z
-x,-y,-z
x,-y,z
1/2+x,1/2+y,z
1/2-x,1/2+y,-z
1/2-x,1/2-y,-z
1/2+x,1/2-y,z
loop_
_atom_site_type_symbol
_atom_site_label
_atom_site_fract_x
_atom_site_fract_y
_atom_site_fract_z
Si Si1 0.234119 0.675172 0.842447
Si Si2 0.599430 0.823986 0.667042
Si Si3 0.442065 0.828464 0.048398
Si Si4 0.919992 0.825065 0.838887
Si Si5 0.323067 0.825405 0.875866
Si Si6 0.292088 0.823328 0.390087
Si Si7 0.484951 0.676062 0.387112
O O1 0.243114 0.500000 0.836413
O O2 0.283396 0.759557 0.826759
O O3 0.213480 0.713824 0.738038
O O4 0.197409 0.706535 0.978830
O O5 0.579608 0.788819 0.810548
O O6 0.655229 0.778997 0.612287
O O7 0.564189 0.749287 0.609665
O O8 0.596722 0.000000 0.657065
O O9 0.430269 0.000000 0.036625
O O10 0.500000 0.814406 0.000000
O O11 0.421757 0.731351 0.965732
O O12 0.874872 0.749638 0.818390
O O13 0.970823 0.783198 0.735446
O O14 0.915077 0.000000 0.838140
O O15 0.326550 0.000000 0.859796
O O16 0.250000 0.750000 0.500000
O O17 0.288815 0.000000 0.401340
O O18 0.500000 0.718186 0.500000
O O19 0.479538 0.500000 0.388212
#
# Coordination Sequence:
#
# PCOD9186101 Si02
#       7
#     8   8   8   8   8   8   8
#     4   9  19  38  59  81 113 149 185 232 287 338
#     4  10  21  39  61  86 114 146 186 235 285 334
#     4  10  19  34  59  86 114 146 183 230 285 339
#     4  11  22  35  55  84 117 150 188 230 278 337
#     4  10  20  35  59  86 114 146 185 232 285 341
#     4  10  22  39  59  83 114 150 191 235 280 333
#     4  10  23  41  57  77 111 153 192 229 273 331
#
# _framework density 18.761896
#
# number of rings (size 3 to 8) (size 9 to 14) (size 15 to 20)
#    0.000    2.000    1.429    1.714    0.000    6.857 
#    0.000    5.714    0.000    0.000    0.000    0.000 
#    0.000    0.000    0.000    0.000    0.000    0.000 
#
# Total GULP energy -156418.944853 kJ/mol
# GULP energy per Si atom -5586.390888 kJ/mol
# Density = 1.871919 g / cm^3
# Si number density = 18.761896 Si / 1000 Ang^3
#
#
#
# Elastic Constant Matrix: (Units=GPa)
#
#
# Indices 1 2 3 4 5 6 
#
# 1 177.6028 56.0603 65.6400 0.0000 1.2643 0.0000
# 2 56.0603 28.6296 25.1278 0.0000 2.7107 0.0000
# 3 65.6400 25.1278 68.1164 0.0000 4.7307 0.0000
# 4 0.0000 0.0000 0.0000 26.5368 0.0000 2.6675
# 5 1.2643 2.7107 4.7307 0.0000 28.4956 0.0000
# 6 0.0000 0.0000 0.0000 2.6675 0.0000 38.6377
#
#
#
# Elastic Compliance Matrix: (Units=1/GPa)
#
#
# Indices 1 2 3 4 5 6 
#
# 1 0.016362 -0.027056 -0.005984 0.000000 0.002841 0.000000
# 2 -0.027056 0.096481 -0.009069 0.000000 -0.006472 0.000000
# 3 -0.005984 -0.009069 0.023991 0.000000 -0.002855 0.000000
# 4 0.000000 0.000000 0.000000 0.037947 0.000000 -0.002620
# 5 0.002841 -0.006472 -0.002855 0.000000 0.036057 0.000000
# 6 0.000000 0.000000 0.000000 -0.002620 0.000000 0.026062
#
#
# Mechanical properties :
#
#
# Convention : Reuss Voigt Hill
#
# Bulk Modulus (GPa) = 19.00578 63.11167 41.05872
# Shear Modulus (GPa) = 14.76420 27.23541 20.99980
#
# Velocity S-wave (km/s) = 2.80826 3.81417 3.34919
# Velocity P-wave (km/s) = 4.54611 7.28755 6.07353
#
# Compressibility (1/GPa) = 0.05261558
#
# Stress axis : x y z
#
# Youngs Moduli (GPa) = 61.11678 10.36471 41.68269
#
# Poissons Ratio (x) = 0.28043 0.24942
# Poissons Ratio (y) = 1.65359 0.37803
# Poissons Ratio (z) = 0.36570 0.09400
#
# Static dielectric constant tensor:
#      x y z
#    x 1.633080 0.000000 -0.004400 
#    y 0.000000 1.625720 0.000000 
#    z -0.004400 0.000000 1.640580 
# 
# From -- ./inp_files/180759.got.cif
#   From: 2010.05.17/outbox.cif.g08.bks.cpg/sg12_91_cif.got.tgz:180759.got - 2010.06.03 13:09:07.
