data_PCOD9186402
_publ_section_title
;
Structure prediction by ZEFSAII (Michael W. Deem and Ramdas Pophale) SiO2 
 PCOD9186402
Probable space group: C 2/M
;
_chemical_formula_sum "Si O2"
_cell_formula_units_Z 48
_cell_length_a 30.778658
_cell_length_b 13.612031
_cell_length_c 8.972622
_cell_angle_alpha 90.000000
_cell_angle_beta 39.929291
_cell_angle_gamma 90.000000
_cell_volume 2412.792304
_symmetry_space_group_name_H-M "C 2/M"
_symmetry_group_IT_number 12
_symmetry_cell_setting 'monoclinic'
loop_
_space_group_symop_operation_xyz
x,y,z
-x,y,-z
-x,-y,-z
x,-y,z
1/2+x,1/2+y,z
1/2-x,1/2+y,-z
1/2-x,1/2-y,-z
1/2+x,1/2-y,z
loop_
_atom_site_type_symbol
_atom_site_label
_atom_site_fract_x
_atom_site_fract_y
_atom_site_fract_z
Si Si1 0.666844 0.305523 0.990142
Si Si2 0.756456 0.384453 0.250324
Si Si3 0.547425 0.306737 0.508360
Si Si4 0.383529 0.276824 0.389123
Si Si5 0.929081 0.888217 0.996990
Si Si6 0.206551 0.612331 0.499758
O O1 0.688865 0.192580 0.959569
O O2 0.735304 0.363682 0.774533
O O3 0.615576 0.344588 0.249893
O O4 0.622936 0.320174 0.956899
O O5 0.764903 0.500000 0.193878
O O6 0.682622 0.343679 0.400129
O O7 0.764174 0.371616 0.410158
O O8 0.500000 0.263846 0.500000
O O9 0.575725 0.243947 0.571740
O O10 0.498578 0.383063 0.721123
O O11 0.354353 0.184594 0.376894
O O12 0.428441 0.343867 0.162737
O O13 0.904155 0.000000 0.066033
O O14 0.186126 0.500000 0.544034
#
# Coordination Sequence:
#
# PCOD9186402 Si02
#       6
#     8   8   8   8   8   8
#     4  10  19  38  57  86 122 153 178 235 291 335
#     4  10  19  34  62  92 115 146 188 236 287 340
#     4  10  25  39  55  80 120 157 188 230 285 334
#     4  11  20  38  60  87 116 149 192 236 281 338
#     4  11  21  37  61  85 113 153 194 231 280 343
#     4  10  19  34  62  91 114 145 187 239 290 338
#
# _framework density 19.893962999999999
#
# number of rings (size 3 to 8) (size 9 to 14) (size 15 to 20)
#    0.000    1.667    3.333    2.500    0.000    8.333 
#    0.000    2.500    0.000   12.000    0.000    0.000 
#    0.000    0.000    0.000    0.000    0.000    0.000 
#
# Total GULP energy -133729.089183 kJ/mol
# GULP energy per Si atom -5572.045383 kJ/mol
# Density = 1.984868 g / cm^3
# Si number density = 19.893963 Si / 1000 Ang^3
#
#
#
# Elastic Constant Matrix: (Units=GPa)
#
#
# Indices 1 2 3 4 5 6 
#
# 1 116.4788 34.9871 20.1190 0.0000 3.1179 0.0000
# 2 34.9871 81.3260 17.0854 0.0000 -13.3072 0.0000
# 3 20.1190 17.0854 88.9075 0.0000 -5.7275 0.0000
# 4 0.0000 0.0000 0.0000 11.5960 0.0000 -3.0105
# 5 3.1179 -13.3072 -5.7275 0.0000 23.0925 0.0000
# 6 0.0000 0.0000 0.0000 -3.0105 0.0000 1.2614
#
#
#
# Elastic Compliance Matrix: (Units=1/GPa)
#
#
# Indices 1 2 3 4 5 6 
#
# 1 0.010485 -0.004912 -0.001730 0.000000 -0.004675 0.000000
# 2 -0.004912 0.016290 -0.001394 0.000000 0.009705 0.000000
# 3 -0.001730 -0.001394 0.012063 0.000000 0.002422 0.000000
# 4 0.000000 0.000000 0.000000 0.226685 0.000000 0.540994
# 5 -0.004675 0.009705 0.002422 0.000000 0.050129 0.000000
# 6 0.000000 0.000000 0.000000 0.540994 0.000000 2.083853
#
#
# Mechanical properties :
#
#
# Convention : Reuss Voigt Hill
#
# Bulk Modulus (GPa) = 43.92429 47.89947 45.91188
# Shear Modulus (GPa) = 2.06342 21.49139 11.77740
#
# Velocity S-wave (km/s) = 1.01954 3.29035 2.43576
# Velocity P-wave (km/s) = 4.84903 6.21006 5.57126
#
# Compressibility (1/GPa) = 0.02276645
#
# Stress axis : x y z
#
# Youngs Moduli (GPa) = 95.37730 61.38648 82.89839
#
# Poissons Ratio (x) = 0.30154 0.14340
# Poissons Ratio (y) = 0.46851 0.11554
# Poissons Ratio (z) = 0.16498 0.08556
#
# Static dielectric constant tensor:
#      x y z
#    x 1.747510 0.000000 0.014630 
#    y 0.000000 1.660340 0.000000 
#    z 0.014630 0.000000 1.743720 
# 
# From -- ./inp_files/111477.got.cif
#   From: 2010.05.17/outbox.cif.g08.bks.cpg/sg12_56_cif.got.tgz:111477.got - 2010.06.03 13:09:07.
