data_PCOD9186890
_publ_section_title
;
Structure prediction by ZEFSAII (Michael W. Deem and Ramdas Pophale) SiO2 
 PCOD9186890
Probable space group: C 2/M
;
_chemical_formula_sum "Si O2"
_cell_formula_units_Z 40
_cell_length_a 27.895212
_cell_length_b 8.444596
_cell_length_c 11.719282
_cell_angle_alpha 90.000000
_cell_angle_beta 125.922758
_cell_angle_gamma 90.000000
_cell_volume 2235.589028
_symmetry_space_group_name_H-M "C 2/M"
_symmetry_group_IT_number 12
_symmetry_cell_setting 'monoclinic'
loop_
_space_group_symop_operation_xyz
x,y,z
-x,y,-z
-x,-y,-z
x,-y,z
1/2+x,1/2+y,z
1/2-x,1/2+y,-z
1/2-x,1/2-y,-z
1/2+x,1/2-y,z
loop_
_atom_site_type_symbol
_atom_site_label
_atom_site_fract_x
_atom_site_fract_y
_atom_site_fract_z
Si Si1 0.089696 0.688373 0.580004
Si Si2 0.554735 0.191704 0.994873
Si Si3 0.197334 0.308756 0.576465
Si Si4 0.475892 0.313813 0.296922
Si Si5 0.325062 0.190988 0.714077
O O1 0.092529 0.500000 0.603440
O O2 0.150353 0.743070 0.605775
O O3 0.072229 0.771619 0.673420
O O4 0.035634 0.723284 0.417878
O O5 0.545123 0.261524 0.856512
O O6 0.555420 0.000000 0.987113
O O7 0.500000 0.235462 0.000000
O O8 0.616241 0.243938 0.138438
O O9 0.197639 0.500000 0.576883
O O10 0.264010 0.248936 0.684435
O O11 0.176370 0.256346 0.420539
O O12 0.488054 0.500000 0.317193
O O13 0.325178 0.000000 0.713736
#
# Coordination Sequence:
#
# PCOD9186890 Si02
#       5
#     8   8   8   8   8
#     4  10  19  35  57  76 100 138 178 210 250 307
#     4  10  20  36  56  76 103 139 175 208 250 309
#     4   9  18  33  54  78 102 132 170 211 253 300
#     4  11  22  34  51  79 109 133 167 216 264 303
#     4   9  18  32  52  78 105 133 167 209 255 302
#
# _framework density 17.892375999999999
#
# number of rings (size 3 to 8) (size 9 to 14) (size 15 to 20)
#    0.000    2.200    0.000    4.800    0.000    6.000 
#    0.000    5.000    0.000    0.000    0.000    0.000 
#    0.000    0.000    0.000    0.000    0.000    0.000 
#
# Total GULP energy -111643.328864 kJ/mol
# GULP energy per Si atom -5582.166443 kJ/mol
# Density = 1.785165 g / cm^3
# Si number density = 17.892376 Si / 1000 Ang^3
#
#
#
# Elastic Constant Matrix: (Units=GPa)
#
#
# Indices 1 2 3 4 5 6 
#
# 1 134.7949 1.0408 61.2610 0.0000 10.2555 0.0000
# 2 1.0408 9.3766 2.7824 0.0000 -1.6318 0.0000
# 3 61.2610 2.7824 112.4663 0.0000 0.2298 0.0000
# 4 0.0000 0.0000 0.0000 0.3314 0.0000 15.9579
# 5 10.2555 -1.6318 0.2298 0.0000 15.8932 0.0000
# 6 0.0000 0.0000 0.0000 15.9579 0.0000 17.1219
#
#
#
# Elastic Compliance Matrix: (Units=1/GPa)
#
#
# Indices 1 2 3 4 5 6 
#
# 1 0.010534 -0.000656 -0.005708 0.000000 -0.006782 0.000000
# 2 -0.000656 0.109461 -0.002375 0.000000 0.011696 0.000000
# 3 -0.005708 -0.002375 0.012053 0.000000 0.003265 0.000000
# 4 0.000000 0.000000 0.000000 -0.068768 0.000000 0.064093
# 5 -0.006782 0.011696 0.003265 0.000000 0.068450 0.000000
# 6 0.000000 0.000000 0.000000 0.064093 0.000000 -0.001331
#
#
# Mechanical properties :
#
#
# Convention : Reuss Voigt Hill
#
# Bulk Modulus (GPa) = 8.72820 42.97849 25.85334
# Shear Modulus (GPa) = 26.87227 19.43952 23.15590
#
# Velocity S-wave (km/s) = 3.87962 3.29974 3.60137
# Velocity P-wave (km/s) = 4.99573 6.21212 5.63683
#
# Compressibility (1/GPa) = 0.11457113
#
# Stress axis : x y z
#
# Youngs Moduli (GPa) = 94.93299 9.13565 82.96929
#
# Poissons Ratio (x) = 0.00599 0.47356
# Poissons Ratio (y) = 0.06226 0.19703
# Poissons Ratio (z) = 0.54185 0.02170
#
# Static dielectric constant tensor:
#      x y z
#    x 1.605120 0.000000 0.001660 
#    y 0.000000 1.610690 0.000000 
#    z 0.001660 0.000000 1.584770 
# 
# From -- ./inp_files/162639.got.cif
#   From: 2010.05.17/outbox.cif.g08.bks.cpg/sg12_82_cif.got.tgz:162639.got - 2010.06.03 13:09:07.
