data_PCOD9186150
_publ_section_title
;
Structure prediction by ZEFSAII (Michael W. Deem and Ramdas Pophale) SiO2 
 PCOD9186150
Probable space group: C 2/M
;
_chemical_formula_sum "Si O2"
_cell_formula_units_Z 64
_cell_length_a 27.470365
_cell_length_b 13.320480
_cell_length_c 15.115716
_cell_angle_alpha 90.000000
_cell_angle_beta 142.871710
_cell_angle_gamma 90.000000
_cell_volume 3338.593166
_symmetry_space_group_name_H-M "C 2/M"
_symmetry_group_IT_number 12
_symmetry_cell_setting 'monoclinic'
loop_
_space_group_symop_operation_xyz
x,y,z
-x,y,-z
-x,-y,-z
x,-y,z
1/2+x,1/2+y,z
1/2-x,1/2+y,-z
1/2-x,1/2-y,-z
1/2+x,1/2-y,z
loop_
_atom_site_type_symbol
_atom_site_label
_atom_site_fract_x
_atom_site_fract_y
_atom_site_fract_z
Si Si1 0.768577 0.733054 0.399684
Si Si2 0.010086 0.385032 0.911408
Si Si3 0.832500 0.284438 0.164582
Si Si4 0.594418 0.391838 0.616699
Si Si5 0.324924 0.113148 0.638555
Si Si6 0.413124 0.384650 0.604424
Si Si7 0.081266 0.771722 0.881749
Si Si8 0.757551 0.116346 0.819651
O O1 0.693682 0.806465 0.311752
O O2 0.772072 0.645525 0.477772
O O3 0.844927 0.805035 0.533354
O O4 0.767309 0.684321 0.301011
O O5 0.040785 0.500000 0.950958
O O6 0.061932 0.308190 0.930158
O O7 0.917910 0.383748 0.743860
O O8 0.000000 0.359054 0.000000
O O9 0.861055 0.196096 0.270039
O O10 0.896188 0.287880 0.176358
O O11 0.808073 0.372954 0.196147
O O12 0.750000 0.250000 0.000000
O O13 0.500000 0.384892 0.500000
O O14 0.624346 0.500000 0.693225
O O15 0.600965 0.388788 0.521303
O O16 0.307216 0.000000 0.643018
O O17 0.405565 0.500000 0.626965
O O18 0.501892 0.340150 0.751961
O O19 0.157677 0.839654 0.020606
O O20 0.765784 0.000000 0.806430
#
# Coordination Sequence:
#
# PCOD9186150 Si02
#       8
#     8   8   8   8   8   8   8   8
#     4  11  21  38  62  87 121 160 199 250 295 364
#     4  10  21  39  62  87 118 158 199 245 304 360
#     4  10  22  37  57  86 121 158 196 241 295 361
#     4  10  19  34  59  88 118 153 196 245 298 347
#     4  10  21  37  60  88 118 157 201 248 298 351
#     4  11  21  35  61  92 121 158 202 251 300 350
#     4  11  22  40  63  90 122 157 202 251 300 358
#     4  11  24  41  60  85 123 164 197 244 309 366
#
# _framework density 19.169750000000001
#
# number of rings (size 3 to 8) (size 9 to 14) (size 15 to 20)
#    0.000    1.500    3.750    1.875    0.000    2.500 
#    0.000    2.500    0.000    2.625    0.000    0.000 
#    0.000    0.000    0.000    0.000    0.000    0.000 
#
# Total GULP energy -178454.351043 kJ/mol
# GULP energy per Si atom -5576.698470 kJ/mol
# Density = 1.912612 g / cm^3
# Si number density = 19.169750 Si / 1000 Ang^3
#
#
#
# Elastic Constant Matrix: (Units=GPa)
#
#
# Indices 1 2 3 4 5 6 
#
# 1 71.0704 50.5871 19.0401 0.0000 -6.7735 0.0000
# 2 50.5871 115.6579 35.4944 0.0000 -3.0672 0.0000
# 3 19.0401 35.4944 64.2738 0.0000 -2.9097 0.0000
# 4 0.0000 0.0000 0.0000 17.6617 0.0000 5.9924
# 5 -6.7735 -3.0672 -2.9097 0.0000 30.5729 0.0000
# 6 0.0000 0.0000 0.0000 5.9924 0.0000 26.9326
#
#
#
# Elastic Compliance Matrix: (Units=1/GPa)
#
#
# Indices 1 2 3 4 5 6 
#
# 1 0.020926 -0.008674 -0.001244 0.000000 0.003648 0.000000
# 2 -0.008674 0.014014 -0.005215 0.000000 -0.001012 0.000000
# 3 -0.001244 -0.005215 0.018852 0.000000 0.000995 0.000000
# 4 0.000000 0.000000 0.000000 0.061243 0.000000 -0.013626
# 5 0.003648 -0.001012 0.000995 0.000000 0.033510 0.000000
# 6 0.000000 0.000000 0.000000 -0.013626 0.000000 0.040162
#
#
# Mechanical properties :
#
#
# Convention : Reuss Voigt Hill
#
# Bulk Modulus (GPa) = 42.50713 51.24946 46.87830
# Shear Modulus (GPa) = 22.04459 24.75881 23.40170
#
# Velocity S-wave (km/s) = 3.39480 3.59772 3.49773
# Velocity P-wave (km/s) = 6.13094 6.63707 6.38902
#
# Compressibility (1/GPa) = 0.02352546
#
# Stress axis : x y z
#
# Youngs Moduli (GPa) = 47.78856 71.35835 53.04511
#
# Poissons Ratio (x) = 0.61897 0.06596
# Poissons Ratio (y) = 0.41453 0.27664
# Poissons Ratio (z) = 0.05943 0.37215
#
# Static dielectric constant tensor:
#      x y z
#    x 1.703170 0.000000 0.014500 
#    y 0.000000 1.675800 0.000000 
#    z 0.014500 0.000000 1.659690 
# 
# From -- ./inp_files/245998.got.cif
#   From: 2010.05.17/outbox.cif.g08.bks.cpg/sg12_123_cif.got.tgz:245998.got - 2010.06.03 13:09:07.
