data_PCOD9186329
_publ_section_title
;
Structure prediction by ZEFSAII (Michael W. Deem and Ramdas Pophale) SiO2 
 PCOD9186329
Probable space group: C 2/M
;
_chemical_formula_sum "Si O2"
_cell_formula_units_Z 58
_cell_length_a 21.127238
_cell_length_b 18.451571
_cell_length_c 11.891375
_cell_angle_alpha 90.000000
_cell_angle_beta 140.407858
_cell_angle_gamma 90.000000
_cell_volume 2954.367682
_symmetry_space_group_name_H-M "C 2/M"
_symmetry_group_IT_number 12
_symmetry_cell_setting 'monoclinic'
loop_
_space_group_symop_operation_xyz
x,y,z
-x,y,-z
-x,-y,-z
x,-y,z
1/2+x,1/2+y,z
1/2-x,1/2+y,-z
1/2-x,1/2-y,-z
1/2+x,1/2-y,z
loop_
_atom_site_type_symbol
_atom_site_label
_atom_site_fract_x
_atom_site_fract_y
_atom_site_fract_z
Si Si1 0.500000 0.500000 0.500000
Si Si2 0.597287 0.640419 0.519355
Si Si3 0.086385 0.416903 0.036053
Si Si4 0.354461 0.913061 0.475654
Si Si5 0.750185 0.581739 0.103151
Si Si6 0.624293 0.303502 0.787695
Si Si7 0.425413 0.142718 0.221091
Si Si8 0.240677 0.916981 0.548100
O O1 0.569383 0.563013 0.535342
O O2 0.491975 0.678292 0.359063
O O3 0.653672 0.681851 0.697811
O O4 0.652366 0.631300 0.476429
O O5 0.061735 0.500000 0.968156
O O6 0.185022 0.418673 0.244233
O O7 0.090212 0.369343 0.931780
O O8 0.000000 0.391482 0.000000
O O9 0.275367 0.902111 0.267343
O O10 0.457346 0.869862 0.595534
O O11 0.302574 0.893386 0.523182
O O12 0.377286 0.000000 0.510746
O O13 0.707823 0.500000 0.032967
O O14 0.858343 0.584249 0.193330
O O15 0.682282 0.640797 0.947738
O O16 0.624373 0.218862 0.813996
O O17 0.207285 0.000000 0.480129
#
# Coordination Sequence:
#
# PCOD9186329 Si02
#       8
#     2   8   8   8   8   8   8   8
#     4   8  16  32  60  92 108 140 210 256 308 356
#     4  10  21  38  64  93 114 163 204 269 314 357
#     4  10  19  34  60  94 124 153 201 263 307 361
#     4  10  22  39  63  94 126 162 206 252 307 389
#     4  11  24  39  63  92 123 166 212 259 308 370
#     4  10  25  40  61  89 129 155 213 261 306 369
#     4  12  22  40  62  89 127 172 197 256 320 378
#     4  10  19  36  64  93 122 152 201 261 320 361
#
# _framework density 19.63195
#
# number of rings (size 3 to 8) (size 9 to 14) (size 15 to 20)
#    0.000    1.793    2.069    2.897    7.724    2.207 
#    0.000    2.759    0.000    2.483    0.000    0.000 
#    0.000    0.000    0.000    0.000    0.000    0.000 
#
# Total GULP energy -161557.253683 kJ/mol
# GULP energy per Si atom -5570.939782 kJ/mol
# Density = 1.958727 g / cm^3
# Si number density = 19.631950 Si / 1000 Ang^3
#
#
#
# Elastic Constant Matrix: (Units=GPa)
#
#
# Indices 1 2 3 4 5 6 
#
# 1 71.9919 24.9317 14.4046 0.0000 -4.5062 0.0000
# 2 24.9317 90.5408 29.6819 0.0000 -13.3102 0.0000
# 3 14.4046 29.6819 81.8378 0.0000 -10.9136 0.0000
# 4 0.0000 0.0000 0.0000 -35.1218 0.0000 -0.3579
# 5 -4.5062 -13.3102 -10.9136 0.0000 19.0811 0.0000
# 6 0.0000 0.0000 0.0000 -0.3579 0.0000 23.1371
#
#
#
# Elastic Compliance Matrix: (Units=1/GPa)
#
#
# Indices 1 2 3 4 5 6 
#
# 1 0.015484 -0.003795 -0.001315 0.000000 0.000258 0.000000
# 2 -0.003795 0.014297 -0.003580 0.000000 0.007029 0.000000
# 3 -0.001315 -0.003580 0.014479 0.000000 0.005474 0.000000
# 4 0.000000 0.000000 0.000000 -0.028468 0.000000 -0.000440
# 5 0.000258 0.007029 0.005474 0.000000 0.060502 0.000000
# 6 0.000000 0.000000 0.000000 -0.000440 0.000000 0.043214
#
#
# Mechanical properties :
#
#
# Convention : Reuss Voigt Hill
#
# Bulk Modulus (GPa) = 37.20154 42.48962 39.84558
# Shear Modulus (GPa) = 34.28250 13.10945 23.69598
#
# Velocity S-wave (km/s) = 4.18336 2.58691 3.47798
# Velocity P-wave (km/s) = 6.50574 5.53289 6.03894
#
# Compressibility (1/GPa) = 0.02688061
#
# Stress axis : x y z
#
# Youngs Moduli (GPa) = 64.58354 69.94656 69.06517
#
# Poissons Ratio (x) = 0.26544 0.09080
# Poissons Ratio (y) = 0.24508 0.24725
# Poissons Ratio (z) = 0.08491 0.25041
#
# Static dielectric constant tensor:
#      x y z
#    x 1.714360 0.000000 0.005180 
#    y 0.000000 1.721040 0.000000 
#    z 0.005180 0.000000 1.762310 
# 
# From -- ./inp_files/168988.got.cif
#   From: 2010.05.17/outbox.cif.g08.bks.cpg/sg12_85_cif.got.tgz:168988.got - 2010.06.03 13:09:07.
