data_PCOD9186691
_publ_section_title
;
Structure prediction by ZEFSAII (Michael W. Deem and Ramdas Pophale) SiO2 
 PCOD9186691
Probable space group: C 2/M
;
_chemical_formula_sum "Si O2"
_cell_formula_units_Z 64
_cell_length_a 10.632730
_cell_length_b 31.319494
_cell_length_c 17.062081
_cell_angle_alpha 90.000000
_cell_angle_beta 148.098831
_cell_angle_gamma 90.000000
_cell_volume 3002.617924
_symmetry_space_group_name_H-M "C 2/M"
_symmetry_group_IT_number 12
_symmetry_cell_setting 'monoclinic'
loop_
_space_group_symop_operation_xyz
x,y,z
-x,y,-z
-x,-y,-z
x,-y,z
1/2+x,1/2+y,z
1/2-x,1/2+y,-z
1/2-x,1/2-y,-z
1/2+x,1/2-y,z
loop_
_atom_site_type_symbol
_atom_site_label
_atom_site_fract_x
_atom_site_fract_y
_atom_site_fract_z
Si Si1 0.564800 0.547632 0.840347
Si Si2 0.625088 0.954513 0.719057
Si Si3 0.726761 0.861566 0.328687
Si Si4 0.972503 0.547973 0.815447
Si Si5 0.621360 0.224426 0.187195
Si Si6 0.105108 0.861030 0.287382
Si Si7 0.988029 0.364106 0.617246
Si Si8 0.861331 0.776983 0.165941
O O1 0.538737 0.500000 0.790271
O O2 0.484136 0.590255 0.752943
O O3 0.388771 0.547670 0.822984
O O4 0.833368 0.551990 0.013363
O O5 0.612689 0.951762 0.806170
O O6 0.478515 0.915647 0.607164
O O7 0.521379 0.000000 0.640101
O O8 0.686844 0.909497 0.274083
O O9 0.659010 0.824367 0.232701
O O10 0.561194 0.854360 0.318350
O O11 0.000000 0.857370 0.500000
O O12 0.861678 0.500000 0.762536
O O13 0.829916 0.237291 0.238660
O O14 0.580698 0.253373 0.241307
O O15 0.381196 0.231139 0.009820
O O16 0.281136 0.848471 0.451037
O O17 0.257208 0.854497 0.287468
O O18 0.894862 0.827577 0.178307
#
# Coordination Sequence:
#
# PCOD9186691 Si02
#       8
#     8   8   8   8   8   8   8   8
#     4   9  16  27  49  81 113 149 193 241 294 346
#     4   8  14  26  45  72 110 150 190 240 291 339
#     4  11  22  38  57  82 115 154 199 242 290 350
#     4   9  17  30  50  78 111 149 196 244 290 346
#     4  10  23  42  65  92 118 150 196 235 292 352
#     4  10  19  35  55  81 118 156 191 243 295 346
#     4   9  20  33  51  80 114 152 199 236 286 351
#     4  10  22  42  66  90 119 153 187 241 293 349
#
# _framework density 21.314733
#
# number of rings (size 3 to 8) (size 9 to 14) (size 15 to 20)
#    0.000    2.500    0.000    1.875    1.750    2.250 
#    2.250    5.000    0.000    2.250    0.000    8.750 
#    0.000    0.000    0.000    0.000    0.000    0.000 
#
# Total GULP energy -178362.906439 kJ/mol
# GULP energy per Si atom -5573.840826 kJ/mol
# Density = 2.126622 g / cm^3
# Si number density = 21.314733 Si / 1000 Ang^3
#
#
#
# Elastic Constant Matrix: (Units=GPa)
#
#
# Indices 1 2 3 4 5 6 
#
# 1 95.0536 40.8355 13.7844 0.0000 -9.6769 0.0000
# 2 40.8355 78.8172 -4.0345 0.0000 -2.5676 0.0000
# 3 13.7844 -4.0345 14.6455 0.0000 -0.6525 0.0000
# 4 0.0000 0.0000 0.0000 0.1804 0.0000 -2.8333
# 5 -9.6769 -2.5676 -0.6525 0.0000 8.0339 0.0000
# 6 0.0000 0.0000 0.0000 -2.8333 0.0000 22.9844
#
#
#
# Elastic Compliance Matrix: (Units=1/GPa)
#
#
# Indices 1 2 3 4 5 6 
#
# 1 0.020260 -0.010959 -0.021233 0.000000 0.019176 0.000000
# 2 -0.010959 0.018955 0.015273 0.000000 -0.005901 0.000000
# 3 -0.021233 0.015273 0.091883 0.000002 -0.013231 0.000000
# 4 0.000000 0.000000 0.000002 -5.922981 0.000002 -0.730135
# 5 0.019176 -0.005901 -0.013231 0.000002 0.144609 0.000000
# 6 0.000000 0.000000 0.000000 -0.730135 0.000000 -0.046497
#
#
# Mechanical properties :
#
#
# Convention : Reuss Voigt Hill
#
# Bulk Modulus (GPa) = 10.28172 32.18746 21.23459
# Shear Modulus (GPa) = -0.88849 15.43513 7.27332
#
# Velocity S-wave (km/s) = -0.64633 2.69393 1.84926
# Velocity P-wave (km/s) = 2.06815 4.98098 3.81362
#
# Compressibility (1/GPa) = 0.09725995
#
# Stress axis : x y z
#
# Youngs Moduli (GPa) = 49.35917 52.75670 10.88346
#
# Poissons Ratio (x) = 0.57815 0.23109
# Poissons Ratio (y) = 0.54092 -0.16622
# Poissons Ratio (z) = 1.04804 -0.80576
#
# Static dielectric constant tensor:
#      x y z
#    x 1.836750 0.000000 -0.007150 
#    y 0.000000 1.780420 0.000000 
#    z -0.007150 0.000000 1.730140 
# 
# From -- ./inp_files/266312.got.cif
#   From: 2010.05.17/outbox.cif.g08.bks.cpg/sg12_134_cif.got.tgz:266312.got - 2010.06.03 13:09:07.
