data_PCOD9186989
_publ_section_title
;
Structure prediction by ZEFSAII (Michael W. Deem and Ramdas Pophale) SiO2 
 PCOD9186989
Probable space group: C 2/M
;
_chemical_formula_sum "Si O2"
_cell_formula_units_Z 58
_cell_length_a 26.949450
_cell_length_b 12.474352
_cell_length_c 9.791901
_cell_angle_alpha 90.000000
_cell_angle_beta 76.267478
_cell_angle_gamma 90.000000
_cell_volume 3197.713205
_symmetry_space_group_name_H-M "C 2/M"
_symmetry_group_IT_number 12
_symmetry_cell_setting 'monoclinic'
loop_
_space_group_symop_operation_xyz
x,y,z
-x,y,-z
-x,-y,-z
x,-y,z
1/2+x,1/2+y,z
1/2-x,1/2+y,-z
1/2-x,1/2-y,-z
1/2+x,1/2-y,z
loop_
_atom_site_type_symbol
_atom_site_label
_atom_site_fract_x
_atom_site_fract_y
_atom_site_fract_z
Si Si1 0.357551 0.878127 0.817923
Si Si2 0.298795 0.124734 0.368446
Si Si3 0.393229 0.875663 0.100161
Si Si4 0.696268 0.738527 0.362124
Si Si5 0.960912 0.205043 0.198037
Si Si6 0.462090 0.201551 0.638253
Si Si7 0.000000 0.000000 0.000000
Si Si8 0.405374 0.374630 0.498490
O O1 0.319735 0.797215 0.766564
O O2 0.412583 0.867065 0.707636
O O3 0.338966 0.000000 0.818828
O O4 0.368185 0.853500 0.969251
O O5 0.349464 0.132394 0.244003
O O6 0.306703 0.176086 0.512126
O O7 0.252057 0.187193 0.328391
O O8 0.285524 0.000000 0.390820
O O9 0.435765 0.788491 0.109311
O O10 0.411776 0.000000 0.086319
O O11 0.652981 0.651024 0.425216
O O12 0.919774 0.173255 0.341631
O O13 0.006047 0.265439 0.249879
O O14 0.979309 0.095852 0.116829
O O15 0.500000 0.152156 0.500000
O O16 0.440180 0.309794 0.583022
O O17 0.415867 0.500000 0.495547
#
# Coordination Sequence:
#
# PCOD9186989 Si02
#       8
#     8   8   8   8   8   8   2   8
#     4  10  21  38  57  82 115 152 189 236 293 340
#     4  10  20  36  61  87 113 149 190 235 296 348
#     4  10  22  40  61  84 119 158 193 242 293 349
#     4  10  20  36  59  89 114 146 190 244 282 353
#     4  11  21  37  54  85 113 154 200 235 288 341
#     4   9  21  35  55  82 111 148 192 241 282 344
#     4  12  24  32  56  76 116 160 192 248 272 348
#     4  10  19  35  57  81 115 149 189 238 293 341
#
# _framework density 18.137962000000002
#
# number of rings (size 3 to 8) (size 9 to 14) (size 15 to 20)
#    0.000    1.931    2.069    1.655    0.966    2.207 
#    0.000    1.724    3.034    0.000    0.000    0.000 
#    0.000    0.000    0.000    0.000    0.000    0.000 
#
# Total GULP energy -161607.672322 kJ/mol
# GULP energy per Si atom -5572.678356 kJ/mol
# Density = 1.809668 g / cm^3
# Si number density = 18.137962 Si / 1000 Ang^3
#
#
#
# Elastic Constant Matrix: (Units=GPa)
#
#
# Indices 1 2 3 4 5 6 
#
# 1 30.3569 8.3269 9.9458 0.0000 11.6527 0.0000
# 2 8.3269 61.2616 33.3985 0.0000 13.9890 0.0000
# 3 9.9458 33.3985 64.3757 0.0000 14.8693 0.0000
# 4 0.0000 0.0000 0.0000 23.3650 0.0000 -7.8481
# 5 11.6527 13.9890 14.8693 0.0000 19.0265 0.0000
# 6 0.0000 0.0000 0.0000 -7.8481 0.0000 5.7195
#
#
#
# Elastic Compliance Matrix: (Units=1/GPa)
#
#
# Indices 1 2 3 4 5 6 
#
# 1 0.043107 0.000622 -0.000951 0.000000 -0.026115 0.000000
# 2 0.000622 0.024158 -0.010298 0.000000 -0.010096 0.000000
# 3 -0.000951 -0.010298 0.023356 0.000000 -0.010099 0.000000
# 4 0.000000 0.000000 0.000000 0.079390 0.000000 0.108935
# 5 -0.026115 -0.010096 -0.010099 0.000000 0.083868 0.000000
# 6 0.000000 0.000000 0.000000 0.108935 0.000000 0.324316
#
#
# Mechanical properties :
#
#
# Convention : Reuss Voigt Hill
#
# Bulk Modulus (GPa) = 14.41570 28.81519 21.61544
# Shear Modulus (GPa) = 8.03123 16.57706 12.30414
#
# Velocity S-wave (km/s) = 2.10653 3.02643 2.60737
# Velocity P-wave (km/s) = 3.72581 5.30410 4.58340
#
# Compressibility (1/GPa) = 0.06936881
#
# Stress axis : x y z
#
# Youngs Moduli (GPa) = 23.19820 41.39372 42.81576
#
# Poissons Ratio (x) = -0.02577 0.04071
# Poissons Ratio (y) = -0.01444 0.44091
# Poissons Ratio (z) = 0.02206 0.42626
#
# Static dielectric constant tensor:
#      x y z
#    x 1.618920 0.000000 -0.010700 
#    y 0.000000 1.588220 0.000000 
#    z -0.010700 0.000000 1.622170 
# 
# From -- ./inp_files/103214.got.cif
#   From: 2010.05.17/outbox.cif.g08.bks.cpg/sg12_52_cif.got.tgz:103214.got - 2010.06.03 13:09:07.
