data_PCOD9186184
_publ_section_title
;
Structure prediction by ZEFSAII (Michael W. Deem and Ramdas Pophale) SiO2 
 PCOD9186184
Probable space group: C 2/M
;
_chemical_formula_sum "Si O2"
_cell_formula_units_Z 40
_cell_length_a 14.864840
_cell_length_b 8.697509
_cell_length_c 14.524730
_cell_angle_alpha 90.000000
_cell_angle_beta 109.436376
_cell_angle_gamma 90.000000
_cell_volume 1770.843664
_symmetry_space_group_name_H-M "C 2/M"
_symmetry_group_IT_number 12
_symmetry_cell_setting 'monoclinic'
loop_
_space_group_symop_operation_xyz
x,y,z
-x,y,-z
-x,-y,-z
x,-y,z
1/2+x,1/2+y,z
1/2-x,1/2+y,-z
1/2-x,1/2-y,-z
1/2+x,1/2-y,z
loop_
_atom_site_type_symbol
_atom_site_label
_atom_site_fract_x
_atom_site_fract_y
_atom_site_fract_z
Si Si1 0.587260 0.823504 0.100028
Si Si2 0.708692 0.318387 0.631583
Si Si3 0.026000 0.821052 0.783393
Si Si4 0.279909 0.178669 0.162776
Si Si5 0.887007 0.815404 0.582747
O O1 0.559405 0.715354 0.175737
O O2 0.689184 0.772948 0.095752
O O3 0.593402 0.000000 0.133699
O O4 0.500000 0.810400 0.000000
O O5 0.705171 0.500000 0.652228
O O6 0.709542 0.224507 0.725889
O O7 0.804882 0.277770 0.608180
O O8 0.625199 0.283128 0.529426
O O9 0.117915 0.724433 0.842920
O O10 0.985809 0.783212 0.668233
O O11 0.051026 0.000000 0.794553
O O12 0.261485 0.000000 0.144915
O O13 0.869501 0.000000 0.588194
#
# Coordination Sequence:
#
# PCOD9186184 Si02
#       5
#     8   8   8   8   8
#     4  11  25  46  70  95 123 157 202 259 322 380
#     4  10  19  34  59  89 126 167 210 257 307 361
#     4  11  23  41  66  95 128 165 209 257 310 369
#     4  12  25  41  63  93 129 168 212 255 307 370
#     4   9  19  35  58  90 125 166 209 255 308 365
#
# _framework density 22.588104999999999
#
# number of rings (size 3 to 8) (size 9 to 14) (size 15 to 20)
#    0.000    1.400    2.000    3.600    0.000    4.800 
#    0.000    4.000    0.000    0.000    0.000    0.000 
#    0.000    0.000    0.000    0.000    0.000    0.000 
#
# Total GULP energy -111887.459124 kJ/mol
# GULP energy per Si atom -5594.372956 kJ/mol
# Density = 2.253669 g / cm^3
# Si number density = 22.588105 Si / 1000 Ang^3
#
#
#
# Elastic Constant Matrix: (Units=GPa)
#
#
# Indices 1 2 3 4 5 6 
#
# 1 75.2904 7.6958 6.5791 0.0000 22.9821 0.0000
# 2 7.6958 50.5514 10.2354 0.0000 13.7963 0.0000
# 3 6.5791 10.2354 59.2168 0.0000 20.6747 0.0000
# 4 0.0000 0.0000 0.0000 25.1323 0.0000 2.9245
# 5 22.9821 13.7963 20.6747 0.0000 35.4734 0.0000
# 6 0.0000 0.0000 0.0000 2.9245 0.0000 30.5574
#
#
#
# Elastic Compliance Matrix: (Units=1/GPa)
#
#
# Indices 1 2 3 4 5 6 
#
# 1 0.016836 0.000346 0.002417 0.000000 -0.012450 0.000000
# 2 0.000346 0.022188 -0.000982 0.000000 -0.008281 0.000000
# 3 0.002417 -0.000982 0.021596 0.000000 -0.013770 0.000000
# 4 0.000000 0.000000 0.000000 0.040238 0.000000 -0.003851
# 5 -0.012450 -0.008281 -0.013770 0.000000 0.047502 0.000000
# 6 0.000000 0.000000 0.000000 -0.003851 0.000000 0.033094
#
#
# Mechanical properties :
#
#
# Convention : Reuss Voigt Hill
#
# Bulk Modulus (GPa) = 15.58132 26.00880 20.79506
# Shear Modulus (GPa) = 25.08936 28.93582 27.01259
#
# Velocity S-wave (km/s) = 3.33638 3.58302 3.46190
# Velocity P-wave (km/s) = 4.66422 5.35320 5.02054
#
# Compressibility (1/GPa) = 0.06417941
#
# Stress axis : x y z
#
# Youngs Moduli (GPa) = 59.39725 45.06918 46.30460
#
# Poissons Ratio (x) = -0.01557 -0.11190
# Poissons Ratio (y) = -0.02052 0.04549
# Poissons Ratio (z) = -0.14354 0.04428
#
# Static dielectric constant tensor:
#      x y z
#    x 1.834780 0.000000 0.006660 
#    y 0.000000 1.746880 0.000000 
#    z 0.006660 0.000000 1.864390 
# 
# From -- ./inp_files/211153.got.cif
#   From: 2010.05.17/outbox.cif.g08.bks.cpg/sg12_106_cif.got.tgz:211153.got - 2010.06.03 13:09:07.
