data_PCOD9186239
_publ_section_title
;
Structure prediction by ZEFSAII (Michael W. Deem and Ramdas Pophale) SiO2 
 PCOD9186239
Probable space group: C 2/M
;
_chemical_formula_sum "Si O2"
_cell_formula_units_Z 56
_cell_length_a 11.307581
_cell_length_b 29.171168
_cell_length_c 11.655599
_cell_angle_alpha 90.000000
_cell_angle_beta 51.328905
_cell_angle_gamma 90.000000
_cell_volume 3001.703170
_symmetry_space_group_name_H-M "C 2/M"
_symmetry_group_IT_number 12
_symmetry_cell_setting 'monoclinic'
loop_
_space_group_symop_operation_xyz
x,y,z
-x,y,-z
-x,-y,-z
x,-y,z
1/2+x,1/2+y,z
1/2-x,1/2+y,-z
1/2-x,1/2-y,-z
1/2+x,1/2-y,z
loop_
_atom_site_type_symbol
_atom_site_label
_atom_site_fract_x
_atom_site_fract_y
_atom_site_fract_z
Si Si1 0.321071 0.280299 0.134225
Si Si2 0.361771 0.865373 0.352395
Si Si3 0.160761 0.446461 0.466653
Si Si4 0.174553 0.950221 0.865617
Si Si5 0.158834 0.718047 0.464826
Si Si6 0.681451 0.824960 0.858432
Si Si7 0.699439 0.865829 0.072383
O O1 0.276477 0.292066 0.291357
O O2 0.269359 0.227529 0.150769
O O3 0.236568 0.316747 0.106384
O O4 0.500000 0.283243 0.000000
O O5 0.309580 0.911542 0.447465
O O6 0.380295 0.827575 0.440473
O O7 0.279694 0.841391 0.293499
O O8 0.523310 0.875349 0.197675
O O9 0.154061 0.500000 0.505964
O O10 0.285891 0.441663 0.291164
O O11 0.000000 0.435492 0.500000
O O12 0.224932 0.907180 0.908105
O O13 0.248608 0.000000 0.848490
O O14 0.000000 0.954414 0.000000
O O15 0.250000 0.750000 0.500000
O O16 0.000000 0.734237 0.500000
O O17 0.500000 0.823663 0.000000
O O18 0.745829 0.859981 0.912562
#
# Coordination Sequence:
#
# PCOD9186239 Si02
#       7
#     8   8   8   8   8   8   8
#     4  11  22  38  58  84 116 157 206 251 294 361
#     4  11  20  37  57  84 121 152 194 248 302 354
#     4  10  19  34  60  86 108 143 191 245 300 354
#     4  10  21  37  58  87 116 143 188 249 305 360
#     4  12  24  40  62  89 122 162 203 253 309 357
#     4   9  21  35  52  81 115 152 191 242 291 353
#     4  11  20  35  60  82 114 157 198 239 305 355
#
# _framework density 18.656075000000001
#
# number of rings (size 3 to 8) (size 9 to 14) (size 15 to 20)
#    0.000    1.429    4.286    2.143    0.000    1.143 
#    0.000    0.714    0.000    2.571    0.000    3.000 
#    0.000    0.000    0.000    0.000    0.000    0.000 
#
# Total GULP energy -156029.990766 kJ/mol
# GULP energy per Si atom -5572.499670 kJ/mol
# Density = 1.861361 g / cm^3
# Si number density = 18.656075 Si / 1000 Ang^3
#
#
#
# Elastic Constant Matrix: (Units=GPa)
#
#
# Indices 1 2 3 4 5 6 
#
# 1 41.1308 34.6723 25.9518 0.0000 18.4221 0.0000
# 2 34.6723 119.5876 21.8157 0.0000 23.1397 0.0000
# 3 25.9518 21.8157 108.4093 0.0000 13.1279 0.0000
# 4 0.0000 0.0000 0.0000 36.2560 0.0000 -9.2970
# 5 18.4221 23.1397 13.1279 0.0000 30.9302 0.0000
# 6 0.0000 0.0000 0.0000 -9.2970 0.0000 20.1575
#
#
#
# Elastic Compliance Matrix: (Units=1/GPa)
#
#
# Indices 1 2 3 4 5 6 
#
# 1 0.042613 -0.007931 -0.006589 0.000000 -0.016650 0.000000
# 2 -0.007931 0.011389 0.000070 0.000000 -0.003826 0.000000
# 3 -0.006589 0.000070 0.010878 0.000000 -0.000745 0.000000
# 4 0.000000 0.000000 0.000000 0.031281 0.000000 0.014427
# 5 -0.016650 -0.003826 -0.000745 0.000000 0.045427 0.000000
# 6 0.000000 0.000000 0.000000 0.014427 0.000000 0.056263
#
#
# Mechanical properties :
#
#
# Convention : Reuss Voigt Hill
#
# Bulk Modulus (GPa) = 27.79285 48.22302 38.00793
# Shear Modulus (GPa) = 20.94287 29.91462 25.42875
#
# Velocity S-wave (km/s) = 3.35412 4.00869 3.69593
# Velocity P-wave (km/s) = 5.47083 6.87973 6.21533
#
# Compressibility (1/GPa) = 0.03598048
#
# Stress axis : x y z
#
# Youngs Moduli (GPa) = 23.46685 87.80246 91.93140
#
# Poissons Ratio (x) = 0.69638 0.60571
# Poissons Ratio (y) = 0.18612 -0.00644
# Poissons Ratio (z) = 0.15462 -0.00615
#
# Static dielectric constant tensor:
#      x y z
#    x 0.643100 0.000000 0.174310 
#    y 0.000000 1.682040 0.000000 
#    z 0.174310 0.000000 1.618350 
# 
# From -- ./inp_files/136945.got.cif
#   From: 2010.05.17/outbox.cif.g08.bks.cpg/sg12_69_cif.got.tgz:136945.got - 2010.06.03 13:09:07.
