data_PCOD9186727
_publ_section_title
;
Structure prediction by ZEFSAII (Michael W. Deem and Ramdas Pophale) SiO2 
 PCOD9186727
Probable space group: C 2/M
;
_chemical_formula_sum "Si O2"
_cell_formula_units_Z 64
_cell_length_a 28.711962
_cell_length_b 8.206919
_cell_length_c 18.714810
_cell_angle_alpha 90.000000
_cell_angle_beta 45.515046
_cell_angle_gamma 90.000000
_cell_volume 3146.172551
_symmetry_space_group_name_H-M "C 2/M"
_symmetry_group_IT_number 12
_symmetry_cell_setting 'monoclinic'
loop_
_space_group_symop_operation_xyz
x,y,z
-x,y,-z
-x,-y,-z
x,-y,z
1/2+x,1/2+y,z
1/2-x,1/2+y,-z
1/2-x,1/2-y,-z
1/2+x,1/2-y,z
loop_
_atom_site_type_symbol
_atom_site_label
_atom_site_fract_x
_atom_site_fract_y
_atom_site_fract_z
Si Si1 0.842793 0.696737 0.188959
Si Si2 0.789935 0.799261 0.730072
Si Si3 0.896930 0.315185 0.833703
Si Si4 0.917555 0.192943 0.966184
Si Si5 0.948978 0.309908 0.360327
Si Si6 0.278979 0.683294 0.896109
Si Si7 0.933455 0.807372 0.535029
Si Si8 0.434572 0.198283 0.218101
O O1 0.843906 0.500000 0.187926
O O2 0.767233 0.748037 0.263055
O O3 0.880486 0.751478 0.219406
O O4 0.882553 0.752055 0.076153
O O5 0.766731 0.737867 0.832889
O O6 0.863513 0.741361 0.636848
O O7 0.791985 0.000000 0.729050
O O8 0.875615 0.500000 0.841665
O O9 0.887767 0.275949 0.927231
O O10 0.856293 0.195794 0.827514
O O11 0.973192 0.302573 0.735800
O O12 0.994219 0.240273 0.883157
O O13 0.911534 0.000000 0.964226
O O14 0.930862 0.500000 0.389349
O O15 0.934316 0.217767 0.448907
O O16 0.920900 0.249374 0.314579
O O17 0.256253 0.500000 0.914520
O O18 0.250000 0.750000 0.000000
O O19 0.000000 0.739111 0.500000
O O20 0.933187 0.000000 0.551265
O O21 0.438218 0.000000 0.215460
#
# Coordination Sequence:
#
# PCOD9186727 Si02
#       8
#     8   8   8   8   8   8   8   8
#     4  10  19  35  56  74 103 148 188 221 263 320
#     4   9  20  36  54  78 106 140 182 222 264 322
#     4  10  20  35  53  75 106 142 181 221 266 326
#     4  11  21  32  51  81 113 142 178 225 273 320
#     4   9  19  35  54  78 104 131 171 222 271 319
#     4  11  21  34  53  78 110 145 181 221 267 320
#     4  10  20  36  58  81 105 135 173 218 270 327
#     4   9  19  35  55  78 106 144 185 220 262 321
#
# _framework density 20.342175999999998
#
# number of rings (size 3 to 8) (size 9 to 14) (size 15 to 20)
#    0.000    2.125    0.000    4.500    0.000    6.750 
#    0.000    3.125    0.000    0.000    0.000    0.000 
#    0.000    0.000    0.000    0.000    0.000    0.000 
#
# Total GULP energy -178585.013616 kJ/mol
# GULP energy per Si atom -5580.781675 kJ/mol
# Density = 2.029588 g / cm^3
# Si number density = 20.342176 Si / 1000 Ang^3
#
#
#
# Elastic Constant Matrix: (Units=GPa)
#
#
# Indices 1 2 3 4 5 6 
#
# 1 126.3320 -2.3418 42.8514 0.0307 -5.2688 -0.0031
# 2 -2.3418 15.4268 2.2108 0.0412 -5.4674 -0.0269
# 3 42.8514 2.2108 87.8283 0.0300 1.8564 -0.0166
# 4 0.0307 0.0412 0.0300 18.9414 -0.0050 5.9260
# 5 -5.2688 -5.4674 1.8564 -0.0050 23.5853 0.0023
# 6 -0.0031 -0.0269 -0.0166 5.9260 0.0023 16.9455
#
#
#
# Elastic Compliance Matrix: (Units=1/GPa)
#
#
# Indices 1 2 3 4 5 6 
#
# 1 0.009792 0.003385 -0.004934 -0.000017 0.003360 0.000008
# 2 0.003385 0.072194 -0.003845 -0.000209 0.017794 0.000182
# 3 -0.004934 -0.003845 0.013955 -0.000010 -0.003092 0.000011
# 4 -0.000017 -0.000209 -0.000010 0.059281 -0.000037 -0.020731
# 5 0.003360 0.017794 -0.003092 -0.000037 0.047518 0.000032
# 6 0.000008 0.000182 0.000011 -0.020731 0.000032 0.066263
#
#
# Mechanical properties :
#
#
# Convention : Reuss Voigt Hill
#
# Bulk Modulus (GPa) = 11.74347 35.00310 23.37328
# Shear Modulus (GPa) = 16.22452 24.35223 20.28837
#
# Velocity S-wave (km/s) = 2.82721 3.46371 3.16152
# Velocity P-wave (km/s) = 4.05500 5.76549 4.98417
#
# Compressibility (1/GPa) = 0.08515374
#
# Stress axis : x y z
#
# Youngs Moduli (GPa) = 102.12358 13.85153 71.65806
#
# Poissons Ratio (x) = -0.04688 0.35354
# Poissons Ratio (y) = -0.34564 0.27550
# Poissons Ratio (z) = 0.50385 0.05325
#
# Static dielectric constant tensor:
#      x y z
#    x 1.747140 0.000000 -0.015010 
#    y 0.000000 1.730510 0.000000 
#    z -0.015010 0.000000 1.731580 
# 
# From -- ./inp_files/295491.got.cif
#   From: 2010.05.17/outbox.cif.g08.bks.cpg/sg12_148_cif.got.tgz:295491.got - 2010.06.03 13:09:07.
