data_PCOD9186941
_publ_section_title
;
Structure prediction by ZEFSAII (Michael W. Deem and Ramdas Pophale) SiO2 
 PCOD9186941
Probable space group: C 2/M
;
_chemical_formula_sum "Si O2"
_cell_formula_units_Z 56
_cell_length_a 30.642759
_cell_length_b 7.646243
_cell_length_c 12.394421
_cell_angle_alpha 90.000000
_cell_angle_beta 117.877481
_cell_angle_gamma 90.000000
_cell_volume 2567.022328
_symmetry_space_group_name_H-M "C 2/M"
_symmetry_group_IT_number 12
_symmetry_cell_setting 'monoclinic'
loop_
_space_group_symop_operation_xyz
x,y,z
-x,y,-z
-x,-y,-z
x,-y,z
1/2+x,1/2+y,z
1/2-x,1/2+y,-z
1/2-x,1/2-y,-z
1/2+x,1/2-y,z
loop_
_atom_site_type_symbol
_atom_site_label
_atom_site_fract_x
_atom_site_fract_y
_atom_site_fract_z
Si Si1 0.760158 0.792242 0.387346
Si Si2 0.393444 0.788589 0.026325
Si Si3 0.001916 0.204020 0.125720
Si Si4 0.404896 0.792577 0.623035
Si Si5 0.307675 0.789184 0.089175
Si Si6 0.346852 0.213195 0.757114
Si Si7 0.646976 0.197722 0.635793
O O1 0.750000 0.750000 0.500000
O O2 0.708388 0.739200 0.273587
O O3 0.805967 0.695408 0.389357
O O4 0.767656 0.000000 0.382924
O O5 0.448221 0.728096 0.117195
O O6 0.347079 0.730362 0.044471
O O7 0.393597 0.000000 0.028648
O O8 0.383743 0.730272 0.892529
O O9 0.043578 0.274719 0.254696
O O10 0.012985 0.000000 0.126986
O O11 0.000000 0.279570 0.000000
O O12 0.364795 0.720256 0.662243
O O13 0.395225 0.721489 0.491059
O O14 0.396125 0.000000 0.601990
O O15 0.330495 0.721756 0.229029
O O16 0.309330 0.000000 0.094083
O O17 0.250000 0.750000 0.000000
O O18 0.347484 0.000000 0.752428
O O19 0.631236 0.000000 0.647038
#
# Coordination Sequence:
#
# PCOD9186941 Si02
#       7
#     8   8   8   8   8   8   8
#     4  11  20  32  51  80 115 150 188 233 286 347
#     4  10  20  37  60  83 108 149 198 234 278 342
#     4  11  23  37  55  86 120 146 183 239 298 347
#     4  10  19  35  57  79 109 149 187 228 281 343
#     4  10  22  40  63  88 117 154 197 241 284 342
#     4   9  17  30  51  78 108 142 185 229 273 335
#     4  10  21  38  56  81 116 152 192 240 289 340
#
# _framework density 21.815159000000001
#
# number of rings (size 3 to 8) (size 9 to 14) (size 15 to 20)
#    0.000    1.857    2.857    1.714    0.000    3.429 
#    0.000    2.143    0.000    4.286    0.000    0.000 
#    0.000    0.000    0.000    0.000    0.000    0.000 
#
# Total GULP energy -156176.887597 kJ/mol
# GULP energy per Si atom -5577.745986 kJ/mol
# Density = 2.176551 g / cm^3
# Si number density = 21.815159 Si / 1000 Ang^3
#
#
#
# Elastic Constant Matrix: (Units=GPa)
#
#
# Indices 1 2 3 4 5 6 
#
# 1 82.8474 -2.9587 45.7046 0.0000 15.3173 0.0000
# 2 -2.9587 54.1369 6.9772 0.0000 0.9709 0.0000
# 3 45.7046 6.9772 174.0768 0.0000 13.6244 0.0000
# 4 0.0000 0.0000 0.0000 11.1939 0.0000 6.8452
# 5 15.3173 0.9709 13.6244 0.0000 40.0049 0.0000
# 6 0.0000 0.0000 0.0000 6.8452 0.0000 19.4803
#
#
#
# Elastic Compliance Matrix: (Units=1/GPa)
#
#
# Indices 1 2 3 4 5 6 
#
# 1 0.014957 0.001366 -0.003628 0.000000 -0.004524 0.000000
# 2 0.001366 0.018694 -0.001060 0.000000 -0.000616 0.000000
# 3 -0.003628 -0.001060 0.006810 0.000000 -0.000905 0.000000
# 4 0.000000 0.000000 0.000000 0.113783 0.000000 -0.039982
# 5 -0.004524 -0.000616 -0.000905 0.000000 0.027052 0.000000
# 6 0.000000 0.000000 0.000000 -0.039982 0.000000 0.065383
#
#
# Mechanical properties :
#
#
# Convention : Reuss Voigt Hill
#
# Bulk Modulus (GPa) = 29.56943 45.61190 37.59066
# Shear Modulus (GPa) = 18.89674 31.55836 25.22755
#
# Velocity S-wave (km/s) = 2.94636 3.80758 3.40431
# Velocity P-wave (km/s) = 5.01584 6.34696 5.72025
#
# Compressibility (1/GPa) = 0.03381872
#
# Stress axis : x y z
#
# Youngs Moduli (GPa) = 66.85846 53.49312 146.83579
#
# Poissons Ratio (x) = -0.07308 0.53267
# Poissons Ratio (y) = -0.09134 0.15561
# Poissons Ratio (z) = 0.24254 0.05669
#
# Static dielectric constant tensor:
#      x y z
#    x 1.772000 0.000000 0.012620 
#    y 0.000000 1.833200 0.000000 
#    z 0.012620 0.000000 1.890170 
# 
# From -- ./inp_files/187727.got.cif
#   From: 2010.05.17/outbox.cif.g08.bks.cpg/sg12_94_cif.got.tgz:187727.got - 2010.06.03 13:09:07.
