data_PCOD9186369
_publ_section_title
;
Structure prediction by ZEFSAII (Michael W. Deem and Ramdas Pophale) SiO2 
 PCOD9186369
Probable space group: C 2/M
;
_chemical_formula_sum "Si O2"
_cell_formula_units_Z 64
_cell_length_a 15.578299
_cell_length_b 17.658437
_cell_length_c 24.691539
_cell_angle_alpha 90.000000
_cell_angle_beta 28.892411
_cell_angle_gamma 90.000000
_cell_volume 3281.838455
_symmetry_space_group_name_H-M "C 2/M"
_symmetry_group_IT_number 12
_symmetry_cell_setting 'monoclinic'
loop_
_space_group_symop_operation_xyz
x,y,z
-x,y,-z
-x,-y,-z
x,-y,z
1/2+x,1/2+y,z
1/2-x,1/2+y,-z
1/2-x,1/2-y,-z
1/2+x,1/2-y,z
loop_
_atom_site_type_symbol
_atom_site_label
_atom_site_fract_x
_atom_site_fract_y
_atom_site_fract_z
Si Si1 0.642139 0.585051 0.759344
Si Si2 0.562464 0.409316 0.404068
Si Si3 0.024070 0.589759 0.549662
Si Si4 0.948180 0.336963 0.187238
Si Si5 0.596708 0.752691 0.001593
Si Si6 0.154972 0.826612 0.568967
Si Si7 0.805653 0.085675 0.024466
Si Si8 0.011822 0.208434 0.231161
O O1 0.667736 0.500000 0.723289
O O2 0.597681 0.642751 0.737005
O O3 0.829889 0.606697 0.682957
O O4 0.472351 0.583063 0.891695
O O5 0.500000 0.391681 0.500000
O O6 0.557444 0.500000 0.400258
O O7 0.762273 0.379283 0.283532
O O8 0.432687 0.369917 0.432619
O O9 0.050329 0.500000 0.536593
O O10 0.189267 0.626333 0.488036
O O11 0.000000 0.613333 0.500000
O O12 0.991195 0.278686 0.113852
O O13 0.116886 0.393334 0.100862
O O14 0.939666 0.287209 0.246926
O O15 0.500000 0.775116 0.000000
O O16 0.645349 0.662975 0.970431
O O17 0.785525 0.794372 0.899994
O O18 0.250000 0.750000 0.500000
O O19 0.007218 0.803714 0.694859
O O20 0.793526 0.000000 0.055684
#
# Coordination Sequence:
#
# PCOD9186369 Si02
#       8
#     8   8   8   8   8   8   8   8
#     4  10  19  34  61  91 120 155 199 257 320 378
#     4  11  26  47  67  90 128 176 218 262 314 382
#     4  10  21  37  60  87 120 159 198 253 319 371
#     4  11  21  41  66  90 124 168 213 260 321 377
#     4  11  22  37  59  92 131 168 206 258 318 384
#     4  12  26  39  63  97 125 164 217 267 318 382
#     4  10  20  38  63  90 118 161 212 255 312 376
#     4  11  21  39  62  91 125 165 208 268 321 374
#
# _framework density 19.501263999999999
#
# number of rings (size 3 to 8) (size 9 to 14) (size 15 to 20)
#    0.000    1.250    3.750    3.000    1.750    2.250 
#    0.000    0.000    0.000    5.625    0.000    0.000 
#    0.000    0.000    0.000    0.000    0.000    0.000 
#
# Total GULP energy -178508.144869 kJ/mol
# GULP energy per Si atom -5578.379527 kJ/mol
# Density = 1.945688 g / cm^3
# Si number density = 19.501264 Si / 1000 Ang^3
#
#
#
# Elastic Constant Matrix: (Units=GPa)
#
#
# Indices 1 2 3 4 5 6 
#
# 1 122.6402 48.2992 56.2587 0.0004 -13.4818 0.0003
# 2 48.2992 84.8614 49.9340 0.0037 -6.7082 -0.0022
# 3 56.2587 49.9340 109.0061 0.0138 -18.7199 -0.0060
# 4 0.0004 0.0037 0.0138 19.8117 -0.0030 -3.7149
# 5 -13.4818 -6.7082 -18.7199 -0.0030 32.2725 0.0002
# 6 0.0003 -0.0022 -0.0060 -3.7149 0.0002 25.2934
#
#
#
# Elastic Compliance Matrix: (Units=1/GPa)
#
#
# Indices 1 2 3 4 5 6 
#
# 1 0.011804 -0.004345 -0.003787 0.000003 0.001831 -0.000001
# 2 -0.004345 0.017763 -0.006189 0.000001 -0.001713 0.000000
# 3 -0.003787 -0.006189 0.014961 -0.000008 0.005810 0.000002
# 4 0.000003 0.000001 -0.000008 0.051905 0.000002 0.007623
# 5 0.001831 -0.001713 0.005810 0.000002 0.034765 0.000001
# 6 -0.000001 0.000000 0.000002 0.007623 0.000001 0.040656
#
#
# Mechanical properties :
#
#
# Convention : Reuss Voigt Hill
#
# Bulk Modulus (GPa) = 62.94744 69.49907 66.22325
# Shear Modulus (GPa) = 24.29662 26.27657 25.28660
#
# Velocity S-wave (km/s) = 3.53356 3.67472 3.60483
# Velocity P-wave (km/s) = 6.99977 7.32942 7.16649
#
# Compressibility (1/GPa) = 0.01588627
#
# Stress axis : x y z
#
# Youngs Moduli (GPa) = 84.71958 56.29689 66.84046
#
# Poissons Ratio (x) = 0.24461 0.25313
# Poissons Ratio (y) = 0.36810 0.41365
# Poissons Ratio (z) = 0.32085 0.34840
#
# Static dielectric constant tensor:
#      x y z
#    x 1.662800 0.000000 0.011030 
#    y 0.000000 1.702720 0.000000 
#    z 0.011030 0.000000 1.716610 
# 
# From -- ./inp_files/340817.got.cif
#   From: 2010.05.17/outbox.cif.g08.bks.cpg/sg12_171_cif.got.tgz:340817.got - 2010.06.03 13:09:07.
