data_PCOD9186994
_publ_section_title
;
Structure prediction by ZEFSAII (Michael W. Deem and Ramdas Pophale) SiO2 
 PCOD9186994
Probable space group: C 2/M
;
_chemical_formula_sum "Si O2"
_cell_formula_units_Z 56
_cell_length_a 29.979182
_cell_length_b 18.927514
_cell_length_c 9.427137
_cell_angle_alpha 90.000000
_cell_angle_beta 148.898577
_cell_angle_gamma 90.000000
_cell_volume 2763.181436
_symmetry_space_group_name_H-M "C 2/M"
_symmetry_group_IT_number 12
_symmetry_cell_setting 'monoclinic'
loop_
_space_group_symop_operation_xyz
x,y,z
-x,y,-z
-x,-y,-z
x,-y,z
1/2+x,1/2+y,z
1/2-x,1/2+y,-z
1/2-x,1/2-y,-z
1/2+x,1/2-y,z
loop_
_atom_site_type_symbol
_atom_site_label
_atom_site_fract_x
_atom_site_fract_y
_atom_site_fract_z
Si Si1 0.580427 0.156150 0.136744
Si Si2 0.800014 0.765924 0.374284
Si Si3 0.499207 0.500000 0.767063
Si Si4 0.496396 0.774888 0.637024
Si Si5 0.149047 0.000000 0.415633
Si Si6 0.595077 0.373818 0.883876
Si Si7 0.254091 0.375732 0.472194
Si Si8 0.832772 0.182229 0.180631
O O1 0.620946 0.221252 0.341337
O O2 0.662877 0.113220 0.302780
O O3 0.500000 0.120855 0.000000
O O4 0.534042 0.186431 0.872125
O O5 0.752029 0.803181 0.375454
O O6 0.815447 0.828388 0.299624
O O7 0.743500 0.711895 0.126633
O O8 0.403974 0.500000 0.579522
O O9 0.569565 0.500000 0.086670
O O10 0.527647 0.431979 0.753113
O O11 0.500000 0.817084 0.500000
O O12 0.399492 0.747236 0.381872
O O13 0.551588 0.703012 0.772296
O O14 0.209729 0.934267 0.537475
O O15 0.674475 0.373086 0.209197
O O16 0.628090 0.378983 0.811698
#
# Coordination Sequence:
#
# PCOD9186994 Si02
#       8
#     8   8   4   8   4   8   8   8
#     4  12  22  36  59  90 112 151 201 244 295 361
#     4  11  21  36  59  84 121 156 194 231 294 360
#     4   9  20  36  58  87 114 159 199 240 285 350
#     4  10  20  33  53  86 124 152 184 233 291 349
#     4   9  22  38  58  84 116 149 206 247 291 344
#     4  10  19  35  57  81 119 155 196 233 283 345
#     4  11  21  38  59  81 111 158 196 244 289 349
#     4  10  21  35  52  88 125 155 184 237 292 345
#
# _framework density 20.266494000000002
#
# number of rings (size 3 to 8) (size 9 to 14) (size 15 to 20)
#    0.000    1.571    4.286    2.143    2.000    0.000 
#    0.000    4.286    0.000    0.000    0.000    4.500 
#    0.000    0.000    0.000    0.000    0.000    0.000 
#
# Total GULP energy -155906.465099 kJ/mol
# GULP energy per Si atom -5568.088039 kJ/mol
# Density = 2.022037 g / cm^3
# Si number density = 20.266494 Si / 1000 Ang^3
#
#
#
# Elastic Constant Matrix: (Units=GPa)
#
#
# Indices 1 2 3 4 5 6 
#
# 1 174.8233 50.7862 55.3693 0.0000 6.7926 0.0000
# 2 50.7862 39.3416 11.2811 0.0000 -0.2742 0.0000
# 3 55.3693 11.2811 127.2294 0.0000 -7.0193 0.0000
# 4 0.0000 0.0000 0.0000 9.6144 0.0000 4.3903
# 5 6.7926 -0.2742 -7.0193 0.0000 47.2960 0.0000
# 6 0.0000 0.0000 0.0000 4.3903 0.0000 28.1887
#
#
#
# Elastic Compliance Matrix: (Units=1/GPa)
#
#
# Indices 1 2 3 4 5 6 
#
# 1 0.010645 -0.012718 -0.003623 0.000000 -0.002140 0.000000
# 2 -0.012718 0.041278 0.002005 0.000000 0.002363 0.000000
# 3 -0.003623 0.002005 0.009365 0.000000 0.001922 0.000000
# 4 0.000000 0.000000 0.000000 0.111975 0.000000 -0.017440
# 5 -0.002140 0.002363 0.001922 0.000000 0.021750 0.000000
# 6 0.000000 0.000000 0.000000 -0.017440 0.000000 0.038191
#
#
# Mechanical properties :
#
#
# Convention : Reuss Voigt Hill
#
# Bulk Modulus (GPa) = 30.66000 64.02973 47.34486
# Shear Modulus (GPa) = 18.33194 31.95032 25.14113
#
# Velocity S-wave (km/s) = 3.01083 3.97484 3.52593
# Velocity P-wave (km/s) = 5.21997 7.26142 6.32362
#
# Compressibility (1/GPa) = 0.03261578
#
# Stress axis : x y z
#
# Youngs Moduli (GPa) = 93.93768 24.22613 106.78255
#
# Poissons Ratio (x) = 0.30811 0.38689
# Poissons Ratio (y) = 1.19471 -0.21412
# Poissons Ratio (z) = 0.34035 -0.04858
#
# Static dielectric constant tensor:
#      x y z
#    x 1.918160 0.000000 0.021160 
#    y 0.000000 1.728570 0.000000 
#    z 0.021160 0.000000 1.722890 
# 
# From -- ./inp_files/113426.got.cif
#   From: 2010.05.17/outbox.cif.g08.bks.cpg/sg12_57_cif.got.tgz:113426.got - 2010.06.03 13:09:07.
