data_PCOD9186397
_publ_section_title
;
Structure prediction by ZEFSAII (Michael W. Deem and Ramdas Pophale) SiO2 
 PCOD9186397
Probable space group: C 2/M
;
_chemical_formula_sum "Si O2"
_cell_formula_units_Z 56
_cell_length_a 17.351612
_cell_length_b 14.178445
_cell_length_c 13.552047
_cell_angle_alpha 90.000000
_cell_angle_beta 59.511073
_cell_angle_gamma 90.000000
_cell_volume 2873.049755
_symmetry_space_group_name_H-M "C 2/M"
_symmetry_group_IT_number 12
_symmetry_cell_setting 'monoclinic'
loop_
_space_group_symop_operation_xyz
x,y,z
-x,y,-z
-x,-y,-z
x,-y,z
1/2+x,1/2+y,z
1/2-x,1/2+y,-z
1/2-x,1/2-y,-z
1/2+x,1/2-y,z
loop_
_atom_site_type_symbol
_atom_site_label
_atom_site_fract_x
_atom_site_fract_y
_atom_site_fract_z
Si Si1 0.505312 0.197692 0.199368
Si Si2 0.329550 0.112941 0.221848
Si Si3 0.056773 0.613528 0.557723
Si Si4 0.422527 0.391810 0.291751
Si Si5 0.179250 0.285296 0.967446
Si Si6 0.253413 0.886084 0.482086
Si Si7 0.606550 0.399581 0.914004
O O1 0.423197 0.165930 0.182683
O O2 0.493344 0.142744 0.309440
O O3 0.495571 0.309248 0.232293
O O4 0.595178 0.175313 0.082995
O O5 0.292972 0.145883 0.139839
O O6 0.270797 0.138667 0.356494
O O7 0.342954 0.000000 0.214674
O O8 0.059604 0.500000 0.549547
O O9 0.160512 0.644667 0.508238
O O10 0.000000 0.648321 0.500000
O O11 0.452480 0.500000 0.296399
O O12 0.343670 0.357834 0.415307
O O13 0.378396 0.398180 0.212435
O O14 0.148418 0.189959 0.934858
O O15 0.250000 0.250000 0.000000
O O16 0.252862 0.000000 0.487898
O O17 0.638950 0.500000 0.933810
O O18 0.500000 0.396084 0.000000
#
# Coordination Sequence:
#
# PCOD9186397 Si02
#       7
#     8   8   8   8   8   8   8
#     4  11  21  38  60  86 112 152 203 237 281 349
#     4  10  21  40  63  85 116 153 193 240 287 342
#     4   9  19  36  56  83 121 152 180 232 294 351
#     4  10  19  34  62  89 111 142 190 246 284 328
#     4  12  25  39  54  85 121 151 194 243 292 352
#     4   8  17  34  58  89 112 142 192 234 280 342
#     4  10  19  37  61  81 109 151 197 242 283 331
#
# _framework density 19.491482000000001
#
# number of rings (size 3 to 8) (size 9 to 14) (size 15 to 20)
#    0.000    2.000    2.857    1.714    0.000    5.714 
#    2.571    1.429    0.000    0.429    0.000    0.000 
#    0.000    0.000    0.000    0.000    0.000    0.000 
#
# Total GULP energy -156121.523343 kJ/mol
# GULP energy per Si atom -5575.768691 kJ/mol
# Density = 1.944712 g / cm^3
# Si number density = 19.491482 Si / 1000 Ang^3
#
#
#
# Elastic Constant Matrix: (Units=GPa)
#
#
# Indices 1 2 3 4 5 6 
#
# 1 33.5498 4.3867 30.4819 0.0000 20.3769 0.0000
# 2 4.3867 64.1246 -1.8991 0.0000 2.6817 0.0000
# 3 30.4819 -1.8991 87.6845 0.0000 4.2920 0.0000
# 4 0.0000 0.0000 0.0000 32.3335 0.0000 8.5827
# 5 20.3769 2.6817 4.2920 0.0000 23.9603 0.0000
# 6 0.0000 0.0000 0.0000 8.5827 0.0000 10.7398
#
#
#
# Elastic Compliance Matrix: (Units=1/GPa)
#
#
# Indices 1 2 3 4 5 6 
#
# 1 0.128033 -0.005704 -0.039681 0.000000 -0.101138 0.000000
# 2 -0.005704 0.015938 0.002197 0.000000 0.002674 0.000000
# 3 -0.039681 0.002197 0.023816 0.000000 0.029235 0.000000
# 4 0.000000 0.000000 0.000000 0.039255 0.000000 -0.031371
# 5 -0.101138 0.002674 0.029235 0.000000 0.122212 0.000000
# 6 0.000000 0.000000 0.000000 -0.031371 0.000000 0.118182
#
#
# Mechanical properties :
#
#
# Convention : Reuss Voigt Hill
#
# Bulk Modulus (GPa) = 12.28350 27.92197 20.10274
# Shear Modulus (GPa) = 8.91348 23.56599 16.23974
#
# Velocity S-wave (km/s) = 2.14078 3.48090 2.88960
# Velocity P-wave (km/s) = 3.52509 5.52375 4.63347
#
# Compressibility (1/GPa) = 0.08141001
#
# Stress axis : x y z
#
# Youngs Moduli (GPa) = 7.81051 62.74266 41.98928
#
# Poissons Ratio (x) = 0.35790 1.66619
# Poissons Ratio (y) = 0.04455 -0.09226
# Poissons Ratio (z) = 0.30993 -0.13786
#
# Static dielectric constant tensor:
#      x y z
#    x 1.672050 0.000000 -0.005070 
#    y 0.000000 1.725330 0.000000 
#    z -0.005070 0.000000 1.705270 
# 
# From -- ./inp_files/156493.got.cif
#   From: 2010.05.17/outbox.cif.g08.bks.cpg/sg12_79_cif.got.tgz:156493.got - 2010.06.03 13:09:07.
