data_PCOD9186653
_publ_section_title
;
Structure prediction by ZEFSAII (Michael W. Deem and Ramdas Pophale) SiO2 
 PCOD9186653
Probable space group: C 2/M
;
_chemical_formula_sum "Si O2"
_cell_formula_units_Z 64
_cell_length_a 22.408427
_cell_length_b 13.377558
_cell_length_c 11.162648
_cell_angle_alpha 90.000000
_cell_angle_beta 65.527585
_cell_angle_gamma 90.000000
_cell_volume 3045.605023
_symmetry_space_group_name_H-M "C 2/M"
_symmetry_group_IT_number 12
_symmetry_cell_setting 'monoclinic'
loop_
_space_group_symop_operation_xyz
x,y,z
-x,y,-z
-x,-y,-z
x,-y,z
1/2+x,1/2+y,z
1/2-x,1/2+y,-z
1/2-x,1/2-y,-z
1/2+x,1/2-y,z
loop_
_atom_site_type_symbol
_atom_site_label
_atom_site_fract_x
_atom_site_fract_y
_atom_site_fract_z
Si Si1 0.290183 0.390003 0.877339
Si Si2 0.642326 0.386990 0.922123
Si Si3 0.060888 0.713402 0.876724
Si Si4 0.914160 0.112892 0.612675
Si Si5 0.312896 0.112503 0.335151
Si Si6 0.259985 0.772434 0.742048
Si Si7 0.968702 0.228844 0.368174
Si Si8 0.123717 0.385708 0.456141
O O1 0.257577 0.500000 0.910548
O O2 0.342312 0.388612 0.725808
O O3 0.248329 0.294797 0.871804
O O4 0.332346 0.379966 0.962483
O O5 0.619558 0.500000 0.920053
O O6 0.589134 0.304756 0.931753
O O7 0.706675 0.360674 0.790315
O O8 0.121630 0.640536 0.795299
O O9 0.037951 0.756698 0.767180
O O10 0.000000 0.667846 0.000000
O O11 0.961026 0.187736 0.648295
O O12 0.080376 0.148197 0.529224
O O13 0.938520 0.000000 0.607894
O O14 0.260197 0.196799 0.346789
O O15 0.334345 0.115559 0.455408
O O16 0.290755 0.000000 0.325111
O O17 0.331480 0.821597 0.671652
O O18 0.943572 0.331132 0.451047
O O19 0.114584 0.500000 0.425300
#
# Coordination Sequence:
#
# PCOD9186653 Si02
#       8
#     8   8   8   8   8   8   8   8
#     4  10  20  35  56  80 107 142 181 222 271 316
#     4  10  22  36  52  79 112 145 179 220 266 315
#     4  10  21  36  57  81 106 144 179 215 270 323
#     4  10  20  35  56  83 109 139 178 226 274 318
#     4   9  20  36  55  81 110 139 178 225 267 316
#     4  11  19  35  56  78 107 143 185 220 265 318
#     4  10  19  35  55  79 110 140 178 223 270 320
#     4  10  20  35  54  78 111 146 178 220 271 320
#
# _framework density 21.013887
#
# number of rings (size 3 to 8) (size 9 to 14) (size 15 to 20)
#    0.000    2.000    1.250    3.000    0.000    1.500 
#    0.000    1.250    0.000    0.750    0.000    0.000 
#    0.000    0.000    0.000    0.000    0.000    0.000 
#
# Total GULP energy -178458.497051 kJ/mol
# GULP energy per Si atom -5576.828033 kJ/mol
# Density = 2.096606 g / cm^3
# Si number density = 21.013887 Si / 1000 Ang^3
#
#
#
# Elastic Constant Matrix: (Units=GPa)
#
#
# Indices 1 2 3 4 5 6 
#
# 1 39.0444 12.0599 7.5577 0.0000 3.3841 0.0000
# 2 12.0599 113.1139 13.3956 0.0000 4.8115 0.0000
# 3 7.5577 13.3956 48.9119 0.0000 7.4662 0.0000
# 4 0.0000 0.0000 0.0000 14.6720 0.0000 0.4461
# 5 3.3841 4.8115 7.4662 0.0000 35.0301 0.0000
# 6 0.0000 0.0000 0.0000 0.4461 0.0000 24.0895
#
#
#
# Elastic Compliance Matrix: (Units=1/GPa)
#
#
# Indices 1 2 3 4 5 6 
#
# 1 0.027138 -0.002437 -0.003284 0.000000 -0.001587 0.000000
# 2 -0.002437 0.009375 -0.002099 0.000000 -0.000605 0.000000
# 3 -0.003284 -0.002099 0.022155 0.000000 -0.004117 0.000000
# 4 0.000000 0.000000 0.000000 0.068195 0.000000 -0.001263
# 5 -0.001587 -0.000605 -0.004117 0.000000 0.029661 0.000000
# 6 0.000000 0.000000 0.000000 -0.001263 0.000000 0.041535
#
#
# Mechanical properties :
#
#
# Convention : Reuss Voigt Hill
#
# Bulk Modulus (GPa) = 23.23976 29.67738 26.45857
# Shear Modulus (GPa) = 21.92594 25.96214 23.94404
#
# Velocity S-wave (km/s) = 3.23368 3.51875 3.37922
# Velocity P-wave (km/s) = 5.00255 5.53734 5.27672
#
# Compressibility (1/GPa) = 0.04302970
#
# Stress axis : x y z
#
# Youngs Moduli (GPa) = 36.84904 106.66975 45.13569
#
# Poissons Ratio (x) = 0.25995 0.14820
# Poissons Ratio (y) = 0.08980 0.09472
# Poissons Ratio (z) = 0.12100 0.22385
#
# Static dielectric constant tensor:
#      x y z
#    x 1.772930 0.000000 0.002500 
#    y 0.000000 1.805400 0.000000 
#    z 0.002500 0.000000 1.774520 
# 
# From -- ./inp_files/175253.got.cif
#   From: 2010.05.17/outbox.cif.g08.bks.cpg/sg12_88_cif.got.tgz:175253.got - 2010.06.03 13:09:07.
