data_PCOD9186145
_publ_section_title
;
Structure prediction by ZEFSAII (Michael W. Deem and Ramdas Pophale) SiO2 
 PCOD9186145
Probable space group: C 2/M
;
_chemical_formula_sum "Si O2"
_cell_formula_units_Z 56
_cell_length_a 35.258375
_cell_length_b 9.000593
_cell_length_c 11.760004
_cell_angle_alpha 90.000000
_cell_angle_beta 125.681420
_cell_angle_gamma 90.000000
_cell_volume 3031.396546
_symmetry_space_group_name_H-M "C 2/M"
_symmetry_group_IT_number 12
_symmetry_cell_setting 'monoclinic'
loop_
_space_group_symop_operation_xyz
x,y,z
-x,y,-z
-x,-y,-z
x,-y,z
1/2+x,1/2+y,z
1/2-x,1/2+y,-z
1/2-x,1/2-y,-z
1/2+x,1/2-y,z
loop_
_atom_site_type_symbol
_atom_site_label
_atom_site_fract_x
_atom_site_fract_y
_atom_site_fract_z
Si Si1 0.339324 0.175468 0.732584
Si Si2 0.337196 0.323189 0.079438
Si Si3 0.396729 0.821842 0.609019
Si Si4 0.086712 0.324637 0.934127
Si Si5 0.264266 0.676107 0.749629
Si Si6 0.171648 0.177415 0.674066
Si Si7 0.993416 0.177483 0.854508
O O1 0.361161 0.216216 0.649938
O O2 0.294631 0.266042 0.696772
O O3 0.327969 0.000000 0.712586
O O4 0.380306 0.199031 0.897428
O O5 0.346535 0.500000 0.090023
O O6 0.382651 0.235868 0.116489
O O7 0.323499 0.285314 0.183927
O O8 0.296049 0.292552 0.917104
O O9 0.374616 0.751262 0.458115
O O10 0.446854 0.755223 0.727583
O O11 0.399380 0.000000 0.606259
O O12 0.077956 0.500000 0.908563
O O13 0.038858 0.237773 0.869261
O O14 0.256639 0.500000 0.727515
O O15 0.215798 0.758661 0.683442
O O16 0.169635 0.000000 0.659167
O O17 0.989593 0.000000 0.836530
O O18 0.000000 0.212748 0.000000
#
# Coordination Sequence:
#
# PCOD9186145 Si02
#       7
#     8   8   8   8   8   8   8
#     4   9  19  35  55  82 114 147 183 230 284 332
#     4   9  20  38  59  84 114 148 189 237 282 332
#     4  11  23  39  58  82 116 151 190 234 279 336
#     4  10  19  34  59  88 115 145 185 235 282 329
#     4  10  20  35  59  86 111 145 191 236 280 333
#     4  11  23  39  57  80 115 154 190 232 285 337
#     4  11  22  36  59  88 117 149 185 226 278 339
#
# _framework density 18.473333
#
# number of rings (size 3 to 8) (size 9 to 14) (size 15 to 20)
#    0.000    1.857    1.429    2.571    0.000    4.571 
#    0.000    0.714    0.000    4.286    0.000    0.000 
#    0.000    0.000    0.000    0.000    0.000    0.000 
#
# Total GULP energy -156449.754084 kJ/mol
# GULP energy per Si atom -5587.491217 kJ/mol
# Density = 1.843129 g / cm^3
# Si number density = 18.473333 Si / 1000 Ang^3
#
#
#
# Elastic Constant Matrix: (Units=GPa)
#
#
# Indices 1 2 3 4 5 6 
#
# 1 78.1288 35.9929 12.7749 0.0000 20.2022 0.0000
# 2 35.9929 47.3577 28.3142 0.0000 16.8794 0.0000
# 3 12.7749 28.3142 40.8909 0.0000 16.3097 0.0000
# 4 0.0000 0.0000 0.0000 26.6117 0.0000 5.5107
# 5 20.2022 16.8794 16.3097 0.0000 18.4756 0.0000
# 6 0.0000 0.0000 0.0000 5.5107 0.0000 34.0735
#
#
#
# Elastic Compliance Matrix: (Units=1/GPa)
#
#
# Indices 1 2 3 4 5 6 
#
# 1 0.025635 -0.020489 0.015268 0.000000 -0.022790 0.000000
# 2 -0.020489 0.056144 -0.032338 0.000000 -0.000343 0.000000
# 3 0.015268 -0.032338 0.057034 0.000000 -0.037499 0.000000
# 4 0.000000 0.000000 0.000000 0.038879 0.000000 -0.006288
# 5 -0.022790 -0.000343 -0.037499 0.000000 0.112462 0.000000
# 6 0.000000 0.000000 0.000000 -0.006288 0.000000 0.030365
#
#
# Mechanical properties :
#
#
# Convention : Reuss Voigt Hill
#
# Bulk Modulus (GPa) = 15.69950 35.61572 25.65761
# Shear Modulus (GPa) = 11.99416 21.78519 16.88968
#
# Velocity S-wave (km/s) = 2.55084 3.43779 3.02698
# Velocity P-wave (km/s) = 4.14640 5.92277 5.11233
#
# Compressibility (1/GPa) = 0.06369631
#
# Stress axis : x y z
#
# Youngs Moduli (GPa) = 39.00966 17.81120 17.53334
#
# Poissons Ratio (x) = 0.36493 -0.26771
# Poissons Ratio (y) = 0.79925 0.56700
# Poissons Ratio (z) = -0.59562 0.57599
#
# Static dielectric constant tensor:
#      x y z
#    x 1.606680 0.000000 -0.010620 
#    y 0.000000 1.605860 0.000000 
#    z -0.010620 0.000000 1.642610 
# 
# From -- ./inp_files/187725.got.cif
#   From: 2010.05.17/outbox.cif.g08.bks.cpg/sg12_94_cif.got.tgz:187725.got - 2010.06.03 13:09:07.
