data_PCOD9186955
_publ_section_title
;
Structure prediction by ZEFSAII (Michael W. Deem and Ramdas Pophale) SiO2 
 PCOD9186955
Probable space group: C 2/M
;
_chemical_formula_sum "Si O2"
_cell_formula_units_Z 56
_cell_length_a 9.982663
_cell_length_b 15.753439
_cell_length_c 16.560322
_cell_angle_alpha 90.000000
_cell_angle_beta 67.893962
_cell_angle_gamma 90.000000
_cell_volume 2412.852756
_symmetry_space_group_name_H-M "C 2/M"
_symmetry_group_IT_number 12
_symmetry_cell_setting 'monoclinic'
loop_
_space_group_symop_operation_xyz
x,y,z
-x,y,-z
-x,-y,-z
x,-y,z
1/2+x,1/2+y,z
1/2-x,1/2+y,-z
1/2-x,1/2-y,-z
1/2+x,1/2-y,z
loop_
_atom_site_type_symbol
_atom_site_label
_atom_site_fract_x
_atom_site_fract_y
_atom_site_fract_z
Si Si1 0.349995 0.851708 0.576355
Si Si2 0.509508 0.905487 0.289593
Si Si3 0.497291 0.408147 0.188706
Si Si4 0.326328 0.755653 0.835426
Si Si5 0.226507 0.186094 0.329586
Si Si6 0.663106 0.405489 0.929452
Si Si7 0.561346 0.407838 0.607724
O O1 0.500000 0.830647 0.500000
O O2 0.406403 0.898138 0.644515
O O3 0.256191 0.770050 0.622356
O O4 0.230625 0.899394 0.550020
O O5 0.564523 0.826411 0.224083
O O6 0.338753 0.885379 0.330216
O O7 0.531813 0.000000 0.251418
O O8 0.572082 0.500000 0.158683
O O9 0.593661 0.326576 0.146907
O O10 0.359310 0.407606 0.162412
O O11 0.448700 0.405992 0.291887
O O12 0.256440 0.714582 0.768890
O O13 0.238826 0.813749 0.919402
O O14 0.061735 0.158865 0.385692
O O15 0.721814 0.500000 0.940401
O O16 0.500000 0.402630 0.000000
O O17 0.510267 0.500000 0.592379
#
# Coordination Sequence:
#
# PCOD9186955 Si02
#       7
#     8   8   8   8   8   8   8
#     4  11  23  38  55  77 108 147 187 224 271 331
#     4  11  22  36  58  86 112 139 181 237 282 320
#     4   9  18  34  55  77 103 139 181 221 267 326
#     4  10  19  35  57  80 109 143 181 224 276 329
#     4  10  21  37  57  81 107 139 182 229 278 329
#     4  10  20  33  51  78 111 146 184 224 266 317
#     4  10  20  36  57  78 105 141 178 221 277 337
#
# _framework density 23.209042
#
# number of rings (size 3 to 8) (size 9 to 14) (size 15 to 20)
#    0.000    1.857    0.000    6.429    0.000    5.714 
#    0.000    0.000    0.000    3.000    0.000    0.000 
#    0.000    0.000    0.000    0.000    0.000    0.000 
#
# Total GULP energy -156125.984827 kJ/mol
# GULP energy per Si atom -5575.928030 kJ/mol
# Density = 2.315622 g / cm^3
# Si number density = 23.209042 Si / 1000 Ang^3
#
#
#
# Elastic Constant Matrix: (Units=GPa)
#
#
# Indices 1 2 3 4 5 6 
#
# 1 86.7546 44.0013 13.4543 0.0000 -19.7838 0.0000
# 2 44.0013 180.9253 11.0680 0.0000 -10.4064 0.0000
# 3 13.4543 11.0680 50.6334 0.0000 -9.8220 0.0000
# 4 0.0000 0.0000 0.0000 0.3544 0.0000 -4.2951
# 5 -19.7838 -10.4064 -9.8220 0.0000 23.1054 0.0000
# 6 0.0000 0.0000 0.0000 -4.2951 0.0000 30.6283
#
#
#
# Elastic Compliance Matrix: (Units=1/GPa)
#
#
# Indices 1 2 3 4 5 6 
#
# 1 0.015993 -0.003136 -0.001288 0.000000 0.011734 0.000000
# 2 -0.003136 0.006320 -0.000563 0.000000 -0.000078 0.000000
# 3 -0.001288 -0.000563 0.021745 0.000000 0.007887 0.000000
# 4 0.000000 0.000000 0.000000 -4.034086 0.000000 -0.565719
# 5 0.011734 -0.000078 0.007887 0.000000 0.056645 0.000000
# 6 0.000000 0.000000 0.000000 -0.565719 0.000000 -0.046684
#
#
# Mechanical properties :
#
#
# Convention : Reuss Voigt Hill
#
# Bulk Modulus (GPa) = 29.33971 50.59560 39.96766
# Shear Modulus (GPa) = -1.26303 27.47027 13.10362
#
# Velocity S-wave (km/s) = -0.73850 3.44408 2.37869
# Velocity P-wave (km/s) = 3.45569 6.13701 4.98019
#
# Compressibility (1/GPa) = 0.03408350
#
# Stress axis : x y z
#
# Youngs Moduli (GPa) = 62.52823 158.23445 45.98718
#
# Poissons Ratio (x) = 0.49619 0.05923
# Poissons Ratio (y) = 0.19607 0.02591
# Poissons Ratio (z) = 0.08053 0.08914
#
# Static dielectric constant tensor:
#      x y z
#    x 1.887720 0.000000 -0.037120 
#    y 0.000000 1.900190 0.000000 
#    z -0.037120 0.000000 1.953770 
# 
# From -- ./inp_files/263267.got.cif
#   From: 2010.05.17/outbox.cif.g08.bks.cpg/sg12_132_cif.got.tgz:263267.got - 2010.06.03 13:09:07.
