data_PCOD9186533
_publ_section_title
;
Structure prediction by ZEFSAII (Michael W. Deem and Ramdas Pophale) SiO2 
 PCOD9186533
Probable space group: C 2/M
;
_chemical_formula_sum "Si O2"
_cell_formula_units_Z 64
_cell_length_a 21.072882
_cell_length_b 7.574174
_cell_length_c 20.959518
_cell_angle_alpha 90.000000
_cell_angle_beta 106.274555
_cell_angle_gamma 90.000000
_cell_volume 3211.293475
_symmetry_space_group_name_H-M "C 2/M"
_symmetry_group_IT_number 12
_symmetry_cell_setting 'monoclinic'
loop_
_space_group_symop_operation_xyz
x,y,z
-x,y,-z
-x,-y,-z
x,-y,z
1/2+x,1/2+y,z
1/2-x,1/2+y,-z
1/2-x,1/2-y,-z
1/2+x,1/2-y,z
loop_
_atom_site_type_symbol
_atom_site_label
_atom_site_fract_x
_atom_site_fract_y
_atom_site_fract_z
Si Si1 0.040106 0.292107 0.362955
Si Si2 0.607998 0.783463 0.650169
Si Si3 0.927216 0.798687 0.768765
Si Si4 0.428450 0.794599 0.147215
Si Si5 0.837131 0.783243 0.857978
Si Si6 0.311967 0.784330 0.207095
Si Si7 0.073444 0.213738 0.999091
Si Si8 0.578646 0.204570 0.505456
O O1 0.034435 0.500000 0.375008
O O2 0.070357 0.275231 0.301771
O O3 0.080851 0.217226 0.434855
O O4 0.964192 0.226134 0.343582
O O5 0.663784 0.729672 0.715813
O O6 0.613038 0.720217 0.578457
O O7 0.607961 0.000000 0.649055
O O8 0.879004 0.720172 0.808563
O O9 0.001509 0.793069 0.817580
O O10 0.906347 0.000000 0.755047
O O11 0.368050 0.726723 0.172862
O O12 0.438024 0.000000 0.167048
O O13 0.413030 0.778072 0.068298
O O14 0.761399 0.726579 0.831452
O O15 0.874021 0.728344 0.933056
O O16 0.838864 0.000000 0.858409
O O17 0.311217 0.000000 0.205616
O O18 0.073530 0.000000 0.997175
O O19 0.000000 0.269503 0.000000
O O20 0.500000 0.206299 0.500000
O O21 0.600430 0.000000 0.508337
#
# Coordination Sequence:
#
# PCOD9186533 Si02
#       8
#     8   8   8   8   8   8   8   8
#     4   9  15  26  45  73  99 122 157 205 245 273
#     4   8  12  22  43  71  97 123 155 197 243 280
#     4  11  20  32  50  72  98 132 167 195 235 291
#     4  11  21  33  53  79  99 120 157 207 252 281
#     4   9  19  34  50  68  95 131 166 196 233 289
#     4   9  17  30  49  74 100 124 159 205 244 279
#     4  10  19  35  54  72  97 132 164 192 234 290
#     4   7  11  19  37  66  98 123 151 194 240 281
#
# _framework density 19.929665
#
# number of rings (size 3 to 8) (size 9 to 14) (size 15 to 20)
#    0.000    2.750    2.500    2.250    0.000    0.750 
#    0.000    0.000    0.000    7.875    0.000    0.000 
#    0.000    0.000    0.000    0.000    0.000    0.125 
#
# Total GULP energy -178409.889004 kJ/mol
# GULP energy per Si atom -5575.309031 kJ/mol
# Density = 1.988430 g / cm^3
# Si number density = 19.929665 Si / 1000 Ang^3
#
#
#
# Elastic Constant Matrix: (Units=GPa)
#
#
# Indices 1 2 3 4 5 6 
#
# 1 90.1585 -3.9772 53.9108 0.0000 7.2301 0.0000
# 2 -3.9772 40.0717 -6.0560 0.0000 1.8159 0.0000
# 3 53.9108 -6.0560 169.2374 0.0000 2.6482 0.0000
# 4 0.0000 0.0000 0.0000 18.1635 0.0000 -9.5268
# 5 7.2301 1.8159 2.6482 0.0000 26.2866 0.0000
# 6 0.0000 0.0000 0.0000 -9.5268 0.0000 5.2938
#
#
#
# Elastic Compliance Matrix: (Units=1/GPa)
#
#
# Indices 1 2 3 4 5 6 
#
# 1 0.014031 0.000888 -0.004383 0.000000 -0.003479 0.000000
# 2 0.000888 0.025235 0.000652 0.000000 -0.002053 0.000000
# 3 -0.004383 0.000652 0.007322 0.000000 0.000423 0.000000
# 4 0.000000 0.000000 0.000000 0.981397 0.000000 1.766138
# 5 -0.003479 -0.002053 0.000423 0.000000 0.039098 0.000000
# 6 0.000000 0.000000 0.000000 1.766138 0.000000 3.367273
#
#
# Mechanical properties :
#
#
# Convention : Reuss Voigt Hill
#
# Bulk Modulus (GPa) = 24.44909 43.02474 33.73692
# Shear Modulus (GPa) = 1.12267 26.98812 14.05539
#
# Velocity S-wave (km/s) = 0.75136 3.68389 2.65853
# Velocity P-wave (km/s) = 3.61207 6.30317 5.13697
#
# Compressibility (1/GPa) = 0.04090132
#
# Stress axis : x y z
#
# Youngs Moduli (GPa) = 71.27200 39.62746 136.57665
#
# Poissons Ratio (x) = -0.03518 0.59866
# Poissons Ratio (y) = -0.06328 -0.08909
# Poissons Ratio (z) = 0.31241 -0.02585
#
# Static dielectric constant tensor:
#      x y z
#    x 1.661640 0.000000 -0.007500 
#    y 0.000000 1.777780 0.000000 
#    z -0.007500 0.000000 1.728090 
# 
# From -- ./inp_files/319229.got.cif
#   From: 2010.05.17/outbox.cif.g08.bks.cpg/sg12_160_cif.got.tgz:319229.got - 2010.06.03 13:09:07.
