data_PCOD9186936
_publ_section_title
;
Structure prediction by ZEFSAII (Michael W. Deem and Ramdas Pophale) SiO2 
 PCOD9186936
Probable space group: C 2/M
;
_chemical_formula_sum "Si O2"
_cell_formula_units_Z 56
_cell_length_a 17.486492
_cell_length_b 7.990340
_cell_length_c 27.470958
_cell_angle_alpha 90.000000
_cell_angle_beta 36.925194
_cell_angle_gamma 90.000000
_cell_volume 2305.957502
_symmetry_space_group_name_H-M "C 2/M"
_symmetry_group_IT_number 12
_symmetry_cell_setting 'monoclinic'
loop_
_space_group_symop_operation_xyz
x,y,z
-x,y,-z
-x,-y,-z
x,-y,z
1/2+x,1/2+y,z
1/2-x,1/2+y,-z
1/2-x,1/2-y,-z
1/2+x,1/2-y,z
loop_
_atom_site_type_symbol
_atom_site_label
_atom_site_fract_x
_atom_site_fract_y
_atom_site_fract_z
Si Si1 0.001938 0.192956 0.626159
Si Si2 0.716386 0.306944 0.341154
Si Si3 0.840298 0.189439 0.883838
Si Si4 0.945680 0.196122 0.157003
Si Si5 0.792942 0.798726 0.548832
Si Si6 0.998747 0.689963 0.279047
Si Si7 0.640679 0.809903 0.906335
O O1 0.126525 0.272493 0.536708
O O2 0.929628 0.286557 0.706669
O O3 0.902639 0.190132 0.633111
O O4 0.024174 0.000000 0.630806
O O5 0.754668 0.500000 0.331575
O O6 0.836193 0.229336 0.252720
O O7 0.671447 0.235311 0.415678
O O8 0.730492 0.268539 0.904044
O O9 0.916493 0.265179 0.892187
O O10 0.953897 0.189285 0.786290
O O11 0.798721 0.000000 0.917431
O O12 0.886961 0.250548 0.134892
O O13 0.968853 0.000000 0.141540
O O14 0.641796 0.773511 0.628984
O O15 0.816731 0.000000 0.533669
O O16 0.008012 0.500000 0.256963
O O17 0.690630 0.000000 0.875911
O O18 0.500000 0.810682 0.000000
#
# Coordination Sequence:
#
# PCOD9186936 Si02
#       7
#     8   8   8   8   8   8   8
#     4  10  20  33  52  76 107 149 193 244 300 345
#     4  10  19  35  57  79 107 148 198 241 283 343
#     4  10  22  41  63  88 121 159 195 236 291 351
#     4  11  23  39  62  92 125 157 191 239 296 347
#     4   9  18  33  52  76 105 144 195 243 287 341
#     4  11  21  34  54  80 111 147 193 242 286 342
#     4  10  23  44  68  93 121 155 195 234 279 348
#
# _framework density 24.284922999999999
#
# number of rings (size 3 to 8) (size 9 to 14) (size 15 to 20)
#    0.000    1.857    1.429    2.571    0.000    7.714 
#    0.000    1.429    0.000    1.714    0.000    0.000 
#    0.000    0.000    0.000    0.000    0.000    0.000 
#
# Total GULP energy -155973.414557 kJ/mol
# GULP energy per Si atom -5570.479091 kJ/mol
# Density = 2.422965 g / cm^3
# Si number density = 24.284923 Si / 1000 Ang^3
#
#
#
# Elastic Constant Matrix: (Units=GPa)
#
#
# Indices 1 2 3 4 5 6 
#
# 1 128.9085 10.1717 22.4305 0.0000 -15.3820 -0.0002
# 2 10.1717 31.7704 -1.4961 0.0000 -6.5670 0.0011
# 3 22.4305 -1.4961 36.9683 0.0000 -11.2482 0.0000
# 4 0.0000 0.0000 0.0000 -0.7489 0.0000 -11.9867
# 5 -15.3820 -6.5670 -11.2482 0.0000 28.5013 0.0003
# 6 -0.0002 0.0011 0.0000 -11.9867 0.0003 10.0120
#
#
#
# Elastic Compliance Matrix: (Units=1/GPa)
#
#
# Indices 1 2 3 4 5 6 
#
# 1 0.009104 -0.002658 -0.004913 0.000000 0.002362 0.000000
# 2 -0.002658 0.034397 0.005659 0.000003 0.008724 0.000000
# 3 -0.004913 0.005659 0.033923 0.000001 0.012041 0.000000
# 4 0.000000 0.000003 0.000001 -0.066226 0.000002 -0.079288
# 5 0.002362 0.008724 0.012041 0.000002 0.043123 0.000000
# 6 0.000000 0.000000 0.000000 -0.079288 0.000000 0.004953
#
#
# Mechanical properties :
#
#
# Convention : Reuss Voigt Hill
#
# Bulk Modulus (GPa) = 13.58666 28.87326 21.22996
# Shear Modulus (GPa) = 57.05763 18.65564 37.85663
#
# Velocity S-wave (km/s) = 4.85243 2.77465 3.95252
# Velocity P-wave (km/s) = 6.08290 4.70957 5.43975
#
# Compressibility (1/GPa) = 0.07360158
#
# Stress axis : x y z
#
# Youngs Moduli (GPa) = 109.84404 29.07261 29.47811
#
# Poissons Ratio (x) = 0.07727 0.14481
# Poissons Ratio (y) = 0.29194 -0.16682
# Poissons Ratio (z) = 0.53962 -0.16453
#
# Static dielectric constant tensor:
#      x y z
#    x 2.195590 0.000000 -0.042560 
#    y 0.000000 2.061580 0.000000 
#    z -0.042560 0.000000 1.913440 
# 
# From -- ./inp_files/377681.got.cif
#   From: 2010.05.17/outbox.cif.g08.bks.cpg/sg12_189_cif.got.tgz:377681.got - 2010.06.03 13:09:07.
