data_PCOD9186780
_publ_section_title
;
Structure prediction by ZEFSAII (Michael W. Deem and Ramdas Pophale) SiO2 
 PCOD9186780
Probable space group: C 2/M
;
_chemical_formula_sum "Si O2"
_cell_formula_units_Z 40
_cell_length_a 16.242465
_cell_length_b 14.519748
_cell_length_c 9.776542
_cell_angle_alpha 90.000000
_cell_angle_beta 136.120419
_cell_angle_gamma 90.000000
_cell_volume 1598.160456
_symmetry_space_group_name_H-M "C 2/M"
_symmetry_group_IT_number 12
_symmetry_cell_setting 'monoclinic'
loop_
_space_group_symop_operation_xyz
x,y,z
-x,y,-z
-x,-y,-z
x,-y,z
1/2+x,1/2+y,z
1/2-x,1/2+y,-z
1/2-x,1/2-y,-z
1/2+x,1/2-y,z
loop_
_atom_site_type_symbol
_atom_site_label
_atom_site_fract_x
_atom_site_fract_y
_atom_site_fract_z
Si Si1 0.720244 0.900075 0.747368
Si Si2 0.789559 0.196883 0.254831
Si Si3 0.701946 0.895818 0.417910
Si Si4 0.438669 0.599960 0.221525
Si Si5 0.522132 0.780700 0.866493
O O1 0.760709 0.894222 0.637370
O O2 0.657751 0.000000 0.687759
O O3 0.660658 0.800771 0.699887
O O4 0.832933 0.903068 0.982251
O O5 0.756083 0.169889 0.368450
O O6 0.875765 0.123673 0.289005
O O7 0.661673 0.195267 0.023693
O O8 0.566018 0.862863 0.276699
O O9 0.702747 0.000000 0.366148
O O10 0.498426 0.500000 0.292959
O O11 0.506681 0.691015 0.256858
O O12 0.500000 0.759384 0.000000
#
# Coordination Sequence:
#
# PCOD9186780 Si02
#       5
#     8   8   8   8   8
#     4   9  18  33  54  80 107 136 173 215 261 311
#     4  10  19  35  56  79 107 138 176 217 258 311
#     4  10  20  34  55  82 108 136 172 218 267 308
#     4  10  20  36  57  78 103 139 180 217 257 310
#     4   9  19  33  52  79 108 140 174 213 260 312
#
# _framework density 25.028777000000002
#
# number of rings (size 3 to 8) (size 9 to 14) (size 15 to 20)
#    0.000    2.400    0.000    3.600    0.000    4.800 
#    0.000    8.000    0.000   14.400    0.000    0.000 
#    0.000    0.000    0.000    0.000    0.000    0.000 
#
# Total GULP energy -111881.852120 kJ/mol
# GULP energy per Si atom -5594.092606 kJ/mol
# Density = 2.497181 g / cm^3
# Si number density = 25.028777 Si / 1000 Ang^3
#
#
#
# Elastic Constant Matrix: (Units=GPa)
#
#
# Indices 1 2 3 4 5 6 
#
# 1 61.4800 21.7817 37.2921 0.0000 6.3132 0.0000
# 2 21.7817 156.3774 21.7146 0.0000 11.8217 0.0000
# 3 37.2921 21.7146 75.9521 0.0000 2.5330 0.0000
# 4 0.0000 0.0000 0.0000 24.0103 0.0000 -4.8245
# 5 6.3132 11.8217 2.5330 0.0000 35.6907 0.0000
# 6 0.0000 0.0000 0.0000 -4.8245 0.0000 5.2683
#
#
#
# Elastic Compliance Matrix: (Units=1/GPa)
#
#
# Indices 1 2 3 4 5 6 
#
# 1 0.023908 -0.001555 -0.011197 0.000000 -0.002919 0.000000
# 2 -0.001555 0.006917 -0.001150 0.000000 -0.001935 0.000000
# 3 -0.011197 -0.001150 0.018959 0.000000 0.001016 0.000000
# 4 0.000000 0.000000 0.000000 0.051041 0.000000 0.046741
# 5 -0.002919 -0.001935 0.001016 0.000000 0.029104 0.000000
# 6 0.000000 0.000000 0.000000 0.046741 0.000000 0.232617
#
#
# Mechanical properties :
#
#
# Convention : Reuss Voigt Hill
#
# Bulk Modulus (GPa) = 45.49342 50.59848 48.04595
# Shear Modulus (GPa) = 12.57313 27.19528 19.88421
#
# Velocity S-wave (km/s) = 2.24374 3.29988 2.82166
# Velocity P-wave (km/s) = 4.99284 5.89737 5.46385
#
# Compressibility (1/GPa) = 0.02198120
#
# Stress axis : x y z
#
# Youngs Moduli (GPa) = 41.82770 144.56638 52.74660
#
# Poissons Ratio (x) = 0.22474 0.59059
# Poissons Ratio (y) = 0.06502 0.06065
# Poissons Ratio (z) = 0.46833 0.16623
#
# Static dielectric constant tensor:
#      x y z
#    x 1.950160 0.000000 0.041690 
#    y 0.000000 1.976930 0.000000 
#    z 0.041690 0.000000 2.005480 
# 
# From -- ./inp_files/73346.got.cif
#   From: 2010.05.17/outbox.cif.g08.bks.cpg/sg12_37_cif.got.tgz:73346.got - 2010.06.03 13:09:07.
