data_PCOD9186322
_publ_section_title
;
Structure prediction by ZEFSAII (Michael W. Deem and Ramdas Pophale) SiO2 
 PCOD9186322
Probable space group: C 2/M
;
_chemical_formula_sum "Si O2"
_cell_formula_units_Z 48
_cell_length_a 22.188081
_cell_length_b 9.068562
_cell_length_c 12.507296
_cell_angle_alpha 90.000000
_cell_angle_beta 79.191540
_cell_angle_gamma 90.000000
_cell_volume 2471.996588
_symmetry_space_group_name_H-M "C 2/M"
_symmetry_group_IT_number 12
_symmetry_cell_setting 'monoclinic'
loop_
_space_group_symop_operation_xyz
x,y,z
-x,y,-z
-x,-y,-z
x,-y,z
1/2+x,1/2+y,z
1/2-x,1/2+y,-z
1/2-x,1/2-y,-z
1/2+x,1/2-y,z
loop_
_atom_site_type_symbol
_atom_site_label
_atom_site_fract_x
_atom_site_fract_y
_atom_site_fract_z
Si Si1 0.189176 0.177963 0.072419
Si Si2 0.479442 0.331419 0.626980
Si Si3 0.684914 0.174621 0.517338
Si Si4 0.428527 0.320826 0.032947
Si Si5 0.604106 0.331137 0.717992
Si Si6 0.141164 0.325315 0.294005
O O1 0.181603 0.236841 0.195553
O O2 0.193913 0.000000 0.067113
O O3 0.250000 0.250000 0.000000
O O4 0.124902 0.221468 0.033594
O O5 0.500000 0.288474 0.500000
O O6 0.454858 0.500000 0.628310
O O7 0.537853 0.333922 0.684046
O O8 0.429087 0.224838 0.692899
O O9 0.750000 0.250000 0.500000
O O10 0.645730 0.232909 0.629033
O O11 0.656116 0.212601 0.411909
O O12 0.690268 0.000000 0.520883
O O13 0.431496 0.500000 0.027346
O O14 0.403727 0.279546 0.158348
O O15 0.500000 0.270026 0.000000
O O16 0.627893 0.500000 0.711423
O O17 0.149081 0.500000 0.275535
#
# Coordination Sequence:
#
# PCOD9186322 Si02
#       6
#     8   8   8   8   8   8
#     4  11  24  42  65  92 125 162 210 262 313 374
#     4  10  19  34  60  93 123 155 198 244 299 366
#     4  11  25  41  59  86 120 159 203 251 307 367
#     4   9  19  38  64  91 120 160 207 253 303 360
#     4  10  20  37  63  92 123 157 199 249 304 368
#     4  11  24  41  62  88 123 162 203 250 307 369
#
# _framework density 19.417501000000001
#
# number of rings (size 3 to 8) (size 9 to 14) (size 15 to 20)
#    0.000    1.667    1.667    2.500    2.333    5.667 
#    0.000    0.833    0.000    3.500    0.000    0.000 
#    0.000    0.000    0.000    0.000    0.000    0.000 
#
# Total GULP energy -134000.699764 kJ/mol
# GULP energy per Si atom -5583.362490 kJ/mol
# Density = 1.937331 g / cm^3
# Si number density = 19.417501 Si / 1000 Ang^3
#
#
#
# Elastic Constant Matrix: (Units=GPa)
#
#
# Indices 1 2 3 4 5 6 
#
# 1 84.0042 30.8044 30.3323 0.0000 -17.9894 0.0000
# 2 30.8044 39.1359 43.3469 0.0000 -9.6793 0.0000
# 3 30.3323 43.3469 122.4628 0.0000 -14.1122 0.0000
# 4 0.0000 0.0000 0.0000 27.2298 0.0000 -5.5197
# 5 -17.9894 -9.6793 -14.1122 0.0000 24.9503 0.0000
# 6 0.0000 0.0000 0.0000 -5.5197 0.0000 22.7854
#
#
#
# Elastic Compliance Matrix: (Units=1/GPa)
#
#
# Indices 1 2 3 4 5 6 
#
# 1 0.018314 -0.013750 0.001324 0.000000 0.008619 0.000000
# 2 -0.013750 0.054083 -0.015471 0.000000 0.002317 0.000000
# 3 0.001324 -0.015471 0.013620 0.000000 0.002657 0.000000
# 4 0.000000 0.000000 0.000000 0.038621 0.000000 0.009356
# 5 0.008619 0.002317 0.002657 0.000000 0.048696 0.000000
# 6 0.000000 0.000000 0.000000 0.009356 0.000000 0.046154
#
#
# Mechanical properties :
#
#
# Convention : Reuss Voigt Hill
#
# Bulk Modulus (GPa) = 33.08634 50.50781 41.79708
# Shear Modulus (GPa) = 17.52201 24.40104 20.96153
#
# Velocity S-wave (km/s) = 3.00723 3.54877 3.28917
# Velocity P-wave (km/s) = 5.39762 6.54673 5.99975
#
# Compressibility (1/GPa) = 0.03022395
#
# Stress axis : x y z
#
# Youngs Moduli (GPa) = 54.60298 18.49009 73.42209
#
# Poissons Ratio (x) = 0.25424 -0.09722
# Poissons Ratio (y) = 0.75079 1.13588
# Poissons Ratio (z) = -0.07230 0.28605
#
# Static dielectric constant tensor:
#      x y z
#    x 1.728070 0.000000 0.048480 
#    y 0.000000 1.665900 0.000000 
#    z 0.048480 0.000000 1.701070 
# 
# From -- ./inp_files/172956.got.cif
#   From: 2010.05.17/outbox.cif.g08.bks.cpg/sg12_87_cif.got.tgz:172956.got - 2010.06.03 13:09:07.
