data_PCOD9186920
_publ_section_title
;
Structure prediction by ZEFSAII (Michael W. Deem and Ramdas Pophale) SiO2 
 PCOD9186920
Probable space group: C 2/M
;
_chemical_formula_sum "Si O2"
_cell_formula_units_Z 64
_cell_length_a 14.728782
_cell_length_b 8.910544
_cell_length_c 25.341691
_cell_angle_alpha 90.000000
_cell_angle_beta 87.482957
_cell_angle_gamma 90.000000
_cell_volume 3322.671727
_symmetry_space_group_name_H-M "C 2/M"
_symmetry_group_IT_number 12
_symmetry_cell_setting 'monoclinic'
loop_
_space_group_symop_operation_xyz
x,y,z
-x,y,-z
-x,-y,-z
x,-y,z
1/2+x,1/2+y,z
1/2-x,1/2+y,-z
1/2-x,1/2-y,-z
1/2+x,1/2-y,z
loop_
_atom_site_type_symbol
_atom_site_label
_atom_site_fract_x
_atom_site_fract_y
_atom_site_fract_z
Si Si1 0.015268 0.318929 0.405255
Si Si2 0.349810 0.319540 0.997801
Si Si3 0.182995 0.327324 0.460987
Si Si4 0.159304 0.173400 0.622297
Si Si5 0.056697 0.680006 0.802134
Si Si6 0.787967 0.818245 0.263644
Si Si7 0.507524 0.318971 0.914616
Si Si8 0.080751 0.682227 0.287214
O O1 0.018344 0.500000 0.406691
O O2 0.084380 0.263765 0.448603
O O3 0.050371 0.268102 0.346389
O O4 0.912112 0.264878 0.410543
O O5 0.341999 0.500000 0.997254
O O6 0.413787 0.276214 0.946566
O O7 0.250000 0.250000 0.000000
O O8 0.409414 0.279809 0.047990
O O9 0.171801 0.500000 0.477833
O O10 0.250000 0.250000 0.500000
O O11 0.240437 0.324464 0.405014
O O12 0.166190 0.229055 0.681956
O O13 0.129631 0.000000 0.623360
O O14 0.060414 0.500000 0.802849
O O15 0.154814 0.747030 0.784771
O O16 0.021352 0.741704 0.858407
O O17 0.988807 0.728348 0.756671
O O18 0.682895 0.772020 0.269773
O O19 0.791594 0.000000 0.260875
O O20 0.507595 0.500000 0.908831
O O21 0.080450 0.500000 0.289024
#
# Coordination Sequence:
#
# PCOD9186920 Si02
#       8
#     8   8   8   8   8   8   8   8
#     4  10  19  36  59  79 105 142 180 221 270 327
#     4   9  19  37  62  85 110 148 192 231 274 325
#     4  10  22  39  58  80 109 143 180 224 276 330
#     4  10  20  35  57  82 106 138 180 224 271 326
#     4  11  22  35  54  84 116 144 183 234 276 316
#     4  10  19  35  57  78 105 146 185 219 271 334
#     4   9  20  39  57  79 115 155 186 222 276 334
#     4   9  18  34  55  77 105 143 182 219 267 326
#
# _framework density 19.261607000000001
#
# number of rings (size 3 to 8) (size 9 to 14) (size 15 to 20)
#    0.000    2.250    2.500    1.125    0.000    3.500 
#    0.000    9.375    0.000    0.000    0.000    0.000 
#    0.000    0.000    0.000    0.000    0.000    0.000 
#
# Total GULP energy -178565.457237 kJ/mol
# GULP energy per Si atom -5580.170539 kJ/mol
# Density = 1.921777 g / cm^3
# Si number density = 19.261607 Si / 1000 Ang^3
#
#
#
# Elastic Constant Matrix: (Units=GPa)
#
#
# Indices 1 2 3 4 5 6 
#
# 1 106.8515 12.7200 4.2187 0.0000 1.3252 0.0000
# 2 12.7200 11.3207 7.9928 0.0000 1.6946 0.0000
# 3 4.2187 7.9928 54.9327 0.0000 -3.0072 0.0000
# 4 0.0000 0.0000 0.0000 27.4533 0.0000 0.4549
# 5 1.3252 1.6946 -3.0072 0.0000 17.5075 0.0000
# 6 0.0000 0.0000 0.0000 0.4549 0.0000 30.2597
#
#
#
# Elastic Compliance Matrix: (Units=1/GPa)
#
#
# Indices 1 2 3 4 5 6 
#
# 1 0.010865 -0.013082 0.001104 0.000000 0.000633 0.000000
# 2 -0.013082 0.116805 -0.016713 0.000000 -0.013186 0.000000
# 3 0.001104 -0.016713 0.020831 0.000000 0.005112 0.000000
# 4 0.000000 0.000000 0.000000 0.036435 0.000000 -0.000548
# 5 0.000633 -0.013186 0.005112 0.000000 0.059225 0.000000
# 6 0.000000 0.000000 0.000000 -0.000548 0.000000 0.033056
#
#
# Mechanical properties :
#
#
# Convention : Reuss Voigt Hill
#
# Bulk Modulus (GPa) = 10.97455 24.77420 17.87438
# Shear Modulus (GPa) = 13.69974 24.92231 19.31102
#
# Velocity S-wave (km/s) = 2.66981 3.60096 3.16977
# Velocity P-wave (km/s) = 3.90050 5.49355 4.76408
#
# Compressibility (1/GPa) = 0.09111990
#
# Stress axis : x y z
#
# Youngs Moduli (GPa) = 92.04184 8.56125 48.00551
#
# Poissons Ratio (x) = 0.11199 -0.05298
# Poissons Ratio (y) = 1.20405 0.80230
# Poissons Ratio (z) = -0.10159 0.14308
#
# Static dielectric constant tensor:
#      x y z
#    x 1.669050 0.000000 -0.000620 
#    y 0.000000 1.651510 0.000000 
#    z -0.000620 0.000000 1.677490 
# 
# From -- ./inp_files/338711.got.cif
#   From: 2010.05.17/outbox.cif.g08.bks.cpg/sg12_170_cif.got.tgz:338711.got - 2010.06.03 13:09:07.
