data_PCOD9186825
_publ_section_title
;
Structure prediction by ZEFSAII (Michael W. Deem and Ramdas Pophale) SiO2 
 PCOD9186825
Probable space group: C 2/M
;
_chemical_formula_sum "Si O2"
_cell_formula_units_Z 56
_cell_length_a 8.637347
_cell_length_b 21.667574
_cell_length_c 15.981893
_cell_angle_alpha 90.000000
_cell_angle_beta 49.507181
_cell_angle_gamma 90.000000
_cell_volume 2274.630575
_symmetry_space_group_name_H-M "C 2/M"
_symmetry_group_IT_number 12
_symmetry_cell_setting 'monoclinic'
loop_
_space_group_symop_operation_xyz
x,y,z
-x,y,-z
-x,-y,-z
x,-y,z
1/2+x,1/2+y,z
1/2-x,1/2+y,-z
1/2-x,1/2-y,-z
1/2+x,1/2-y,z
loop_
_atom_site_type_symbol
_atom_site_label
_atom_site_fract_x
_atom_site_fract_y
_atom_site_fract_z
Si Si1 0.527600 0.236977 0.753394
Si Si2 0.309432 0.574413 0.957613
Si Si3 0.684472 0.658453 0.819010
Si Si4 0.522111 0.432850 0.617171
Si Si5 0.358338 0.069724 0.630326
Si Si6 0.618007 0.071507 0.848574
Si Si7 0.032773 0.199122 0.399885
O O1 0.561019 0.293784 0.803633
O O2 0.314912 0.201539 0.834609
O O3 0.724388 0.194481 0.698460
O O4 0.540858 0.263648 0.654410
O O5 0.346229 0.500000 0.945857
O O6 0.517925 0.608812 0.904725
O O7 0.227324 0.596061 0.894272
O O8 0.113799 0.591894 0.083531
O O9 0.849226 0.620992 0.704365
O O10 0.577886 0.500000 0.560384
O O11 0.633934 0.432086 0.667696
O O12 0.282034 0.429735 0.717682
O O13 0.575421 0.367783 0.557192
O O14 0.500000 0.082706 0.500000
O O15 0.407031 0.000000 0.643151
O O16 0.587906 0.000000 0.881177
O O17 0.000000 0.231683 0.500000
#
# Coordination Sequence:
#
# PCOD9186825 Si02
#       7
#     8   8   8   8   8   8   8
#     4  10  24  37  54  78 108 147 190 229 272 310
#     4   9  15  27  55  88 109 133 178 231 275 319
#     4  11  20  37  57  79 113 144 186 230 270 325
#     4  10  19  35  56  81 115 147 173 219 281 333
#     4  10  20  32  53  83 112 142 177 222 279 327
#     4   8  14  26  51  86 112 137 176 220 270 329
#     4  11  22  38  57  78 104 145 190 232 264 322
#
# _framework density 24.619382000000002
#
# number of rings (size 3 to 8) (size 9 to 14) (size 15 to 20)
#    0.000    2.143    2.857    1.714    2.000    2.571 
#    0.000    1.429    0.000   16.286    0.000    3.000 
#    0.000    0.000    0.000    0.000    0.000    0.000 
#
# Total GULP energy -156319.295206 kJ/mol
# GULP energy per Si atom -5582.831972 kJ/mol
# Density = 2.456335 g / cm^3
# Si number density = 24.619382 Si / 1000 Ang^3
#
#
#
# Elastic Constant Matrix: (Units=GPa)
#
#
# Indices 1 2 3 4 5 6 
#
# 1 68.5359 52.3349 11.0784 0.0000 -17.5111 0.0000
# 2 52.3349 126.6365 18.3393 0.0000 -5.1493 0.0000
# 3 11.0784 18.3393 48.9420 0.0000 -30.7917 0.0000
# 4 0.0000 0.0000 0.0000 25.7855 0.0000 -4.2110
# 5 -17.5111 -5.1493 -30.7917 0.0000 45.2454 0.0000
# 6 0.0000 0.0000 0.0000 -4.2110 0.0000 32.6306
#
#
#
# Elastic Compliance Matrix: (Units=1/GPa)
#
#
# Indices 1 2 3 4 5 6 
#
# 1 0.025057 -0.010767 0.006458 0.000000 0.012867 0.000000
# 2 -0.010767 0.013088 -0.007260 0.000000 -0.007619 0.000000
# 3 0.006458 -0.007260 0.039773 0.000000 0.028741 0.000000
# 4 0.000000 0.000000 0.000000 0.039616 0.000000 0.005112
# 5 0.012867 -0.007619 0.028741 0.000000 0.045774 0.000000
# 6 0.000000 0.000000 0.000000 0.005112 0.000000 0.031306
#
#
# Mechanical properties :
#
#
# Convention : Reuss Voigt Hill
#
# Bulk Modulus (GPa) = 18.25493 45.29107 31.77300
# Shear Modulus (GPa) = 21.18531 31.55641 26.37086
#
# Velocity S-wave (km/s) = 2.93663 3.58407 3.27638
# Velocity P-wave (km/s) = 4.35079 5.96354 5.21983
#
# Compressibility (1/GPa) = 0.05477973
#
# Stress axis : x y z
#
# Youngs Moduli (GPa) = 39.90976 76.40592 25.14244
#
# Poissons Ratio (x) = 0.82268 -0.16238
# Poissons Ratio (y) = 0.42972 0.18254
# Poissons Ratio (z) = -0.25775 0.55473
#
# Static dielectric constant tensor:
#      x y z
#    x 1.965470 0.000000 0.000520 
#    y 0.000000 1.956330 0.000000 
#    z 0.000520 0.000000 2.040200 
# 
# From -- ./inp_files/259129.got.cif
#   From: 2010.05.17/outbox.cif.g08.bks.cpg/sg12_130_cif.got.tgz:259129.got - 2010.06.03 13:09:07.
