data_PCOD9186208
_publ_section_title
;
Structure prediction by ZEFSAII (Michael W. Deem and Ramdas Pophale) SiO2 
 PCOD9186208
Probable space group: C 2/M
;
_chemical_formula_sum "Si O2"
_cell_formula_units_Z 56
_cell_length_a 14.871237
_cell_length_b 14.746348
_cell_length_c 12.806079
_cell_angle_alpha 90.000000
_cell_angle_beta 123.129655
_cell_angle_gamma 90.000000
_cell_volume 2351.794407
_symmetry_space_group_name_H-M "C 2/M"
_symmetry_group_IT_number 12
_symmetry_cell_setting 'monoclinic'
loop_
_space_group_symop_operation_xyz
x,y,z
-x,y,-z
-x,-y,-z
x,-y,z
1/2+x,1/2+y,z
1/2-x,1/2+y,-z
1/2-x,1/2-y,-z
1/2+x,1/2-y,z
loop_
_atom_site_type_symbol
_atom_site_label
_atom_site_fract_x
_atom_site_fract_y
_atom_site_fract_z
Si Si1 0.998757 0.395712 0.833905
Si Si2 0.123654 0.888545 0.082975
Si Si3 0.445583 0.847632 0.569866
Si Si4 0.763453 0.610807 0.974370
Si Si5 0.735760 0.110704 0.257053
Si Si6 0.580985 0.644830 0.469723
Si Si7 0.787277 0.103735 0.640618
O O1 0.002211 0.500000 0.872183
O O2 0.984541 0.393128 0.700078
O O3 0.887754 0.358409 0.809369
O O4 0.113978 0.355908 0.935483
O O5 0.190296 0.858994 0.023967
O O6 0.177984 0.858000 0.225652
O O7 0.123792 0.000000 0.084496
O O8 0.000000 0.859958 0.000000
O O9 0.500000 0.885666 0.500000
O O10 0.471459 0.741221 0.590474
O O11 0.317624 0.852249 0.475894
O O12 0.766010 0.500000 0.981248
O O13 0.723899 0.633141 0.833250
O O14 0.810219 0.151552 0.393445
O O15 0.737910 0.000000 0.272030
O O16 0.500000 0.598188 0.500000
O O17 0.616127 0.604484 0.381529
O O18 0.755178 0.000000 0.637826
#
# Coordination Sequence:
#
# PCOD9186208 Si02
#       7
#     8   8   8   8   8   8   8
#     4  10  19  34  59  92 118 147 196 245 300 352
#     4   9  19  34  54  82 114 151 191 238 294 342
#     4  11  23  39  60  84 122 161 194 243 299 356
#     4   9  18  33  56  87 122 151 185 243 301 352
#     4  10  20  35  59  89 119 153 195 244 294 350
#     4  11  25  40  58  85 122 164 201 237 296 357
#     4  11  22  38  63  90 116 151 201 253 295 346
#
# _framework density 23.811606000000001
#
# number of rings (size 3 to 8) (size 9 to 14) (size 15 to 20)
#    0.000    1.857    1.429    2.571    2.000    5.143 
#    0.000    0.000    3.143    2.571    0.000    0.000 
#    0.000    0.000    0.000    0.000    0.000    0.000 
#
# Total GULP energy -156577.833769 kJ/mol
# GULP energy per Si atom -5592.065492 kJ/mol
# Density = 2.375741 g / cm^3
# Si number density = 23.811606 Si / 1000 Ang^3
#
#
#
# Elastic Constant Matrix: (Units=GPa)
#
#
# Indices 1 2 3 4 5 6 
#
# 1 131.8217 -0.0411 32.5130 0.0000 -26.0046 0.0000
# 2 -0.0411 53.8933 -0.3789 0.0000 0.2707 0.0000
# 3 32.5130 -0.3789 111.8067 0.0000 -28.5599 0.0000
# 4 0.0000 0.0000 0.0000 4.9116 0.0000 -1.3360
# 5 -26.0046 0.2707 -28.5599 0.0000 45.4606 0.0000
# 6 0.0000 0.0000 0.0000 -1.3360 0.0000 13.8482
#
#
#
# Elastic Compliance Matrix: (Units=1/GPa)
#
#
# Indices 1 2 3 4 5 6 
#
# 1 0.008760 -0.000024 -0.001510 0.000000 0.004063 0.000000
# 2 -0.000024 0.018556 0.000045 0.000000 -0.000096 0.000000
# 3 -0.001510 0.000045 0.010914 0.000000 0.005993 0.000000
# 4 0.000000 0.000000 0.000000 0.209088 0.000000 0.020171
# 5 0.004063 -0.000096 0.005993 0.000000 0.028086 0.000000
# 6 0.000000 0.000000 0.000000 0.020171 0.000000 0.074158
#
#
# Mechanical properties :
#
#
# Convention : Reuss Voigt Hill
#
# Bulk Modulus (GPa) = 28.36670 40.18974 34.27822
# Shear Modulus (GPa) = 13.72535 30.53932 22.13233
#
# Velocity S-wave (km/s) = 2.40347 3.58514 3.05204
# Velocity P-wave (km/s) = 4.43182 5.83545 5.18139
#
# Compressibility (1/GPa) = 0.03525261
#
# Stress axis : x y z
#
# Youngs Moduli (GPa) = 114.15828 53.89106 91.62608
#
# Poissons Ratio (x) = 0.00131 0.13832
# Poissons Ratio (y) = 0.00278 -0.00417
# Poissons Ratio (z) = 0.17234 -0.00245
#
# Static dielectric constant tensor:
#      x y z
#    x 1.906640 0.000000 -0.003040 
#    y 0.000000 1.903920 0.000000 
#    z -0.003040 0.000000 1.846340 
# 
# From -- ./inp_files/146224.got.cif
#   From: 2010.05.17/outbox.cif.g08.bks.cpg/sg12_74_cif.got.tgz:146224.got - 2010.06.03 13:09:07.
