data_PCOD9186196
_publ_section_title
;
Structure prediction by ZEFSAII (Michael W. Deem and Ramdas Pophale) SiO2 
 PCOD9186196
Probable space group: C 2/M
;
_chemical_formula_sum "Si O2"
_cell_formula_units_Z 48
_cell_length_a 24.184924
_cell_length_b 16.697492
_cell_length_c 19.265173
_cell_angle_alpha 90.000000
_cell_angle_beta 17.333223
_cell_angle_gamma 90.000000
_cell_volume 2317.826111
_symmetry_space_group_name_H-M "C 2/M"
_symmetry_group_IT_number 12
_symmetry_cell_setting 'monoclinic'
loop_
_space_group_symop_operation_xyz
x,y,z
-x,y,-z
-x,-y,-z
x,-y,z
1/2+x,1/2+y,z
1/2-x,1/2+y,-z
1/2-x,1/2-y,-z
1/2+x,1/2-y,z
loop_
_atom_site_type_symbol
_atom_site_label
_atom_site_fract_x
_atom_site_fract_y
_atom_site_fract_z
Si Si1 0.500600 0.847337 0.876405
Si Si2 0.867180 0.090630 0.357218
Si Si3 0.715718 0.254678 0.385198
Si Si4 0.412325 0.739063 0.860607
Si Si5 0.162860 0.912224 0.361539
Si Si6 0.203728 0.913136 0.723276
O O1 0.681461 0.887673 0.624246
O O2 0.581116 0.779713 0.831501
O O3 0.388697 0.801305 0.950962
O O4 0.361359 0.903372 0.085216
O O5 0.819001 0.093752 0.333028
O O6 0.034288 0.151716 0.174041
O O7 0.921242 0.000000 0.309212
O O8 0.597389 0.240936 0.596198
O O9 0.644079 0.333766 0.431840
O O10 0.706998 0.169735 0.357361
O O11 0.250000 0.750000 0.000000
O O12 0.000000 0.910371 0.500000
O O13 0.155512 0.000000 0.405698
O O14 0.294282 0.000000 0.629486
O O15 0.000000 0.915268 0.000000
#
# Coordination Sequence:
#
# PCOD9186196 Si02
#       6
#     8   8   8   8   8   8
#     4  11  20  39  61  88 118 158 209 250 301 359
#     4  10  20  37  61  88 117 154 207 256 298 356
#     4  11  21  39  62  87 120 158 206 250 295 363
#     4  11  22  38  58  87 123 161 198 246 312 367
#     4  11  25  41  60  91 127 163 200 249 316 373
#     4  10  19  34  59  91 116 144 196 253 296 346
#
# _framework density 20.709060999999998
#
# number of rings (size 3 to 8) (size 9 to 14) (size 15 to 20)
#    0.000    1.333    3.333    4.000    0.000    4.000 
#    0.000    2.500    0.000    0.500    0.000    0.000 
#    0.000    0.000    0.000    0.000    0.000    0.000 
#
# Total GULP energy -133885.869422 kJ/mol
# GULP energy per Si atom -5578.577893 kJ/mol
# Density = 2.066193 g / cm^3
# Si number density = 20.709061 Si / 1000 Ang^3
#
#
#
# Elastic Constant Matrix: (Units=GPa)
#
#
# Indices 1 2 3 4 5 6 
#
# 1 50.7066 21.6192 -0.7371 0.0066 -3.3242 0.0000
# 2 21.6192 185.4246 0.3155 -0.0084 -5.5989 0.0055
# 3 -0.7371 0.3155 35.4910 -0.0392 4.9613 0.0080
# 4 0.0066 -0.0084 -0.0392 3.2059 0.0117 4.7427
# 5 -3.3242 -5.5989 4.9613 0.0117 40.4752 -0.0013
# 6 0.0000 0.0055 0.0080 4.7427 -0.0013 30.3598
#
#
#
# Elastic Compliance Matrix: (Units=1/GPa)
#
#
# Indices 1 2 3 4 5 6 
#
# 1 0.020832 -0.002389 0.000265 -0.000067 0.001348 0.000011
# 2 -0.002389 0.005690 -0.000186 0.000022 0.000614 -0.000004
# 3 0.000265 -0.000186 0.028676 0.000486 -0.003519 -0.000084
# 4 -0.000067 0.000022 0.000486 0.405677 -0.000182 -0.063373
# 5 0.001348 0.000614 -0.003519 -0.000182 0.025334 0.000030
# 6 0.000011 -0.000004 -0.000084 -0.063373 0.000030 0.042838
#
#
# Mechanical properties :
#
#
# Convention : Reuss Voigt Hill
#
# Bulk Modulus (GPa) = 19.77077 34.89082 27.33079
# Shear Modulus (GPa) = 9.08224 31.50317 20.29271
#
# Velocity S-wave (km/s) = 2.09646 3.90452 3.13372
# Velocity P-wave (km/s) = 3.92783 6.10014 5.13028
#
# Compressibility (1/GPa) = 0.05057972
#
# Stress axis : x y z
#
# Youngs Moduli (GPa) = 48.00327 175.73542 34.87261
#
# Poissons Ratio (x) = 0.41976 -0.00926
# Poissons Ratio (y) = 0.11466 0.00649
# Poissons Ratio (z) = -0.01274 0.03268
#
# Static dielectric constant tensor:
#      x y z
#    x 1.777460 -0.000030 -0.057840 
#    y -0.000030 1.827170 0.000050 
#    z -0.057840 0.000050 1.913080 
# 
# From -- ./inp_files/111496.got.cif
#   From: 2010.05.17/outbox.cif.g08.bks.cpg/sg12_56_cif.got.tgz:111496.got - 2010.06.03 13:09:07.
