data_PCOD9186555
_publ_section_title
;
Structure prediction by ZEFSAII (Michael W. Deem and Ramdas Pophale) SiO2 
 PCOD9186555
Probable space group: C 2/M
;
_chemical_formula_sum "Si O2"
_cell_formula_units_Z 60
_cell_length_a 15.137519
_cell_length_b 16.060390
_cell_length_c 22.268816
_cell_angle_alpha 90.000000
_cell_angle_beta 36.972497
_cell_angle_gamma 90.000000
_cell_volume 3256.073158
_symmetry_space_group_name_H-M "C 2/M"
_symmetry_group_IT_number 12
_symmetry_cell_setting 'monoclinic'
loop_
_space_group_symop_operation_xyz
x,y,z
-x,y,-z
-x,-y,-z
x,-y,z
1/2+x,1/2+y,z
1/2-x,1/2+y,-z
1/2-x,1/2-y,-z
1/2+x,1/2-y,z
loop_
_atom_site_type_symbol
_atom_site_label
_atom_site_fract_x
_atom_site_fract_y
_atom_site_fract_z
Si Si1 0.804805 0.000000 0.792399
Si Si2 0.342877 0.144981 0.061332
Si Si3 0.979170 0.400170 0.731871
Si Si4 0.488586 0.406971 0.933826
Si Si5 0.811511 0.900819 0.551795
Si Si6 0.155701 0.402057 0.070038
Si Si7 0.378613 0.358625 0.653208
Si Si8 0.738738 0.713510 0.800788
O O1 0.774027 0.073970 0.859234
O O2 0.826923 0.072182 0.728411
O O3 0.307855 0.228475 0.117214
O O4 0.500000 0.112687 0.000000
O O5 0.358470 0.152740 0.981630
O O6 0.958144 0.500000 0.738106
O O7 0.951572 0.379629 0.817097
O O8 0.858654 0.351985 0.759098
O O9 0.145754 0.379193 0.623822
O O10 0.534696 0.500000 0.889323
O O11 0.598183 0.335969 0.852892
O O12 0.500000 0.405114 0.000000
O O13 0.321063 0.395681 0.005186
O O14 0.830444 0.882347 0.612186
O O15 0.943866 0.856762 0.445009
O O16 0.832005 0.000000 0.532116
O O17 0.127304 0.500000 0.070015
O O18 0.308576 0.273091 0.713280
#
# Coordination Sequence:
#
# PCOD9186555 Si02
#       8
#     4   8   8   8   8   8   8   8
#     4  10  19  35  54  76 117 149 182 214 280 351
#     4  11  24  34  52  83 122 155 182 223 285 347
#     4  10  22  36  58  80 109 144 196 237 277 325
#     4  10  19  38  61  77 111 155 200 237 270 326
#     4  10  19  37  62  87 105 144 194 232 288 347
#     4  10  21  36  57  81 113 155 191 233 272 336
#     4  10  20  35  60  83 114 146 179 240 287 344
#     4  11  23  36  52  88 114 149 188 231 289 335
#
# _framework density 18.427104
#
# number of rings (size 3 to 8) (size 9 to 14) (size 15 to 20)
#    0.000    1.733    3.333    1.400    3.733    2.133 
#    0.000    0.000    0.000    0.000    0.000    3.733 
#    0.000    0.000    0.000    0.000    0.000    0.000 
#
# Total GULP energy -167027.924965 kJ/mol
# GULP energy per Si atom -5567.597499 kJ/mol
# Density = 1.838516 g / cm^3
# Si number density = 18.427104 Si / 1000 Ang^3
#
#
#
# Elastic Constant Matrix: (Units=GPa)
#
#
# Indices 1 2 3 4 5 6 
#
# 1 28.8393 -2.3027 -6.7908 -0.0001 -7.1051 0.0001
# 2 -2.3027 68.2012 32.2115 -0.0002 -12.7278 0.0001
# 3 -6.7908 32.2115 45.5894 -0.0005 -9.4188 0.0003
# 4 -0.0001 -0.0002 -0.0005 16.7731 0.0002 -4.1672
# 5 -7.1051 -12.7278 -9.4188 0.0002 22.9404 -0.0001
# 6 0.0001 0.0001 0.0003 -4.1672 -0.0001 14.6637
#
#
#
# Elastic Compliance Matrix: (Units=1/GPa)
#
#
# Indices 1 2 3 4 5 6 
#
# 1 0.041017 -0.000032 0.009565 0.000000 0.016613 0.000000
# 2 -0.000032 0.022891 -0.014813 0.000000 0.006608 0.000000
# 3 0.009565 -0.014813 0.035775 0.000001 0.009432 0.000000
# 4 0.000000 0.000000 0.000001 0.064148 0.000000 0.018230
# 5 0.016613 0.006608 0.009432 0.000000 0.056276 0.000000
# 6 0.000000 0.000000 0.000000 0.018230 0.000000 0.073376
#
#
# Mechanical properties :
#
#
# Convention : Reuss Voigt Hill
#
# Bulk Modulus (GPa) = 11.22059 20.98512 16.10286
# Shear Modulus (GPa) = 14.98116 18.84291 16.91204
#
# Velocity S-wave (km/s) = 2.85440 3.20123 3.03278
# Velocity P-wave (km/s) = 4.11897 5.00766 4.58490
#
# Compressibility (1/GPa) = 0.08912184
#
# Stress axis : x y z
#
# Youngs Moduli (GPa) = 24.37984 43.68520 27.95266
#
# Poissons Ratio (x) = 0.00141 -0.26736
# Poissons Ratio (y) = 0.00079 0.41407
# Poissons Ratio (z) = -0.23319 0.64712
#
# Static dielectric constant tensor:
#      x y z
#    x 1.628300 0.000000 -0.023850 
#    y 0.000000 1.648060 0.000000 
#    z -0.023850 0.000000 1.649280 
# 
# From -- ./inp_files/311008.got.cif
#   From: 2010.05.17/outbox.cif.g08.bks.cpg/sg12_156_cif.got.tgz:311008.got - 2010.06.03 13:09:07.
