data_PCOD9186660
_publ_section_title
;
Structure prediction by ZEFSAII (Michael W. Deem and Ramdas Pophale) SiO2 
 PCOD9186660
Probable space group: C 2/M
;
_chemical_formula_sum "Si O2"
_cell_formula_units_Z 64
_cell_length_a 22.266879
_cell_length_b 26.573750
_cell_length_c 5.276488
_cell_angle_alpha 90.000000
_cell_angle_beta 68.141799
_cell_angle_gamma 90.000000
_cell_volume 2897.715326
_symmetry_space_group_name_H-M "C 2/M"
_symmetry_group_IT_number 12
_symmetry_cell_setting 'monoclinic'
loop_
_space_group_symop_operation_xyz
x,y,z
-x,y,-z
-x,-y,-z
x,-y,z
1/2+x,1/2+y,z
1/2-x,1/2+y,-z
1/2-x,1/2-y,-z
1/2+x,1/2-y,z
loop_
_atom_site_type_symbol
_atom_site_label
_atom_site_fract_x
_atom_site_fract_y
_atom_site_fract_z
Si Si1 0.091868 0.119758 0.999702
Si Si2 0.119322 0.381914 0.354760
Si Si3 0.238169 0.945974 0.239770
Si Si4 0.253837 0.609326 0.270461
Si Si5 0.427262 0.734174 0.073865
Si Si6 0.576924 0.059884 0.912282
Si Si7 0.074049 0.725434 0.421249
Si Si8 0.917245 0.057428 0.487383
O O1 0.170966 0.124563 0.878382
O O2 0.067758 0.176468 0.015471
O O3 0.070894 0.088556 0.785686
O O4 0.067841 0.089230 0.283343
O O5 0.192207 0.359393 0.272034
O O6 0.108144 0.421127 0.600454
O O7 0.074370 0.333658 0.470412
O O8 0.104191 0.408846 0.110829
O O9 0.256912 0.905349 0.420643
O O10 0.160679 0.947327 0.379984
O O11 0.264639 0.000000 0.276595
O O12 0.252955 0.936017 0.923378
O O13 0.395793 0.743204 0.396065
O O14 0.500000 0.755280 0.000000
O O15 0.393831 0.763905 0.899759
O O16 0.585576 0.000000 0.938013
O O17 0.500000 0.068983 0.000000
O O18 0.000000 0.743751 0.500000
O O19 0.942075 0.000000 0.438904
#
# Coordination Sequence:
#
# PCOD9186660 Si02
#       8
#     8   8   8   8   8   8   8   8
#     4  10  19  35  55  79 114 145 177 227 271 312
#     4  12  23  38  58  82 113 146 181 226 275 326
#     4   9  17  30  47  70 104 144 184 220 249 292
#     4  10  21  32  49  78 109 142 178 215 267 328
#     4  10  21  38  61  84 103 134 184 232 276 323
#     4  11  24  40  58  82 113 150 188 226 273 322
#     4  10  21  38  59  81 102 132 181 233 277 323
#     4   9  17  30  52  79 108 147 183 209 254 318
#
# _framework density 22.086365000000001
#
# number of rings (size 3 to 8) (size 9 to 14) (size 15 to 20)
#    0.000    1.875    0.000    4.500    0.000    8.000 
#    0.000    1.250    0.000    2.250    0.000    0.000 
#    0.000    0.000    0.000    0.000    0.000    0.000 
#
# Total GULP energy -178504.394498 kJ/mol
# GULP energy per Si atom -5578.262328 kJ/mol
# Density = 2.203610 g / cm^3
# Si number density = 22.086365 Si / 1000 Ang^3
#
#
#
# Elastic Constant Matrix: (Units=GPa)
#
#
# Indices 1 2 3 4 5 6 
#
# 1 93.4636 -3.3648 21.8162 0.0000 10.0133 0.0000
# 2 -3.3648 78.9309 25.7414 0.0000 21.2467 0.0000
# 3 21.8162 25.7414 132.8150 0.0000 35.9840 0.0000
# 4 0.0000 0.0000 0.0000 13.6272 0.0000 44.6433
# 5 10.0133 21.2467 35.9840 0.0000 37.0499 0.0000
# 6 0.0000 0.0000 0.0000 44.6433 0.0000 -94.1736
#
#
#
# Elastic Compliance Matrix: (Units=1/GPa)
#
#
# Indices 1 2 3 4 5 6 
#
# 1 0.011385 0.001668 -0.001494 0.000000 -0.002583 0.000000
# 2 0.001668 0.015286 -0.001004 0.000000 -0.008242 0.000000
# 3 -0.001494 -0.001004 0.010455 0.000000 -0.009175 0.000000
# 4 0.000000 0.000000 0.000000 0.028743 0.000000 0.013626
# 5 -0.002583 -0.008242 -0.009175 0.000000 0.041326 0.000000
# 6 0.000000 0.000000 0.000000 0.013626 0.000000 -0.004159
#
#
# Mechanical properties :
#
#
# Convention : Reuss Voigt Hill
#
# Bulk Modulus (GPa) = 28.19532 43.73278 35.96405
# Shear Modulus (GPa) = 42.91202 8.70182 25.80692
#
# Velocity S-wave (km/s) = 4.41264 1.98707 3.42198
# Velocity P-wave (km/s) = 6.22539 5.01083 5.65084
#
# Compressibility (1/GPa) = 0.03546687
#
# Stress axis : x y z
#
# Youngs Moduli (GPa) = 87.83725 65.41808 95.64896
#
# Poissons Ratio (x) = -0.10909 0.14286
# Poissons Ratio (y) = -0.14648 0.09599
# Poissons Ratio (z) = 0.13119 0.06565
#
# Static dielectric constant tensor:
#      x y z
#    x 1.884580 0.000000 -0.032120 
#    y 0.000000 1.753190 0.000000 
#    z -0.032120 0.000000 1.884070 
# 
# From -- ./inp_files/26064.got.cif
#   From: 2010.05.17/outbox.cif.g08.bks.cpg/sg12_14_cif.got.tgz:26064.got - 2010.06.03 13:09:07.
