data_PCOD9186465
_publ_section_title
;
Structure prediction by ZEFSAII (Michael W. Deem and Ramdas Pophale) SiO2 
 PCOD9186465
Probable space group: C 2/M
;
_chemical_formula_sum "Si O2"
_cell_formula_units_Z 64
_cell_length_a 23.427238
_cell_length_b 7.692182
_cell_length_c 25.177066
_cell_angle_alpha 90.000000
_cell_angle_beta 45.827997
_cell_angle_gamma 90.000000
_cell_volume 3254.220926
_symmetry_space_group_name_H-M "C 2/M"
_symmetry_group_IT_number 12
_symmetry_cell_setting 'monoclinic'
loop_
_space_group_symop_operation_xyz
x,y,z
-x,y,-z
-x,-y,-z
x,-y,z
1/2+x,1/2+y,z
1/2-x,1/2+y,-z
1/2-x,1/2-y,-z
1/2+x,1/2-y,z
loop_
_atom_site_type_symbol
_atom_site_label
_atom_site_fract_x
_atom_site_fract_y
_atom_site_fract_z
Si Si1 0.841925 0.709156 0.455961
Si Si2 0.097769 0.711041 0.288916
Si Si3 0.018726 0.701153 0.141510
Si Si4 0.307739 0.299440 0.009393
Si Si5 0.728804 0.713701 0.850682
Si Si6 0.470340 0.211621 0.286570
Si Si7 0.438705 0.289445 0.086088
Si Si8 0.528881 0.212169 0.540638
O O1 0.846294 0.500000 0.455034
O O2 0.750000 0.750000 0.500000
O O3 0.897488 0.771667 0.370831
O O4 0.888752 0.765910 0.480760
O O5 0.099214 0.500000 0.290292
O O6 0.187925 0.773131 0.227648
O O7 0.050940 0.756906 0.265598
O O8 0.042437 0.766013 0.373523
O O9 0.035721 0.500000 0.141799
O O10 0.979425 0.774890 0.220499
O O11 0.962586 0.719620 0.127530
O O12 0.102434 0.776456 0.068082
O O13 0.295633 0.500000 0.027207
O O14 0.284947 0.217888 0.080584
O O15 0.250000 0.250000 0.000000
O O16 0.730700 0.500000 0.848775
O O17 0.650139 0.763924 0.870358
O O18 0.463638 0.000000 0.290096
O O19 0.443263 0.500000 0.084847
O O20 0.500000 0.233596 0.000000
O O21 0.500000 0.267756 0.500000
O O22 0.532586 0.000000 0.536288
#
# Coordination Sequence:
#
# PCOD9186465 Si02
#       8
#     8   8   8   8   8   8   8   8
#     4   9  17  32  53  76 104 137 168 207 259 314
#     4   8  13  25  46  68  90 125 165 197 236 296
#     4  11  21  34  52  73  96 130 175 213 246 300
#     4  11  21  34  51  74 100 128 164 210 257 303
#     4   9  17  30  48  66  92 130 166 197 244 305
#     4   8  16  31  50  71  99 132 166 203 251 304
#     4  10  19  35  51  67  98 136 164 201 259 310
#     4   8  14  26  46  73 103 127 158 209 255 289
#
# _framework density 19.666765000000002
#
# number of rings (size 3 to 8) (size 9 to 14) (size 15 to 20)
#    0.000    2.750    1.250    3.000    0.000    2.250 
#    2.250    1.250    0.000    0.375    0.000    0.875 
#    0.000    0.000    0.000    0.000    0.000    0.000 
#
# Total GULP energy -178241.864672 kJ/mol
# GULP energy per Si atom -5570.058271 kJ/mol
# Density = 1.962200 g / cm^3
# Si number density = 19.666765 Si / 1000 Ang^3
#
#
#
# Elastic Constant Matrix: (Units=GPa)
#
#
# Indices 1 2 3 4 5 6 
#
# 1 159.2032 -7.1464 82.4852 -0.0006 -0.9368 -0.0019
# 2 -7.1464 22.5216 -10.1056 0.0012 1.0747 -0.0032
# 3 82.4852 -10.1056 97.2630 -0.0016 2.7675 -0.0040
# 4 -0.0006 0.0012 -0.0016 8.1032 0.0011 -4.8681
# 5 -0.9368 1.0747 2.7675 0.0011 44.8446 0.0006
# 6 -0.0019 -0.0032 -0.0040 -4.8681 0.0006 17.4841
#
#
#
# Elastic Compliance Matrix: (Units=1/GPa)
#
#
# Indices 1 2 3 4 5 6 
#
# 1 0.011248 -0.000800 -0.009647 -0.000002 0.000849 -0.000002
# 2 -0.000800 0.046720 0.005575 0.000000 -0.001480 0.000010
# 3 -0.009647 0.005575 0.019085 0.000006 -0.001513 0.000006
# 4 -0.000002 0.000000 0.000006 0.148196 -0.000005 0.041262
# 5 0.000849 -0.001480 -0.001513 -0.000005 0.022446 -0.000003
# 6 -0.000002 0.000010 0.000006 0.041262 -0.000003 0.068684
#
#
# Mechanical properties :
#
#
# Convention : Reuss Voigt Hill
#
# Bulk Modulus (GPa) = 14.85677 45.49490 30.17584
# Shear Modulus (GPa) = 14.34478 28.33669 21.34074
#
# Velocity S-wave (km/s) = 2.70366 3.79996 3.29768
# Velocity P-wave (km/s) = 4.16137 6.51429 5.46594
#
# Compressibility (1/GPa) = 0.06730937
#
# Stress axis : x y z
#
# Youngs Moduli (GPa) = 88.90125 21.40409 52.39821
#
# Poissons Ratio (x) = 0.01712 0.50547
# Poissons Ratio (y) = 0.07110 -0.29210
# Poissons Ratio (z) = 0.85760 -0.11932
#
# Static dielectric constant tensor:
#      x y z
#    x 1.647780 0.000000 0.023100 
#    y 0.000000 1.742150 0.000000 
#    z 0.023100 0.000000 1.685720 
# 
# From -- ./inp_files/345937.got.cif
#   From: 2010.05.17/outbox.cif.g08.bks.cpg/sg12_173_cif.got.tgz:345937.got - 2010.06.03 13:09:07.
