data_PCOD9186739
_publ_section_title
;
Structure prediction by ZEFSAII (Michael W. Deem and Ramdas Pophale) SiO2 
 PCOD9186739
Probable space group: C 2/M
;
_chemical_formula_sum "Si O2"
_cell_formula_units_Z 48
_cell_length_a 17.885612
_cell_length_b 27.961868
_cell_length_c 11.580693
_cell_angle_alpha 90.000000
_cell_angle_beta 28.013394
_cell_angle_gamma 90.000000
_cell_volume 2720.224279
_symmetry_space_group_name_H-M "C 2/M"
_symmetry_group_IT_number 12
_symmetry_cell_setting 'monoclinic'
loop_
_space_group_symop_operation_xyz
x,y,z
-x,y,-z
-x,-y,-z
x,-y,z
1/2+x,1/2+y,z
1/2-x,1/2+y,-z
1/2-x,1/2-y,-z
1/2+x,1/2-y,z
loop_
_atom_site_type_symbol
_atom_site_label
_atom_site_fract_x
_atom_site_fract_y
_atom_site_fract_z
Si Si1 0.680026 0.775352 0.265610
Si Si2 0.788943 0.297953 0.512872
Si Si3 0.180632 0.134001 0.469217
Si Si4 0.643362 0.324009 0.181729
Si Si5 0.582392 0.140340 0.061111
Si Si6 0.121746 0.553219 0.726939
O O1 0.500000 0.795176 0.500000
O O2 0.734919 0.785910 0.320516
O O3 0.661373 0.720138 0.248654
O O4 0.799031 0.800492 0.015627
O O5 0.750000 0.250000 0.500000
O O6 0.688993 0.337821 0.579204
O O7 0.971125 0.314932 0.245286
O O8 0.215464 0.078488 0.451217
O O9 0.025692 0.151044 0.610887
O O10 0.333539 0.146096 0.178933
O O11 0.771824 0.362160 0.049573
O O12 0.470052 0.093684 0.221847
O O13 0.144882 0.500000 0.646894
O O14 0.000000 0.548638 0.000000
#
# Coordination Sequence:
#
# PCOD9186739 Si02
#       6
#     8   8   8   8   8   8
#     4  11  22  36  50  71 107 153 187 220 250 316
#     4  11  21  34  52  75 103 146 189 219 262 308
#     4  10  21  35  53  83 109 141 176 226 274 320
#     4  11  22  36  52  74 111 148 181 221 271 306
#     4  10  19  35  56  76 112 143 176 223 270 325
#     4   8  16  33  57  82 107 138 174 220 277 333
#
# _framework density 17.645603999999999
#
# number of rings (size 3 to 8) (size 9 to 14) (size 15 to 20)
#    0.000    1.833    1.667    5.000    2.333    0.667 
#    0.000    0.833    0.000    4.000    0.000   18.667 
#    0.000    0.000    0.000    0.000    0.000    0.000 
#
# Total GULP energy -133652.474079 kJ/mol
# GULP energy per Si atom -5568.853087 kJ/mol
# Density = 1.760544 g / cm^3
# Si number density = 17.645604 Si / 1000 Ang^3
#
#
#
# Elastic Constant Matrix: (Units=GPa)
#
#
# Indices 1 2 3 4 5 6 
#
# 1 117.6919 49.6501 27.1835 0.0001 -3.1546 -0.0002
# 2 49.6501 114.2660 47.9200 -0.0001 -5.9165 0.0001
# 3 27.1835 47.9200 54.3744 0.0004 -15.9945 -0.0001
# 4 0.0001 -0.0001 0.0004 13.3039 0.0000 0.1470
# 5 -3.1546 -5.9165 -15.9945 0.0000 41.4319 0.0001
# 6 -0.0002 0.0001 -0.0001 0.1470 0.0001 13.0631
#
#
#
# Elastic Compliance Matrix: (Units=1/GPa)
#
#
# Indices 1 2 3 4 5 6 
#
# 1 0.010545 -0.003697 -0.002180 0.000000 -0.000567 0.000000
# 2 -0.003697 0.015538 -0.012720 0.000000 -0.002973 0.000000
# 3 -0.002180 -0.012720 0.033965 -0.000001 0.011130 0.000000
# 4 0.000000 0.000000 -0.000001 0.075175 0.000000 -0.000846
# 5 -0.000567 -0.002973 0.011130 0.000000 0.027965 0.000000
# 6 0.000000 0.000000 0.000000 -0.000846 0.000000 0.076561
#
#
# Mechanical properties :
#
#
# Convention : Reuss Voigt Hill
#
# Bulk Modulus (GPa) = 43.75732 59.53770 51.64751
# Shear Modulus (GPa) = 17.57082 24.33169 20.95125
#
# Velocity S-wave (km/s) = 3.15899 3.71740 3.44951
# Velocity P-wave (km/s) = 6.17716 7.22769 6.72297
#
# Compressibility (1/GPa) = 0.02285332
#
# Stress axis : x y z
#
# Youngs Moduli (GPa) = 94.83417 64.35645 29.44172
#
# Poissons Ratio (x) = 0.23791 0.06420
# Poissons Ratio (y) = 0.35058 0.37451
# Poissons Ratio (z) = 0.20678 0.81864
#
# Static dielectric constant tensor:
#      x y z
#    x 1.651470 0.000000 -0.012380 
#    y 0.000000 1.632200 0.000000 
#    z -0.012380 0.000000 1.641080 
# 
# From -- ./inp_files/160688.got.cif
#   From: 2010.05.17/outbox.cif.g08.bks.cpg/sg12_81_cif.got.tgz:160688.got - 2010.06.03 13:09:07.
