data_PCOD9186587
_publ_section_title
;
Structure prediction by ZEFSAII (Michael W. Deem and Ramdas Pophale) SiO2 
 PCOD9186587
Probable space group: C 2/M
;
_chemical_formula_sum "Si O2"
_cell_formula_units_Z 58
_cell_length_a 17.318589
_cell_length_b 14.771097
_cell_length_c 11.382920
_cell_angle_alpha 90.000000
_cell_angle_beta 84.018354
_cell_angle_gamma 90.000000
_cell_volume 2896.062220
_symmetry_space_group_name_H-M "C 2/M"
_symmetry_group_IT_number 12
_symmetry_cell_setting 'monoclinic'
loop_
_space_group_symop_operation_xyz
x,y,z
-x,y,-z
-x,-y,-z
x,-y,z
1/2+x,1/2+y,z
1/2-x,1/2+y,-z
1/2-x,1/2-y,-z
1/2+x,1/2-y,z
loop_
_atom_site_type_symbol
_atom_site_label
_atom_site_fract_x
_atom_site_fract_y
_atom_site_fract_z
Si Si1 0.410630 0.604003 0.172430
Si Si2 0.851441 0.602634 0.169258
Si Si3 0.000000 0.500000 0.500000
Si Si4 0.089701 0.261982 0.011620
Si Si5 0.440948 0.696629 0.733794
Si Si6 0.788817 0.847951 0.645518
Si Si7 0.694500 0.321194 0.610550
Si Si8 0.562256 0.826262 0.622470
O O1 0.414092 0.500000 0.137936
O O2 0.399181 0.669269 0.063101
O O3 0.490280 0.635631 0.223012
O O4 0.343834 0.622528 0.279219
O O5 0.870324 0.500000 0.137617
O O6 0.853428 0.664731 0.054209
O O7 0.772095 0.607569 0.256292
O O8 0.914790 0.645118 0.248027
O O9 0.053396 0.418402 0.552226
O O10 0.097828 0.245317 0.147902
O O11 0.000000 0.290104 0.000000
O O12 0.375803 0.641800 0.676033
O O13 0.482227 0.770622 0.644369
O O14 0.763891 0.741521 0.646924
O O15 0.782539 0.875355 0.509822
O O16 0.629202 0.246422 0.580996
#
# Coordination Sequence:
#
# PCOD9186587 Si02
#       8
#     8   8   2   8   8   8   8   8
#     4  10  20  37  63  90 116 150 202 242 287 345
#     4  11  21  38  57  83 113 155 196 232 293 359
#     4  12  20  28  60  90 118 144 196 266 286 320
#     4  10  19  39  61  83 114 159 193 241 296 332
#     4  10  21  37  60  87 117 151 197 244 288 344
#     4  10  20  36  61  81 115 155 192 231 292 359
#     4   9  19  39  59  80 115 163 187 228 303 351
#     4  10  19  35  54  85 116 150 195 239 290 345
#
# _framework density 20.027194000000001
#
# number of rings (size 3 to 8) (size 9 to 14) (size 15 to 20)
#    0.000    1.931    6.207    0.828    0.000    6.069 
#    1.241    0.690    1.517    0.000    0.000    0.000 
#    0.000    0.000    0.000    0.000    0.000    0.000 
#
# Total GULP energy -161556.868346 kJ/mol
# GULP energy per Si atom -5570.926495 kJ/mol
# Density = 1.998161 g / cm^3
# Si number density = 20.027194 Si / 1000 Ang^3
#
#
#
# Elastic Constant Matrix: (Units=GPa)
#
#
# Indices 1 2 3 4 5 6 
#
# 1 29.2749 3.4570 4.1751 0.0000 -8.9905 0.0000
# 2 3.4570 84.2050 12.1573 0.0000 -17.3652 0.0000
# 3 4.1751 12.1573 61.0068 0.0000 -24.4168 0.0000
# 4 0.0000 0.0000 0.0000 -2.2466 0.0000 2.5654
# 5 -8.9905 -17.3652 -24.4168 0.0000 29.1421 0.0000
# 6 0.0000 0.0000 0.0000 2.5654 0.0000 9.6895
#
#
#
# Elastic Compliance Matrix: (Units=1/GPa)
#
#
# Indices 1 2 3 4 5 6 
#
# 1 0.038221 0.001088 0.003229 0.000000 0.015145 0.000000
# 2 0.001088 0.013596 0.000892 0.000000 0.009185 0.000000
# 3 0.003229 0.000892 0.024982 0.000000 0.022459 0.000000
# 4 0.000000 0.000000 0.000000 -0.341783 0.000000 0.090492
# 5 0.015145 0.009185 0.022459 0.000000 0.063277 0.000000
# 6 0.000000 0.000000 0.000000 0.090492 0.000000 0.079246
#
#
# Mechanical properties :
#
#
# Convention : Reuss Voigt Hill
#
# Bulk Modulus (GPa) = 11.46557 23.78505 17.62531
# Shear Modulus (GPa) = -48.16646 17.63015 -15.26816
#
# Velocity S-wave (km/s) = -4.90945 2.97022 -2.76410
# Velocity P-wave (km/s) = 5.13805 4.86468 1.16928
#
# Compressibility (1/GPa) = 0.08721761
#
# Stress axis : x y z
#
# Youngs Moduli (GPa) = 26.16351 73.54842 40.02961
#
# Poissons Ratio (x) = -0.08002 -0.12926
# Poissons Ratio (y) = -0.02846 -0.03571
# Poissons Ratio (z) = -0.08448 -0.06562
#
# Static dielectric constant tensor:
#      x y z
#    x 1.731180 0.000000 -0.017650 
#    y 0.000000 1.677570 0.000000 
#    z -0.017650 0.000000 1.723810 
# 
# From -- ./inp_files/156037.got.cif
#   From: 2010.05.17/outbox.cif.g08.bks.cpg/sg12_79_cif.got.tgz:156037.got - 2010.06.03 13:09:07.
