data_PCOD9186327
_publ_section_title
;
Structure prediction by ZEFSAII (Michael W. Deem and Ramdas Pophale) SiO2 
 PCOD9186327
Probable space group: C 2/M
;
_chemical_formula_sum "Si O2"
_cell_formula_units_Z 58
_cell_length_a 17.894398
_cell_length_b 9.840157
_cell_length_c 17.763827
_cell_angle_alpha 90.000000
_cell_angle_beta 60.798535
_cell_angle_gamma 90.000000
_cell_volume 2730.391519
_symmetry_space_group_name_H-M "C 2/M"
_symmetry_group_IT_number 12
_symmetry_cell_setting 'monoclinic'
loop_
_space_group_symop_operation_xyz
x,y,z
-x,y,-z
-x,-y,-z
x,-y,z
1/2+x,1/2+y,z
1/2-x,1/2+y,-z
1/2-x,1/2-y,-z
1/2+x,1/2-y,z
loop_
_atom_site_type_symbol
_atom_site_label
_atom_site_fract_x
_atom_site_fract_y
_atom_site_fract_z
Si Si1 0.000000 0.000000 0.000000
Si Si2 0.687868 0.847684 0.794373
Si Si3 0.215797 0.149899 0.411524
Si Si4 0.621246 0.155967 0.556936
Si Si5 0.321104 0.847326 0.781395
Si Si6 0.826406 0.645808 0.955413
Si Si7 0.003801 0.767874 0.872648
Si Si8 0.478667 0.661086 0.708303
O O1 0.982924 0.884005 0.073192
O O2 0.738484 0.834819 0.690755
O O3 0.729189 0.725703 0.821449
O O4 0.587687 0.825556 0.830277
O O5 0.703544 0.000000 0.816252
O O6 0.293961 0.149843 0.432693
O O7 0.151642 0.269828 0.465640
O O8 0.174275 0.000000 0.435787
O O9 0.554668 0.254410 0.631611
O O10 0.590664 0.000000 0.562675
O O11 0.340653 0.865768 0.859385
O O12 0.392595 0.737646 0.722199
O O13 0.322850 0.000000 0.746114
O O14 0.800064 0.500000 0.999370
O O15 0.917314 0.692496 0.941335
O O16 0.750000 0.750000 0.000000
O O17 0.988652 0.822277 0.794446
O O18 0.478504 0.500000 0.691280
#
# Coordination Sequence:
#
# PCOD9186327 Si02
#       8
#     2   8   8   8   8   8   8   8
#     4  12  28  44  62 100 132 160 212 280 316 376
#     4  11  23  42  66  94 132 170 212 264 323 385
#     4   9  19  35  57  92 131 167 208 260 318 378
#     4  10  19  34  60  93 129 167 211 264 315 380
#     4  10  24  41  62  89 124 166 215 264 322 382
#     4  10  24  43  66  90 122 164 210 264 319 385
#     4  11  25  42  67  92 131 164 211 262 324 376
#     4  11  21  40  65  92 122 171 217 260 315 384
#
# _framework density 21.242374000000002
#
# number of rings (size 3 to 8) (size 9 to 14) (size 15 to 20)
#    0.000    1.655    2.069    1.655    3.862    3.310 
#    0.000    1.379    0.000    4.138    0.000    0.000 
#    0.000    0.000    0.000    0.000    0.000    0.000 
#
# Total GULP energy -161562.252629 kJ/mol
# GULP energy per Si atom -5571.112160 kJ/mol
# Density = 2.119403 g / cm^3
# Si number density = 21.242374 Si / 1000 Ang^3
#
#
#
# Elastic Constant Matrix: (Units=GPa)
#
#
# Indices 1 2 3 4 5 6 
#
# 1 58.0155 48.4904 18.1981 0.0000 -14.8672 0.0000
# 2 48.4904 209.5896 55.2979 0.0000 -27.7749 0.0000
# 3 18.1981 55.2979 75.3692 0.0000 -14.1182 0.0000
# 4 0.0000 0.0000 0.0000 26.3129 0.0000 -4.1504
# 5 -14.8672 -27.7749 -14.1182 0.0000 27.2389 0.0000
# 6 0.0000 0.0000 0.0000 -4.1504 0.0000 -3.9730
#
#
#
# Elastic Compliance Matrix: (Units=1/GPa)
#
#
# Indices 1 2 3 4 5 6 
#
# 1 0.022924 -0.003954 -0.001158 0.000000 0.007880 0.000000
# 2 -0.003954 0.007064 -0.003636 0.000000 0.003160 0.000000
# 3 -0.001158 -0.003636 0.017059 0.000000 0.004502 0.000000
# 4 0.000000 0.000000 0.000000 0.032628 0.000000 -0.034085
# 5 0.007880 0.003160 0.004502 0.000000 0.046569 0.000000
# 6 0.000000 0.000000 0.000000 -0.034085 0.000000 -0.216092
#
#
# Mechanical properties :
#
#
# Convention : Reuss Voigt Hill
#
# Bulk Modulus (GPa) = 33.84004 65.21636 49.52820
# Shear Modulus (GPa) = -79.99916 24.64828 -27.67544
#
# Velocity S-wave (km/s) = -6.14345 3.41007 -3.61340
# Velocity P-wave (km/s) = 5.86153 6.80239 2.44079
#
# Compressibility (1/GPa) = 0.02955079
#
# Stress axis : x y z
#
# Youngs Moduli (GPa) = 43.62214 141.55869 58.62066
#
# Poissons Ratio (x) = 0.55970 0.06789
# Poissons Ratio (y) = 0.17248 0.21316
# Poissons Ratio (z) = 0.05052 0.51475
#
# Static dielectric constant tensor:
#      x y z
#    x 1.778380 0.000000 0.013230 
#    y 0.000000 1.796200 0.000000 
#    z 0.013230 0.000000 1.777630 
# 
# From -- ./inp_files/314798.got.cif
#   From: 2010.05.17/outbox.cif.g08.bks.cpg/sg12_158_cif.got.tgz:314798.got - 2010.06.03 13:09:07.
