data_PCOD9186712
_publ_section_title
;
Structure prediction by ZEFSAII (Michael W. Deem and Ramdas Pophale) SiO2 
 PCOD9186712
Probable space group: C 2/M
;
_chemical_formula_sum "Si O2"
_cell_formula_units_Z 52
_cell_length_a 12.368345
_cell_length_b 22.083762
_cell_length_c 10.708674
_cell_angle_alpha 90.000000
_cell_angle_beta 100.313157
_cell_angle_gamma 90.000000
_cell_volume 2877.706961
_symmetry_space_group_name_H-M "C 2/M"
_symmetry_group_IT_number 12
_symmetry_cell_setting 'monoclinic'
loop_
_space_group_symop_operation_xyz
x,y,z
-x,y,-z
-x,-y,-z
x,-y,z
1/2+x,1/2+y,z
1/2-x,1/2+y,-z
1/2-x,1/2-y,-z
1/2+x,1/2-y,z
loop_
_atom_site_type_symbol
_atom_site_label
_atom_site_fract_x
_atom_site_fract_y
_atom_site_fract_z
Si Si1 0.153773 0.796922 0.601343
Si Si2 0.884916 0.291609 0.775593
Si Si3 0.159293 0.571236 0.835646
Si Si4 0.500000 0.133233 0.000000
Si Si5 0.928227 0.166590 0.682395
Si Si6 0.572791 0.163277 0.625967
Si Si7 0.592262 0.571659 0.115585
O O1 0.268999 0.809486 0.691038
O O2 0.140453 0.823985 0.459696
O O3 0.133967 0.723990 0.590627
O O4 0.053190 0.822152 0.663169
O O5 0.912743 0.323568 0.911163
O O6 0.891943 0.219013 0.771903
O O7 0.983940 0.312676 0.706954
O O8 0.145568 0.500000 0.804785
O O9 0.144990 0.613774 0.711126
O O10 0.283794 0.580603 0.908699
O O11 0.068485 0.592773 0.916619
O O12 0.917167 0.104608 0.753638
O O13 0.500000 0.136336 0.500000
O O14 0.575724 0.500000 0.128443
O O15 0.500000 0.594374 0.000000
#
# Coordination Sequence:
#
# PCOD9186712 Si02
#       7
#     8   8   8   4   8   8   8
#     4  10  19  35  58  85 114 151 175 224 288 335
#     4  10  20  33  55  85 115 144 178 228 284 330
#     4  10  22  40  59  78 109 153 189 231 279 327
#     4  10  23  38  56  86 113 144 190 236 274 332
#     4  10  20  35  57  85 111 147 187 221 280 341
#     4  10  19  35  55  85 114 140 183 229 278 338
#     4  10  23  40  59  82 111 150 192 233 275 324
#
# _framework density 18.069942999999999
#
# number of rings (size 3 to 8) (size 9 to 14) (size 15 to 20)
#    0.000    2.000    3.077    1.615    5.385    0.308 
#    0.000    4.615    0.000    0.923    0.000    0.000 
#    0.000    0.000    0.000    0.000    0.000    0.000 
#
# Total GULP energy -145021.310928 kJ/mol
# GULP energy per Si atom -5577.742728 kJ/mol
# Density = 1.802881 g / cm^3
# Si number density = 18.069943 Si / 1000 Ang^3
#
#
#
# Elastic Constant Matrix: (Units=GPa)
#
#
# Indices 1 2 3 4 5 6 
#
# 1 74.1556 26.6886 32.8954 0.0000 22.6299 0.0000
# 2 26.6886 62.6654 51.0953 0.0000 9.7433 0.0000
# 3 32.8954 51.0953 99.7672 0.0000 24.0147 0.0000
# 4 0.0000 0.0000 0.0000 29.8876 0.0000 0.1392
# 5 22.6299 9.7433 24.0147 0.0000 36.9071 0.0000
# 6 0.0000 0.0000 0.0000 0.1392 0.0000 15.8431
#
#
#
# Elastic Compliance Matrix: (Units=1/GPa)
#
#
# Indices 1 2 3 4 5 6 
#
# 1 0.018871 -0.005746 -0.001019 0.000000 -0.009391 0.000000
# 2 -0.005746 0.029307 -0.014348 0.000000 0.005122 0.000000
# 3 -0.001019 -0.014348 0.019737 0.000000 -0.008430 0.000000
# 4 0.000000 0.000000 0.000000 0.033460 0.000000 -0.000294
# 5 -0.009391 0.005122 -0.008430 0.000000 0.036986 0.000000
# 6 0.000000 0.000000 0.000000 -0.000294 0.000000 0.063122
#
#
# Mechanical properties :
#
#
# Convention : Reuss Voigt Hill
#
# Bulk Modulus (GPa) = 38.92700 50.88300 44.90500
# Shear Modulus (GPa) = 19.81989 24.92147 22.37068
#
# Velocity S-wave (km/s) = 3.31545 3.71774 3.52235
# Velocity P-wave (km/s) = 6.02042 6.83000 6.43795
#
# Compressibility (1/GPa) = 0.02568911
#
# Stress axis : x y z
#
# Youngs Moduli (GPa) = 52.99147 34.12098 50.66721
#
# Poissons Ratio (x) = 0.19606 0.05162
# Poissons Ratio (y) = 0.30450 0.72697
# Poissons Ratio (z) = 0.05399 0.48957
#
# Static dielectric constant tensor:
#      x y z
#    x 1.642470 0.000000 0.009090 
#    y 0.000000 1.613640 0.000000 
#    z 0.009090 0.000000 1.626910 
# 
# From -- ./inp_files/133353.got.cif
#   From: 2010.05.17/outbox.cif.g08.bks.cpg/sg12_67_cif.got.tgz:133353.got - 2010.06.03 13:09:07.
