data_PCOD9186969
_publ_section_title
;
Structure prediction by ZEFSAII (Michael W. Deem and Ramdas Pophale) SiO2 
 PCOD9186969
Probable space group: C 2/M
;
_chemical_formula_sum "Si O2"
_cell_formula_units_Z 48
_cell_length_a 19.166033
_cell_length_b 16.921593
_cell_length_c 19.539852
_cell_angle_alpha 90.000000
_cell_angle_beta 160.452475
_cell_angle_gamma 90.000000
_cell_volume 2120.342077
_symmetry_space_group_name_H-M "C 2/M"
_symmetry_group_IT_number 12
_symmetry_cell_setting 'monoclinic'
loop_
_space_group_symop_operation_xyz
x,y,z
-x,y,-z
-x,-y,-z
x,-y,z
1/2+x,1/2+y,z
1/2-x,1/2+y,-z
1/2-x,1/2-y,-z
1/2+x,1/2-y,z
loop_
_atom_site_type_symbol
_atom_site_label
_atom_site_fract_x
_atom_site_fract_y
_atom_site_fract_z
Si Si1 0.507812 0.185137 0.929773
Si Si2 0.271833 0.086758 0.054279
Si Si3 0.826236 0.852244 0.792596
Si Si4 0.289296 0.911758 0.619658
Si Si5 0.017932 0.652933 0.628860
Si Si6 0.071262 0.807496 0.765217
O O1 0.446147 0.276935 0.873154
O O2 0.333751 0.139037 0.727367
O O3 0.500000 0.157279 0.000000
O O4 0.731089 0.174051 0.100717
O O5 0.491650 0.085751 0.217513
O O6 0.341071 0.093777 0.196711
O O7 0.169903 0.000000 0.947765
O O8 0.155004 0.166058 0.918346
O O9 0.687526 0.881946 0.599652
O O10 0.661585 0.821705 0.697590
O O11 0.000000 0.897259 0.000000
O O12 0.115495 0.868105 0.416347
O O13 0.223701 0.000000 0.575540
O O14 0.986507 0.724280 0.655222
#
# Coordination Sequence:
#
# PCOD9186969 Si02
#       6
#     8   8   8   8   8   8
#     4  10  19  35  57  80 120 149 187 247 292 334
#     4  10  24  42  57  85 124 156 192 243 290 341
#     4  10  20  37  59  91 117 145 187 250 291 338
#     4  10  22  38  55  80 120 160 193 234 290 349
#     4  11  21  36  66  89 113 155 197 237 293 349
#     4  11  20  36  62  89 113 153 198 236 287 347
#
# _framework density 22.637854999999998
#
# number of rings (size 3 to 8) (size 9 to 14) (size 15 to 20)
#    0.000    1.667    5.000    1.000    0.000    3.667 
#    0.000    2.500    0.000    1.000    0.000    0.000 
#    0.000    0.000    0.000    0.000    0.000    0.000 
#
# Total GULP energy -133695.700436 kJ/mol
# GULP energy per Si atom -5570.654185 kJ/mol
# Density = 2.258633 g / cm^3
# Si number density = 22.637855 Si / 1000 Ang^3
#
#
#
# Elastic Constant Matrix: (Units=GPa)
#
#
# Indices 1 2 3 4 5 6 
#
# 1 82.8634 9.6019 26.3519 -0.0015 -30.2215 -0.0035
# 2 9.6019 57.8624 6.4196 0.0270 -8.9803 0.0197
# 3 26.3519 6.4196 110.7005 0.0250 -41.5545 0.0055
# 4 -0.0015 0.0270 0.0250 21.8345 -0.0034 -1.0389
# 5 -30.2215 -8.9803 -41.5545 -0.0034 40.4534 -0.0076
# 6 -0.0035 0.0197 0.0055 -1.0389 -0.0076 -0.2618
#
#
#
# Elastic Compliance Matrix: (Units=1/GPa)
#
#
# Indices 1 2 3 4 5 6 
#
# 1 0.016714 -0.000809 0.001120 -0.000023 0.013457 -0.000553
# 2 -0.000809 0.017975 0.000686 0.000031 0.004090 0.001132
# 3 0.001120 0.000686 0.014808 -0.000017 0.016200 -0.000048
# 4 -0.000023 0.000031 -0.000017 0.038526 -0.000054 -0.152867
# 5 0.013457 0.004090 0.016200 -0.000054 0.052321 -0.000825
# 6 -0.000553 0.001132 -0.000048 -0.152867 -0.000825 -3.212803
#
#
# Mechanical properties :
#
#
# Convention : Reuss Voigt Hill
#
# Bulk Modulus (GPa) = 19.42162 37.35257 28.38710
# Shear Modulus (GPa) = -1.63544 26.34209 12.35333
#
# Velocity S-wave (km/s) = -0.85088 3.41490 2.33854
# Velocity P-wave (km/s) = 2.76271 5.66433 4.45630
#
# Compressibility (1/GPa) = 0.05148900
#
# Stress axis : x y z
#
# Youngs Moduli (GPa) = 59.83173 55.63282 67.53041
#
# Poissons Ratio (x) = 0.04501 -0.07561
# Poissons Ratio (y) = 0.04841 -0.04630
# Poissons Ratio (z) = -0.06699 -0.03814
#
# Static dielectric constant tensor:
#      x y z
#    x 1.838220 0.000000 -0.034160 
#    y 0.000000 1.856810 -0.000020 
#    z -0.034160 -0.000020 1.918150 
# 
# From -- ./inp_files/279243.got.cif
#   From: 2010.05.17/outbox.cif.g08.bks.cpg/sg12_140_cif.got.tgz:279243.got - 2010.06.03 13:09:07.
