data_PCOD9186375
_publ_section_title
;
Structure prediction by ZEFSAII (Michael W. Deem and Ramdas Pophale) SiO2 
 PCOD9186375
Probable space group: C 2/M
;
_chemical_formula_sum "Si O2"
_cell_formula_units_Z 64
_cell_length_a 30.255656
_cell_length_b 8.657093
_cell_length_c 20.461360
_cell_angle_alpha 90.000000
_cell_angle_beta 33.173293
_cell_angle_gamma 90.000000
_cell_volume 2932.499274
_symmetry_space_group_name_H-M "C 2/M"
_symmetry_group_IT_number 12
_symmetry_cell_setting 'monoclinic'
loop_
_space_group_symop_operation_xyz
x,y,z
-x,y,-z
-x,-y,-z
x,-y,z
1/2+x,1/2+y,z
1/2-x,1/2+y,-z
1/2-x,1/2-y,-z
1/2+x,1/2-y,z
loop_
_atom_site_type_symbol
_atom_site_label
_atom_site_fract_x
_atom_site_fract_y
_atom_site_fract_z
Si Si1 0.066397 0.185932 0.971155
Si Si2 0.181969 0.184190 0.035623
Si Si3 0.753000 0.813588 0.291632
Si Si4 0.195091 0.684356 0.225449
Si Si5 0.955064 0.685793 0.213160
Si Si6 0.779383 0.315168 0.394712
Si Si7 0.493334 0.183815 0.713556
Si Si8 0.030229 0.816865 0.392692
O O1 0.155801 0.236240 0.840579
O O2 0.067185 0.000000 0.972190
O O3 0.000000 0.236547 0.000000
O O4 0.032878 0.246718 0.081093
O O5 0.097365 0.265804 0.154218
O O6 0.172371 0.000000 0.056964
O O7 0.250000 0.250000 0.000000
O O8 0.219951 0.209333 0.916532
O O9 0.699211 0.766562 0.296029
O O10 0.735345 0.748462 0.384978
O O11 0.750883 0.000000 0.297476
O O12 0.179344 0.500000 0.241794
O O13 0.124428 0.771281 0.275069
O O14 0.959643 0.500000 0.206092
O O15 0.873981 0.733522 0.275900
O O16 0.952275 0.734846 0.292420
O O17 0.774910 0.500000 0.400923
O O18 0.750000 0.250000 0.500000
O O19 0.511744 0.251110 0.619747
O O20 0.497276 0.000000 0.703692
O O21 0.000000 0.754633 0.500000
O O22 0.021234 0.000000 0.403301
#
# Coordination Sequence:
#
# PCOD9186375 Si02
#       8
#     8   8   8   8   8   8   8   8
#     4  10  19  34  61  92 122 157 193 235 292 353
#     4  11  21  36  61  93 125 159 195 241 295 354
#     4  10  21  39  61  90 123 156 196 241 291 353
#     4  10  22  39  62  89 121 159 196 238 295 359
#     4  10  23  40  60  88 122 157 198 245 295 353
#     4  11  24  42  62  86 117 157 203 252 300 351
#     4  11  23  40  62  89 120 159 200 242 299 360
#     4  11  25  43  62  86 116 152 201 256 302 353
#
# _framework density 21.824387999999999
#
# number of rings (size 3 to 8) (size 9 to 14) (size 15 to 20)
#    0.000    1.500    2.500    2.250    0.000    6.250 
#    0.000    3.750    0.000    0.000    0.000    0.000 
#    0.000    0.000    0.000    0.000    0.000    0.000 
#
# Total GULP energy -178915.868503 kJ/mol
# GULP energy per Si atom -5591.120891 kJ/mol
# Density = 2.177472 g / cm^3
# Si number density = 21.824388 Si / 1000 Ang^3
#
#
#
# Elastic Constant Matrix: (Units=GPa)
#
#
# Indices 1 2 3 4 5 6 
#
# 1 97.6508 16.3666 3.3820 -0.0035 39.6454 0.0021
# 2 16.3666 19.1112 4.5889 -0.0029 17.2201 0.0037
# 3 3.3820 4.5889 67.7032 -0.0044 33.2699 0.0039
# 4 -0.0035 -0.0029 -0.0044 25.0218 0.0033 13.5277
# 5 39.6454 17.2201 33.2699 0.0033 44.3635 -0.0022
# 6 0.0021 0.0037 0.0039 13.5277 -0.0022 22.6201
#
#
#
# Elastic Compliance Matrix: (Units=1/GPa)
#
#
# Indices 1 2 3 4 5 6 
#
# 1 0.022530 0.008659 0.015572 0.000025 -0.035173 -0.000025
# 2 0.008659 0.095870 0.024005 0.000058 -0.062953 -0.000062
# 3 0.015572 0.024005 0.037662 0.000041 -0.051478 -0.000042
# 4 0.000025 0.000058 0.000041 0.059061 -0.000082 -0.035321
# 5 -0.035173 -0.062953 -0.051478 -0.000082 0.117014 0.000083
# 6 -0.000025 -0.000062 -0.000042 -0.035321 0.000083 0.065332
#
#
# Mechanical properties :
#
#
# Convention : Reuss Voigt Hill
#
# Bulk Modulus (GPa) = 3.95986 25.90444 14.93215
# Shear Modulus (GPa) = 12.98111 29.07626 21.02869
#
# Velocity S-wave (km/s) = 2.44149 3.65401 3.10746
# Velocity P-wave (km/s) = 3.12510 5.44955 4.44206
#
# Compressibility (1/GPa) = 0.25253434
#
# Stress axis : x y z
#
# Youngs Moduli (GPa) = 44.38564 10.43080 26.55182
#
# Poissons Ratio (x) = -0.09032 -0.41346
# Poissons Ratio (y) = -0.38434 -0.63738
# Poissons Ratio (z) = -0.69117 -0.25039
#
# Static dielectric constant tensor:
#      x y z
#    x 1.802500 0.000000 0.017080 
#    y 0.000000 1.730480 0.000000 
#    z 0.017080 0.000000 1.827240 
# 
# From -- ./inp_files/295499.got.cif
#   From: 2010.05.17/outbox.cif.g08.bks.cpg/sg12_148_cif.got.tgz:295499.got - 2010.06.03 13:09:07.
