data_PCOD9186269
_publ_section_title
;
Structure prediction by ZEFSAII (Michael W. Deem and Ramdas Pophale) SiO2 
 PCOD9186269
Probable space group: C 2/M
;
_chemical_formula_sum "Si O2"
_cell_formula_units_Z 58
_cell_length_a 8.132717
_cell_length_b 16.992193
_cell_length_c 22.706189
_cell_angle_alpha 90.000000
_cell_angle_beta 59.254753
_cell_angle_gamma 90.000000
_cell_volume 2696.803866
_symmetry_space_group_name_H-M "C 2/M"
_symmetry_group_IT_number 12
_symmetry_cell_setting 'monoclinic'
loop_
_space_group_symop_operation_xyz
x,y,z
-x,y,-z
-x,-y,-z
x,-y,z
1/2+x,1/2+y,z
1/2-x,1/2+y,-z
1/2-x,1/2-y,-z
1/2+x,1/2-y,z
loop_
_atom_site_type_symbol
_atom_site_label
_atom_site_fract_x
_atom_site_fract_y
_atom_site_fract_z
Si Si1 0.685562 0.658724 0.508265
Si Si2 0.918126 0.166820 0.655086
Si Si3 0.834755 0.091719 0.797161
Si Si4 0.661075 0.349590 0.908824
Si Si5 0.994579 0.677650 0.068424
Si Si6 0.251264 0.087015 0.776970
Si Si7 0.050651 0.347830 0.637595
Si Si8 0.000000 0.000000 0.000000
O O1 0.500000 0.654349 0.500000
O O2 0.750000 0.750000 0.500000
O O3 0.603950 0.631961 0.586268
O O4 0.863085 0.622080 0.440261
O O5 0.876379 0.131050 0.726334
O O6 0.730281 0.154970 0.649480
O O7 0.965106 0.259713 0.648842
O O8 0.675072 0.137394 0.863614
O O9 0.032825 0.094453 0.796748
O O10 0.779781 0.000000 0.799505
O O11 0.535469 0.271520 0.926982
O O12 0.779684 0.355165 0.826332
O O13 0.546846 0.429585 0.942499
O O14 0.810551 0.341339 0.934188
O O15 0.000000 0.649334 0.000000
O O16 0.385645 0.102094 0.697126
O O17 0.292614 0.000000 0.791634
#
# Coordination Sequence:
#
# PCOD9186269 Si02
#       8
#     8   8   8   8   8   8   8   2
#     4   8  16  30  53  85 116 154 201 256 313 376
#     4  10  19  36  59  87 122 158 204 262 317 384
#     4  11  26  43  62  92 125 168 217 270 325 382
#     4  12  26  47  72 102 133 174 216 265 326 383
#     4  12  27  45  73  99 132 168 217 267 321 385
#     4  11  24  42  63  86 126 167 211 260 319 383
#     4  10  19  34  60  88 120 159 208 256 318 385
#     4  12  28  44  78 100 138 172 218 264 328 384
#
# _framework density 21.506941999999999
#
# number of rings (size 3 to 8) (size 9 to 14) (size 15 to 20)
#    0.000    1.379    1.379    3.724    2.897    3.034 
#    0.000    0.690    0.000    4.138    0.000    0.000 
#    0.000    0.000    0.000    0.000    0.000    0.000 
#
# Total GULP energy -161771.846475 kJ/mol
# GULP energy per Si atom -5578.339534 kJ/mol
# Density = 2.145799 g / cm^3
# Si number density = 21.506942 Si / 1000 Ang^3
#
#
#
# Elastic Constant Matrix: (Units=GPa)
#
#
# Indices 1 2 3 4 5 6 
#
# 1 43.5398 22.6449 13.3841 0.0000 -8.1897 0.0000
# 2 22.6449 75.0911 48.8264 0.0000 -15.5302 0.0000
# 3 13.3841 48.8264 186.6815 0.0000 -20.1821 0.0000
# 4 0.0000 0.0000 0.0000 25.6912 0.0000 1.7759
# 5 -8.1897 -15.5302 -20.1821 0.0000 32.5118 0.0000
# 6 0.0000 0.0000 0.0000 1.7759 0.0000 8.1608
#
#
#
# Elastic Compliance Matrix: (Units=1/GPa)
#
#
# Indices 1 2 3 4 5 6 
#
# 1 0.027587 -0.007905 0.000464 0.000000 0.003461 0.000000
# 2 -0.007905 0.019256 -0.003956 0.000000 0.004751 0.000000
# 3 0.000464 -0.003956 0.006610 0.000000 0.002330 0.000000
# 4 0.000000 0.000000 0.000000 0.039518 0.000000 -0.008600
# 5 0.003461 0.004751 0.002330 0.000000 0.035346 0.000000
# 6 0.000000 0.000000 0.000000 -0.008600 0.000000 0.124409
#
#
# Mechanical properties :
#
#
# Convention : Reuss Voigt Hill
#
# Bulk Modulus (GPa) = 32.61699 52.78037 42.69868
# Shear Modulus (GPa) = 17.49836 27.96989 22.73412
#
# Velocity S-wave (km/s) = 2.85549 3.61016 3.25477
# Velocity P-wave (km/s) = 5.10592 6.47859 5.83278
#
# Compressibility (1/GPa) = 0.03065887
#
# Stress axis : x y z
#
# Youngs Moduli (GPa) = 36.24839 51.93175 151.28391
#
# Poissons Ratio (x) = 0.41053 -0.07018
# Poissons Ratio (y) = 0.28655 0.59848
# Poissons Ratio (z) = -0.01682 0.20544
#
# Static dielectric constant tensor:
#      x y z
#    x 1.776290 0.000000 0.009630 
#    y 0.000000 1.762610 0.000000 
#    z 0.009630 0.000000 1.861430 
# 
# From -- ./inp_files/301127.got.cif
#   From: 2010.05.17/outbox.cif.g08.bks.cpg/sg12_151_cif.got.tgz:301127.got - 2010.06.03 13:09:07.
