data_PCOD9186056
_publ_section_title
;
Structure prediction by ZEFSAII (Michael W. Deem and Ramdas Pophale) SiO2 
 PCOD9186056
Probable space group: C 2/M
;
_chemical_formula_sum "Si O2"
_cell_formula_units_Z 56
_cell_length_a 19.371799
_cell_length_b 8.956198
_cell_length_c 28.238580
_cell_angle_alpha 90.000000
_cell_angle_beta 39.983908
_cell_angle_gamma 90.000000
_cell_volume 3148.172967
_symmetry_space_group_name_H-M "C 2/M"
_symmetry_group_IT_number 12
_symmetry_cell_setting 'monoclinic'
loop_
_space_group_symop_operation_xyz
x,y,z
-x,y,-z
-x,-y,-z
x,-y,z
1/2+x,1/2+y,z
1/2-x,1/2+y,-z
1/2-x,1/2-y,-z
1/2+x,1/2-y,z
loop_
_atom_site_type_symbol
_atom_site_label
_atom_site_fract_x
_atom_site_fract_y
_atom_site_fract_z
Si Si1 0.278479 0.822539 0.262367
Si Si2 0.146546 0.822830 0.578177
Si Si3 0.561315 0.680542 0.895377
Si Si4 0.895755 0.322969 0.812403
Si Si5 0.420080 0.176029 0.686466
Si Si6 0.878958 0.824062 0.296424
Si Si7 0.340907 0.319216 0.052970
O O1 0.376621 0.759524 0.179245
O O2 0.170614 0.755449 0.296586
O O3 0.299527 0.764099 0.304025
O O4 0.276072 0.000000 0.261882
O O5 0.250000 0.750000 0.500000
O O6 0.147747 0.799337 0.634336
O O7 0.036812 0.747568 0.617805
O O8 0.143947 0.000000 0.570919
O O9 0.566969 0.500000 0.886899
O O10 0.620539 0.718227 0.913964
O O11 0.436902 0.726026 0.967547
O O12 0.908819 0.500000 0.815608
O O13 0.892243 0.307179 0.757007
O O14 0.780478 0.268181 0.892053
O O15 0.999716 0.234883 0.775148
O O16 0.421777 0.000000 0.675337
O O17 0.873497 0.000000 0.289270
O O18 0.337838 0.500000 0.053521
#
# Coordination Sequence:
#
# PCOD9186056 Si02
#       7
#     8   8   8   8   8   8   8
#     4  12  23  35  52  79 113 146 184 229 273 321
#     4  10  21  39  63  90 116 141 175 217 263 319
#     4   9  16  30  51  75 105 143 183 226 276 326
#     4   9  16  31  54  80 105 137 182 228 272 322
#     4  10  19  34  59  84 110 145 182 221 267 321
#     4  10  22  38  56  79 109 145 181 220 267 321
#     4   8  14  27  51  78 103 137 184 229 273 324
#
# _framework density 17.788095999999999
#
# number of rings (size 3 to 8) (size 9 to 14) (size 15 to 20)
#    0.000    2.286    1.429    3.429    0.000    2.286 
#    0.000    3.571    0.000    4.286    0.000    0.000 
#    0.000    0.000    0.000    0.000    0.000    0.000 
#
# Total GULP energy -156255.153062 kJ/mol
# GULP energy per Si atom -5580.541181 kJ/mol
# Density = 1.774761 g / cm^3
# Si number density = 17.788096 Si / 1000 Ang^3
#
#
#
# Elastic Constant Matrix: (Units=GPa)
#
#
# Indices 1 2 3 4 5 6 
#
# 1 77.0208 61.5883 33.9497 0.0000 -14.2332 0.0002
# 2 61.5883 99.4369 56.9864 0.0000 -8.7347 0.0004
# 3 33.9497 56.9864 114.9771 0.0000 -26.0238 0.0000
# 4 0.0000 0.0000 0.0000 24.6855 0.0000 -6.1747
# 5 -14.2332 -8.7347 -26.0238 0.0000 15.1887 0.0000
# 6 0.0002 0.0004 0.0000 -6.1747 0.0000 27.4924
#
#
#
# Elastic Compliance Matrix: (Units=1/GPa)
#
#
# Indices 1 2 3 4 5 6 
#
# 1 0.033815 -0.023263 0.009293 0.000000 0.034233 0.000000
# 2 -0.023263 0.030428 -0.015004 0.000000 -0.030009 0.000000
# 3 0.009293 -0.015004 0.021901 0.000000 0.037605 0.000000
# 4 0.000000 0.000000 0.000000 0.042921 0.000000 0.009640
# 5 0.034233 -0.030009 0.037605 0.000000 0.145092 0.000000
# 6 0.000000 0.000000 0.000000 0.009640 0.000000 0.038539
#
#
# Mechanical properties :
#
#
# Convention : Reuss Voigt Hill
#
# Bulk Modulus (GPa) = 35.46522 66.27594 50.87058
# Shear Modulus (GPa) = 13.15643 22.73399 17.94521
#
# Velocity S-wave (km/s) = 2.72255 3.57885 3.17966
# Velocity P-wave (km/s) = 5.46479 7.37679 6.49157
#
# Compressibility (1/GPa) = 0.02819664
#
# Stress axis : x y z
#
# Youngs Moduli (GPa) = 29.57266 32.86468 45.65904
#
# Poissons Ratio (x) = 0.76453 -0.42433
# Poissons Ratio (y) = 0.68795 0.68508
# Poissons Ratio (z) = -0.27483 0.49311
#
# Static dielectric constant tensor:
#      x y z
#    x 1.598250 0.000000 -0.003090 
#    y 0.000000 1.587040 0.000000 
#    z -0.003090 0.000000 1.605570 
# 
# From -- ./inp_files/377628.got.cif
#   From: 2010.05.17/outbox.cif.g08.bks.cpg/sg12_189_cif.got.tgz:377628.got - 2010.06.03 13:09:07.
