data_PCOD9186201
_publ_section_title
;
Structure prediction by ZEFSAII (Michael W. Deem and Ramdas Pophale) SiO2 
 PCOD9186201
Probable space group: C 2/M
;
_chemical_formula_sum "Si O2"
_cell_formula_units_Z 40
_cell_length_a 8.944313
_cell_length_b 21.857919
_cell_length_c 8.862841
_cell_angle_alpha 90.000000
_cell_angle_beta 111.589314
_cell_angle_gamma 90.000000
_cell_volume 1611.162624
_symmetry_space_group_name_H-M "C 2/M"
_symmetry_group_IT_number 12
_symmetry_cell_setting 'monoclinic'
loop_
_space_group_symop_operation_xyz
x,y,z
-x,y,-z
-x,-y,-z
x,-y,z
1/2+x,1/2+y,z
1/2-x,1/2+y,-z
1/2-x,1/2-y,-z
1/2+x,1/2-y,z
loop_
_atom_site_type_symbol
_atom_site_label
_atom_site_fract_x
_atom_site_fract_y
_atom_site_fract_z
Si Si1 0.369800 0.070193 0.796560
Si Si2 0.967989 0.873594 0.311790
Si Si3 0.607725 0.738846 0.180928
Si Si4 0.713593 0.934511 0.589836
Si Si5 0.423348 0.835131 0.242431
O O1 0.211100 0.105523 0.792759
O O2 0.332732 0.066602 0.602157
O O3 0.533177 0.110527 0.860151
O O4 0.375732 0.000000 0.850741
O O5 0.000000 0.856570 0.500000
O O6 0.022437 0.818841 0.225685
O O7 0.094892 0.927633 0.329633
O O8 0.586676 0.794038 0.294165
O O9 0.779647 0.715187 0.185209
O O10 0.500000 0.759952 0.000000
O O11 0.637034 0.876106 0.641022
O O12 0.664071 0.000000 0.638460
#
# Coordination Sequence:
#
# PCOD9186201 Si02
#       5
#     8   8   8   8   8
#     4  10  19  34  59  91 123 151 185 234 290 344
#     4   9  19  36  62  92 118 148 190 237 283 339
#     4  11  24  42  61  80 113 156 195 239 291 344
#     4   9  18  34  58  89 122 153 185 231 291 345
#     4  11  22  36  58  82 109 151 199 236 278 340
#
# _framework density 24.826792000000001
#
# number of rings (size 3 to 8) (size 9 to 14) (size 15 to 20)
#    0.000    2.000    0.000    3.600    0.000    5.600 
#    0.000    9.000    0.000   32.400    0.000    0.000 
#    0.000    0.000    0.000    0.000    0.000    0.000 
#
# Total GULP energy -111619.980612 kJ/mol
# GULP energy per Si atom -5580.999031 kJ/mol
# Density = 2.477029 g / cm^3
# Si number density = 24.826792 Si / 1000 Ang^3
#
#
#
# Elastic Constant Matrix: (Units=GPa)
#
#
# Indices 1 2 3 4 5 6 
#
# 1 179.4021 59.3709 23.3040 0.0000 7.5459 0.0000
# 2 59.3709 138.2279 9.6375 0.0000 -8.0733 0.0000
# 3 23.3040 9.6375 51.6683 0.0000 4.1927 0.0000
# 4 0.0000 0.0000 0.0000 226.3297 0.0000 -148.4204
# 5 7.5459 -8.0733 4.1927 0.0000 34.3310 0.0000
# 6 0.0000 0.0000 0.0000 -148.4204 0.0000 140.1304
#
#
#
# Elastic Compliance Matrix: (Units=1/GPa)
#
#
# Indices 1 2 3 4 5 6 
#
# 1 0.006937 -0.002922 -0.002428 0.000000 -0.001915 0.000000
# 2 -0.002922 0.008687 -0.000525 0.000000 0.002749 0.000000
# 3 -0.002428 -0.000525 0.020720 0.000000 -0.002120 0.000000
# 4 0.000000 0.000000 0.000000 0.014466 0.000000 0.015322
# 5 -0.001915 0.002749 -0.002120 0.000000 0.030455 0.000000
# 6 0.000000 0.000000 0.000000 0.015322 0.000000 0.023364
#
#
# Mechanical properties :
#
#
# Convention : Reuss Voigt Hill
#
# Bulk Modulus (GPa) = 40.66443 61.54702 51.10572
# Shear Modulus (GPa) = 40.13582 98.62395 69.37988
#
# Velocity S-wave (km/s) = 4.02510 6.30960 5.29209
# Velocity P-wave (km/s) = 6.16577 8.82756 7.61388
#
# Compressibility (1/GPa) = 0.02459152
#
# Stress axis : x y z
#
# Youngs Moduli (GPa) = 144.15198 115.11791 48.26362
#
# Poissons Ratio (x) = 0.33639 0.11720
# Poissons Ratio (y) = 0.42123 0.02536
# Poissons Ratio (z) = 0.35005 0.06049
#
# Static dielectric constant tensor:
#      x y z
#    x 1.988700 0.000000 0.024420 
#    y 0.000000 1.958090 0.000000 
#    z 0.024420 0.000000 2.017970 
# 
# From -- ./inp_files/120032.got.cif
#   From: 2010.05.17/outbox.cif.g08.bks.cpg/sg12_61_cif.got.tgz:120032.got - 2010.06.03 13:09:07.
