data_PCOD9186207
_publ_section_title
;
Structure prediction by ZEFSAII (Michael W. Deem and Ramdas Pophale) SiO2 
 PCOD9186207
Probable space group: C 2/M
;
_chemical_formula_sum "Si O2"
_cell_formula_units_Z 64
_cell_length_a 9.140188
_cell_length_b 14.154138
_cell_length_c 31.405145
_cell_angle_alpha 90.000000
_cell_angle_beta 47.978819
_cell_angle_gamma 90.000000
_cell_volume 3018.340300
_symmetry_space_group_name_H-M "C 2/M"
_symmetry_group_IT_number 12
_symmetry_cell_setting 'monoclinic'
loop_
_space_group_symop_operation_xyz
x,y,z
-x,y,-z
-x,-y,-z
x,-y,z
1/2+x,1/2+y,z
1/2-x,1/2+y,-z
1/2-x,1/2-y,-z
1/2+x,1/2-y,z
loop_
_atom_site_type_symbol
_atom_site_label
_atom_site_fract_x
_atom_site_fract_y
_atom_site_fract_z
Si Si1 0.996151 0.744210 0.115964
Si Si2 0.361439 0.112205 0.068273
Si Si3 0.856945 0.697053 0.236829
Si Si4 0.841883 0.606563 0.375871
Si Si5 0.196645 0.103280 0.734784
Si Si6 0.268703 0.901061 0.821571
Si Si7 0.431178 0.391393 0.652333
Si Si8 0.219263 0.279666 0.457666
O O1 0.986132 0.660519 0.082961
O O2 0.904894 0.705948 0.177879
O O3 0.831769 0.818875 0.132706
O O4 0.181851 0.814232 0.090954
O O5 0.303510 0.000000 0.088601
O O6 0.500000 0.109376 0.000000
O O7 0.907962 0.796022 0.250668
O O8 0.638656 0.669223 0.293638
O O9 0.000192 0.614931 0.224272
O O10 0.796703 0.500000 0.399622
O O11 0.740212 0.617722 0.349760
O O12 0.748775 0.685282 0.423980
O O13 0.079078 0.613251 0.325776
O O14 0.205062 0.099763 0.784734
O O15 0.119621 0.000000 0.735490
O O16 0.213759 0.000000 0.851896
O O17 0.455456 0.500000 0.659305
O O18 0.624782 0.351712 0.592230
O O19 0.250000 0.250000 0.500000
O O20 0.000000 0.319077 0.500000
#
# Coordination Sequence:
#
# PCOD9186207 Si02
#       8
#     8   8   8   8   8   8   8   8
#     4  11  23  44  67 103 142 180 230 291 341 403
#     4  11  25  47  73 102 142 193 243 289 343 406
#     4  11  20  35  65  95 134 168 214 273 335 405
#     4  10  20  38  63  86 112 154 208 251 306 391
#     4   9  18  32  56  87 118 159 205 253 316 390
#     4  10  19  34  59  91 128 171 214 261 328 398
#     4  11  23  40  64  91 126 166 206 260 330 398
#     4  12  25  42  64  89 120 157 209 266 316 381
#
# _framework density 21.203706
#
# number of rings (size 3 to 8) (size 9 to 14) (size 15 to 20)
#    0.000    1.375    5.000    1.125    0.000    2.500 
#    0.000    0.000    0.000    6.375    0.000    0.000 
#    0.000    0.000    0.000    0.000    0.000    0.000 
#
# Total GULP energy -178367.679510 kJ/mol
# GULP energy per Si atom -5573.989985 kJ/mol
# Density = 2.115544 g / cm^3
# Si number density = 21.203706 Si / 1000 Ang^3
#
#
#
# Elastic Constant Matrix: (Units=GPa)
#
#
# Indices 1 2 3 4 5 6 
#
# 1 53.7670 25.9455 24.7969 0.0001 3.6846 -0.0001
# 2 25.9455 131.6437 50.8128 -0.0002 20.3513 0.0001
# 3 24.7969 50.8128 108.4809 -0.0003 4.4377 0.0001
# 4 0.0001 -0.0002 -0.0003 67.8975 0.0001 -31.6838
# 5 3.6846 20.3513 4.4377 0.0001 19.3544 0.0000
# 6 -0.0001 0.0001 0.0001 -31.6838 0.0000 42.4409
#
#
#
# Elastic Compliance Matrix: (Units=1/GPa)
#
#
# Indices 1 2 3 4 5 6 
#
# 1 0.021649 -0.002822 -0.003614 0.000000 -0.000326 0.000000
# 2 -0.002822 0.011426 -0.004278 0.000000 -0.010497 0.000000
# 3 -0.003614 -0.004278 0.011948 0.000000 0.002447 0.000000
# 4 0.000000 0.000000 0.000000 0.022602 0.000000 0.016873
# 5 -0.000326 -0.010497 0.002447 0.000000 0.062206 0.000000
# 6 0.000000 0.000000 0.000000 0.016873 0.000000 0.036159
#
#
# Mechanical properties :
#
#
# Convention : Reuss Voigt Hill
#
# Bulk Modulus (GPa) = 42.37756 55.22243 48.79999
# Shear Modulus (GPa) = 25.60404 38.76099 32.18251
#
# Velocity S-wave (km/s) = 3.47872 4.28018 3.90009
# Velocity P-wave (km/s) = 6.01370 7.10823 6.58375
#
# Compressibility (1/GPa) = 0.02359740
#
# Stress axis : x y z
#
# Youngs Moduli (GPa) = 46.19088 87.51778 83.69702
#
# Poissons Ratio (x) = 0.24694 0.30245
# Poissons Ratio (y) = 0.13033 0.35803
# Poissons Ratio (z) = 0.16692 0.37438
#
# Static dielectric constant tensor:
#      x y z
#    x 1.852390 0.000000 0.000890 
#    y 0.000000 1.763910 0.000000 
#    z 0.000890 0.000000 1.775190 
# 
# From -- ./inp_files/372547.got.cif
#   From: 2010.05.17/outbox.cif.g08.bks.cpg/sg12_187_cif.got.tgz:372547.got - 2010.06.03 13:09:07.
