data_PCOD9186616
_publ_section_title
;
Structure prediction by ZEFSAII (Michael W. Deem and Ramdas Pophale) SiO2 
 PCOD9186616
Probable space group: C 2/M
;
_chemical_formula_sum "Si O2"
_cell_formula_units_Z 64
_cell_length_a 14.803149
_cell_length_b 7.561968
_cell_length_c 26.936729
_cell_angle_alpha 90.000000
_cell_angle_beta 109.378102
_cell_angle_gamma 90.000000
_cell_volume 2844.503314
_symmetry_space_group_name_H-M "C 2/M"
_symmetry_group_IT_number 12
_symmetry_cell_setting 'monoclinic'
loop_
_space_group_symop_operation_xyz
x,y,z
-x,y,-z
-x,-y,-z
x,-y,z
1/2+x,1/2+y,z
1/2-x,1/2+y,-z
1/2-x,1/2-y,-z
1/2+x,1/2-y,z
loop_
_atom_site_type_symbol
_atom_site_label
_atom_site_fract_x
_atom_site_fract_y
_atom_site_fract_z
Si Si1 0.806556 0.783331 0.089755
Si Si2 0.854173 0.209259 0.297198
Si Si3 0.643546 0.711321 0.498957
Si Si4 0.058857 0.799450 0.965357
Si Si5 0.948161 0.783211 0.415298
Si Si6 0.624682 0.206012 0.112478
Si Si7 0.152095 0.210885 0.227330
Si Si8 0.435729 0.283686 0.207091
O O1 0.699134 0.730778 0.084334
O O2 0.851051 0.717327 0.046209
O O3 0.873363 0.727519 0.148149
O O4 0.807998 0.000000 0.088415
O O5 0.906844 0.280389 0.355473
O O6 0.739919 0.233473 0.277658
O O7 0.891990 0.279302 0.251278
O O8 0.873404 0.000000 0.299571
O O9 0.635113 0.500000 0.498922
O O10 0.750000 0.750000 0.500000
O O11 0.617106 0.773300 0.549757
O O12 0.556995 0.772808 0.447422
O O13 0.975730 0.804729 0.908218
O O14 0.082520 0.000000 0.984288
O O15 0.000000 0.714643 0.000000
O O16 0.946756 0.000000 0.414049
O O17 0.671484 0.225141 0.174829
O O18 0.605374 0.000000 0.101186
O O19 0.046133 0.273299 0.222594
O O20 0.149696 0.000000 0.225913
O O21 0.433303 0.500000 0.206209
#
# Coordination Sequence:
#
# PCOD9186616 Si02
#       8
#     8   8   8   8   8   8   8   8
#     4   9  17  33  54  76 102 135 169 206 255 314
#     4  10  19  35  55  76 103 141 180 214 257 315
#     4   9  17  33  55  79 104 140 182 221 263 310
#     4  10  21  38  58  78 104 138 173 214 268 320
#     4   8  17  33  53  75 106 142 178 215 260 319
#     4  11  21  35  57  79 103 137 176 216 257 311
#     4  11  21  34  53  79 108 138 173 217 262 312
#     4   9  17  31  52  73 100 136 171 205 256 316
#
# _framework density 22.499531999999999
#
# number of rings (size 3 to 8) (size 9 to 14) (size 15 to 20)
#    0.000    2.375    2.500    1.500    0.000    1.750 
#    0.000    7.500    0.000    0.000    0.000    0.000 
#    0.000    0.000    0.000    0.000    0.000    0.000 
#
# Total GULP energy -178745.931923 kJ/mol
# GULP energy per Si atom -5585.810373 kJ/mol
# Density = 2.244832 g / cm^3
# Si number density = 22.499532 Si / 1000 Ang^3
#
#
#
# Elastic Constant Matrix: (Units=GPa)
#
#
# Indices 1 2 3 4 5 6 
#
# 1 138.6817 -1.0124 32.5239 0.0000 -0.9471 0.0000
# 2 -1.0124 54.0295 13.3192 0.0000 -4.1519 0.0000
# 3 32.5239 13.3192 101.2840 0.0000 8.0450 0.0000
# 4 0.0000 0.0000 0.0000 8.4783 0.0000 7.1260
# 5 -0.9471 -4.1519 8.0450 0.0000 20.9674 0.0000
# 6 0.0000 0.0000 0.0000 7.1260 0.0000 18.8993
#
#
#
# Elastic Compliance Matrix: (Units=1/GPa)
#
#
# Indices 1 2 3 4 5 6 
#
# 1 0.007882 0.000958 -0.002785 0.000000 0.001615 0.000000
# 2 0.000958 0.019746 -0.003320 0.000000 0.005227 0.000000
# 3 -0.002785 -0.003320 0.011621 0.000000 -0.005242 0.000000
# 4 0.000000 0.000000 0.000000 0.172670 0.000000 -0.065106
# 5 0.001615 0.005227 -0.005242 0.000000 0.050812 0.000000
# 6 0.000000 0.000000 0.000000 -0.065106 0.000000 0.077461
#
#
# Mechanical properties :
#
#
# Convention : Reuss Voigt Hill
#
# Bulk Modulus (GPa) = 34.53542 42.62850 38.58196
# Shear Modulus (GPa) = 13.88359 26.27994 20.08177
#
# Velocity S-wave (km/s) = 2.48677 3.42134 2.99078
# Velocity P-wave (km/s) = 4.86087 5.88175 5.39551
#
# Compressibility (1/GPa) = 0.02895578
#
# Stress axis : x y z
#
# Youngs Moduli (GPa) = 126.87140 50.64206 86.05441
#
# Poissons Ratio (x) = -0.04853 0.23969
# Poissons Ratio (y) = -0.12159 0.28567
# Poissons Ratio (z) = 0.35338 0.16812
#
# Static dielectric constant tensor:
#      x y z
#    x 1.833500 0.000000 -0.006120 
#    y 0.000000 1.833010 0.000000 
#    z -0.006120 0.000000 1.842720 
# 
# From -- ./inp_files/359808.got.cif
#   From: 2010.05.17/outbox.cif.g08.bks.cpg/sg12_180_cif.got.tgz:359808.got - 2010.06.03 13:09:07.
