data_PCOD9186339
_publ_section_title
;
Structure prediction by ZEFSAII (Michael W. Deem and Ramdas Pophale) SiO2 
 PCOD9186339
Probable space group: C 2/M
;
_chemical_formula_sum "Si O2"
_cell_formula_units_Z 50
_cell_length_a 29.954808
_cell_length_b 12.840870
_cell_length_c 8.118514
_cell_angle_alpha 90.000000
_cell_angle_beta 47.680390
_cell_angle_gamma 90.000000
_cell_volume 2308.965240
_symmetry_space_group_name_H-M "C 2/M"
_symmetry_group_IT_number 12
_symmetry_cell_setting 'monoclinic'
loop_
_space_group_symop_operation_xyz
x,y,z
-x,y,-z
-x,-y,-z
x,-y,z
1/2+x,1/2+y,z
1/2-x,1/2+y,-z
1/2-x,1/2-y,-z
1/2+x,1/2-y,z
loop_
_atom_site_type_symbol
_atom_site_label
_atom_site_fract_x
_atom_site_fract_y
_atom_site_fract_z
Si Si1 0.237394 0.122718 0.348588
Si Si2 0.852204 0.727032 0.036273
Si Si3 0.605239 0.381113 0.833815
Si Si4 0.310712 0.617304 0.875804
Si Si5 0.058337 0.158389 0.599209
Si Si6 0.936067 0.382087 0.565861
Si Si7 0.500000 0.500000 0.500000
O O1 0.298876 0.169502 0.266040
O O2 0.174508 0.136509 0.599205
O O3 0.227736 0.158810 0.182649
O O4 0.245838 0.000000 0.316411
O O5 0.901798 0.787860 0.019784
O O6 0.817148 0.816515 0.022722
O O7 0.884656 0.650675 0.826028
O O8 0.601764 0.500000 0.906396
O O9 0.563565 0.368609 0.777872
O O10 0.291405 0.500000 0.961808
O O11 0.378871 0.617006 0.636007
O O12 0.059166 0.283080 0.568573
O O13 0.010033 0.092218 0.616998
O O14 0.924338 0.500000 0.530495
O O15 0.000000 0.385133 0.500000
#
# Coordination Sequence:
#
# PCOD9186339 Si02
#       7
#     8   8   8   8   8   8   2
#     4   9  18  33  53  76 112 155 193 233 278 345
#     4  11  20  32  56  82 112 150 194 236 285 351
#     4  10  20  36  54  87 126 150 178 233 308 354
#     4   9  17  31  50  78 111 145 188 239 295 333
#     4  10  19  34  61  85 111 148 191 247 286 348
#     4  10  22  40  60  80 107 151 200 243 286 333
#     4  12  16  32  66  90 108 148 210 234 294 344
#
# _framework density 21.654722
#
# number of rings (size 3 to 8) (size 9 to 14) (size 15 to 20)
#    0.000    2.080    2.400    2.880    0.000    0.000 
#    0.000    2.400    0.000   12.480    0.000    0.000 
#    0.000    0.000    0.000    0.000    0.000    0.000 
#
# Total GULP energy -139237.242430 kJ/mol
# GULP energy per Si atom -5569.489697 kJ/mol
# Density = 2.160543 g / cm^3
# Si number density = 21.654722 Si / 1000 Ang^3
#
#
#
# Elastic Constant Matrix: (Units=GPa)
#
#
# Indices 1 2 3 4 5 6 
#
# 1 60.3441 30.6828 15.4184 0.0000 1.7972 0.0000
# 2 30.6828 120.4521 19.1885 0.0000 7.2367 0.0000
# 3 15.4184 19.1885 35.5383 0.0000 -19.9079 0.0000
# 4 0.0000 0.0000 0.0000 19.0792 0.0000 -0.2010
# 5 1.7972 7.2367 -19.9079 0.0000 25.3508 0.0000
# 6 0.0000 0.0000 0.0000 -0.2010 0.0000 35.0191
#
#
#
# Elastic Compliance Matrix: (Units=1/GPa)
#
#
# Indices 1 2 3 4 5 6 
#
# 1 0.022207 -0.002325 -0.015872 0.000000 -0.013374 0.000000
# 2 -0.002325 0.011697 -0.012650 0.000000 -0.013108 0.000000
# 3 -0.015872 -0.012650 0.079465 0.000000 0.067140 0.000000
# 4 0.000000 0.000000 0.000000 0.052416 0.000000 0.000301
# 5 -0.013374 -0.013108 0.067140 0.000000 0.096861 0.000000
# 6 0.000000 0.000000 0.000000 0.000301 0.000000 0.028558
#
#
# Mechanical properties :
#
#
# Convention : Reuss Voigt Hill
#
# Bulk Modulus (GPa) = 19.35103 38.54598 28.94851
# Shear Modulus (GPa) = 13.50902 25.95950 19.73426
#
# Velocity S-wave (km/s) = 2.50038 3.46611 3.02207
# Velocity P-wave (km/s) = 4.15830 5.81872 5.05712
#
# Compressibility (1/GPa) = 0.05167683
#
# Stress axis : x y z
#
# Youngs Moduli (GPa) = 45.03005 85.49197 12.58412
#
# Poissons Ratio (x) = 0.19876 0.19973
# Poissons Ratio (y) = 0.10469 0.15919
# Poissons Ratio (z) = 0.71470 1.08147
#
# Static dielectric constant tensor:
#      x y z
#    x 1.827350 0.000000 -0.008350 
#    y 0.000000 1.780340 0.000000 
#    z -0.008350 0.000000 1.842470 
# 
# From -- ./inp_files/109805.got.cif
#   From: 2010.05.17/outbox.cif.g08.bks.cpg/sg12_55_cif.got.tgz:109805.got - 2010.06.03 13:09:07.
