data_PCOD9186690
_publ_section_title
;
Structure prediction by ZEFSAII (Michael W. Deem and Ramdas Pophale) SiO2 
 PCOD9186690
Probable space group: C 2/M
;
_chemical_formula_sum "Si O2"
_cell_formula_units_Z 56
_cell_length_a 16.042930
_cell_length_b 18.538437
_cell_length_c 10.767810
_cell_angle_alpha 90.000000
_cell_angle_beta 124.392032
_cell_angle_gamma 90.000000
_cell_volume 2642.647444
_symmetry_space_group_name_H-M "C 2/M"
_symmetry_group_IT_number 12
_symmetry_cell_setting 'monoclinic'
loop_
_space_group_symop_operation_xyz
x,y,z
-x,y,-z
-x,-y,-z
x,-y,z
1/2+x,1/2+y,z
1/2-x,1/2+y,-z
1/2-x,1/2-y,-z
1/2+x,1/2-y,z
loop_
_atom_site_type_symbol
_atom_site_label
_atom_site_fract_x
_atom_site_fract_y
_atom_site_fract_z
Si Si1 0.546472 0.162277 0.261977
Si Si2 0.583835 0.691288 0.150294
Si Si3 0.798953 0.418635 0.777667
Si Si4 0.172381 0.191232 0.977963
Si Si5 0.162245 0.417661 0.895010
Si Si6 0.287375 0.196389 0.420946
Si Si7 0.387963 0.681866 0.348238
O O1 0.548607 0.245392 0.214326
O O2 0.604667 0.118218 0.204499
O O3 0.437172 0.131574 0.203192
O O4 0.620783 0.153805 0.441795
O O5 0.683405 0.657129 0.294966
O O6 0.500000 0.645649 0.000000
O O7 0.625821 0.728184 0.060477
O O8 0.789369 0.500000 0.723337
O O9 0.694026 0.375949 0.670979
O O10 0.818671 0.419778 0.941047
O O11 0.109174 0.174334 0.799534
O O12 0.250000 0.250000 0.000000
O O13 0.237101 0.121031 0.071116
O O14 0.148015 0.500000 0.839326
O O15 0.250000 0.250000 0.500000
O O16 0.337277 0.243424 0.352677
O O17 0.500000 0.675575 0.500000
#
# Coordination Sequence:
#
# PCOD9186690 Si02
#       7
#     8   8   8   8   8   8   8
#     4  11  20  34  59  87 121 149 192 242 308 356
#     4  11  21  34  58  87 115 151 197 247 295 350
#     4  10  19  35  55  81 117 151 193 239 286 354
#     4  11  21  37  59  87 119 151 204 247 293 359
#     4  10  22  38  60  91 124 158 195 249 310 359
#     4  10  21  35  52  82 120 153 184 244 296 347
#     4  11  23  36  53  84 118 152 187 239 307 343
#
# _framework density 21.190871999999999
#
# number of rings (size 3 to 8) (size 9 to 14) (size 15 to 20)
#    0.000    1.429    4.286    3.429    6.000    1.429 
#    0.000    0.000    0.000    3.000    0.000    0.000 
#    0.000    0.000    0.000    0.000    0.000    0.000 
#
# Total GULP energy -155935.146549 kJ/mol
# GULP energy per Si atom -5569.112377 kJ/mol
# Density = 2.114264 g / cm^3
# Si number density = 21.190872 Si / 1000 Ang^3
#
#
#
# Elastic Constant Matrix: (Units=GPa)
#
#
# Indices 1 2 3 4 5 6 
#
# 1 60.5363 21.4165 21.1663 0.0000 15.3285 0.0000
# 2 21.4165 56.6108 13.3359 0.0000 6.3520 0.0000
# 3 21.1663 13.3359 139.0033 0.0000 45.7349 0.0000
# 4 0.0000 0.0000 0.0000 17.2153 0.0000 5.7337
# 5 15.3285 6.3520 45.7349 0.0000 43.2614 0.0000
# 6 0.0000 0.0000 0.0000 5.7337 0.0000 18.7788
#
#
#
# Elastic Compliance Matrix: (Units=1/GPa)
#
#
# Indices 1 2 3 4 5 6 
#
# 1 0.020649 -0.007035 -0.000616 0.000000 -0.005632 0.000000
# 2 -0.007035 0.020514 -0.001113 0.000000 0.000657 0.000000
# 3 -0.000616 -0.001113 0.011146 0.000000 -0.011402 0.000000
# 4 0.000000 0.000000 0.000000 0.064664 0.000000 -0.019744
# 5 -0.005632 0.000657 -0.011402 0.000000 0.037068 0.000000
# 6 0.000000 0.000000 0.000000 -0.019744 0.000000 0.059280
#
#
# Mechanical properties :
#
#
# Convention : Reuss Voigt Hill
#
# Bulk Modulus (GPa) = 28.75129 40.88755 34.81942
# Shear Modulus (GPa) = 20.62339 29.19988 24.91164
#
# Velocity S-wave (km/s) = 3.12303 3.71610 3.43240
# Velocity P-wave (km/s) = 5.15768 6.14404 5.67234
#
# Compressibility (1/GPa) = 0.03478105
#
# Stress axis : x y z
#
# Youngs Moduli (GPa) = 48.42756 48.74655 89.71784
#
# Poissons Ratio (x) = 0.34292 0.05530
# Poissons Ratio (y) = 0.34068 0.09988
# Poissons Ratio (z) = 0.02985 0.05427
#
# Static dielectric constant tensor:
#      x y z
#    x 2.332020 0.000000 0.236050 
#    y 0.000000 1.781110 0.000000 
#    z 0.236050 0.000000 1.961520 
# 
# From -- ./inp_files/158189.got.cif
#   From: 2010.05.17/outbox.cif.g08.bks.cpg/sg12_80_cif.got.tgz:158189.got - 2010.06.03 13:09:07.
