data_PCOD9186451
_publ_section_title
;
Structure prediction by ZEFSAII (Michael W. Deem and Ramdas Pophale) SiO2 
 PCOD9186451
Probable space group: C 2/M
;
_chemical_formula_sum "Si O2"
_cell_formula_units_Z 44
_cell_length_a 8.768989
_cell_length_b 29.810771
_cell_length_c 7.912156
_cell_angle_alpha 90.000000
_cell_angle_beta 81.626084
_cell_angle_gamma 90.000000
_cell_volume 2046.268356
_symmetry_space_group_name_H-M "C 2/M"
_symmetry_group_IT_number 12
_symmetry_cell_setting 'monoclinic'
loop_
_space_group_symop_operation_xyz
x,y,z
-x,y,-z
-x,-y,-z
x,-y,z
1/2+x,1/2+y,z
1/2-x,1/2+y,-z
1/2-x,1/2-y,-z
1/2+x,1/2-y,z
loop_
_atom_site_type_symbol
_atom_site_label
_atom_site_fract_x
_atom_site_fract_y
_atom_site_fract_z
Si Si1 0.000000 0.576496 0.500000
Si Si2 0.149695 0.117008 0.537746
Si Si3 0.124485 0.548027 0.126668
Si Si4 0.230833 0.855059 0.883458
Si Si5 0.829357 0.190612 0.747179
Si Si6 0.512955 0.219652 0.196824
O O1 0.170791 0.599774 0.498109
O O2 0.035662 0.551528 0.319450
O O3 0.132054 0.136844 0.730407
O O4 0.139701 0.154799 0.399125
O O5 0.000000 0.087114 0.500000
O O6 0.211091 0.500000 0.110598
O O7 0.216890 0.594150 0.083998
O O8 0.000000 0.547205 0.000000
O O9 0.372138 0.822561 0.804499
O O10 0.170526 0.830846 0.062976
O O11 0.656862 0.206066 0.729094
O O12 0.929949 0.235330 0.726393
O O13 0.500000 0.230251 0.000000
#
# Coordination Sequence:
#
# PCOD9186451 Si02
#       6
#     4   8   8   8   8   8
#     4  10  21  44  62  90 136 160 196 260 311 356
#     4  11  25  39  63  93 119 166 214 242 308 373
#     4  10  19  34  66 100 120 158 210 249 307 375
#     4  10  21  40  60  84 129 160 196 259 308 359
#     4  11  23  40  59  85 126 162 205 258 302 361
#     4  10  21  37  60  84 117 166 204 242 312 367
#
# _framework density 21.502556999999999
#
# number of rings (size 3 to 8) (size 9 to 14) (size 15 to 20)
#    0.000    1.636    0.000    7.364    5.091    0.727 
#    0.000    0.000    0.000   13.636    0.000   15.273 
#    0.000    0.000    0.000    0.000    0.000    0.000 
#
# Total GULP energy -122627.424597 kJ/mol
# GULP energy per Si atom -5573.973845 kJ/mol
# Density = 2.145362 g / cm^3
# Si number density = 21.502557 Si / 1000 Ang^3
#
#
#
# Elastic Constant Matrix: (Units=GPa)
#
#
# Indices 1 2 3 4 5 6 
#
# 1 119.3236 38.3743 51.0635 0.0000 21.3234 0.0000
# 2 38.3743 131.8084 43.3694 0.0000 19.4224 0.0000
# 3 51.0635 43.3694 98.4733 0.0000 30.6861 0.0000
# 4 0.0000 0.0000 0.0000 34.5914 0.0000 9.6053
# 5 21.3234 19.4224 30.6861 0.0000 35.4324 0.0000
# 6 0.0000 0.0000 0.0000 9.6053 0.0000 24.6831
#
#
#
# Elastic Compliance Matrix: (Units=1/GPa)
#
#
# Indices 1 2 3 4 5 6 
#
# 1 0.011138 -0.001465 -0.004508 0.000000 -0.001995 0.000000
# 2 -0.001465 0.009173 -0.002723 0.000000 -0.001788 0.000000
# 3 -0.004508 -0.002723 0.016958 0.000000 -0.010481 0.000000
# 4 0.000000 0.000000 0.000000 0.032411 0.000000 -0.012613
# 5 -0.001995 -0.001788 -0.010481 0.000000 0.039480 0.000000
# 6 0.000000 0.000000 0.000000 -0.012613 0.000000 0.045422
#
#
# Mechanical properties :
#
#
# Convention : Reuss Voigt Hill
#
# Bulk Modulus (GPa) = 50.31314 68.35777 59.33545
# Shear Modulus (GPa) = 27.99556 33.39459 30.69507
#
# Velocity S-wave (km/s) = 3.61219 3.94515 3.78234
# Velocity P-wave (km/s) = 6.39114 7.25340 6.83588
#
# Compressibility (1/GPa) = 0.01987553
#
# Stress axis : x y z
#
# Youngs Moduli (GPa) = 89.78564 109.01866 58.96897
#
# Poissons Ratio (x) = 0.15973 0.26586
# Poissons Ratio (y) = 0.13155 0.16056
# Poissons Ratio (z) = 0.40480 0.29684
#
# Static dielectric constant tensor:
#      x y z
#    x 1.765200 0.000000 0.026230 
#    y 0.000000 1.834650 0.000000 
#    z 0.026230 0.000000 1.662530 
# 
# From -- ./inp_files/41719.got.cif
#   From: 2010.05.17/outbox.cif.g08.bks.cpg/sg12_21_cif.got.tgz:41719.got - 2010.06.03 13:09:07.
