data_PCOD9186530
_publ_section_title
;
Structure prediction by ZEFSAII (Michael W. Deem and Ramdas Pophale) SiO2 
 PCOD9186530
Probable space group: C 2/M
;
_chemical_formula_sum "Si O2"
_cell_formula_units_Z 64
_cell_length_a 30.793911
_cell_length_b 14.077745
_cell_length_c 18.586488
_cell_angle_alpha 90.000000
_cell_angle_beta 152.005097
_cell_angle_gamma 90.000000
_cell_volume 3782.090374
_symmetry_space_group_name_H-M "C 2/M"
_symmetry_group_IT_number 12
_symmetry_cell_setting 'monoclinic'
loop_
_space_group_symop_operation_xyz
x,y,z
-x,y,-z
-x,-y,-z
x,-y,z
1/2+x,1/2+y,z
1/2-x,1/2+y,-z
1/2-x,1/2-y,-z
1/2+x,1/2-y,z
loop_
_atom_site_type_symbol
_atom_site_label
_atom_site_fract_x
_atom_site_fract_y
_atom_site_fract_z
Si Si1 0.107144 0.109850 0.851630
Si Si2 0.206612 0.889126 0.307709
Si Si3 0.089774 0.387259 0.330446
Si Si4 0.986814 0.297804 0.309550
Si Si5 0.447495 0.747989 0.851560
Si Si6 0.093797 0.607687 0.589366
Si Si7 0.898196 0.890857 0.986116
Si Si8 0.688324 0.885461 0.868288
O O1 0.029652 0.185489 0.717843
O O2 0.122898 0.117847 0.960647
O O3 0.084517 0.000000 0.802897
O O4 0.205311 0.134609 0.958247
O O5 0.310578 0.872586 0.485955
O O6 0.136824 0.818813 0.246296
O O7 0.184403 0.000000 0.291028
O O8 0.187063 0.875628 0.193740
O O9 0.075392 0.500000 0.301305
O O10 0.084809 0.331292 0.248238
O O11 0.014401 0.342081 0.273784
O O12 0.889995 0.342017 0.195761
O O13 0.065912 0.328571 0.481552
O O14 0.521096 0.680810 0.918257
O O15 0.500000 0.783570 0.000000
O O16 0.117420 0.500000 0.599866
O O17 0.167059 0.644238 0.754628
O O18 0.000000 0.601282 0.500000
O O19 0.929262 0.000000 0.019602
O O20 0.677084 0.000000 0.852031
#
# Coordination Sequence:
#
# PCOD9186530 Si02
#       8
#     8   8   8   8   8   8   8   8
#     4  10  20  32  49  74 102 130 168 206 244 293
#     4   9  19  33  54  78  99 123 160 211 257 294
#     4  11  22  33  49  77 104 131 167 203 244 295
#     4  11  19  32  49  73 106 134 162 200 250 296
#     4  10  19  35  54  72 100 134 166 198 248 301
#     4   8  15  28  48  73  97 124 159 198 245 291
#     4   9  17  32  52  76 100 124 159 209 256 292
#     4   9  18  32  52  77 102 130 164 206 251 291
#
# _framework density 16.921859000000001
#
# number of rings (size 3 to 8) (size 9 to 14) (size 15 to 20)
#    0.000    2.375    1.250    3.000    1.750    1.750 
#    0.000    0.000    0.000    3.375    0.000    3.500 
#    0.000    0.000    0.000    0.000    0.000    0.000 
#
# Total GULP energy -178397.489277 kJ/mol
# GULP energy per Si atom -5574.921540 kJ/mol
# Density = 1.688334 g / cm^3
# Si number density = 16.921859 Si / 1000 Ang^3
#
#
#
# Elastic Constant Matrix: (Units=GPa)
#
#
# Indices 1 2 3 4 5 6 
#
# 1 62.9502 33.8255 23.2889 0.0000 -3.8249 0.0000
# 2 33.8255 79.7098 47.7894 0.0000 -1.5743 0.0000
# 3 23.2889 47.7894 62.7311 0.0000 -2.3812 0.0000
# 4 0.0000 0.0000 0.0000 22.4904 0.0000 -3.9748
# 5 -3.8249 -1.5743 -2.3812 0.0000 18.1175 0.0000
# 6 0.0000 0.0000 0.0000 -3.9748 0.0000 23.6835
#
#
#
# Elastic Compliance Matrix: (Units=1/GPa)
#
#
# Indices 1 2 3 4 5 6 
#
# 1 0.020911 -0.007786 -0.001698 0.000000 0.003515 0.000000
# 2 -0.007786 0.025994 -0.016973 0.000000 -0.001616 0.000000
# 3 -0.001698 -0.016973 0.029580 0.000000 0.002054 0.000000
# 4 0.000000 0.000000 0.000000 0.045822 0.000000 0.007690
# 5 0.003515 -0.001616 0.002054 0.000000 0.056067 0.000000
# 6 0.000000 0.000000 0.000000 0.007690 0.000000 0.043514
#
#
# Mechanical properties :
#
#
# Convention : Reuss Voigt Hill
#
# Bulk Modulus (GPa) = 42.42729 46.13318 44.28024
# Shear Modulus (GPa) = 17.68905 19.55743 18.62324
#
# Velocity S-wave (km/s) = 3.23668 3.40332 3.32104
# Velocity P-wave (km/s) = 6.25260 6.53950 6.39766
#
# Compressibility (1/GPa) = 0.02356974
#
# Stress axis : x y z
#
# Youngs Moduli (GPa) = 47.82113 38.47053 33.80677
#
# Poissons Ratio (x) = 0.29954 0.05741
# Poissons Ratio (y) = 0.37235 0.57381
# Poissons Ratio (z) = 0.08121 0.65297
#
# Static dielectric constant tensor:
#      x y z
#    x 1.584550 0.000000 0.002990 
#    y 0.000000 1.554200 0.000000 
#    z 0.002990 0.000000 1.586770 
# 
# From -- ./inp_files/296703.got.cif
#   From: 2010.05.17/outbox.cif.g08.bks.cpg/sg12_149_cif.got.tgz:296703.got - 2010.06.03 13:09:07.
