data_PCOD9186975
_publ_section_title
;
Structure prediction by ZEFSAII (Michael W. Deem and Ramdas Pophale) SiO2 
 PCOD9186975
Probable space group: C 2/M
;
_chemical_formula_sum "Si O2"
_cell_formula_units_Z 64
_cell_length_a 20.737752
_cell_length_b 8.441793
_cell_length_c 23.740111
_cell_angle_alpha 90.000000
_cell_angle_beta 135.920255
_cell_angle_gamma 90.000000
_cell_volume 2891.182163
_symmetry_space_group_name_H-M "C 2/M"
_symmetry_group_IT_number 12
_symmetry_cell_setting 'monoclinic'
loop_
_space_group_symop_operation_xyz
x,y,z
-x,y,-z
-x,-y,-z
x,-y,z
1/2+x,1/2+y,z
1/2-x,1/2+y,-z
1/2-x,1/2-y,-z
1/2+x,1/2-y,z
loop_
_atom_site_type_symbol
_atom_site_label
_atom_site_fract_x
_atom_site_fract_y
_atom_site_fract_z
Si Si1 0.322685 0.183714 0.765752
Si Si2 0.736740 0.689010 0.554878
Si Si3 0.633730 0.189629 0.591341
Si Si4 0.484892 0.683906 0.150929
Si Si5 0.807728 0.688385 0.983747
Si Si6 0.036699 0.687274 0.640038
Si Si7 0.556216 0.809397 0.307690
Si Si8 0.780991 0.185580 0.187302
O O1 0.229377 0.250168 0.679190
O O2 0.412641 0.282724 0.807630
O O3 0.300805 0.186549 0.818200
O O4 0.336032 0.000000 0.756350
O O5 0.728130 0.500000 0.549819
O O6 0.750000 0.750000 0.500000
O O7 0.651853 0.757912 0.538195
O O8 0.838636 0.732833 0.643662
O O9 0.555827 0.247461 0.587911
O O10 0.627626 0.000000 0.587426
O O11 0.463464 0.500000 0.140729
O O12 0.412278 0.763024 0.063278
O O13 0.486443 0.750516 0.215839
O O14 0.803506 0.500000 0.977991
O O15 0.750000 0.750000 0.000000
O O16 0.759903 0.747891 0.896656
O O17 0.017614 0.500000 0.622140
O O18 0.966422 0.752701 0.643503
O O19 0.134399 0.715188 0.733832
O O20 0.551032 0.000000 0.306599
O O21 0.811496 0.000000 0.201235
#
# Coordination Sequence:
#
# PCOD9186975 Si02
#       8
#     8   8   8   8   8   8   8   8
#     4  10  19  35  57  81 109 146 189 234 284 339
#     4  11  23  39  62  88 118 154 192 234 287 343
#     4  10  19  35  59  88 119 149 187 232 283 342
#     4  12  24  36  55  83 113 148 191 240 291 341
#     4  11  23  39  55  76 109 149 192 240 294 348
#     4   9  19  35  59  87 115 150 191 237 284 337
#     4  10  21  39  61  86 115 151 194 237 285 343
#     4   9  20  36  55  79 110 148 191 236 287 341
#
# _framework density 22.136274
#
# number of rings (size 3 to 8) (size 9 to 14) (size 15 to 20)
#    0.000    1.750    1.250    3.375    0.000    5.500 
#    0.000    3.125    0.000    3.750    0.000    0.000 
#    0.000    0.000    0.000    0.000    0.000    0.000 
#
# Total GULP energy -178735.825495 kJ/mol
# GULP energy per Si atom -5585.494547 kJ/mol
# Density = 2.208589 g / cm^3
# Si number density = 22.136274 Si / 1000 Ang^3
#
#
#
# Elastic Constant Matrix: (Units=GPa)
#
#
# Indices 1 2 3 4 5 6 
#
# 1 123.0778 -4.4050 16.3979 0.0000 -30.1219 0.0000
# 2 -4.4050 27.0694 1.3753 0.0000 -9.8325 0.0000
# 3 16.3979 1.3753 99.1326 0.0000 -28.3485 0.0000
# 4 0.0000 0.0000 0.0000 22.2060 0.0000 -6.5328
# 5 -30.1219 -9.8325 -28.3485 0.0000 39.6870 0.0000
# 6 0.0000 0.0000 0.0000 -6.5328 0.0000 23.9944
#
#
#
# Elastic Compliance Matrix: (Units=1/GPa)
#
#
# Indices 1 2 3 4 5 6 
#
# 1 0.010672 0.005389 0.001078 0.000000 0.010205 0.000000
# 2 0.005389 0.043994 0.003500 0.000000 0.017489 0.000000
# 3 0.001078 0.003500 0.012998 0.000000 0.010970 0.000000
# 4 0.000000 0.000000 0.000000 0.048954 0.000000 0.013328
# 5 0.010205 0.017489 0.010970 0.000000 0.045111 0.000000
# 6 0.000000 0.000000 0.000000 0.013328 0.000000 0.045305
#
#
# Mechanical properties :
#
#
# Convention : Reuss Voigt Hill
#
# Bulk Modulus (GPa) = 11.41606 30.66846 21.04226
# Shear Modulus (GPa) = 23.11615 32.90491 28.01053
#
# Velocity S-wave (km/s) = 3.23502 3.85966 3.56106
# Velocity P-wave (km/s) = 4.37289 5.80922 5.14146
#
# Compressibility (1/GPa) = 0.08759590
#
# Stress axis : x y z
#
# Youngs Moduli (GPa) = 93.70608 22.73045 76.93775
#
# Poissons Ratio (x) = -0.12248 -0.08296
# Poissons Ratio (y) = -0.50494 -0.26925
# Poissons Ratio (z) = -0.10104 -0.07955
#
# Static dielectric constant tensor:
#      x y z
#    x 1.843370 0.000000 -0.029450 
#    y 0.000000 1.754910 0.000000 
#    z -0.029450 0.000000 1.858910 
# 
# From -- ./inp_files/320105.got.cif
#   From: 2010.05.17/outbox.cif.g08.bks.cpg/sg12_161_cif.got.tgz:320105.got - 2010.06.03 13:09:07.
