data_PCOD9186730
_publ_section_title
;
Structure prediction by ZEFSAII (Michael W. Deem and Ramdas Pophale) SiO2 
 PCOD9186730
Probable space group: C 2/M
;
_chemical_formula_sum "Si O2"
_cell_formula_units_Z 64
_cell_length_a 15.128740
_cell_length_b 8.856150
_cell_length_c 29.546864
_cell_angle_alpha 90.000000
_cell_angle_beta 124.470152
_cell_angle_gamma 90.000000
_cell_volume 3263.685017
_symmetry_space_group_name_H-M "C 2/M"
_symmetry_group_IT_number 12
_symmetry_cell_setting 'monoclinic'
loop_
_space_group_symop_operation_xyz
x,y,z
-x,y,-z
-x,-y,-z
x,-y,z
1/2+x,1/2+y,z
1/2-x,1/2+y,-z
1/2-x,1/2-y,-z
1/2+x,1/2-y,z
loop_
_atom_site_type_symbol
_atom_site_label
_atom_site_fract_x
_atom_site_fract_y
_atom_site_fract_z
Si Si1 0.393349 0.317924 0.497404
Si Si2 0.992035 0.325663 0.130035
Si Si3 0.327410 0.816134 0.213475
Si Si4 0.670018 0.320674 0.243662
Si Si5 0.254475 0.829091 0.099729
Si Si6 0.931082 0.319128 0.701106
Si Si7 0.159982 0.819337 0.415360
Si Si8 0.908772 0.328612 0.011524
O O1 0.500000 0.272239 0.500000
O O2 0.384101 0.500000 0.490370
O O3 0.281773 0.243833 0.448902
O O4 0.393640 0.282000 0.551384
O O5 0.031894 0.500000 0.137312
O O6 0.879522 0.333008 0.123629
O O7 0.961486 0.261492 0.071870
O O8 0.074533 0.227900 0.182277
O O9 0.276087 0.777364 0.246629
O O10 0.255506 0.759033 0.150462
O O11 0.450730 0.768766 0.248120
O O12 0.325363 0.000000 0.208817
O O13 0.668914 0.500000 0.250486
O O14 0.652638 0.237404 0.285767
O O15 0.212062 0.000000 0.089720
O O16 0.191287 0.748416 0.041432
O O17 0.930525 0.500000 0.698939
O O18 0.904407 0.251728 0.644719
O O19 0.163057 0.000000 0.412380
O O20 0.877771 0.500000 0.015205
O O21 0.000000 0.332253 0.000000
#
# Coordination Sequence:
#
# PCOD9186730 Si02
#       8
#     8   8   8   8   8   8   8   8
#     4   9  19  38  63  91 126 165 201 238 285 338
#     4  10  20  36  55  75 107 147 182 224 287 357
#     4   9  20  38  58  80 110 148 188 235 290 349
#     4  11  22  37  59  86 111 141 191 246 290 341
#     4  10  19  35  56  75 101 141 187 227 279 350
#     4  11  22  41  62  81 117 161 196 234 290 346
#     4  10  21  37  59  91 126 157 200 247 284 331
#     4  10  21  34  49  76 109 137 176 231 286 341
#
# _framework density 19.609736999999999
#
# number of rings (size 3 to 8) (size 9 to 14) (size 15 to 20)
#    0.000    2.000    1.250    2.250    0.000    3.000 
#    0.000    5.625    0.000    0.000    0.000    0.000 
#    0.000    0.000    0.000    0.000    0.000    0.000 
#
# Total GULP energy -178571.073016 kJ/mol
# GULP energy per Si atom -5580.346032 kJ/mol
# Density = 1.956510 g / cm^3
# Si number density = 19.609737 Si / 1000 Ang^3
#
#
#
# Elastic Constant Matrix: (Units=GPa)
#
#
# Indices 1 2 3 4 5 6 
#
# 1 82.6437 14.2520 15.3066 0.0000 -16.6612 0.0000
# 2 14.2520 29.7776 23.9338 0.0000 -5.0798 0.0000
# 3 15.3066 23.9338 102.5141 0.0000 -20.0608 0.0000
# 4 0.0000 0.0000 0.0000 27.6756 0.0000 -6.6960
# 5 -16.6612 -5.0798 -20.0608 0.0000 22.1852 0.0000
# 6 0.0000 0.0000 0.0000 -6.6960 0.0000 10.5775
#
#
#
# Elastic Compliance Matrix: (Units=1/GPa)
#
#
# Indices 1 2 3 4 5 6 
#
# 1 0.015227 -0.006537 0.001455 0.000000 0.011254 0.000000
# 2 -0.006537 0.044161 -0.010104 0.000000 -0.003934 0.000000
# 3 0.001455 -0.010104 0.014164 0.000000 0.011587 0.000000
# 4 0.000000 0.000000 0.000000 0.042668 0.000000 0.027011
# 5 0.011254 -0.003934 0.011587 0.000000 0.063104 0.000000
# 6 0.000000 0.000000 0.000000 0.027011 0.000000 0.111639
#
#
# Mechanical properties :
#
#
# Convention : Reuss Voigt Hill
#
# Bulk Modulus (GPa) = 23.15936 35.76892 29.46414
# Shear Modulus (GPa) = 14.89298 22.85052 18.87175
#
# Velocity S-wave (km/s) = 2.75884 3.41730 3.10557
# Velocity P-wave (km/s) = 4.68871 5.81812 5.28368
#
# Compressibility (1/GPa) = 0.04317908
#
# Stress axis : x y z
#
# Youngs Moduli (GPa) = 65.67312 22.64439 70.60230
#
# Poissons Ratio (x) = 0.14804 -0.10273
# Poissons Ratio (y) = 0.42933 0.71337
# Poissons Ratio (z) = -0.09556 0.22880
#
# Static dielectric constant tensor:
#      x y z
#    x 1.707350 0.000000 -0.028900 
#    y 0.000000 1.682870 0.000000 
#    z -0.028900 0.000000 1.693290 
# 
# From -- ./inp_files/375086.got.cif
#   From: 2010.05.17/outbox.cif.g08.bks.cpg/sg12_188_cif.got.tgz:375086.got - 2010.06.03 13:09:07.
