data_PCOD9186010
_publ_section_title
;
Structure prediction by ZEFSAII (Michael W. Deem and Ramdas Pophale) SiO2 
 PCOD9186010
Probable space group: C 2/M
;
_chemical_formula_sum "Si O2"
_cell_formula_units_Z 56
_cell_length_a 12.794814
_cell_length_b 13.475114
_cell_length_c 17.800225
_cell_angle_alpha 90.000000
_cell_angle_beta 118.798160
_cell_angle_gamma 90.000000
_cell_volume 2689.401893
_symmetry_space_group_name_H-M "C 2/M"
_symmetry_group_IT_number 12
_symmetry_cell_setting 'monoclinic'
loop_
_space_group_symop_operation_xyz
x,y,z
-x,y,-z
-x,-y,-z
x,-y,z
1/2+x,1/2+y,z
1/2-x,1/2+y,-z
1/2-x,1/2-y,-z
1/2+x,1/2-y,z
loop_
_atom_site_type_symbol
_atom_site_label
_atom_site_fract_x
_atom_site_fract_y
_atom_site_fract_z
Si Si1 0.120838 0.617008 0.000465
Si Si2 0.659719 0.387097 0.807991
Si Si3 0.576927 0.186529 0.825613
Si Si4 0.273128 0.688510 0.607861
Si Si5 0.811119 0.386050 0.709146
Si Si6 0.554503 0.259746 0.444796
Si Si7 0.861410 0.612202 0.307353
O O1 0.105027 0.500000 0.977089
O O2 0.134383 0.672937 0.926704
O O3 0.231108 0.624622 0.095226
O O4 0.000000 0.650935 0.000000
O O5 0.615224 0.500000 0.796926
O O6 0.568113 0.301427 0.798594
O O7 0.719757 0.372164 0.746876
O O8 0.446876 0.135681 0.782186
O O9 0.654115 0.136624 0.785671
O O10 0.285353 0.803213 0.638357
O O11 0.385527 0.667619 0.594276
O O12 0.156861 0.687727 0.514488
O O13 0.249855 0.627706 0.675330
O O14 0.803034 0.500000 0.681007
O O15 0.500000 0.309829 0.500000
O O16 0.458153 0.190798 0.370960
O O17 0.905137 0.500000 0.329665
#
# Coordination Sequence:
#
# PCOD9186010 Si02
#       7
#     8   8   8   8   8   8   8
#     4  10  19  34  58  90 120 152 200 245 282 338
#     4  10  22  39  59  85 120 159 195 236 294 349
#     4  12  21  35  62  90 119 152 199 246 289 340
#     4  10  20  37  56  85 119 147 187 247 292 344
#     4  11  21  37  62  87 113 154 202 245 287 346
#     4   9  20  36  58  80 114 152 190 233 289 349
#     4  11  22  36  60  91 117 151 195 245 297 345
#
# _framework density 20.822474
#
# number of rings (size 3 to 8) (size 9 to 14) (size 15 to 20)
#    0.000    1.571    4.286    1.714    0.000    2.571 
#    0.000    4.286    0.000    9.000    0.000    0.000 
#    0.000    0.000    0.000    0.000    0.000    0.000 
#
# Total GULP energy -156366.829915 kJ/mol
# GULP energy per Si atom -5584.529640 kJ/mol
# Density = 2.077508 g / cm^3
# Si number density = 20.822474 Si / 1000 Ang^3
#
#
#
# Elastic Constant Matrix: (Units=GPa)
#
#
# Indices 1 2 3 4 5 6 
#
# 1 69.4363 12.2276 21.8721 0.0000 -30.9933 0.0000
# 2 12.2276 61.9979 14.7931 0.0000 -6.5662 0.0000
# 3 21.8721 14.7931 91.6091 0.0000 -29.5095 0.0000
# 4 0.0000 0.0000 0.0000 3.9144 0.0000 -2.4936
# 5 -30.9933 -6.5662 -29.5095 0.0000 37.6465 0.0000
# 6 0.0000 0.0000 0.0000 -2.4936 0.0000 23.0728
#
#
#
# Elastic Compliance Matrix: (Units=1/GPa)
#
#
# Indices 1 2 3 4 5 6 
#
# 1 0.023271 -0.002802 0.001218 0.000000 0.019624 0.000000
# 2 -0.002802 0.017146 -0.002514 0.000000 -0.001287 0.000000
# 3 0.001218 -0.002514 0.015001 0.000000 0.012322 0.000000
# 4 0.000000 0.000000 0.000000 0.274356 0.000000 0.029652
# 5 0.019624 -0.001287 0.012322 0.000000 0.052153 0.000000
# 6 0.000000 0.000000 0.000000 0.029652 0.000000 0.046546
#
#
# Mechanical properties :
#
#
# Convention : Reuss Voigt Hill
#
# Bulk Modulus (GPa) = 21.17729 35.64768 28.41248
# Shear Modulus (GPa) = 11.05194 24.53677 17.79435
#
# Velocity S-wave (km/s) = 2.30634 3.43648 2.92648
# Velocity P-wave (km/s) = 4.15750 5.73610 5.00937
#
# Compressibility (1/GPa) = 0.04722040
#
# Stress axis : x y z
#
# Youngs Moduli (GPa) = 42.97227 58.32333 66.66436
#
# Poissons Ratio (x) = 0.16341 -0.08118
# Poissons Ratio (y) = 0.12040 0.16762
# Poissons Ratio (z) = -0.05233 0.14665
#
# Static dielectric constant tensor:
#      x y z
#    x 1.810290 0.000000 -0.005660 
#    y 0.000000 1.724130 0.000000 
#    z -0.005660 0.000000 1.757480 
# 
# From -- ./inp_files/268849.got.cif
#   From: 2010.05.17/outbox.cif.g08.bks.cpg/sg12_135_cif.got.tgz:268849.got - 2010.06.03 13:09:07.
