data_PCOD9186128
_publ_section_title
;
Structure prediction by ZEFSAII (Michael W. Deem and Ramdas Pophale) SiO2 
 PCOD9186128
Probable space group: C 2/M
;
_chemical_formula_sum "Si O2"
_cell_formula_units_Z 56
_cell_length_a 10.895089
_cell_length_b 16.158521
_cell_length_c 18.247900
_cell_angle_alpha 90.000000
_cell_angle_beta 59.816470
_cell_angle_gamma 90.000000
_cell_volume 2776.960918
_symmetry_space_group_name_H-M "C 2/M"
_symmetry_group_IT_number 12
_symmetry_cell_setting 'monoclinic'
loop_
_space_group_symop_operation_xyz
x,y,z
-x,y,-z
-x,-y,-z
x,-y,z
1/2+x,1/2+y,z
1/2-x,1/2+y,-z
1/2-x,1/2-y,-z
1/2+x,1/2-y,z
loop_
_atom_site_type_symbol
_atom_site_label
_atom_site_fract_x
_atom_site_fract_y
_atom_site_fract_z
Si Si1 0.547146 0.593741 0.856388
Si Si2 0.727487 0.167388 0.828013
Si Si3 0.727600 0.500000 0.392843
Si Si4 0.793239 0.652797 0.865567
Si Si5 0.576170 0.500000 0.594667
Si Si6 0.087831 0.344184 0.711756
Si Si7 0.725397 0.096717 0.976651
Si Si8 0.560048 0.343071 0.699498
O O1 0.524036 0.500000 0.838140
O O2 0.657825 0.596290 0.888977
O O3 0.391194 0.625402 0.923616
O O4 0.611087 0.641159 0.767416
O O5 0.738014 0.256532 0.862578
O O6 0.643032 0.166147 0.778362
O O7 0.670975 0.109861 0.910474
O O8 0.889769 0.146182 0.757782
O O9 0.666042 0.500000 0.493206
O O10 0.590284 0.500000 0.379989
O O11 0.821357 0.417688 0.350927
O O12 0.922955 0.632775 0.772505
O O13 0.840057 0.645180 0.935582
O O14 0.607755 0.416308 0.631314
O O15 0.094605 0.253078 0.671732
O O16 0.718406 0.000000 0.996509
#
# Coordination Sequence:
#
# PCOD9186128 Si02
#       8
#     8   8   4   8   4   8   8   8
#     4  10  19  34  59  87 114 159 213 257 297 360
#     4  10  21  38  57  86 119 161 214 254 303 355
#     4  11  26  42  69 101 126 157 198 261 306 384
#     4  11  22  37  56  83 123 169 202 250 316 357
#     4  11  22  44  75  98 119 157 208 249 315 379
#     4  11  24  40  62  92 129 162 205 256 312 374
#     4  10  22  36  55  82 117 161 217 267 293 345
#     4  10  20  39  67  93 120 162 206 255 304 372
#
# _framework density 20.165929999999999
#
# number of rings (size 3 to 8) (size 9 to 14) (size 15 to 20)
#    0.000    1.571    3.571    1.286    4.000    2.286 
#    2.571    0.714    0.000    1.714    0.000    0.000 
#    0.000    0.000    0.000    0.000    0.000    0.000 
#
# Total GULP energy -156268.388745 kJ/mol
# GULP energy per Si atom -5581.013884 kJ/mol
# Density = 2.012003 g / cm^3
# Si number density = 20.165930 Si / 1000 Ang^3
#
#
#
# Elastic Constant Matrix: (Units=GPa)
#
#
# Indices 1 2 3 4 5 6 
#
# 1 50.5365 7.8510 11.4272 0.0000 5.1069 0.0000
# 2 7.8510 111.2667 69.6863 0.0000 -4.8332 0.0000
# 3 11.4272 69.6863 87.7429 0.0000 4.7146 0.0000
# 4 0.0000 0.0000 0.0000 21.9255 0.0000 2.0128
# 5 5.1069 -4.8332 4.7146 0.0000 24.9159 0.0000
# 6 0.0000 0.0000 0.0000 2.0128 0.0000 22.3890
#
#
#
# Elastic Compliance Matrix: (Units=1/GPa)
#
#
# Indices 1 2 3 4 5 6 
#
# 1 0.020735 -0.000132 -0.002390 0.000000 -0.003823 0.000000
# 2 -0.000132 0.018891 -0.015340 0.000000 0.006594 0.000000
# 3 -0.002390 -0.015340 0.024272 0.000000 -0.007079 0.000000
# 4 0.000000 0.000000 0.000000 0.045989 0.000000 -0.004134
# 5 -0.003823 0.006594 -0.007079 0.000000 0.043537 0.000000
# 6 0.000000 0.000000 0.000000 -0.004134 0.000000 0.045036
#
#
# Mechanical properties :
#
#
# Convention : Reuss Voigt Hill
#
# Bulk Modulus (GPa) = 35.49542 47.49723 41.49633
# Shear Modulus (GPa) = 20.52742 24.55151 22.53946
#
# Velocity S-wave (km/s) = 3.19396 3.49302 3.34683
# Velocity P-wave (km/s) = 5.58943 6.31447 5.96298
#
# Compressibility (1/GPa) = 0.02817265
#
# Stress axis : x y z
#
# Youngs Moduli (GPa) = 48.22759 52.93543 41.19954
#
# Poissons Ratio (x) = 0.00701 0.09846
# Poissons Ratio (y) = 0.00638 0.63202
# Poissons Ratio (z) = 0.11526 0.81205
#
# Static dielectric constant tensor:
#      x y z
#    x 1.745670 0.000000 0.004880 
#    y 0.000000 1.778900 0.000000 
#    z 0.004880 0.000000 1.687450 
# 
# From -- ./inp_files/263284.got.cif
#   From: 2010.05.17/outbox.cif.g08.bks.cpg/sg12_132_cif.got.tgz:263284.got - 2010.06.03 13:09:07.
