data_PCOD9186858
_publ_section_title
;
Structure prediction by ZEFSAII (Michael W. Deem and Ramdas Pophale) SiO2 
 PCOD9186858
Probable space group: C 2/M
;
_chemical_formula_sum "Si O2"
_cell_formula_units_Z 48
_cell_length_a 18.888599
_cell_length_b 7.962391
_cell_length_c 32.542064
_cell_angle_alpha 90.000000
_cell_angle_beta 154.562460
_cell_angle_gamma 90.000000
_cell_volume 2102.222659
_symmetry_space_group_name_H-M "C 2/M"
_symmetry_group_IT_number 12
_symmetry_cell_setting 'monoclinic'
loop_
_space_group_symop_operation_xyz
x,y,z
-x,y,-z
-x,-y,-z
x,-y,z
1/2+x,1/2+y,z
1/2-x,1/2+y,-z
1/2-x,1/2-y,-z
1/2+x,1/2-y,z
loop_
_atom_site_type_symbol
_atom_site_label
_atom_site_fract_x
_atom_site_fract_y
_atom_site_fract_z
Si Si1 0.269027 0.500000 0.360865
Si Si2 0.498499 0.184102 0.381888
Si Si3 0.113385 0.000000 0.491400
Si Si4 0.360124 0.739808 0.769335
Si Si5 0.352459 0.701070 0.219333
Si Si6 0.023138 0.200793 0.085272
Si Si7 0.144343 0.700727 0.870048
O O1 0.448823 0.500000 0.433580
O O2 0.256581 0.500000 0.403342
O O3 0.186673 0.343604 0.295516
O O4 0.600535 0.333358 0.456877
O O5 0.320231 0.172739 0.311820
O O6 0.453852 0.227640 0.311424
O O7 0.577245 0.000000 0.425921
O O8 0.418918 0.804676 0.844464
O O9 0.537827 0.683531 0.844942
O O10 0.360640 0.500000 0.225124
O O11 0.406693 0.766543 0.203611
O O12 0.163456 0.761642 0.125755
O O13 0.035184 0.000000 0.102142
O O14 0.838263 0.239952 0.975970
O O15 0.129685 0.500000 0.872291
#
# Coordination Sequence:
#
# PCOD9186858 Si02
#       7
#     4   8   4   8   8   8   8
#     4   9  18  34  58  87 118 145 188 245 298 352
#     4  10  20  38  63  89 119 154 194 243 296 354
#     4   9  18  36  62  93 117 145 194 241 297 363
#     4  10  19  35  56  84 113 158 192 236 301 350
#     4  11  22  36  55  83 114 157 203 250 288 347
#     4  10  22  37  54  79 115 156 206 249 285 343
#     4  11  22  36  54  80 117 161 200 246 296 341
#
# _framework density 22.832978000000001
#
# number of rings (size 3 to 8) (size 9 to 14) (size 15 to 20)
#    0.000    1.833    1.667    4.000    3.500    4.000 
#    0.000    7.500    0.000    1.000    0.000    0.000 
#    0.000    0.000    0.000    0.000    0.000    0.000 
#
# Total GULP energy -133661.980346 kJ/mol
# GULP energy per Si atom -5569.249181 kJ/mol
# Density = 2.278101 g / cm^3
# Si number density = 22.832978 Si / 1000 Ang^3
#
#
#
# Elastic Constant Matrix: (Units=GPa)
#
#
# Indices 1 2 3 4 5 6 
#
# 1 115.1107 14.4472 15.4035 -0.0002 0.5869 0.0001
# 2 14.4472 129.5096 32.0771 -0.0007 -12.8309 0.0002
# 3 15.4035 32.0771 68.4534 -0.0010 -23.6818 -0.0003
# 4 -0.0002 -0.0007 -0.0010 8.8024 -0.0001 -17.5777
# 5 0.5869 -12.8309 -23.6818 -0.0001 28.4476 0.0000
# 6 0.0001 0.0002 -0.0003 -17.5777 0.0000 -11.5843
#
#
#
# Elastic Compliance Matrix: (Units=1/GPa)
#
#
# Indices 1 2 3 4 5 6 
#
# 1 0.009141 -0.000618 -0.002709 0.000000 -0.002723 0.000000
# 2 -0.000618 0.008788 -0.003656 0.000000 0.000933 0.000000
# 3 -0.002709 -0.003656 0.023006 0.000000 0.017558 -0.000001
# 4 0.000000 0.000000 0.000000 0.028189 0.000000 -0.042774
# 5 -0.002723 0.000933 0.017558 0.000000 0.050246 -0.000001
# 6 0.000000 0.000000 -0.000001 -0.042774 -0.000001 -0.021420
#
#
# Mechanical properties :
#
#
# Convention : Reuss Voigt Hill
#
# Bulk Modulus (GPa) = 37.08142 48.54769 42.81456
# Shear Modulus (GPa) = 41.35364 21.87622 31.61493
#
# Velocity S-wave (km/s) = 4.26036 3.09867 3.72508
# Velocity P-wave (km/s) = 6.36211 5.84043 6.10684
#
# Compressibility (1/GPa) = 0.02696768
#
# Stress axis : x y z
#
# Youngs Moduli (GPa) = 109.39336 113.78557 43.46720
#
# Poissons Ratio (x) = 0.07038 0.11776
# Poissons Ratio (y) = 0.06766 0.15893
# Poissons Ratio (z) = 0.29636 0.41604
#
# Static dielectric constant tensor:
#      x y z
#    x 1.814280 0.000000 0.045800 
#    y 0.000000 2.054230 0.000000 
#    z 0.045800 0.000000 1.910360 
# 
# From -- ./inp_files/378570.got.cif
#   From: 2010.05.17/outbox.cif.g08.bks.cpg/sg12_190_cif.got.tgz:378570.got - 2010.06.03 13:09:07.
