data_PCOD9186601
_publ_section_title
;
Structure prediction by ZEFSAII (Michael W. Deem and Ramdas Pophale) SiO2 
 PCOD9186601
Probable space group: C 2/M
;
_chemical_formula_sum "Si O2"
_cell_formula_units_Z 56
_cell_length_a 18.364648
_cell_length_b 29.866730
_cell_length_c 9.152764
_cell_angle_alpha 90.000000
_cell_angle_beta 138.216890
_cell_angle_gamma 90.000000
_cell_volume 3345.034723
_symmetry_space_group_name_H-M "C 2/M"
_symmetry_group_IT_number 12
_symmetry_cell_setting 'monoclinic'
loop_
_space_group_symop_operation_xyz
x,y,z
-x,y,-z
-x,-y,-z
x,-y,z
1/2+x,1/2+y,z
1/2-x,1/2+y,-z
1/2-x,1/2-y,-z
1/2+x,1/2-y,z
loop_
_atom_site_type_symbol
_atom_site_label
_atom_site_fract_x
_atom_site_fract_y
_atom_site_fract_z
Si Si1 0.071792 0.625732 0.312065
Si Si2 0.313256 0.120436 0.949920
Si Si3 0.742156 0.370576 0.173640
Si Si4 0.870961 0.051017 0.823384
Si Si5 0.203453 0.692410 0.312946
Si Si6 0.804235 0.447670 0.686921
Si Si7 0.370106 0.707512 0.821152
O O1 0.143748 0.628291 0.566132
O O2 0.110296 0.667365 0.269405
O O3 0.108401 0.581867 0.274233
O O4 0.944492 0.625450 0.153614
O O5 0.271551 0.160577 0.785017
O O6 0.291670 0.075124 0.825918
O O7 0.262772 0.124103 0.033804
O O8 0.674766 0.412566 0.134489
O O9 0.678805 0.325821 0.130161
O O10 0.806772 0.057198 0.574258
O O11 0.847843 0.000000 0.836794
O O12 0.000000 0.056293 0.000000
O O13 0.307311 0.695767 0.575982
O O14 0.162739 0.740897 0.202032
O O15 0.832636 0.500000 0.737102
O O16 0.500000 0.702568 0.000000
#
# Coordination Sequence:
#
# PCOD9186601 Si02
#       7
#     8   8   8   8   8   8   8
#     4   9  18  34  52  70  98 135 166 192 237 295
#     4  11  20  32  49  73 107 131 154 200 249 290
#     4  10  21  32  49  77 101 126 161 202 247 292
#     4   9  18  36  56  69  91 130 169 202 240 290
#     4   9  19  34  54  76  94 128 172 199 233 290
#     4   9  18  32  52  76  96 124 169 205 233 284
#     4  10  19  35  55  72  97 130 167 205 238 282
#
# _framework density 16.741232
#
# number of rings (size 3 to 8) (size 9 to 14) (size 15 to 20)
#    0.000    2.429    0.000    4.286    0.000    2.286 
#    0.000    2.857    0.000    6.857    0.000    0.000 
#    0.000    0.000    0.000    0.000    0.000    0.000 
#
# Total GULP energy -156182.483305 kJ/mol
# GULP energy per Si atom -5577.945832 kJ/mol
# Density = 1.670313 g / cm^3
# Si number density = 16.741232 Si / 1000 Ang^3
#
#
#
# Elastic Constant Matrix: (Units=GPa)
#
#
# Indices 1 2 3 4 5 6 
#
# 1 89.0289 65.9228 45.3860 0.0000 -17.9162 0.0000
# 2 65.9228 134.4628 46.1717 0.0000 -6.3872 0.0000
# 3 45.3860 46.1717 59.2197 0.0000 6.3145 0.0000
# 4 0.0000 0.0000 0.0000 8.8376 0.0000 5.2165
# 5 -17.9162 -6.3872 6.3145 0.0000 33.0391 0.0000
# 6 0.0000 0.0000 0.0000 5.2165 0.0000 3.8748
#
#
#
# Elastic Compliance Matrix: (Units=1/GPa)
#
#
# Indices 1 2 3 4 5 6 
#
# 1 0.030442 -0.007275 -0.019670 0.000000 0.018861 0.000000
# 2 -0.007275 0.012319 -0.003943 0.000000 -0.000810 0.000000
# 3 -0.019670 -0.003943 0.037009 0.000000 -0.018502 0.000000
# 4 0.000000 0.000000 0.000000 0.550977 0.000000 -0.741751
# 5 0.018861 -0.000810 -0.018502 0.000000 0.043874 0.000000
# 6 0.000000 0.000000 0.000000 -0.741751 0.000000 1.256656
#
#
# Mechanical properties :
#
#
# Convention : Reuss Voigt Hill
#
# Bulk Modulus (GPa) = 55.57421 66.40804 60.99113
# Shear Modulus (GPa) = 2.50119 17.49905 10.00012
#
# Velocity S-wave (km/s) = 1.22363 3.23657 2.44669
# Velocity P-wave (km/s) = 5.93839 7.32943 6.67027
#
# Compressibility (1/GPa) = 0.01799396
#
# Stress axis : x y z
#
# Youngs Moduli (GPa) = 32.84932 81.17517 27.02068
#
# Poissons Ratio (x) = 0.59051 0.53150
# Poissons Ratio (y) = 0.23896 0.10655
# Poissons Ratio (z) = 0.64615 0.32009
#
# Static dielectric constant tensor:
#      x y z
#    x 1.515390 0.000000 0.001860 
#    y 0.000000 1.576680 0.000000 
#    z 0.001860 0.000000 1.580610 
# 
# From -- ./inp_files/54301.got.cif
#   From: 2010.05.17/outbox.cif.g08.bks.cpg/sg12_28_cif.got.tgz:54301.got - 2010.06.03 13:09:07.
