data_PCOD9186894
_publ_section_title
;
Structure prediction by ZEFSAII (Michael W. Deem and Ramdas Pophale) SiO2 
 PCOD9186894
Probable space group: C 2/M
;
_chemical_formula_sum "Si O2"
_cell_formula_units_Z 64
_cell_length_a 15.536007
_cell_length_b 7.575261
_cell_length_c 28.590608
_cell_angle_alpha 90.000000
_cell_angle_beta 59.709993
_cell_angle_gamma 90.000000
_cell_volume 2905.457048
_symmetry_space_group_name_H-M "C 2/M"
_symmetry_group_IT_number 12
_symmetry_cell_setting 'monoclinic'
loop_
_space_group_symop_operation_xyz
x,y,z
-x,y,-z
-x,-y,-z
x,-y,z
1/2+x,1/2+y,z
1/2-x,1/2+y,-z
1/2-x,1/2-y,-z
1/2+x,1/2-y,z
loop_
_atom_site_type_symbol
_atom_site_label
_atom_site_fract_x
_atom_site_fract_y
_atom_site_fract_z
Si Si1 0.697716 0.788065 0.735757
Si Si2 0.428976 0.705258 0.390707
Si Si3 0.603954 0.285836 0.495977
Si Si4 0.525436 0.216203 0.203096
Si Si5 0.400480 0.208303 0.717044
Si Si6 0.244475 0.700541 0.622004
Si Si7 0.603803 0.709487 0.995338
Si Si8 0.171397 0.286201 0.081113
O O1 0.586959 0.726519 0.777603
O O2 0.783617 0.746465 0.748551
O O3 0.735877 0.715698 0.675186
O O4 0.691217 0.000000 0.732303
O O5 0.401146 0.500000 0.396784
O O6 0.400749 0.777762 0.449417
O O7 0.543836 0.717101 0.344001
O O8 0.366298 0.802623 0.368361
O O9 0.500000 0.245569 0.500000
O O10 0.612987 0.500000 0.496861
O O11 0.689158 0.219339 0.437717
O O12 0.551969 0.276629 0.248070
O O13 0.605923 0.273485 0.142956
O O14 0.527696 0.000000 0.202752
O O15 0.415104 0.000000 0.711143
O O16 0.282727 0.500000 0.617652
O O17 0.603751 0.500000 0.985893
O O18 0.615369 0.735241 0.048204
O O19 0.500000 0.777744 0.000000
O O20 0.713238 0.777907 0.948460
O O21 0.175259 0.500000 0.080152
#
# Coordination Sequence:
#
# PCOD9186894 Si02
#       8
#     8   8   8   8   8   8   8   8
#     4  10  20  37  58  79 105 142 183 227 278 333
#     4  11  21  34  54  79 106 137 179 227 274 333
#     4   9  18  32  51  75 101 134 177 221 274 336
#     4   9  19  37  57  78 109 147 185 224 275 329
#     4  11  22  38  58  81 108 144 185 227 278 335
#     4  10  19  35  57  76 103 142 179 222 279 337
#     4   9  18  33  54  82 116 150 183 224 274 320
#     4   9  18  34  56  80 109 148 189 227 267 320
#
# _framework density 22.027517
#
# number of rings (size 3 to 8) (size 9 to 14) (size 15 to 20)
#    0.000    2.250    1.250    1.875    0.000    3.750 
#    0.000    3.750    0.000    2.625    0.000    0.000 
#    0.000    0.000    0.000    0.000    0.000    0.000 
#
# Total GULP energy -178595.304893 kJ/mol
# GULP energy per Si atom -5581.103278 kJ/mol
# Density = 2.197738 g / cm^3
# Si number density = 22.027517 Si / 1000 Ang^3
#
#
#
# Elastic Constant Matrix: (Units=GPa)
#
#
# Indices 1 2 3 4 5 6 
#
# 1 124.3200 4.1781 38.6213 0.0001 -30.0344 0.0002
# 2 4.1781 53.4707 7.7199 0.0002 -2.3459 0.0005
# 3 38.6213 7.7199 128.9902 0.0001 -26.9061 0.0002
# 4 0.0001 0.0002 0.0001 13.0406 0.0001 16.1797
# 5 -30.0344 -2.3459 -26.9061 0.0001 22.0136 0.0002
# 6 0.0002 0.0005 0.0002 16.1797 0.0002 36.0887
#
#
#
# Elastic Compliance Matrix: (Units=1/GPa)
#
#
# Indices 1 2 3 4 5 6 
#
# 1 0.012006 -0.000200 -0.000229 0.000000 0.016080 0.000000
# 2 -0.000200 0.018880 -0.000949 0.000000 0.000579 0.000000
# 3 -0.000229 -0.000949 0.010458 0.000000 0.012369 0.000000
# 4 0.000000 0.000000 0.000000 0.172807 -0.000001 -0.077475
# 5 0.016080 0.000579 0.012369 -0.000001 0.082545 0.000000
# 6 0.000000 0.000000 0.000000 -0.077475 0.000000 0.062444
#
#
# Mechanical properties :
#
#
# Convention : Reuss Voigt Hill
#
# Bulk Modulus (GPa) = 25.91438 45.31329 35.61384
# Shear Modulus (GPa) = 13.34193 31.31270 22.32731
#
# Velocity S-wave (km/s) = 2.46375 3.77440 3.18718
# Velocity P-wave (km/s) = 4.45910 6.29370 5.45409
#
# Compressibility (1/GPa) = 0.03858861
#
# Stress axis : x y z
#
# Youngs Moduli (GPa) = 83.28960 52.96641 95.62182
#
# Poissons Ratio (x) = 0.01057 0.02187
# Poissons Ratio (y) = 0.01663 0.09078
# Poissons Ratio (z) = 0.01905 0.05028
#
# Static dielectric constant tensor:
#      x y z
#    x 1.814100 0.000000 -0.030980 
#    y 0.000000 1.838840 0.000000 
#    z -0.030980 0.000000 1.818300 
# 
# From -- ./inp_files/375016.got.cif
#   From: 2010.05.17/outbox.cif.g08.bks.cpg/sg12_188_cif.got.tgz:375016.got - 2010.06.03 13:09:07.
