data_PCOD9186359
_publ_section_title
;
Structure prediction by ZEFSAII (Michael W. Deem and Ramdas Pophale) SiO2 
 PCOD9186359
Probable space group: C 2/M
;
_chemical_formula_sum "Si O2"
_cell_formula_units_Z 56
_cell_length_a 23.067787
_cell_length_b 9.248944
_cell_length_c 32.141751
_cell_angle_alpha 90.000000
_cell_angle_beta 25.413612
_cell_angle_gamma 90.000000
_cell_volume 2942.906464
_symmetry_space_group_name_H-M "C 2/M"
_symmetry_group_IT_number 12
_symmetry_cell_setting 'monoclinic'
loop_
_space_group_symop_operation_xyz
x,y,z
-x,y,-z
-x,-y,-z
x,-y,z
1/2+x,1/2+y,z
1/2-x,1/2+y,-z
1/2-x,1/2-y,-z
1/2+x,1/2-y,z
loop_
_atom_site_type_symbol
_atom_site_label
_atom_site_fract_x
_atom_site_fract_y
_atom_site_fract_z
Si Si1 0.137043 0.168082 0.884906
Si Si2 0.116713 0.673354 0.535771
Si Si3 0.163095 0.672729 0.021134
Si Si4 0.891543 0.673062 0.361141
Si Si5 0.856243 0.671927 0.206314
Si Si6 0.689333 0.829010 0.147989
Si Si7 0.909059 0.327289 0.599254
O O1 0.145789 0.269436 0.839608
O O2 0.258908 0.187291 0.838329
O O3 0.136783 0.000000 0.871143
O O4 0.000000 0.191776 0.000000
O O5 0.130479 0.500000 0.523638
O O6 0.092464 0.708816 0.600027
O O7 0.258026 0.747277 0.431953
O O8 0.994662 0.716497 0.584699
O O9 0.178574 0.500000 0.012896
O O10 0.004419 0.707186 0.128031
O O11 0.250000 0.750000 0.000000
O O12 0.218619 0.734344 0.941643
O O13 0.873595 0.500000 0.369848
O O14 0.031652 0.710129 0.247799
O O15 0.840153 0.500000 0.217286
O O16 0.733092 0.747206 0.309611
O O17 0.704773 0.000000 0.127612
O O18 0.886438 0.500000 0.616133
O O19 0.000000 0.297534 0.500000
#
# Coordination Sequence:
#
# PCOD9186359 Si02
#       7
#     8   8   8   8   8   8   8
#     4  10  19  34  61  90 118 156 195 234 286 348
#     4   9  18  35  56  81 113 145 187 237 283 337
#     4  11  25  42  59  82 115 154 195 237 284 342
#     4   9  18  32  54  82 114 148 182 230 286 339
#     4  11  24  40  60  88 121 153 190 246 302 347
#     4  10  20  36  58  87 119 153 194 236 283 343
#     4  10  22  40  62  85 111 149 197 244 289 348
#
# _framework density 19.028808000000001
#
# number of rings (size 3 to 8) (size 9 to 14) (size 15 to 20)
#    0.000    2.000    1.429    1.714    0.000    7.429 
#    0.000    5.714    0.000    0.000    0.000    0.000 
#    0.000    0.000    0.000    0.000    0.000    0.000 
#
# Total GULP energy -156406.865097 kJ/mol
# GULP energy per Si atom -5585.959468 kJ/mol
# Density = 1.898550 g / cm^3
# Si number density = 19.028808 Si / 1000 Ang^3
#
#
#
# Elastic Constant Matrix: (Units=GPa)
#
#
# Indices 1 2 3 4 5 6 
#
# 1 68.4618 44.2635 45.0086 0.0000 -15.7229 0.0002
# 2 44.2635 50.5694 67.2706 0.0011 -13.6064 -0.0018
# 3 45.0086 67.2706 144.9978 0.0018 -29.0054 0.0003
# 4 0.0000 0.0011 0.0018 36.1385 -0.0002 -2.4806
# 5 -15.7229 -13.6064 -29.0054 -0.0002 24.6912 0.0001
# 6 0.0002 -0.0018 0.0003 -2.4806 0.0001 20.7485
#
#
#
# Elastic Compliance Matrix: (Units=1/GPa)
#
#
# Indices 1 2 3 4 5 6 
#
# 1 0.041690 -0.050240 0.013255 0.000000 0.014432 -0.000005
# 2 -0.050240 0.112201 -0.039857 -0.000001 -0.016984 0.000011
# 3 0.013255 -0.039857 0.024272 0.000000 0.014990 -0.000004
# 4 0.000000 -0.000001 0.000000 0.027900 0.000000 0.003336
# 5 0.014432 -0.016984 0.014990 0.000000 0.057941 -0.000002
# 6 -0.000005 0.000011 -0.000004 0.003336 -0.000002 0.048595
#
#
# Mechanical properties :
#
#
# Convention : Reuss Voigt Hill
#
# Bulk Modulus (GPa) = 40.85335 64.12385 52.48860
# Shear Modulus (GPa) = 10.53867 23.48140 17.01003
#
# Velocity S-wave (km/s) = 2.35591 3.51663 2.99308
# Velocity P-wave (km/s) = 5.37738 7.08946 6.29192
#
# Compressibility (1/GPa) = 0.02447779
#
# Stress axis : x y z
#
# Youngs Moduli (GPa) = 23.98681 8.91258 41.19922
#
# Poissons Ratio (x) = 0.44777 -0.54609
# Poissons Ratio (y) = 1.20510 1.64209
# Poissons Ratio (z) = -0.31794 0.35523
#
# Static dielectric constant tensor:
#      x y z
#    x 1.661570 0.000000 -0.001280 
#    y 0.000000 1.628800 0.000000 
#    z -0.001280 0.000000 1.661540 
# 
# From -- ./inp_files/380584.got.cif
#   From: 2010.05.17/outbox.cif.g08.bks.cpg/sg12_191_cif.got.tgz:380584.got - 2010.06.03 13:09:07.
