data_PCOD9186488
_publ_section_title
;
Structure prediction by ZEFSAII (Michael W. Deem and Ramdas Pophale) SiO2 
 PCOD9186488
Probable space group: C 2/M
;
_chemical_formula_sum "Si O2"
_cell_formula_units_Z 64
_cell_length_a 15.199884
_cell_length_b 30.881770
_cell_length_c 11.740779
_cell_angle_alpha 90.000000
_cell_angle_beta 138.979350
_cell_angle_gamma 90.000000
_cell_volume 3617.114719
_symmetry_space_group_name_H-M "C 2/M"
_symmetry_group_IT_number 12
_symmetry_cell_setting 'monoclinic'
loop_
_space_group_symop_operation_xyz
x,y,z
-x,y,-z
-x,-y,-z
x,-y,z
1/2+x,1/2+y,z
1/2-x,1/2+y,-z
1/2-x,1/2-y,-z
1/2+x,1/2-y,z
loop_
_atom_site_type_symbol
_atom_site_label
_atom_site_fract_x
_atom_site_fract_y
_atom_site_fract_z
Si Si1 0.839428 0.357472 0.330387
Si Si2 0.776452 0.714115 0.622177
Si Si3 0.127134 0.950312 0.481483
Si Si4 0.806118 0.739143 0.241706
Si Si5 0.320548 0.449462 0.196472
Si Si6 0.867881 0.379762 0.107476
Si Si7 0.310876 0.120301 0.552096
Si Si8 0.080799 0.718887 0.878517
O O1 0.791693 0.308042 0.281371
O O2 0.814138 0.380223 0.185125
O O3 0.788401 0.378759 0.394975
O O4 0.000000 0.355180 0.500000
O O5 0.750000 0.750000 0.500000
O O6 0.694431 0.726152 0.656414
O O7 0.760704 0.665643 0.558102
O O8 0.936755 0.717484 0.796154
O O9 0.159937 0.947482 0.648166
O O10 0.227986 0.918478 0.521095
O O11 0.972004 0.939431 0.303218
O O12 0.147139 0.000000 0.467267
O O13 0.922467 0.733766 0.258500
O O14 0.676836 0.749525 0.039981
O O15 0.287784 0.500000 0.135889
O O16 0.212581 0.414983 0.044704
O O17 0.855258 0.329418 0.056791
O O18 0.029618 0.385660 0.268173
#
# Coordination Sequence:
#
# PCOD9186488 Si02
#       8
#     8   8   8   8   8   8   8   8
#     4   9  18  36  55  74 108 147 183 224 273 317
#     4  11  21  34  53  77 109 148 186 228 269 319
#     4   9  20  39  59  80 113 142 171 220 277 334
#     4  10  19  35  53  71 105 150 185 222 274 317
#     4   9  19  39  60  81 109 142 174 218 279 335
#     4   9  19  35  59  79 107 141 184 226 270 326
#     4  10  20  36  55  83 109 144 185 229 273 322
#     4   9  21  36  50  75 110 144 184 231 274 309
#
# _framework density 17.693659
#
# number of rings (size 3 to 8) (size 9 to 14) (size 15 to 20)
#    0.000    2.500    1.250    1.875    1.750    1.000 
#    6.750    2.500    0.000    3.750    0.000    0.000 
#    0.000    0.000    0.000    0.000    0.000    0.000 
#
# Total GULP energy -178269.928033 kJ/mol
# GULP energy per Si atom -5570.935251 kJ/mol
# Density = 1.765339 g / cm^3
# Si number density = 17.693659 Si / 1000 Ang^3
#
#
#
# Elastic Constant Matrix: (Units=GPa)
#
#
# Indices 1 2 3 4 5 6 
#
# 1 68.5843 44.3599 4.2799 0.0000 -5.3527 0.0000
# 2 44.3599 73.4074 32.6686 0.0000 4.1878 0.0000
# 3 4.2799 32.6686 42.4597 0.0000 -7.5529 0.0000
# 4 0.0000 0.0000 0.0000 35.6549 0.0000 -1.4084
# 5 -5.3527 4.1878 -7.5529 0.0000 13.6682 0.0000
# 6 0.0000 0.0000 0.0000 -1.4084 0.0000 30.7074
#
#
#
# Elastic Compliance Matrix: (Units=1/GPa)
#
#
# Indices 1 2 3 4 5 6 
#
# 1 0.060664 -0.067661 0.059729 0.000000 0.077493 0.000000
# 2 -0.067661 0.100366 -0.089370 0.000000 -0.106633 0.000000
# 3 0.059729 -0.089370 0.105716 0.000000 0.109190 0.000000
# 4 0.000000 0.000000 0.000000 0.028098 0.000000 0.001289
# 5 0.077493 -0.106633 0.109190 0.000000 0.196518 0.000000
# 6 0.000000 0.000000 0.000000 0.001289 0.000000 0.032625
#
#
# Mechanical properties :
#
#
# Convention : Reuss Voigt Hill
#
# Bulk Modulus (GPa) = 13.86181 38.56312 26.21246
# Shear Modulus (GPa) = 6.73276 22.88230 14.80753
#
# Velocity S-wave (km/s) = 1.95280 3.60008 2.89603
# Velocity P-wave (km/s) = 3.59666 6.25483 5.10191
#
# Compressibility (1/GPa) = 0.07214067
#
# Stress axis : x y z
#
# Youngs Moduli (GPa) = 16.48421 9.96356 9.45934
#
# Poissons Ratio (x) = 0.67415 -0.56499
# Poissons Ratio (y) = 1.11534 0.84538
# Poissons Ratio (z) = -0.98458 0.89044
#
# Static dielectric constant tensor:
#      x y z
#    x 1.642750 0.000000 -0.017990 
#    y 0.000000 1.573980 0.000000 
#    z -0.017990 0.000000 1.618770 
# 
# From -- ./inp_files/149802.got.cif
#   From: 2010.05.17/outbox.cif.g08.bks.cpg/sg12_75_cif.got.tgz:149802.got - 2010.06.03 13:09:07.
