data_PCOD9186474
_publ_section_title
;
Structure prediction by ZEFSAII (Michael W. Deem and Ramdas Pophale) SiO2 
 PCOD9186474
Probable space group: C 2/M
;
_chemical_formula_sum "Si O2"
_cell_formula_units_Z 56
_cell_length_a 9.282484
_cell_length_b 24.512274
_cell_length_c 16.009732
_cell_angle_alpha 90.000000
_cell_angle_beta 130.776077
_cell_angle_gamma 90.000000
_cell_volume 2758.553259
_symmetry_space_group_name_H-M "C 2/M"
_symmetry_group_IT_number 12
_symmetry_cell_setting 'monoclinic'
loop_
_space_group_symop_operation_xyz
x,y,z
-x,y,-z
-x,-y,-z
x,-y,z
1/2+x,1/2+y,z
1/2-x,1/2+y,-z
1/2-x,1/2-y,-z
1/2+x,1/2-y,z
loop_
_atom_site_type_symbol
_atom_site_label
_atom_site_fract_x
_atom_site_fract_y
_atom_site_fract_z
Si Si1 0.340636 0.063554 0.204308
Si Si2 0.495565 0.251111 0.319512
Si Si3 0.193735 0.671028 0.522499
Si Si4 0.482114 0.351473 0.894533
Si Si5 0.365337 0.057717 0.532267
Si Si6 0.074171 0.725996 0.177069
Si Si7 0.401647 0.884032 0.043612
O O1 0.509672 0.062687 0.336356
O O2 0.397613 0.084578 0.132235
O O3 0.189692 0.106457 0.187687
O O4 0.271783 0.000000 0.171786
O O5 0.640152 0.301019 0.362700
O O6 0.620082 0.208703 0.419432
O O7 0.299996 0.273741 0.282728
O O8 0.452528 0.223001 0.215729
O O9 0.258462 0.611681 0.519657
O O10 0.000000 0.666092 0.500000
O O11 0.459700 0.287284 0.868206
O O12 0.500000 0.356068 0.000000
O O13 0.683533 0.371677 0.935973
O O14 0.500000 0.056593 0.500000
O O15 0.261474 0.000000 0.494135
O O16 0.008546 0.674293 0.099041
O O17 0.500000 0.911165 0.000000
#
# Coordination Sequence:
#
# PCOD9186474 Si02
#       7
#     8   8   8   8   8   8   8
#     4  10  22  41  65  90 116 156 208 250 294 351
#     4  11  22  32  54  82 115 162 189 237 295 344
#     4  10  19  35  51  81 120 144 196 239 285 359
#     4  10  21  37  60  85 117 156 200 252 294 342
#     4   9  18  34  60  89 114 144 188 250 301 340
#     4  12  21  36  56  84 120 156 199 239 297 362
#     4  11  23  38  57  88 124 161 198 244 303 355
#
# _framework density 20.300497
#
# number of rings (size 3 to 8) (size 9 to 14) (size 15 to 20)
#    0.000    1.571    1.429    5.143    2.000    2.857 
#    0.000    0.000    0.000    0.857    0.000    3.000 
#    0.000    0.000    0.000    0.000    0.000    0.000 
#
# Total GULP energy -155999.601234 kJ/mol
# GULP energy per Si atom -5571.414330 kJ/mol
# Density = 2.025429 g / cm^3
# Si number density = 20.300497 Si / 1000 Ang^3
#
#
#
# Elastic Constant Matrix: (Units=GPa)
#
#
# Indices 1 2 3 4 5 6 
#
# 1 76.9186 4.7352 11.3038 0.0000 -1.5215 0.0000
# 2 4.7352 104.7905 10.4604 0.0000 -0.7381 0.0000
# 3 11.3038 10.4604 28.5611 0.0000 -6.1162 0.0000
# 4 0.0000 0.0000 0.0000 28.8199 0.0000 0.8982
# 5 -1.5215 -0.7381 -6.1162 0.0000 24.0884 0.0000
# 6 0.0000 0.0000 0.0000 0.8982 0.0000 14.2898
#
#
#
# Elastic Compliance Matrix: (Units=1/GPa)
#
#
# Indices 1 2 3 4 5 6 
#
# 1 0.013811 -0.000073 -0.005555 0.000000 -0.000540 0.000000
# 2 -0.000073 0.009915 -0.003742 0.000000 -0.000651 0.000000
# 3 -0.005555 -0.003742 0.040695 0.000000 0.009867 0.000000
# 4 0.000000 0.000000 0.000000 0.034766 0.000000 -0.002185
# 5 -0.000540 -0.000651 0.009867 0.000000 0.043965 0.000000
# 6 0.000000 0.000000 0.000000 -0.002185 0.000000 0.070117
#
#
# Mechanical properties :
#
#
# Convention : Reuss Voigt Hill
#
# Bulk Modulus (GPa) = 21.89111 29.25210 25.57161
# Shear Modulus (GPa) = 20.22358 25.69101 22.95729
#
# Velocity S-wave (km/s) = 3.15971 3.56130 3.36649
# Velocity P-wave (km/s) = 4.91107 5.59922 5.26640
#
# Compressibility (1/GPa) = 0.04568064
#
# Stress axis : x y z
#
# Youngs Moduli (GPa) = 72.40650 100.85646 24.57333
#
# Poissons Ratio (x) = 0.00740 0.13650
# Poissons Ratio (y) = 0.00531 0.09195
# Poissons Ratio (z) = 0.40221 0.37737
#
# Static dielectric constant tensor:
#      x y z
#    x 1.690470 0.000000 0.240420 
#    y 0.000000 1.814000 0.000000 
#    z 0.240420 0.000000 0.799780 
# 
# From -- ./inp_files/259261.got.cif
#   From: 2010.05.17/outbox.cif.g08.bks.cpg/sg12_130_cif.got.tgz:259261.got - 2010.06.03 13:09:07.
