data_PCOD9186574
_publ_section_title
;
Structure prediction by ZEFSAII (Michael W. Deem and Ramdas Pophale) SiO2 
 PCOD9186574
Probable space group: C 2/M
;
_chemical_formula_sum "Si O2"
_cell_formula_units_Z 40
_cell_length_a 12.873578
_cell_length_b 13.595073
_cell_length_c 9.590917
_cell_angle_alpha 90.000000
_cell_angle_beta 98.738958
_cell_angle_gamma 90.000000
_cell_volume 1659.088846
_symmetry_space_group_name_H-M "C 2/M"
_symmetry_group_IT_number 12
_symmetry_cell_setting 'monoclinic'
loop_
_space_group_symop_operation_xyz
x,y,z
-x,y,-z
-x,-y,-z
x,-y,z
1/2+x,1/2+y,z
1/2-x,1/2+y,-z
1/2-x,1/2-y,-z
1/2+x,1/2-y,z
loop_
_atom_site_type_symbol
_atom_site_label
_atom_site_fract_x
_atom_site_fract_y
_atom_site_fract_z
Si Si1 0.326930 0.887810 0.574751
Si Si2 0.644566 0.189843 0.128418
Si Si3 0.727373 0.888317 0.852397
Si Si4 0.386987 0.388831 0.404028
Si Si5 0.532929 0.800361 0.706497
O O1 0.305475 0.874601 0.736721
O O2 0.207731 0.864855 0.504157
O O3 0.431041 0.821152 0.586542
O O4 0.354417 0.000000 0.549494
O O5 0.688739 0.301047 0.149235
O O6 0.524180 0.193010 0.155190
O O7 0.677299 0.138334 0.992617
O O8 0.629880 0.876491 0.723342
O O9 0.766793 0.000000 0.854838
O O10 0.500000 0.391951 0.500000
O O11 0.369025 0.500000 0.349876
O O12 0.408433 0.302554 0.299011
#
# Coordination Sequence:
#
# PCOD9186574 Si02
#       5
#     8   8   8   8   8
#     4   9  18  34  54  78 105 139 178 219 263 316
#     4   9  21  33  51  82 110 141 176 214 260 314
#     4  11  20  34  55  80 112 146 178 216 262 313
#     4  10  21  38  58  78 105 142 179 221 275 324
#     4  10  19  35  54  81 105 139 179 224 259 317
#
# _framework density 24.10962
#
# number of rings (size 3 to 8) (size 9 to 14) (size 15 to 20)
#    1.200    1.000    2.000    1.800    0.000    2.400 
#    0.000    0.000    0.000    6.000    0.000    0.000 
#    0.000    0.000    0.000    0.000    0.000    0.000 
#
# Total GULP energy -111424.424874 kJ/mol
# GULP energy per Si atom -5571.221244 kJ/mol
# Density = 2.405475 g / cm^3
# Si number density = 24.109620 Si / 1000 Ang^3
#
#
#
# Elastic Constant Matrix: (Units=GPa)
#
#
# Indices 1 2 3 4 5 6 
#
# 1 118.7839 17.6817 -6.4591 0.0000 5.7473 0.0000
# 2 17.6817 144.2648 13.8149 0.0000 5.7869 0.0000
# 3 -6.4591 13.8149 17.3412 0.0000 0.9208 0.0000
# 4 0.0000 0.0000 0.0000 30.0833 0.0000 4.4125
# 5 5.7473 5.7869 0.9208 0.0000 25.6670 0.0000
# 6 0.0000 0.0000 0.0000 4.4125 0.0000 36.2814
#
#
#
# Elastic Compliance Matrix: (Units=1/GPa)
#
#
# Indices 1 2 3 4 5 6 
#
# 1 0.008977 -0.001468 0.004611 0.000000 -0.001845 0.000000
# 2 -0.001468 0.007801 -0.006698 0.000000 -0.001190 0.000000
# 3 0.004611 -0.006698 0.064818 0.000000 -0.001848 0.000000
# 4 0.000000 0.000000 0.000000 0.033845 0.000000 -0.004116
# 5 -0.001845 -0.001190 -0.001848 0.000000 0.039708 0.000000
# 6 0.000000 0.000000 0.000000 -0.004116 0.000000 0.028063
#
#
# Mechanical properties :
#
#
# Convention : Reuss Voigt Hill
#
# Bulk Modulus (GPa) = 13.42533 36.71830 25.07181
# Shear Modulus (GPa) = 23.23962 35.42983 29.33472
#
# Velocity S-wave (km/s) = 3.10807 3.83760 3.49194
# Velocity P-wave (km/s) = 4.29658 5.90754 5.16525
#
# Compressibility (1/GPa) = 0.07448608
#
# Stress axis : x y z
#
# Youngs Moduli (GPa) = 111.39410 128.19305 15.42786
#
# Poissons Ratio (x) = 0.18817 -0.07114
# Poissons Ratio (y) = 0.16351 0.10334
# Poissons Ratio (z) = -0.51365 0.85864
#
# Static dielectric constant tensor:
#      x y z
#    x 2.178030 0.000000 0.086940 
#    y 0.000000 1.878770 0.000000 
#    z 0.086940 0.000000 2.153060 
# 
# From -- ./inp_files/140498.got.cif
#   From: 2010.05.17/outbox.cif.g08.bks.cpg/sg12_71_cif.got.tgz:140498.got - 2010.06.03 13:09:07.
