data_PCOD9186729
_publ_section_title
;
Structure prediction by ZEFSAII (Michael W. Deem and Ramdas Pophale) SiO2 
 PCOD9186729
Probable space group: C 2/M
;
_chemical_formula_sum "Si O2"
_cell_formula_units_Z 56
_cell_length_a 15.006246
_cell_length_b 7.703412
_cell_length_c 30.473925
_cell_angle_alpha 90.000000
_cell_angle_beta 53.677757
_cell_angle_gamma 90.000000
_cell_volume 2838.285508
_symmetry_space_group_name_H-M "C 2/M"
_symmetry_group_IT_number 12
_symmetry_cell_setting 'monoclinic'
loop_
_space_group_symop_operation_xyz
x,y,z
-x,y,-z
-x,-y,-z
x,-y,z
1/2+x,1/2+y,z
1/2-x,1/2+y,-z
1/2-x,1/2-y,-z
1/2+x,1/2-y,z
loop_
_atom_site_type_symbol
_atom_site_label
_atom_site_fract_x
_atom_site_fract_y
_atom_site_fract_z
Si Si1 0.652189 0.792977 0.062472
Si Si2 0.207277 0.798197 0.143772
Si Si3 0.287206 0.291711 0.350786
Si Si4 0.452691 0.787292 0.060984
Si Si5 0.828747 0.791548 0.436657
Si Si6 0.924103 0.791798 0.647134
Si Si7 0.964359 0.212602 0.734602
O O1 0.668655 0.710787 0.104905
O O2 0.539060 0.736368 0.072800
O O3 0.650270 0.000000 0.068764
O O4 0.750000 0.750000 0.000000
O O5 0.330454 0.721651 0.107117
O O6 0.117093 0.724205 0.203496
O O7 0.219944 0.000000 0.152732
O O8 0.292536 0.500000 0.350861
O O9 0.282481 0.229109 0.402881
O O10 0.181596 0.250876 0.351694
O O11 0.407494 0.231335 0.298068
O O12 0.449414 0.000000 0.060151
O O13 0.500000 0.730895 0.000000
O O14 0.750000 0.750000 0.500000
O O15 0.955770 0.728999 0.405260
O O16 0.834113 0.000000 0.432299
O O17 0.920252 0.734826 0.699258
O O18 0.928978 0.000000 0.646778
O O19 0.966105 0.000000 0.735098
#
# Coordination Sequence:
#
# PCOD9186729 Si02
#       7
#     8   8   8   8   8   8   8
#     4  11  21  34  52  75 101 129 164 205 249 302
#     4  10  19  35  56  74  97 133 169 204 251 306
#     4   9  18  34  53  75 103 136 170 212 259 301
#     4   9  17  31  50  71  96 127 160 193 239 300
#     4   9  19  34  51  74 108 141 174 212 255 305
#     4   9  18  34  54  76 101 135 176 215 251 298
#     4   8  17  34  54  73  98 133 170 205 252 309
#
# _framework density 19.730219999999999
#
# number of rings (size 3 to 8) (size 9 to 14) (size 15 to 20)
#    0.000    2.714    1.429    2.143    0.000    2.857 
#    0.000   10.000    0.000    0.000    0.000    0.000 
#    0.000    0.000    0.000    0.000    0.000    0.000 
#
# Total GULP energy -156134.174256 kJ/mol
# GULP energy per Si atom -5576.220509 kJ/mol
# Density = 1.968531 g / cm^3
# Si number density = 19.730220 Si / 1000 Ang^3
#
#
#
# Elastic Constant Matrix: (Units=GPa)
#
#
# Indices 1 2 3 4 5 6 
#
# 1 198.2232 -0.7768 110.0592 -0.0001 -18.1484 -0.0002
# 2 -0.7768 30.4643 2.1499 -0.0002 -3.3927 -0.0004
# 3 110.0592 2.1499 206.3018 0.0000 -15.7612 0.0000
# 4 -0.0001 -0.0002 0.0000 10.7924 0.0000 5.0514
# 5 -18.1484 -3.3927 -15.7612 0.0000 16.4577 -0.0001
# 6 -0.0002 -0.0004 0.0000 5.0514 -0.0001 25.8792
#
#
#
# Elastic Compliance Matrix: (Units=1/GPa)
#
#
# Indices 1 2 3 4 5 6 
#
# 1 0.007533 0.001009 -0.003645 0.000000 0.005023 0.000000
# 2 0.001009 0.033739 -0.000295 0.000000 0.007785 0.000000
# 3 -0.003645 -0.000295 0.006995 0.000000 0.002618 0.000000
# 4 0.000000 0.000000 0.000000 0.101974 0.000000 -0.019904
# 5 0.005023 0.007785 0.002618 0.000000 0.070414 0.000000
# 6 0.000000 0.000000 0.000000 -0.019904 0.000000 0.042526
#
#
# Mechanical properties :
#
#
# Convention : Reuss Voigt Hill
#
# Bulk Modulus (GPa) = 23.58293 73.09487 48.33890
# Shear Modulus (GPa) = 17.65674 32.19634 24.92654
#
# Velocity S-wave (km/s) = 2.99475 4.04397 3.55825
# Velocity P-wave (km/s) = 4.89251 7.67675 6.43697
#
# Compressibility (1/GPa) = 0.04240355
#
# Stress axis : x y z
#
# Youngs Moduli (GPa) = 132.75506 29.63944 142.95698
#
# Poissons Ratio (x) = -0.02990 0.52112
# Poissons Ratio (y) = -0.13392 0.04217
# Poissons Ratio (z) = 0.48393 0.00874
#
# Static dielectric constant tensor:
#      x y z
#    x 1.680520 0.000000 -0.009490 
#    y 0.000000 1.743230 0.000000 
#    z -0.009490 0.000000 1.695920 
# 
# From -- ./inp_files/359647.got.cif
#   From: 2010.05.17/outbox.cif.g08.bks.cpg/sg12_180_cif.got.tgz:359647.got - 2010.06.03 13:09:07.
