data_PCOD9186111
_publ_section_title
;
Structure prediction by ZEFSAII (Michael W. Deem and Ramdas Pophale) SiO2 
 PCOD9186111
Probable space group: C 2/M
;
_chemical_formula_sum "Si O2"
_cell_formula_units_Z 60
_cell_length_a 8.716146
_cell_length_b 19.380661
_cell_length_c 19.759032
_cell_angle_alpha 90.000000
_cell_angle_beta 106.098038
_cell_angle_gamma 90.000000
_cell_volume 3206.908804
_symmetry_space_group_name_H-M "C 2/M"
_symmetry_group_IT_number 12
_symmetry_cell_setting 'monoclinic'
loop_
_space_group_symop_operation_xyz
x,y,z
-x,y,-z
-x,-y,-z
x,-y,z
1/2+x,1/2+y,z
1/2-x,1/2+y,-z
1/2-x,1/2-y,-z
1/2+x,1/2-y,z
loop_
_atom_site_type_symbol
_atom_site_label
_atom_site_fract_x
_atom_site_fract_y
_atom_site_fract_z
Si Si1 0.862165 0.575614 0.122199
Si Si2 0.693909 0.818702 0.681920
Si Si3 0.834899 0.320780 0.657770
Si Si4 0.781954 0.175080 0.121501
Si Si5 0.992532 0.419696 0.579755
Si Si6 0.000000 0.626040 0.000000
Si Si7 0.645296 0.311753 0.161700
Si Si8 0.706747 0.078654 0.227891
O O1 0.788666 0.500000 0.120910
O O2 0.740790 0.635391 0.126334
O O3 0.015786 0.580281 0.190164
O O4 0.932747 0.584031 0.055591
O O5 0.743504 0.751634 0.644723
O O6 0.521753 0.803700 0.696225
O O7 0.651704 0.885391 0.631685
O O8 0.822516 0.831393 0.756205
O O9 0.855588 0.369560 0.594252
O O10 0.762882 0.368821 0.707516
O O11 0.719524 0.236431 0.161166
O O12 0.782584 0.106653 0.167837
O O13 0.960232 0.190001 0.120530
O O14 0.650658 0.168169 0.046979
O O15 0.973386 0.500000 0.597701
O O16 0.000000 0.415993 0.500000
O O17 0.752175 0.000000 0.248164
#
# Coordination Sequence:
#
# PCOD9186111 Si02
#       8
#     8   8   8   8   8   4   8   8
#     4  10  21  38  60  81 111 149 192 243 298 358
#     4  10  21  34  60  88 119 151 200 246 296 349
#     4  10  19  34  59  86 119 157 193 247 293 347
#     4  11  24  37  60  82 115 150 197 246 305 359
#     4   9  20  38  61  89 123 165 205 239 287 356
#     4  10  23  42  58  84 109 152 198 244 297 368
#     4  12  22  38  59  84 115 150 191 251 300 351
#     4  10  19  35  57  83 112 153 197 243 299 359
#
# _framework density 18.709606000000001
#
# number of rings (size 3 to 8) (size 9 to 14) (size 15 to 20)
#    0.800    0.933    2.667    3.000    0.000    4.800 
#    0.000    0.667    0.000    0.000    0.000    1.867 
#    0.000    0.000    0.000    0.000    0.000    0.000 
#
# Total GULP energy -167185.966400 kJ/mol
# GULP energy per Si atom -5572.865547 kJ/mol
# Density = 1.866702 g / cm^3
# Si number density = 18.709606 Si / 1000 Ang^3
#
#
#
# Elastic Constant Matrix: (Units=GPa)
#
#
# Indices 1 2 3 4 5 6 
#
# 1 45.3542 30.0844 -3.3178 0.0000 -0.2889 0.0000
# 2 30.0844 95.9684 26.8469 0.0000 -7.2421 0.0000
# 3 -3.3178 26.8469 55.4224 0.0000 -4.6228 0.0000
# 4 0.0000 0.0000 0.0000 14.4113 0.0000 2.8103
# 5 -0.2889 -7.2421 -4.6228 0.0000 20.4595 0.0000
# 6 0.0000 0.0000 0.0000 2.8103 0.0000 15.0413
#
#
#
# Elastic Compliance Matrix: (Units=1/GPa)
#
#
# Indices 1 2 3 4 5 6 
#
# 1 0.030342 -0.011715 0.007319 0.000000 -0.002065 0.000000
# 2 -0.011715 0.016760 -0.008499 0.000000 0.003847 0.000000
# 3 0.007319 -0.008499 0.022786 0.000000 0.002243 0.000000
# 4 0.000000 0.000000 0.000000 0.072014 0.000000 -0.013455
# 5 -0.002065 0.003847 0.002243 0.000000 0.050716 0.000000
# 6 0.000000 0.000000 0.000000 -0.013455 0.000000 0.068998
#
#
# Mechanical properties :
#
#
# Convention : Reuss Voigt Hill
#
# Bulk Modulus (GPa) = 22.67718 33.77467 28.22592
# Shear Modulus (GPa) = 16.55054 19.52449 18.03752
#
# Velocity S-wave (km/s) = 2.97745 3.23391 3.10833
# Velocity P-wave (km/s) = 4.89563 5.65999 5.29163
#
# Compressibility (1/GPa) = 0.04409720
#
# Stress axis : x y z
#
# Youngs Moduli (GPa) = 32.95809 59.66436 43.88738
#
# Poissons Ratio (x) = 0.69895 -0.32120
# Poissons Ratio (y) = 0.38610 0.37301
# Poissons Ratio (z) = -0.24122 0.50710
#
# Static dielectric constant tensor:
#      x y z
#    x 1.648310 0.000000 -0.001810 
#    y 0.000000 1.654490 0.000000 
#    z -0.001810 0.000000 1.660250 
# 
# From -- ./inp_files/300838.got.cif
#   From: 2010.05.17/outbox.cif.g08.bks.cpg/sg12_151_cif.got.tgz:300838.got - 2010.06.03 13:09:07.
