data_PCOD9186168
_publ_section_title
;
Structure prediction by ZEFSAII (Michael W. Deem and Ramdas Pophale) SiO2 
 PCOD9186168
Probable space group: C 2/M
;
_chemical_formula_sum "Si O2"
_cell_formula_units_Z 28
_cell_length_a 5.067232
_cell_length_b 30.871386
_cell_length_c 9.041434
_cell_angle_alpha 90.000000
_cell_angle_beta 117.218480
_cell_angle_gamma 90.000000
_cell_volume 1257.758715
_symmetry_space_group_name_H-M "C 2/M"
_symmetry_group_IT_number 12
_symmetry_cell_setting 'monoclinic'
loop_
_space_group_symop_operation_xyz
x,y,z
-x,y,-z
-x,-y,-z
x,-y,z
1/2+x,1/2+y,z
1/2-x,1/2+y,-z
1/2-x,1/2-y,-z
1/2+x,1/2-y,z
loop_
_atom_site_type_symbol
_atom_site_label
_atom_site_fract_x
_atom_site_fract_y
_atom_site_fract_z
Si Si1 0.799726 0.094913 0.674947
Si Si2 0.909014 0.362937 0.813900
Si Si3 0.815345 0.233600 0.186796
Si Si4 0.845427 0.000000 0.623146
O O1 0.500000 0.094341 0.500000
O O2 0.684623 0.123611 0.782622
O O3 0.894253 0.044768 0.722892
O O4 0.099168 0.115485 0.687266
O O5 0.826385 0.312353 0.809782
O O6 0.000000 0.378441 0.000000
O O7 0.670177 0.266291 0.267278
O O8 0.750000 0.250000 0.000000
O O9 0.500000 0.000000 0.500000
O O10 0.000000 0.000000 0.500000
#
# Coordination Sequence:
#
# PCOD9186168 Si02
#       4
#     8   8   8   4
#     4  11  24  42  65  93 128 167 212 260 317 377
#     4  12  23  38  65 100 126 160 217 268 313 366
#     4  10  19  34  59  89 116 161 219 250 286 376
#     4  10  20  42  69  88 119 178 223 236 295 412
#
# _framework density 22.261824000000001
#
# number of rings (size 3 to 8) (size 9 to 14) (size 15 to 20)
#    0.000    1.143    2.857    6.857    4.000    0.000 
#    0.000    4.286    0.000   17.143    0.000    0.000 
#    0.000    0.000    0.000    0.000    0.000    0.000 
#
# Total GULP energy -77963.220008 kJ/mol
# GULP energy per Si atom -5568.801429 kJ/mol
# Density = 2.221115 g / cm^3
# Si number density = 22.261824 Si / 1000 Ang^3
#
#
#
# Elastic Constant Matrix: (Units=GPa)
#
#
# Indices 1 2 3 4 5 6 
#
# 1 173.9657 38.9553 3.2340 0.0000 -23.8426 0.0000
# 2 38.9553 155.0675 8.3901 0.0000 -13.3301 0.0000
# 3 3.2340 8.3901 38.2692 0.0000 -2.7656 0.0000
# 4 0.0000 0.0000 0.0000 11.3048 0.0000 0.1933
# 5 -23.8426 -13.3301 -2.7656 0.0000 36.6616 0.0000
# 6 0.0000 0.0000 0.0000 0.1933 0.0000 48.8129
#
#
#
# Elastic Compliance Matrix: (Units=1/GPa)
#
#
# Indices 1 2 3 4 5 6 
#
# 1 0.006564 -0.001324 0.000009 0.000000 0.003788 0.000000
# 2 -0.001324 0.006988 -0.001306 0.000000 0.001581 0.000000
# 3 0.000009 -0.001306 0.026527 0.000000 0.001532 0.000000
# 4 0.000000 0.000000 0.000000 0.088464 0.000000 -0.000350
# 5 0.003788 0.001581 0.001532 0.000000 0.030431 0.000000
# 6 0.000000 0.000000 0.000000 -0.000350 0.000000 0.020488
#
#
# Mechanical properties :
#
#
# Convention : Reuss Voigt Hill
#
# Bulk Modulus (GPa) = 28.70442 52.05123 40.37783
# Shear Modulus (GPa) = 25.46936 40.47074 32.97005
#
# Velocity S-wave (km/s) = 3.38610 4.26836 3.85257
# Velocity P-wave (km/s) = 5.31127 6.90826 6.16172
#
# Compressibility (1/GPa) = 0.03483784
#
# Stress axis : x y z
#
# Youngs Moduli (GPa) = 152.35372 143.10350 37.69758
#
# Poissons Ratio (x) = 0.18944 -0.00035
# Poissons Ratio (y) = 0.20168 0.04923
# Poissons Ratio (z) = -0.00142 0.18688
#
# Static dielectric constant tensor:
#      x y z
#    x 1.958130 0.000000 0.117800 
#    y 0.000000 1.914020 0.000000 
#    z 0.117800 0.000000 1.927600 
# 
# From -- ./inp_files/34272.got.cif
#   From: 2010.05.17/outbox.cif.g08.bks.cpg/sg12_18_cif.got.tgz:34272.got - 2010.06.03 13:09:07.
