data_PCOD9186699
_publ_section_title
;
Structure prediction by ZEFSAII (Michael W. Deem and Ramdas Pophale) SiO2 
 PCOD9186699
Probable space group: C 2/M
;
_chemical_formula_sum "Si O2"
_cell_formula_units_Z 40
_cell_length_a 13.675376
_cell_length_b 10.664096
_cell_length_c 18.768853
_cell_angle_alpha 90.000000
_cell_angle_beta 27.250156
_cell_angle_gamma 90.000000
_cell_volume 1253.283302
_symmetry_space_group_name_H-M "C 2/M"
_symmetry_group_IT_number 12
_symmetry_cell_setting 'monoclinic'
loop_
_space_group_symop_operation_xyz
x,y,z
-x,y,-z
-x,-y,-z
x,-y,z
1/2+x,1/2+y,z
1/2-x,1/2+y,-z
1/2-x,1/2-y,-z
1/2+x,1/2-y,z
loop_
_atom_site_type_symbol
_atom_site_label
_atom_site_fract_x
_atom_site_fract_y
_atom_site_fract_z
Si Si1 0.030718 0.000000 0.802534
Si Si2 0.923348 0.500000 0.969727
Si Si3 0.398684 0.000000 0.446194
Si Si4 0.068782 0.242439 0.557847
Si Si5 0.900134 0.166564 0.987400
Si Si6 0.025551 0.000000 0.568254
Si Si7 0.947239 0.674370 0.212138
O O1 0.031239 0.838886 0.823642
O O2 0.828737 0.000000 0.880791
O O3 0.237252 0.000000 0.617292
O O4 0.949174 0.332507 0.936310
O O5 0.000000 0.500000 0.000000
O O6 0.536167 0.123453 0.371011
O O7 0.251003 0.000000 0.469876
O O8 0.250000 0.250000 0.500000
O O9 0.915325 0.126417 0.667563
O O10 0.213793 0.198229 0.397283
O O11 0.642404 0.169924 0.142573
O O12 0.929290 0.000000 0.953621
O O13 0.000000 0.168356 0.000000
O O14 0.000000 0.000000 0.500000
O O15 0.940069 0.500000 0.198554
#
# Coordination Sequence:
#
# PCOD9186699 Si02
#       7
#     4   4   4   8   8   4   8
#     4  10  19  35  55  82 122 158 207 262 326 391
#     4  10  21  34  55  90 121 165 218 272 335 399
#     4  10  20  40  65  89 124 175 208 267 338 392
#     4  10  21  41  65  90 129 175 219 268 338 389
#     4  10  20  35  56  86 120 162 209 259 323 391
#     4  10  23  43  66  97 126 166 228 279 325 392
#     4  10  20  36  57  85 125 164 212 266 325 388
#
# _framework density 31.916169
#
# number of rings (size 3 to 8) (size 9 to 14) (size 15 to 20)
#    0.000    2.000    2.000    1.500    0.000    1.600 
#    7.200    0.500    0.000    2.400    0.000    0.000 
#    0.000    0.000    0.000    0.000    0.000    0.000 
#
# Total GULP energy -111786.434233 kJ/mol
# GULP energy per Si atom -5589.321712 kJ/mol
# Density = 3.184353 g / cm^3
# Si number density = 31.916169 Si / 1000 Ang^3
#
#
#
# Elastic Constant Matrix: (Units=GPa)
#
#
# Indices 1 2 3 4 5 6 
#
# 1 236.7888 88.8885 68.7404 -0.0049 -7.0931 0.0012
# 2 88.8885 360.2082 39.8519 -0.0111 10.1276 0.0010
# 3 68.7404 39.8519 158.0081 -0.0223 -11.7059 0.0049
# 4 -0.0049 -0.0111 -0.0223 37.9363 0.0016 2.9616
# 5 -7.0931 10.1276 -11.7059 0.0016 42.4028 0.0000
# 6 0.0012 0.0010 0.0049 2.9616 0.0000 86.2136
#
#
#
# Elastic Compliance Matrix: (Units=1/GPa)
#
#
# Indices 1 2 3 4 5 6 
#
# 1 0.005216 -0.001088 -0.001951 -0.000001 0.000594 0.000000
# 2 -0.001088 0.003117 -0.000389 0.000001 -0.001034 0.000000
# 3 -0.001951 -0.000389 0.007410 0.000004 0.001812 -0.000001
# 4 -0.000001 0.000001 0.000004 0.026431 0.000000 -0.000908
# 5 0.000594 -0.001034 0.001812 0.000000 0.024430 0.000000
# 6 0.000000 0.000000 -0.000001 -0.000908 0.000000 0.011630
#
#
# Mechanical properties :
#
#
# Convention : Reuss Voigt Hill
#
# Bulk Modulus (GPa) = 112.53218 127.77411 120.15315
# Shear Modulus (GPa) = 56.78497 70.47883 63.63190
#
# Velocity S-wave (km/s) = 4.22262 4.70430 4.46995
# Velocity P-wave (km/s) = 7.68826 8.34437 8.02302
#
# Compressibility (1/GPa) = 0.00888635
#
# Stress axis : x y z
#
# Youngs Moduli (GPa) = 191.73084 320.84236 134.95501
#
# Poissons Ratio (x) = 0.34906 0.26325
# Poissons Ratio (y) = 0.20859 0.05255
# Poissons Ratio (z) = 0.37400 0.12493
#
# Static dielectric constant tensor:
#      x y z
#    x 2.208170 0.000000 0.099430 
#    y 0.000000 4.934990 0.000010 
#    z 0.099430 0.000010 2.241840 
# 
# From -- ./inp_files/249555.got.cif
#   From: 2010.05.17/outbox.cif.g08.bks.cpg/sg12_125_cif.got.tgz:249555.got - 2010.06.03 13:09:07.
