data_PCOD9186312
_publ_section_title
;
Structure prediction by ZEFSAII (Michael W. Deem and Ramdas Pophale) SiO2 
 PCOD9186312
Probable space group: C 2/M
;
_chemical_formula_sum "Si O2"
_cell_formula_units_Z 52
_cell_length_a 20.030487
_cell_length_b 7.588996
_cell_length_c 13.781855
_cell_angle_alpha 90.000000
_cell_angle_beta 97.590003
_cell_angle_gamma 90.000000
_cell_volume 2076.642390
_symmetry_space_group_name_H-M "C 2/M"
_symmetry_group_IT_number 12
_symmetry_cell_setting 'monoclinic'
loop_
_space_group_symop_operation_xyz
x,y,z
-x,y,-z
-x,-y,-z
x,-y,z
1/2+x,1/2+y,z
1/2-x,1/2+y,-z
1/2-x,1/2-y,-z
1/2+x,1/2-y,z
loop_
_atom_site_type_symbol
_atom_site_label
_atom_site_fract_x
_atom_site_fract_y
_atom_site_fract_z
Si Si1 0.713816 0.696890 0.789172
Si Si2 0.902227 0.297980 0.377402
Si Si3 0.496530 0.783545 0.236889
Si Si4 0.675779 0.698242 0.450702
Si Si5 0.074062 0.297707 0.966493
Si Si6 0.856263 0.300832 0.762611
Si Si7 0.833947 0.000000 0.032757
O O1 0.716614 0.500000 0.742798
O O2 0.656551 0.792588 0.716200
O O3 0.787201 0.779428 0.789563
O O4 0.698012 0.653535 0.898094
O O5 0.915573 0.500000 0.405733
O O6 0.874227 0.209905 0.468102
O O7 0.968122 0.225213 0.335237
O O8 0.442933 0.729194 0.145317
O O9 0.569504 0.720420 0.218237
O O10 0.497754 0.000000 0.237093
O O11 0.678098 0.500000 0.414040
O O12 0.750000 0.750000 0.500000
O O13 0.654273 0.812191 0.355390
O O14 0.098224 0.500000 0.967854
O O15 0.125429 0.157328 0.017926
O O16 0.000000 0.300166 0.000000
O O17 0.861173 0.500000 0.805868
#
# Coordination Sequence:
#
# PCOD9186312 Si02
#       7
#     8   8   8   8   8   8   4
#     4   9  18  31  53  81 105 148 188 232 278 333
#     4  11  20  34  57  80 108 148 195 239 278 340
#     4   9  19  36  58  84 111 148 190 229 287 346
#     4  12  24  36  53  78 110 148 195 244 291 336
#     4  10  20  36  61  95 120 153 194 239 289 353
#     4  10  20  37  56  79 111 149 191 232 289 347
#     4  10  19  34  60  92 115 151 193 243 288 345
#
# _framework density 25.040422
#
# number of rings (size 3 to 8) (size 9 to 14) (size 15 to 20)
#    0.462    1.385    3.077    2.077    0.000    0.615 
#    1.385    3.077    0.000    0.923    0.000    0.000 
#    0.000    0.000    0.000    0.000    0.000    0.000 
#
# Total GULP energy -144771.897735 kJ/mol
# GULP energy per Si atom -5568.149913 kJ/mol
# Density = 2.498343 g / cm^3
# Si number density = 25.040422 Si / 1000 Ang^3
#
#
#
# Elastic Constant Matrix: (Units=GPa)
#
#
# Indices 1 2 3 4 5 6 
#
# 1 124.3251 3.2187 25.1677 0.0000 -28.4142 0.0000
# 2 3.2187 103.9526 -1.6268 0.0000 -10.0211 0.0000
# 3 25.1677 -1.6268 65.3699 0.0000 -8.2470 0.0000
# 4 0.0000 0.0000 0.0000 3.0165 0.0000 -26.7837
# 5 -28.4142 -10.0211 -8.2470 0.0000 46.2536 0.0000
# 6 0.0000 0.0000 0.0000 -26.7837 0.0000 183.6899
#
#
#
# Elastic Compliance Matrix: (Units=1/GPa)
#
#
# Indices 1 2 3 4 5 6 
#
# 1 0.009949 0.000182 -0.003120 0.000000 0.005595 0.000000
# 2 0.000182 0.009846 0.000469 0.000000 0.002329 0.000000
# 3 -0.003120 0.000469 0.016656 0.000000 0.001155 0.000000
# 4 0.000000 0.000000 0.000000 -1.125115 0.000000 -0.164052
# 5 0.005595 0.002329 0.001155 0.000000 0.025767 0.000000
# 6 0.000000 0.000000 0.000000 -0.164052 0.000000 -0.018476
#
#
# Mechanical properties :
#
#
# Convention : Reuss Voigt Hill
#
# Bulk Modulus (GPa) = 31.73274 38.57408 35.15341
# Shear Modulus (GPa) = -4.69074 64.38454 29.84690
#
# Velocity S-wave (km/s) = -1.37016 5.07623 3.45621
# Velocity P-wave (km/s) = 3.19328 7.05660 5.47689
#
# Compressibility (1/GPa) = 0.03151319
#
# Stress axis : x y z
#
# Youngs Moduli (GPa) = 100.51217 101.56463 60.03800
#
# Poissons Ratio (x) = -0.01853 0.18732
# Poissons Ratio (y) = -0.01834 -0.02813
# Poissons Ratio (z) = 0.31360 -0.04759
#
# Static dielectric constant tensor:
#      x y z
#    x 2.039250 0.000000 0.071840 
#    y 0.000000 2.069860 0.000000 
#    z 0.071840 0.000000 2.210990 
# 
# From -- ./inp_files/274373.got.cif
#   From: 2010.05.17/outbox.cif.g08.bks.cpg/sg12_138_cif.got.tgz:274373.got - 2010.06.03 13:09:07.
