data_PCOD9186594
_publ_section_title
;
Structure prediction by ZEFSAII (Michael W. Deem and Ramdas Pophale) SiO2 
 PCOD9186594
Probable space group: C 2/M
;
_chemical_formula_sum "Si O2"
_cell_formula_units_Z 52
_cell_length_a 14.551128
_cell_length_b 18.297211
_cell_length_c 11.555348
_cell_angle_alpha 90.000000
_cell_angle_beta 72.822305
_cell_angle_gamma 90.000000
_cell_volume 2939.319709
_symmetry_space_group_name_H-M "C 2/M"
_symmetry_group_IT_number 12
_symmetry_cell_setting 'monoclinic'
loop_
_space_group_symop_operation_xyz
x,y,z
-x,y,-z
-x,-y,-z
x,-y,z
1/2+x,1/2+y,z
1/2-x,1/2+y,-z
1/2-x,1/2-y,-z
1/2+x,1/2-y,z
loop_
_atom_site_type_symbol
_atom_site_label
_atom_site_fract_x
_atom_site_fract_y
_atom_site_fract_z
Si Si1 0.497688 0.500000 0.364271
Si Si2 0.233379 0.578354 0.238906
Si Si3 0.795204 0.000000 0.824906
Si Si4 0.340299 0.386501 0.418210
Si Si5 0.897797 0.279143 0.391494
Si Si6 0.744439 0.635710 0.305191
Si Si7 0.882992 0.000000 0.047684
Si Si8 0.376751 0.219187 0.675670
O O1 0.500000 0.500000 0.500000
O O2 0.601282 0.500000 0.273925
O O3 0.437672 0.428705 0.352506
O O4 0.183558 0.500000 0.232486
O O5 0.260283 0.581752 0.363928
O O6 0.335703 0.568849 0.134469
O O7 0.173914 0.651478 0.240904
O O8 0.744512 0.073414 0.795567
O O9 0.826306 0.000000 0.946976
O O10 0.352754 0.300976 0.390224
O O11 0.313854 0.396137 0.562229
O O12 0.842024 0.333917 0.327540
O O13 0.879650 0.295014 0.534826
O O14 0.011849 0.275129 0.330441
O O15 0.682062 0.705529 0.285815
O O16 0.000000 0.000000 0.000000
#
# Coordination Sequence:
#
# PCOD9186594 Si02
#       8
#     4   8   4   8   8   8   4   8
#     4  12  20  28  52  88 114 139 185 229 295 357
#     4  10  20  36  62  74 112 146 197 233 274 335
#     4  12  24  37  54  86 114 147 188 242 301 333
#     4  11  17  32  53  87 116 152 178 232 289 342
#     4  10  20  31  54  85 129 151 185 223 294 343
#     4  11  20  34  56  84 130 145 182 235 292 345
#     4  10  24  43  60  83 106 150 195 249 291 328
#     4  10  19  35  54  87 117 162 183 226 280 350
#
# _framework density 17.691168999999999
#
# number of rings (size 3 to 8) (size 9 to 14) (size 15 to 20)
#    0.462    0.923    5.385    2.769    2.154    0.000 
#    1.385    1.538    0.000    1.846    0.000    0.000 
#    0.000    0.000    0.000    0.000    0.000    0.000 
#
# Total GULP energy -144818.664768 kJ/mol
# GULP energy per Si atom -5569.948645 kJ/mol
# Density = 1.765090 g / cm^3
# Si number density = 17.691169 Si / 1000 Ang^3
#
#
#
# Elastic Constant Matrix: (Units=GPa)
#
#
# Indices 1 2 3 4 5 6 
#
# 1 88.1898 42.2471 11.9214 0.0000 8.6075 0.0000
# 2 42.2471 96.6067 36.7563 0.0000 7.0820 0.0000
# 3 11.9214 36.7563 51.3943 0.0000 8.7631 0.0000
# 4 0.0000 0.0000 0.0000 6.9751 0.0000 4.4608
# 5 8.6075 7.0820 8.7631 0.0000 24.7935 0.0000
# 6 0.0000 0.0000 0.0000 4.4608 0.0000 15.2662
#
#
#
# Elastic Compliance Matrix: (Units=1/GPa)
#
#
# Indices 1 2 3 4 5 6 
#
# 1 0.014790 -0.007047 0.002279 0.000000 -0.003927 0.000000
# 2 -0.007047 0.017584 -0.011176 0.000000 0.001374 0.000000
# 3 0.002279 -0.011176 0.028212 0.000000 -0.007570 0.000000
# 4 0.000000 0.000000 0.000000 0.176316 0.000000 -0.051520
# 5 -0.003927 0.001374 -0.007570 0.000000 0.043980 0.000000
# 6 0.000000 0.000000 0.000000 -0.051520 0.000000 0.080558
#
#
# Mechanical properties :
#
#
# Convention : Reuss Voigt Hill
#
# Bulk Modulus (GPa) = 34.84424 46.44894 40.64659
# Shear Modulus (GPa) = 12.41018 19.09136 15.75077
#
# Velocity S-wave (km/s) = 2.65144 3.28860 2.98706
# Velocity P-wave (km/s) = 5.39556 6.38219 5.90950
#
# Compressibility (1/GPa) = 0.02869915
#
# Stress axis : x y z
#
# Youngs Moduli (GPa) = 67.61172 56.86882 35.44566
#
# Poissons Ratio (x) = 0.40076 -0.08077
# Poissons Ratio (y) = 0.47647 0.39613
# Poissons Ratio (z) = -0.15408 0.63554
#
# Static dielectric constant tensor:
#      x y z
#    x 1.629210 0.000000 0.014150 
#    y 0.000000 1.549360 0.000000 
#    z 0.014150 0.000000 1.611980 
# 
# From -- ./inp_files/144906.got.cif
#   From: 2010.05.17/outbox.cif.g08.bks.cpg/sg12_73_cif.got.tgz:144906.got - 2010.06.03 13:09:07.
