data_PCOD9186962
_publ_section_title
;
Structure prediction by ZEFSAII (Michael W. Deem and Ramdas Pophale) SiO2 
 PCOD9186962
Probable space group: C 2/M
;
_chemical_formula_sum "Si O2"
_cell_formula_units_Z 48
_cell_length_a 25.875294
_cell_length_b 7.574977
_cell_length_c 17.783966
_cell_angle_alpha 90.000000
_cell_angle_beta 146.886054
_cell_angle_gamma 90.000000
_cell_volume 1904.281205
_symmetry_space_group_name_H-M "C 2/M"
_symmetry_group_IT_number 12
_symmetry_cell_setting 'monoclinic'
loop_
_space_group_symop_operation_xyz
x,y,z
-x,y,-z
-x,-y,-z
x,-y,z
1/2+x,1/2+y,z
1/2-x,1/2+y,-z
1/2-x,1/2-y,-z
1/2+x,1/2-y,z
loop_
_atom_site_type_symbol
_atom_site_label
_atom_site_fract_x
_atom_site_fract_y
_atom_site_fract_z
Si Si1 0.939375 0.799154 0.859755
Si Si2 0.781422 0.296999 0.770245
Si Si3 0.170824 0.202507 0.011191
Si Si4 0.379947 0.284418 0.212626
Si Si5 0.916429 0.785198 0.513952
Si Si6 0.641286 0.712148 0.388393
O O1 0.836051 0.804682 0.772092
O O2 0.925297 0.719497 0.760404
O O3 0.975251 0.000000 0.894642
O O4 0.000000 0.710850 0.000000
O O5 0.778157 0.500000 0.741218
O O6 0.835759 0.287477 0.915332
O O7 0.672945 0.234246 0.645873
O O8 0.281805 0.214889 0.124959
O O9 0.143276 0.000000 0.986520
O O10 0.117111 0.269863 0.871904
O O11 0.373246 0.500000 0.206869
O O12 0.476484 0.226887 0.370189
O O13 0.887394 0.730439 0.563274
O O14 0.921753 0.000000 0.517580
O O15 0.630807 0.500000 0.375285
O O16 0.750000 0.750000 0.500000
#
# Coordination Sequence:
#
# PCOD9186962 Si02
#       6
#     8   8   8   8   8   8
#     4  10  22  37  57  83 112 147 187 228 274 326
#     4  11  22  37  57  81 113 146 185 229 273 327
#     4  10  21  37  59  84 114 143 178 228 279 329
#     4   9  19  38  62  82 106 144 187 226 271 329
#     4   9  19  35  57  82 107 145 189 225 267 324
#     4  10  19  35  57  80 111 146 184 224 269 324
#
# _framework density 25.206363
#
# number of rings (size 3 to 8) (size 9 to 14) (size 15 to 20)
#    0.000    2.167    1.667    1.000    2.333    1.667 
#    0.000    5.833    0.000    0.000    0.000    0.000 
#    0.000    0.000    0.000    0.000    0.000    0.000 
#
# Total GULP energy -134156.730569 kJ/mol
# GULP energy per Si atom -5589.863774 kJ/mol
# Density = 2.514899 g / cm^3
# Si number density = 25.206363 Si / 1000 Ang^3
#
#
#
# Elastic Constant Matrix: (Units=GPa)
#
#
# Indices 1 2 3 4 5 6 
#
# 1 56.7314 0.0729 -6.5739 0.0000 1.5136 0.0000
# 2 0.0729 61.3293 -0.3088 0.0000 -2.8362 0.0000
# 3 -6.5739 -0.3088 110.0235 0.0000 -6.2458 0.0000
# 4 0.0000 0.0000 0.0000 9.1341 0.0000 4.5128
# 5 1.5136 -2.8362 -6.2458 0.0000 47.6828 0.0000
# 6 0.0000 0.0000 0.0000 4.5128 0.0000 11.0335
#
#
#
# Elastic Compliance Matrix: (Units=1/GPa)
#
#
# Indices 1 2 3 4 5 6 
#
# 1 0.017759 -0.000036 0.001037 0.000000 -0.000430 0.000000
# 2 -0.000036 0.016352 0.000100 0.000000 0.000987 0.000000
# 3 0.001037 0.000100 0.009218 0.000000 0.001180 0.000000
# 4 0.000000 0.000000 0.000000 0.137207 0.000000 -0.056119
# 5 -0.000430 0.000987 0.001180 0.000000 0.021199 0.000000
# 6 0.000000 0.000000 0.000000 -0.056119 0.000000 0.113587
#
#
# Mechanical properties :
#
#
# Convention : Reuss Voigt Hill
#
# Bulk Modulus (GPa) = 21.96380 23.82940 22.89660
# Shear Modulus (GPa) = 15.23014 29.22967 22.22991
#
# Velocity S-wave (km/s) = 2.46075 3.40901 2.97293
# Velocity P-wave (km/s) = 4.09954 4.99693 4.57032
#
# Compressibility (1/GPa) = 0.04552946
#
# Stress axis : x y z
#
# Youngs Moduli (GPa) = 56.31087 61.15609 108.48111
#
# Poissons Ratio (x) = 0.00219 -0.11245
# Poissons Ratio (y) = 0.00202 -0.01082
# Poissons Ratio (z) = -0.05837 -0.00610
#
# Static dielectric constant tensor:
#      x y z
#    x 1.974020 0.000000 0.020350 
#    y 0.000000 1.981990 0.000000 
#    z 0.020350 0.000000 2.024010 
# 
# From -- ./inp_files/244589.got.cif
#   From: 2010.05.17/outbox.cif.g08.bks.cpg/sg12_123_cif.got.tgz:244589.got - 2010.06.03 13:09:07.
