data_PCOD9187265
_publ_section_title
;
Structure prediction by ZEFSAII (Michael W. Deem and Ramdas Pophale) SiO2 
 PCOD9187265
Probable space group: C 2/M
;
_chemical_formula_sum "Si O2"
_cell_formula_units_Z 52
_cell_length_a 13.478373
_cell_length_b 13.472975
_cell_length_c 14.929615
_cell_angle_alpha 90.000000
_cell_angle_beta 59.344366
_cell_angle_gamma 90.000000
_cell_volume 2332.238303
_symmetry_space_group_name_H-M "C 2/M"
_symmetry_group_IT_number 12
_symmetry_cell_setting 'monoclinic'
loop_
_space_group_symop_operation_xyz
x,y,z
-x,y,-z
-x,-y,-z
x,-y,z
1/2+x,1/2+y,z
1/2-x,1/2+y,-z
1/2-x,1/2-y,-z
1/2+x,1/2-y,z
loop_
_atom_site_type_symbol
_atom_site_label
_atom_site_fract_x
_atom_site_fract_y
_atom_site_fract_z
Si Si1 0.920729 0.612339 0.181137
Si Si2 0.198849 0.891197 0.158057
Si Si3 0.500000 0.754972 0.000000
Si Si4 0.790474 0.886534 0.058190
Si Si5 0.637332 0.187024 0.270885
Si Si6 0.433960 0.281805 0.447358
Si Si7 0.199284 0.217839 0.652223
O O1 0.951945 0.500000 0.193514
O O2 0.820905 0.602261 0.151694
O O3 0.010421 0.677436 0.083518
O O4 0.866422 0.683169 0.282080
O O5 0.139539 0.801890 0.237693
O O6 0.142713 0.000000 0.191811
O O7 0.214008 0.868416 0.046313
O O8 0.613314 0.686461 0.945366
O O9 0.669872 0.871678 0.166466
O O10 0.827009 0.000000 0.053458
O O11 0.516716 0.189243 0.379322
O O12 0.744897 0.164508 0.287564
O O13 0.500000 0.334526 0.500000
O O14 0.315640 0.246438 0.546793
O O15 0.387959 0.333354 0.377373
#
# Coordination Sequence:
#
# PCOD9187265 Si02
#       7
#     8   8   4   8   8   8   8
#     4  10  21  36  58  88 118 154 200 243 293 350
#     4   9  19  35  54  80 117 153 195 241 283 344
#     4  12  22  36  56  86 120 164 192 250 296 350
#     4  11  23  37  55  85 123 162 203 242 289 355
#     4  10  19  35  58  85 115 159 195 243 292 351
#     4   9  19  34  62  85 110 152 193 237 300 361
#     4   9  18  37  57  86 114 150 191 244 298 352
#
# _framework density 22.296178000000001
#
# number of rings (size 3 to 8) (size 9 to 14) (size 15 to 20)
#    0.000    2.154    3.077    0.923    2.154    0.000 
#    0.000    3.077    0.000   17.538    0.000    0.000 
#    0.000    0.000    0.000    0.000    0.000    0.000 
#
# Total GULP energy -144803.385796 kJ/mol
# GULP energy per Si atom -5569.360992 kJ/mol
# Density = 2.224543 g / cm^3
# Si number density = 22.296178 Si / 1000 Ang^3
#
#
#
# Elastic Constant Matrix: (Units=GPa)
#
#
# Indices 1 2 3 4 5 6 
#
# 1 76.8607 20.9846 52.1216 0.0000 31.9693 0.0000
# 2 20.9846 54.0945 11.8748 0.0000 -7.7743 0.0000
# 3 52.1216 11.8748 104.2072 0.0000 -4.7549 0.0000
# 4 0.0000 0.0000 0.0000 1.9640 0.0000 0.9027
# 5 31.9693 -7.7743 -4.7549 0.0000 50.7105 0.0000
# 6 0.0000 0.0000 0.0000 0.9027 0.0000 10.5738
#
#
#
# Elastic Compliance Matrix: (Units=1/GPa)
#
#
# Indices 1 2 3 4 5 6 
#
# 1 0.050717 -0.019583 -0.024838 0.000000 -0.037305 0.000000
# 2 -0.019583 0.026902 0.007513 0.000000 0.017175 0.000000
# 3 -0.024838 0.007513 0.022025 0.000000 0.018875 0.000000
# 4 0.000000 0.000000 0.000000 0.529971 0.000000 -0.045244
# 5 -0.037305 0.017175 0.018875 0.000000 0.047641 0.000000
# 6 0.000000 0.000000 0.000000 -0.045244 0.000000 0.098436
#
#
# Mechanical properties :
#
#
# Convention : Reuss Voigt Hill
#
# Bulk Modulus (GPa) = 38.71836 45.01383 41.86609
# Shear Modulus (GPa) = 5.82672 22.66177 14.24424
#
# Velocity S-wave (km/s) = 1.61833 3.19156 2.53032
# Velocity P-wave (km/s) = 4.57112 5.81500 5.23017
#
# Compressibility (1/GPa) = 0.02582754
#
# Stress axis : x y z
#
# Youngs Moduli (GPa) = 19.71726 37.17191 45.40375
#
# Poissons Ratio (x) = 0.72795 1.12773
# Poissons Ratio (y) = 0.38613 -0.34112
# Poissons Ratio (z) = 0.48973 -0.27928
#
# Static dielectric constant tensor:
#      x y z
#    x 1.908500 0.000000 0.037750 
#    y 0.000000 1.793090 0.000000 
#    z 0.037750 0.000000 1.884950 
# 
# From -- ./inp_files/214721.got.cif
#   From: 2010.05.17/outbox.cif.g08.bks.cpg/sg12_108_cif.got.tgz:214721.got - 2010.06.03 13:09:07.
