data_PCOD9187201
_publ_section_title
;
Structure prediction by ZEFSAII (Michael W. Deem and Ramdas Pophale) SiO2 
 PCOD9187201
Probable space group: C 2/M
;
_chemical_formula_sum "Si O2"
_cell_formula_units_Z 48
_cell_length_a 21.159780
_cell_length_b 7.670943
_cell_length_c 15.264650
_cell_angle_alpha 90.000000
_cell_angle_beta 107.954163
_cell_angle_gamma 90.000000
_cell_volume 2357.033831
_symmetry_space_group_name_H-M "C 2/M"
_symmetry_group_IT_number 12
_symmetry_cell_setting 'monoclinic'
loop_
_space_group_symop_operation_xyz
x,y,z
-x,y,-z
-x,-y,-z
x,-y,z
1/2+x,1/2+y,z
1/2-x,1/2+y,-z
1/2-x,1/2-y,-z
1/2+x,1/2-y,z
loop_
_atom_site_type_symbol
_atom_site_label
_atom_site_fract_x
_atom_site_fract_y
_atom_site_fract_z
Si Si1 0.816064 0.791470 0.291410
Si Si2 0.830093 0.713747 0.817851
Si Si3 0.177674 0.792496 0.508293
Si Si4 0.083249 0.706500 0.310498
Si Si5 0.929080 0.287179 0.010445
Si Si6 0.435672 0.789594 0.212946
O O1 0.745813 0.726854 0.223122
O O2 0.827203 0.722784 0.394757
O O3 0.877317 0.757780 0.254045
O O4 0.808907 0.000000 0.296477
O O5 0.829984 0.500000 0.817899
O O6 0.871250 0.773219 0.749891
O O7 0.869729 0.769059 0.921303
O O8 0.250000 0.750000 0.500000
O O9 0.121145 0.730531 0.417725
O O10 0.171979 0.000000 0.509299
O O11 0.078128 0.500000 0.292733
O O12 0.008228 0.775388 0.274531
O O13 0.929178 0.500000 0.010732
O O14 0.923028 0.228924 0.108070
O O15 0.000000 0.234103 0.000000
O O16 0.437798 0.000000 0.211278
#
# Coordination Sequence:
#
# PCOD9187201 Si02
#       6
#     8   8   8   8   8   8
#     4  10  22  38  54  76 113 152 178 219 284 341
#     4   9  16  31  55  80 107 144 185 221 269 331
#     4  11  22  37  59  84 109 144 188 229 273 328
#     4  10  19  35  58  83 111 143 185 230 273 322
#     4   9  15  28  55  85 108 138 184 231 272 320
#     4  10  21  35  56  86 114 142 183 235 275 315
#
# _framework density 20.364578999999999
#
# number of rings (size 3 to 8) (size 9 to 14) (size 15 to 20)
#    0.000    2.167    3.333    0.500    0.000    3.333 
#    0.000    3.333    0.000    1.500    0.000    0.000 
#    0.000    0.000    0.000    0.000    0.000    0.000 
#
# Total GULP energy -134019.779992 kJ/mol
# GULP energy per Si atom -5584.157500 kJ/mol
# Density = 2.031823 g / cm^3
# Si number density = 20.364579 Si / 1000 Ang^3
#
#
#
# Elastic Constant Matrix: (Units=GPa)
#
#
# Indices 1 2 3 4 5 6 
#
# 1 200.6819 -3.9856 129.1722 0.0000 6.8723 0.0000
# 2 -3.9856 26.6888 -9.5011 0.0000 2.1831 0.0000
# 3 129.1722 -9.5011 211.5644 0.0000 11.6153 0.0000
# 4 0.0000 0.0000 0.0000 13.7144 0.0000 -0.9419
# 5 6.8723 2.1831 11.6153 0.0000 41.1845 0.0000
# 6 0.0000 0.0000 0.0000 -0.9419 0.0000 23.3564
#
#
#
# Elastic Compliance Matrix: (Units=1/GPa)
#
#
# Indices 1 2 3 4 5 6 
#
# 1 0.008218 -0.000577 -0.005048 0.000000 0.000083 0.000000
# 2 -0.000577 0.038381 0.002216 0.000000 -0.002563 0.000000
# 3 -0.005048 0.002216 0.007992 0.000000 -0.001529 0.000000
# 4 0.000000 0.000000 0.000000 0.073118 0.000000 0.002949
# 5 0.000083 -0.002563 -0.001529 0.000000 0.024834 0.000000
# 6 0.000000 0.000000 0.000000 0.002949 0.000000 0.042934
#
#
# Mechanical properties :
#
#
# Convention : Reuss Voigt Hill
#
# Bulk Modulus (GPa) = 20.93126 74.47844 47.70485
# Shear Modulus (GPa) = 22.91272 37.20105 30.05688
#
# Velocity S-wave (km/s) = 3.35793 4.27869 3.84596
# Velocity P-wave (km/s) = 5.03337 7.81419 6.57253
#
# Compressibility (1/GPa) = 0.04777544
#
# Stress axis : x y z
#
# Youngs Moduli (GPa) = 121.68530 26.05424 125.12106
#
# Poissons Ratio (x) = 0.01502 0.63161
# Poissons Ratio (y) = 0.07016 -0.27733
# Poissons Ratio (z) = 0.61426 -0.05775
#
# Static dielectric constant tensor:
#      x y z
#    x 1.681770 0.000000 0.007830 
#    y 0.000000 1.780320 0.000000 
#    z 0.007830 0.000000 1.707210 
# 
# From -- ./inp_files/230339.got.cif
#   From: 2010.05.17/outbox.cif.g08.bks.cpg/sg12_116_cif.got.tgz:230339.got - 2010.06.03 13:09:07.
