data_PCOD9187312
_publ_section_title
;
Structure prediction by ZEFSAII (Michael W. Deem and Ramdas Pophale) SiO2 
 PCOD9187312
Probable space group: C 2/M
;
_chemical_formula_sum "Si O2"
_cell_formula_units_Z 56
_cell_length_a 9.707742
_cell_length_b 23.155781
_cell_length_c 15.140107
_cell_angle_alpha 90.000000
_cell_angle_beta 53.836516
_cell_angle_gamma 90.000000
_cell_volume 2747.648800
_symmetry_space_group_name_H-M "C 2/M"
_symmetry_group_IT_number 12
_symmetry_cell_setting 'monoclinic'
loop_
_space_group_symop_operation_xyz
x,y,z
-x,y,-z
-x,-y,-z
x,-y,z
1/2+x,1/2+y,z
1/2-x,1/2+y,-z
1/2-x,1/2-y,-z
1/2+x,1/2-y,z
loop_
_atom_site_type_symbol
_atom_site_label
_atom_site_fract_x
_atom_site_fract_y
_atom_site_fract_z
Si Si1 0.660455 0.852390 0.307933
Si Si2 0.724940 0.565558 0.578925
Si Si3 0.397998 0.932648 0.327783
Si Si4 0.322118 0.564750 0.765214
Si Si5 0.821560 0.188351 0.812107
Si Si6 0.950095 0.763556 0.424592
Si Si7 0.042356 0.778081 0.882398
O O1 0.696893 0.891407 0.379322
O O2 0.557000 0.890236 0.276586
O O3 0.548877 0.797085 0.377190
O O4 0.833859 0.827926 0.201559
O O5 0.783539 0.500000 0.576236
O O6 0.783889 0.579860 0.457751
O O7 0.521122 0.565364 0.663754
O O8 0.289262 0.925349 0.280525
O O9 0.449663 0.000000 0.312826
O O10 0.283877 0.500000 0.814355
O O11 0.293411 0.620494 0.836982
O O12 0.654068 0.219395 0.836704
O O13 0.975398 0.198287 0.683354
O O14 0.881696 0.220697 0.877815
O O15 0.750000 0.750000 0.500000
O O16 0.000000 0.790021 0.500000
O O17 0.000000 0.788197 0.000000
#
# Coordination Sequence:
#
# PCOD9187312 Si02
#       7
#     8   8   8   8   8   8   8
#     4  11  22  37  59  87 124 161 212 258 314 365
#     4  10  19  35  58  87 127 174 212 245 294 367
#     4  10  21  34  56  91 128 174 211 242 295 370
#     4  10  22  38  60  89 130 169 205 246 299 366
#     4  11  24  42  66  94 122 165 206 254 316 374
#     4  11  24  36  54  89 129 164 196 242 308 375
#     4  11  25  46  67  93 116 157 216 270 324 365
#
# _framework density 20.381062
#
# number of rings (size 3 to 8) (size 9 to 14) (size 15 to 20)
#    0.000    1.429    1.429    4.286    8.000    2.857 
#    0.000    0.000    0.000    4.286    0.000    0.000 
#    0.000    0.000    0.000    0.000    0.000    0.000 
#
# Total GULP energy -156593.587919 kJ/mol
# GULP energy per Si atom -5592.628140 kJ/mol
# Density = 2.033467 g / cm^3
# Si number density = 20.381062 Si / 1000 Ang^3
#
#
#
# Elastic Constant Matrix: (Units=GPa)
#
#
# Indices 1 2 3 4 5 6 
#
# 1 83.6898 38.6080 1.0025 0.0000 9.2778 0.0000
# 2 38.6080 102.5910 13.5212 0.0000 1.3033 0.0000
# 3 1.0025 13.5212 56.5421 0.0000 13.4714 0.0000
# 4 0.0000 0.0000 0.0000 5.4875 0.0000 2.7166
# 5 9.2778 1.3033 13.4714 0.0000 17.1528 0.0000
# 6 0.0000 0.0000 0.0000 2.7166 0.0000 34.5067
#
#
#
# Elastic Compliance Matrix: (Units=1/GPa)
#
#
# Indices 1 2 3 4 5 6 
#
# 1 0.016135 -0.006450 0.003960 0.000000 -0.011347 0.000000
# 2 -0.006450 0.012670 -0.004327 0.000000 0.005924 0.000000
# 3 0.003960 -0.004327 0.023475 0.000000 -0.020250 0.000000
# 4 0.000000 0.000000 0.000000 0.189624 0.000000 -0.014929
# 5 -0.011347 0.005924 -0.020250 0.000000 0.079891 0.000000
# 6 0.000000 0.000000 0.000000 -0.014929 0.000000 0.030155
#
#
# Mechanical properties :
#
#
# Convention : Reuss Voigt Hill
#
# Bulk Modulus (GPa) = 25.87598 38.78736 32.33167
# Shear Modulus (GPa) = 13.21125 24.07548 18.64336
#
# Velocity S-wave (km/s) = 2.54876 3.44069 3.02775
# Velocity P-wave (km/s) = 4.62442 5.90397 5.30293
#
# Compressibility (1/GPa) = 0.03864587
#
# Stress axis : x y z
#
# Youngs Moduli (GPa) = 61.97786 78.92862 42.59839
#
# Poissons Ratio (x) = 0.50907 -0.16868
# Poissons Ratio (y) = 0.39974 0.18432
# Poissons Ratio (z) = -0.24542 0.34151
#
# Static dielectric constant tensor:
#      x y z
#    x 1.731460 0.000000 -0.008210 
#    y 0.000000 1.752870 0.000000 
#    z -0.008210 0.000000 1.697240 
# 
# From -- ./inp_files/198780.got.cif
#   From: 2010.05.17/outbox.cif.g08.bks.cpg/sg12_100_cif.got.tgz:198780.got - 2010.06.03 13:09:07.
