data_PCOD9187493
_publ_section_title
;
Structure prediction by ZEFSAII (Michael W. Deem and Ramdas Pophale) SiO2 
 PCOD9187493
Probable space group: C 2/M
;
_chemical_formula_sum "Si O2"
_cell_formula_units_Z 64
_cell_length_a 23.782281
_cell_length_b 18.634866
_cell_length_c 19.840607
_cell_angle_alpha 90.000000
_cell_angle_beta 22.839595
_cell_angle_gamma 90.000000
_cell_volume 3413.007082
_symmetry_space_group_name_H-M "C 2/M"
_symmetry_group_IT_number 12
_symmetry_cell_setting 'monoclinic'
loop_
_space_group_symop_operation_xyz
x,y,z
-x,y,-z
-x,-y,-z
x,-y,z
1/2+x,1/2+y,z
1/2-x,1/2+y,-z
1/2-x,1/2-y,-z
1/2+x,1/2-y,z
loop_
_atom_site_type_symbol
_atom_site_label
_atom_site_fract_x
_atom_site_fract_y
_atom_site_fract_z
Si Si1 0.299214 0.351886 0.892179
Si Si2 0.718856 0.085488 0.437213
Si Si3 0.442015 0.664080 0.488720
Si Si4 0.478341 0.164113 0.445883
Si Si5 0.986574 0.584861 0.210534
Si Si6 0.717721 0.311085 0.942963
Si Si7 0.386341 0.161153 0.184436
Si Si8 0.972765 0.174556 0.106311
O O1 0.439581 0.369231 0.692615
O O2 0.343609 0.346019 0.921349
O O3 0.247903 0.272302 0.925794
O O4 0.154928 0.398664 0.040997
O O5 0.640163 0.114962 0.457533
O O6 0.618227 0.107473 0.611757
O O7 0.873486 0.123571 0.261576
O O8 0.731208 0.000000 0.423733
O O9 0.500000 0.650033 0.500000
O O10 0.443045 0.750991 0.478617
O O11 0.277197 0.641229 0.656381
O O12 0.500000 0.148391 0.500000
O O13 0.628916 0.152875 0.241309
O O14 0.969270 0.500000 0.220423
O O15 0.936129 0.625253 0.198942
O O16 0.620593 0.315186 0.984045
O O17 0.398655 0.247357 0.180184
O O18 0.500000 0.142005 0.000000
O O19 0.000000 0.147399 0.000000
#
# Coordination Sequence:
#
# PCOD9187493 Si02
#       8
#     8   8   8   8   8   8   8   8
#     4  10  20  37  59  89 118 155 201 254 305 362
#     4  11  24  41  58  86 127 167 205 250 309 367
#     4  10  21  35  62  95 122 149 195 258 307 354
#     4  10  19  35  59  86 120 155 198 250 295 360
#     4  11  24  43  63  88 127 167 204 251 311 375
#     4  10  20  34  59  90 117 149 205 254 306 354
#     4  11  23  39  65  95 124 162 204 254 313 367
#     4  11  23  38  62  92 124 163 208 264 305 362
#
# _framework density 18.751792999999999
#
# number of rings (size 3 to 8) (size 9 to 14) (size 15 to 20)
#    0.000    1.500    3.750    1.500    8.750    1.250 
#    0.000    1.875    0.000    1.500    0.000    0.000 
#    0.000    0.000    0.000    0.000    0.000    0.000 
#
# Total GULP energy -178633.230216 kJ/mol
# GULP energy per Si atom -5582.288444 kJ/mol
# Density = 1.870911 g / cm^3
# Si number density = 18.751793 Si / 1000 Ang^3
#
#
#
# Elastic Constant Matrix: (Units=GPa)
#
#
# Indices 1 2 3 4 5 6 
#
# 1 100.2836 6.8360 30.9376 -0.0011 6.7418 -0.0001
# 2 6.8360 25.6124 9.8214 -0.0067 11.3579 0.0029
# 3 30.9376 9.8214 92.1265 -0.0066 9.7392 0.0029
# 4 -0.0011 -0.0067 -0.0066 22.7113 0.0029 1.0590
# 5 6.7418 11.3579 9.7392 0.0029 39.4809 -0.0009
# 6 -0.0001 0.0029 0.0029 1.0590 -0.0009 12.5171
#
#
#
# Elastic Compliance Matrix: (Units=1/GPa)
#
#
# Indices 1 2 3 4 5 6 
#
# 1 0.011202 -0.001339 -0.003550 -0.000001 -0.000652 0.000001
# 2 -0.001339 0.046041 -0.003165 0.000015 -0.012236 -0.000012
# 3 -0.003550 -0.003165 0.012551 0.000003 -0.001579 -0.000003
# 4 -0.000001 0.000015 0.000003 0.044205 -0.000008 -0.003740
# 5 -0.000652 -0.012236 -0.001579 -0.000008 0.029350 0.000006
# 6 0.000001 -0.000012 -0.000003 -0.003740 0.000006 0.080207
#
#
# Mechanical properties :
#
#
# Convention : Reuss Voigt Hill
#
# Bulk Modulus (GPa) = 18.62729 34.80140 26.71434
# Shear Modulus (GPa) = 19.41295 26.30370 22.85832
#
# Velocity S-wave (km/s) = 3.22103 3.74937 3.49520
# Velocity P-wave (km/s) = 4.87735 6.11089 5.52863
#
# Compressibility (1/GPa) = 0.05368467
#
# Stress axis : x y z
#
# Youngs Moduli (GPa) = 89.26921 21.71997 79.67353
#
# Poissons Ratio (x) = 0.02909 0.28285
# Poissons Ratio (y) = 0.11957 0.25217
# Poissons Ratio (z) = 0.31692 0.06874
#
# Static dielectric constant tensor:
#      x y z
#    x 1.630060 0.000000 0.016860 
#    y 0.000000 1.621620 0.000000 
#    z 0.016860 0.000000 1.687240 
# 
# From -- ./inp_files/326080.got.cif
#   From: 2010.05.17/outbox.cif.g08.bks.cpg/sg12_164_cif.got.tgz:326080.got - 2010.06.03 13:09:07.
