data_PCOD9187801
_publ_section_title
;
Structure prediction by ZEFSAII (Michael W. Deem and Ramdas Pophale) SiO2 
 PCOD9187801
Probable space group: C 2/M
;
_chemical_formula_sum "Si O2"
_cell_formula_units_Z 48
_cell_length_a 11.030085
_cell_length_b 24.906779
_cell_length_c 9.692898
_cell_angle_alpha 90.000000
_cell_angle_beta 66.056741
_cell_angle_gamma 90.000000
_cell_volume 2433.724783
_symmetry_space_group_name_H-M "C 2/M"
_symmetry_group_IT_number 12
_symmetry_cell_setting 'monoclinic'
loop_
_space_group_symop_operation_xyz
x,y,z
-x,y,-z
-x,-y,-z
x,-y,z
1/2+x,1/2+y,z
1/2-x,1/2+y,-z
1/2-x,1/2-y,-z
1/2+x,1/2-y,z
loop_
_atom_site_type_symbol
_atom_site_label
_atom_site_fract_x
_atom_site_fract_y
_atom_site_fract_z
Si Si1 0.126442 0.936999 0.092118
Si Si2 0.735274 0.561301 0.350457
Si Si3 0.342119 0.253886 0.096257
Si Si4 0.437618 0.148179 0.176114
Si Si5 0.662477 0.563164 0.682083
Si Si6 0.289537 0.861028 0.809859
O O1 0.164454 0.934995 0.235897
O O2 0.969879 0.923745 0.169016
O O3 0.144185 0.000000 0.040043
O O4 0.217104 0.894986 0.966714
O O5 0.782282 0.500000 0.343431
O O6 0.855615 0.601951 0.285470
O O7 0.647681 0.572928 0.525885
O O8 0.343022 0.198798 0.183513
O O9 0.292045 0.307874 0.190032
O O10 0.500000 0.260416 0.000000
O O11 0.250000 0.250000 0.000000
O O12 0.566649 0.158763 0.208887
O O13 0.500000 0.130721 0.000000
O O14 0.685232 0.500000 0.689381
O O15 0.781910 0.598025 0.686830
#
# Coordination Sequence:
#
# PCOD9187801 Si02
#       6
#     8   8   8   8   8   8
#     4  10  19  35  61  90 120 156 201 246 294 360
#     4  10  21  38  61  86 121 164 196 242 306 363
#     4  11  20  37  60  88 119 157 200 253 303 350
#     4  11  22  39  59  88 118 151 207 250 291 366
#     4  10  22  38  58  90 125 157 198 244 302 364
#     4  12  22  37  62  91 119 157 198 254 303 354
#
# _framework density 19.722854999999999
#
# number of rings (size 3 to 8) (size 9 to 14) (size 15 to 20)
#    0.000    1.333    5.000    2.500    0.000    5.667 
#    0.000    2.500    0.000    0.000    0.000    0.000 
#    0.000    0.000    0.000    0.000    0.000    0.000 
#
# Total GULP energy -133835.509794 kJ/mol
# GULP energy per Si atom -5576.479575 kJ/mol
# Density = 1.967797 g / cm^3
# Si number density = 19.722855 Si / 1000 Ang^3
#
#
#
# Elastic Constant Matrix: (Units=GPa)
#
#
# Indices 1 2 3 4 5 6 
#
# 1 96.8291 41.4772 8.8725 0.0000 12.9844 0.0000
# 2 41.4772 86.7944 36.8850 0.0000 -6.7154 0.0000
# 3 8.8725 36.8850 70.0905 0.0000 11.7641 0.0000
# 4 0.0000 0.0000 0.0000 16.1505 0.0000 -0.0391
# 5 12.9844 -6.7154 11.7641 0.0000 25.8586 0.0000
# 6 0.0000 0.0000 0.0000 -0.0391 0.0000 33.2749
#
#
#
# Elastic Compliance Matrix: (Units=1/GPa)
#
#
# Indices 1 2 3 4 5 6 
#
# 1 0.016796 -0.011961 0.006610 0.000000 -0.014547 0.000000
# 2 -0.011961 0.025072 -0.014920 0.000000 0.019305 0.000000
# 3 0.006610 -0.014920 0.024349 0.000000 -0.018271 0.000000
# 4 0.000000 0.000000 0.000000 0.061918 0.000000 0.000073
# 5 -0.014547 0.019305 -0.018271 0.000000 0.059302 0.000000
# 6 0.000000 0.000000 0.000000 0.000073 0.000000 0.030053
#
#
# Mechanical properties :
#
#
# Convention : Reuss Voigt Hill
#
# Bulk Modulus (GPa) = 38.94928 47.57590 43.26259
# Shear Modulus (GPa) = 18.75547 26.15543 22.45545
#
# Velocity S-wave (km/s) = 3.08709 3.64558 3.37790
# Velocity P-wave (km/s) = 5.70071 6.47263 6.09889
#
# Compressibility (1/GPa) = 0.02567441
#
# Stress axis : x y z
#
# Youngs Moduli (GPa) = 59.53758 39.88586 41.06996
#
# Poissons Ratio (x) = 0.47708 -0.27147
# Poissons Ratio (y) = 0.71213 0.61276
# Poissons Ratio (z) = -0.39354 0.59509
#
# Static dielectric constant tensor:
#      x y z
#    x 1.733500 0.000000 0.022050 
#    y 0.000000 1.712130 0.000000 
#    z 0.022050 0.000000 1.705760 
# 
# From -- ./inp_files/51337.got.cif
#   From: 2010.05.17/outbox.cif.g08.bks.cpg/sg12_26_cif.got.tgz:51337.got - 2010.06.03 13:09:07.
