data_PCOD9187843
_publ_section_title
;
Structure prediction by ZEFSAII (Michael W. Deem and Ramdas Pophale) SiO2 
 PCOD9187843
Probable space group: C 2/M
;
_chemical_formula_sum "Si O2"
_cell_formula_units_Z 64
_cell_length_a 30.846810
_cell_length_b 13.957456
_cell_length_c 21.902792
_cell_angle_alpha 90.000000
_cell_angle_beta 18.227312
_cell_angle_gamma 90.000000
_cell_volume 2949.617484
_symmetry_space_group_name_H-M "C 2/M"
_symmetry_group_IT_number 12
_symmetry_cell_setting 'monoclinic'
loop_
_space_group_symop_operation_xyz
x,y,z
-x,y,-z
-x,-y,-z
x,-y,z
1/2+x,1/2+y,z
1/2-x,1/2+y,-z
1/2-x,1/2-y,-z
1/2+x,1/2-y,z
loop_
_atom_site_type_symbol
_atom_site_label
_atom_site_fract_x
_atom_site_fract_y
_atom_site_fract_z
Si Si1 0.406080 0.391615 0.297054
Si Si2 0.023662 0.111384 0.572842
Si Si3 0.279978 0.116312 0.977205
Si Si4 0.413777 0.885466 0.435401
Si Si5 0.746993 0.890794 0.629365
Si Si6 0.118395 0.196373 0.796360
Si Si7 0.705965 0.389658 0.939609
Si Si8 0.883628 0.703531 0.609174
O O1 0.393427 0.500000 0.288211
O O2 0.284190 0.375664 0.508331
O O3 0.421804 0.320076 0.219996
O O4 0.541201 0.391519 0.158851
O O5 0.116564 0.118813 0.510120
O O6 0.095078 0.184297 0.430938
O O7 0.863755 0.142773 0.797343
O O8 0.025218 0.000000 0.552232
O O9 0.279473 0.000000 0.979045
O O10 0.433780 0.147923 0.792567
O O11 0.261872 0.143652 0.930213
O O12 0.272873 0.849118 0.593315
O O13 0.400422 0.848504 0.522521
O O14 0.414465 0.000000 0.432976
O O15 0.643820 0.805597 0.782759
O O16 0.697599 0.000000 0.703511
O O17 0.000000 0.154915 0.000000
O O18 0.753899 0.500000 0.865736
O O19 0.747154 0.324754 0.827551
O O20 0.000000 0.667837 0.500000
#
# Coordination Sequence:
#
# PCOD9187843 Si02
#       8
#     8   8   8   8   8   8   8   8
#     4  10  21  39  66  92 122 164 208 254 310 369
#     4  10  21  41  65  89 122 162 210 260 306 359
#     4   9  18  37  65  92 119 158 203 255 305 358
#     4  11  23  39  60  92 131 162 198 246 310 376
#     4  10  21  42  68  91 118 163 218 261 299 356
#     4  12  25  41  62  95 131 164 203 253 315 370
#     4  10  19  35  61  94 125 156 200 253 309 370
#     4  12  23  35  55  92 125 164 203 242 308 372
#
# _framework density 21.697727
#
# number of rings (size 3 to 8) (size 9 to 14) (size 15 to 20)
#    0.000    1.500    3.750    1.875    0.000    3.500 
#    2.250    0.000    0.000    0.000    0.000    0.000 
#    0.000    0.000    0.000    0.000    0.000    0.000 
#
# Total GULP energy -178652.431746 kJ/mol
# GULP energy per Si atom -5582.888492 kJ/mol
# Density = 2.164834 g / cm^3
# Si number density = 21.697727 Si / 1000 Ang^3
#
#
#
# Elastic Constant Matrix: (Units=GPa)
#
#
# Indices 1 2 3 4 5 6 
#
# 1 45.2892 3.6440 -0.6855 -0.0001 -17.8873 -0.0001
# 2 3.6440 92.9321 41.4291 -0.0020 -3.9812 -0.0005
# 3 -0.6855 41.4291 78.8217 -0.0005 -10.3249 -0.0001
# 4 -0.0001 -0.0020 -0.0005 8.0276 0.0005 -21.2471
# 5 -17.8873 -3.9812 -10.3249 0.0005 28.0034 0.0001
# 6 -0.0001 -0.0005 -0.0001 -21.2471 0.0001 7.9780
#
#
#
# Elastic Compliance Matrix: (Units=1/GPa)
#
#
# Indices 1 2 3 4 5 6 
#
# 1 0.030480 -0.002135 0.004096 0.000000 0.020676 0.000000
# 2 -0.002135 0.014219 -0.007782 -0.000001 -0.002212 -0.000002
# 3 0.004096 -0.007782 0.017874 0.000000 0.008100 0.000001
# 4 0.000000 -0.000001 0.000000 -0.020594 0.000001 -0.054846
# 5 0.020676 -0.002212 0.008100 0.000001 0.051589 0.000001
# 6 0.000000 -0.000002 0.000001 -0.054846 0.000001 -0.020722
#
#
# Mechanical properties :
#
#
# Convention : Reuss Voigt Hill
#
# Bulk Modulus (GPa) = 19.63479 33.97980 26.80730
# Shear Modulus (GPa) = 49.27866 20.31218 34.79542
#
# Velocity S-wave (km/s) = 4.77082 3.06297 4.00890
# Velocity P-wave (km/s) = 6.27826 5.31070 5.81464
#
# Compressibility (1/GPa) = 0.05093001
#
# Stress axis : x y z
#
# Youngs Moduli (GPa) = 32.80817 70.33060 55.94863
#
# Poissons Ratio (x) = 0.15018 -0.22915
# Poissons Ratio (y) = 0.07006 0.43537
# Poissons Ratio (z) = -0.13438 0.54729
#
# Static dielectric constant tensor:
#      x y z
#    x 1.768330 0.000000 -0.022220 
#    y 0.000000 1.822110 0.000000 
#    z -0.022220 0.000000 1.829630 
# 
# From -- ./inp_files/330327.got.cif
#   From: 2010.05.17/outbox.cif.g08.bks.cpg/sg12_166_cif.got.tgz:330327.got - 2010.06.03 13:09:07.
