data_PCOD9187832
_publ_section_title
;
Structure prediction by ZEFSAII (Michael W. Deem and Ramdas Pophale) SiO2 
 PCOD9187832
Probable space group: C 2/M
;
_chemical_formula_sum "Si O2"
_cell_formula_units_Z 58
_cell_length_a 8.421344
_cell_length_b 22.779709
_cell_length_c 18.873993
_cell_angle_alpha 90.000000
_cell_angle_beta 133.923130
_cell_angle_gamma 90.000000
_cell_volume 2607.890651
_symmetry_space_group_name_H-M "C 2/M"
_symmetry_group_IT_number 12
_symmetry_cell_setting 'monoclinic'
loop_
_space_group_symop_operation_xyz
x,y,z
-x,y,-z
-x,-y,-z
x,-y,z
1/2+x,1/2+y,z
1/2-x,1/2+y,-z
1/2-x,1/2-y,-z
1/2+x,1/2-y,z
loop_
_atom_site_type_symbol
_atom_site_label
_atom_site_fract_x
_atom_site_fract_y
_atom_site_fract_z
Si Si1 0.555074 0.414809 0.653479
Si Si2 0.359070 0.066396 0.384500
Si Si3 0.928501 0.437367 0.174701
Si Si4 0.625126 0.704657 0.611713
Si Si5 0.577710 0.342090 0.104236
Si Si6 0.903019 0.316658 0.305823
Si Si7 0.232044 0.435529 0.035219
Si Si8 0.000000 0.000000 0.500000
O O1 0.392756 0.433089 0.666169
O O2 0.535626 0.345185 0.636670
O O3 0.497837 0.449049 0.562939
O O4 0.811116 0.428249 0.748100
O O5 0.500000 0.076950 0.500000
O O6 0.397320 0.118697 0.340729
O O7 0.419374 0.000000 0.378100
O O8 0.886766 0.500000 0.198324
O O9 0.787738 0.385236 0.162694
O O10 0.826892 0.441041 0.065365
O O11 0.500000 0.696768 0.500000
O O12 0.584424 0.769144 0.628054
O O13 0.880303 0.691544 0.674649
O O14 0.684870 0.297578 0.192783
O O15 0.395076 0.380915 0.087644
O O16 0.500000 0.325460 0.000000
O O17 0.317699 0.500000 0.085643
O O18 0.000000 0.424195 0.000000
#
# Coordination Sequence:
#
# PCOD9187832 Si02
#       8
#     8   8   8   8   8   8   8   2
#     4  12  23  41  67  98 140 181 227 273 344 411
#     4  11  25  42  63 101 146 180 227 287 347 415
#     4  10  19  35  61  92 131 171 217 273 331 417
#     4  12  25  46  72  99 135 184 240 285 338 421
#     4  10  22  42  64  96 132 170 232 285 348 415
#     4  12  26  46  71 100 135 188 234 289 356 410
#     4   9  19  35  61  94 134 172 217 274 347 409
#     4  12  24  40  70 104 144 184 224 280 352 406
#
# _framework density 22.240196999999998
#
# number of rings (size 3 to 8) (size 9 to 14) (size 15 to 20)
#    0.000    1.103    3.448    2.897    1.931    2.759 
#    0.000    0.690    0.000    0.000    0.000    0.000 
#    0.000    0.000    0.000    0.000    0.000    0.000 
#
# Total GULP energy -161740.897399 kJ/mol
# GULP energy per Si atom -5577.272324 kJ/mol
# Density = 2.218958 g / cm^3
# Si number density = 22.240197 Si / 1000 Ang^3
#
#
#
# Elastic Constant Matrix: (Units=GPa)
#
#
# Indices 1 2 3 4 5 6 
#
# 1 34.0602 1.1504 -24.3805 0.0000 8.6656 0.0000
# 2 1.1504 85.2321 3.4996 0.0000 -7.2773 0.0000
# 3 -24.3805 3.4996 59.4956 0.0000 2.3318 0.0000
# 4 0.0000 0.0000 0.0000 -27.3778 0.0000 2.7080
# 5 8.6656 -7.2773 2.3318 0.0000 25.5179 0.0000
# 6 0.0000 0.0000 0.0000 2.7080 0.0000 7.5789
#
#
#
# Elastic Compliance Matrix: (Units=1/GPa)
#
#
# Indices 1 2 3 4 5 6 
#
# 1 0.049805 -0.003240 0.021376 0.000000 -0.019790 0.000000
# 2 -0.003240 0.012279 -0.002238 0.000000 0.004806 0.000000
# 3 0.021376 -0.002238 0.026102 0.000000 -0.010282 0.000000
# 4 0.000000 0.000000 0.000000 -0.035279 0.000000 0.012605
# 5 -0.019790 0.004806 -0.010282 0.000000 0.048219 0.000000
# 6 0.000000 0.000000 0.000000 0.012605 0.000000 0.127441
#
#
# Mechanical properties :
#
#
# Convention : Reuss Voigt Hill
#
# Bulk Modulus (GPa) = 8.33461 15.48075 11.90768
# Shear Modulus (GPa) = 21.11799 14.37836 17.74817
#
# Velocity S-wave (km/s) = 3.08481 2.54540 2.82799
# Velocity P-wave (km/s) = 4.05509 3.95153 4.00364
#
# Compressibility (1/GPa) = 0.11998168
#
# Stress axis : x y z
#
# Youngs Moduli (GPa) = 20.07825 81.44198 38.31106
#
# Poissons Ratio (x) = 0.26384 -0.81893
# Poissons Ratio (y) = 0.06505 0.08575
# Poissons Ratio (z) = -0.42919 0.18228
#
# Static dielectric constant tensor:
#      x y z
#    x 1.755130 0.000000 0.047480 
#    y 0.000000 1.908040 0.000000 
#    z 0.047480 0.000000 1.813950 
# 
# From -- ./inp_files/302452.got.cif
#   From: 2010.05.17/outbox.cif.g08.bks.cpg/sg12_152_cif.got.tgz:302452.got - 2010.06.03 13:09:07.
