data_PCOD9187200
_publ_section_title
;
Structure prediction by ZEFSAII (Michael W. Deem and Ramdas Pophale) SiO2 
 PCOD9187200
Probable space group: C 2/M
;
_chemical_formula_sum "Si O2"
_cell_formula_units_Z 56
_cell_length_a 20.509515
_cell_length_b 10.907571
_cell_length_c 19.201981
_cell_angle_alpha 90.000000
_cell_angle_beta 130.522479
_cell_angle_gamma 90.000000
_cell_volume 3265.347510
_symmetry_space_group_name_H-M "C 2/M"
_symmetry_group_IT_number 12
_symmetry_cell_setting 'monoclinic'
loop_
_space_group_symop_operation_xyz
x,y,z
-x,y,-z
-x,-y,-z
x,-y,z
1/2+x,1/2+y,z
1/2-x,1/2+y,-z
1/2-x,1/2-y,-z
1/2+x,1/2-y,z
loop_
_atom_site_type_symbol
_atom_site_label
_atom_site_fract_x
_atom_site_fract_y
_atom_site_fract_z
Si Si1 0.525383 0.641873 0.442024
Si Si2 0.608677 0.000000 0.508969
Si Si3 0.256711 0.148320 0.943662
Si Si4 0.704880 0.750668 0.542496
Si Si5 0.728171 0.146449 0.275978
Si Si6 0.366543 0.734386 0.263593
Si Si7 0.402694 0.147897 0.933302
Si Si8 0.589815 0.000000 0.662944
O O1 0.500000 0.699137 0.500000
O O2 0.503051 0.500000 0.429984
O O3 0.624728 0.658365 0.494766
O O4 0.465303 0.698453 0.341540
O O5 0.660732 0.880900 0.523497
O O6 0.604452 0.000000 0.589952
O O7 0.514445 0.000000 0.407982
O O8 0.180109 0.179612 0.836128
O O9 0.344623 0.172698 0.960988
O O10 0.254420 0.000000 0.959434
O O11 0.250000 0.250000 0.000000
O O12 0.750000 0.750000 0.500000
O O13 0.768893 0.715466 0.649096
O O14 0.814723 0.177999 0.293312
O O15 0.651369 0.187293 0.171850
O O16 0.723869 0.000000 0.283129
O O17 0.368079 0.880688 0.272901
O O18 0.406580 0.000000 0.931916
O O19 0.500000 0.194943 0.000000
#
# Coordination Sequence:
#
# PCOD9187200 Si02
#       8
#     8   4   8   8   8   8   8   4
#     4  11  20  35  60  83 107 146 196 237 275 335
#     4  11  22  40  54  82 121 149 193 245 288 338
#     4  10  22  39  62  91 121 150 190 245 299 352
#     4  12  25  37  52  80 119 156 187 233 289 347
#     4  10  19  35  58  83 110 148 197 238 278 339
#     4  11  20  36  60  89 112 150 197 239 288 337
#     4   8  16  35  62  87 110 142 191 243 284 336
#     4  11  20  36  62  86 112 153 199 247 284 340
#
# _framework density 17.149781999999998
#
# number of rings (size 3 to 8) (size 9 to 14) (size 15 to 20)
#    0.000    1.571    4.286    2.571    3.000    0.000 
#    2.571    0.000    0.000    0.429    0.000    0.000 
#    0.000    0.000    0.000    0.000    0.000    0.000 
#
# Total GULP energy -156101.625117 kJ/mol
# GULP energy per Si atom -5575.058040 kJ/mol
# Density = 1.711075 g / cm^3
# Si number density = 17.149782 Si / 1000 Ang^3
#
#
#
# Elastic Constant Matrix: (Units=GPa)
#
#
# Indices 1 2 3 4 5 6 
#
# 1 93.4644 26.6171 61.5230 0.0000 -5.6432 0.0000
# 2 26.6171 88.7333 27.9114 0.0000 -10.1334 0.0000
# 3 61.5230 27.9114 98.4511 0.0000 -5.7131 0.0000
# 4 0.0000 0.0000 0.0000 28.7451 0.0000 1.1805
# 5 -5.6432 -10.1334 -5.7131 0.0000 30.6583 0.0000
# 6 0.0000 0.0000 0.0000 1.1805 0.0000 -17.0052
#
#
#
# Elastic Compliance Matrix: (Units=1/GPa)
#
#
# Indices 1 2 3 4 5 6 
#
# 1 0.018541 -0.002031 -0.010970 0.000000 0.000697 0.000000
# 2 -0.002031 0.012973 -0.002205 0.000000 0.003503 0.000000
# 3 -0.010970 -0.002205 0.017669 0.000000 0.000545 0.000000
# 4 0.000000 0.000000 0.000000 0.034690 0.000000 0.002408
# 5 0.000697 0.003503 0.000545 0.000000 0.034005 0.000000
# 6 0.000000 0.000000 0.000000 0.002408 0.000000 -0.058638
#
#
# Mechanical properties :
#
#
# Convention : Reuss Voigt Hill
#
# Bulk Modulus (GPa) = 53.27668 56.97242 55.12455
# Shear Modulus (GPa) = 52.13276 19.45280 35.79278
#
# Velocity S-wave (km/s) = 5.51946 3.37157 4.57340
# Velocity P-wave (km/s) = 8.47067 6.96055 7.75247
#
# Compressibility (1/GPa) = 0.01876994
#
# Stress axis : x y z
#
# Youngs Moduli (GPa) = 53.93499 77.08458 56.59522
#
# Poissons Ratio (x) = 0.15659 0.62085
# Poissons Ratio (y) = 0.10956 0.12480
# Poissons Ratio (z) = 0.59167 0.16998
#
# Static dielectric constant tensor:
#      x y z
#    x 1.573900 0.000000 0.006490 
#    y 0.000000 1.399740 0.000000 
#    z 0.006490 0.000000 1.591200 
# 
# From -- ./inp_files/282980.got.cif
#   From: 2010.05.17/outbox.cif.g08.bks.cpg/sg12_142_cif.got.tgz:282980.got - 2010.06.03 13:09:07.
