data_PCOD9187676
_publ_section_title
;
Structure prediction by ZEFSAII (Michael W. Deem and Ramdas Pophale) SiO2 
 PCOD9187676
Probable space group: C 2/M
;
_chemical_formula_sum "Si O2"
_cell_formula_units_Z 52
_cell_length_a 10.270759
_cell_length_b 24.905884
_cell_length_c 10.724224
_cell_angle_alpha 90.000000
_cell_angle_beta 123.897491
_cell_angle_gamma 90.000000
_cell_volume 2277.024355
_symmetry_space_group_name_H-M "C 2/M"
_symmetry_group_IT_number 12
_symmetry_cell_setting 'monoclinic'
loop_
_space_group_symop_operation_xyz
x,y,z
-x,y,-z
-x,-y,-z
x,-y,z
1/2+x,1/2+y,z
1/2-x,1/2+y,-z
1/2-x,1/2-y,-z
1/2+x,1/2-y,z
loop_
_atom_site_type_symbol
_atom_site_label
_atom_site_fract_x
_atom_site_fract_y
_atom_site_fract_z
Si Si1 0.749897 0.935888 0.361071
Si Si2 0.105365 0.060807 0.837889
Si Si3 0.333962 0.631647 0.646663
Si Si4 0.000000 0.673847 0.500000
Si Si5 0.532064 0.720407 0.653353
Si Si6 0.338308 0.210263 0.957479
Si Si7 0.424277 0.091586 0.089638
O O1 0.826174 0.925059 0.264844
O O2 0.824879 0.901353 0.511657
O O3 0.564766 0.920199 0.258625
O O4 0.766207 0.000000 0.391101
O O5 0.962165 0.099368 0.794037
O O6 0.050142 0.000000 0.803249
O O7 0.253948 0.065572 0.009336
O O8 0.156505 0.639404 0.594719
O O9 0.406845 0.691227 0.672850
O O10 0.001515 0.716016 0.617933
O O11 0.500000 0.697865 0.500000
O O12 0.708479 0.703859 0.781511
O O13 0.500000 0.235512 0.000000
O O14 0.250000 0.250000 0.000000
O O15 0.387112 0.154382 0.047340
O O16 0.500000 0.070700 0.000000
#
# Coordination Sequence:
#
# PCOD9187676 Si02
#       7
#     8   8   8   4   8   8   8
#     4  10  21  36  61  91 119 154 198 255 310 363
#     4  10  19  35  60  89 117 150 195 250 307 365
#     4  12  22  40  60  87 118 158 207 251 308 362
#     4  10  28  38  61  82 123 162 208 244 310 368
#     4  10  24  41  64  88 123 166 205 255 307 372
#     4  11  25  39  62  94 127 166 211 258 313 376
#     4   9  19  34  56  86 124 153 188 244 318 362
#
# _framework density 22.836821
#
# number of rings (size 3 to 8) (size 9 to 14) (size 15 to 20)
#    0.462    1.231    1.538    2.769    8.615    3.077 
#    0.000    1.538    0.000    0.000    0.000    2.154 
#    0.000    0.000    0.000    0.000    0.000    0.000 
#
# Total GULP energy -145219.938748 kJ/mol
# GULP energy per Si atom -5585.382260 kJ/mol
# Density = 2.278484 g / cm^3
# Si number density = 22.836821 Si / 1000 Ang^3
#
#
#
# Elastic Constant Matrix: (Units=GPa)
#
#
# Indices 1 2 3 4 5 6 
#
# 1 70.3377 37.4509 30.0666 0.0000 47.9589 0.0000
# 2 37.4509 91.8355 25.3326 0.0000 18.1273 0.0000
# 3 30.0666 25.3326 124.4333 0.0000 40.7116 0.0000
# 4 0.0000 0.0000 0.0000 51.8519 0.0000 52.0139
# 5 47.9589 18.1273 40.7116 0.0000 45.4835 0.0000
# 6 0.0000 0.0000 0.0000 52.0139 0.0000 66.2907
#
#
#
# Elastic Compliance Matrix: (Units=1/GPa)
#
#
# Indices 1 2 3 4 5 6 
#
# 1 0.075383 -0.017720 0.012852 0.000000 -0.083926 0.000000
# 2 -0.017720 0.016118 -0.004258 0.000000 0.016073 0.000000
# 3 0.012852 -0.004258 0.013684 0.000000 -0.024102 0.000000
# 4 0.000000 0.000000 0.000000 0.090580 0.000000 -0.071072
# 5 -0.083926 0.016073 -0.024102 0.000000 0.125647 0.000000
# 6 0.000000 0.000000 0.000000 -0.071072 0.000000 0.070851
#
#
# Mechanical properties :
#
#
# Convention : Reuss Voigt Hill
#
# Bulk Modulus (GPa) = 11.50350 52.47852 31.99101
# Shear Modulus (GPa) = 11.37677 45.64230 28.50953
#
# Velocity S-wave (km/s) = 2.23441 4.47545 3.53711
# Velocity P-wave (km/s) = 3.42125 7.05237 5.54260
#
# Compressibility (1/GPa) = 0.08693008
#
# Stress axis : x y z
#
# Youngs Moduli (GPa) = 13.26565 62.04421 73.08019
#
# Poissons Ratio (x) = 1.09945 -0.93920
# Poissons Ratio (y) = 0.23507 0.31118
# Poissons Ratio (z) = -0.17049 0.26419
#
# Static dielectric constant tensor:
#      x y z
#    x 1.850820 0.000000 -0.015960 
#    y 0.000000 1.865540 0.000000 
#    z -0.015960 0.000000 1.845750 
# 
# From -- ./inp_files/208687.got.cif
#   From: 2010.05.17/outbox.cif.g08.bks.cpg/sg12_105_cif.got.tgz:208687.got - 2010.06.03 13:09:07.
