data_PCOD9187615
_publ_section_title
;
Structure prediction by ZEFSAII (Michael W. Deem and Ramdas Pophale) SiO2 
 PCOD9187615
Probable space group: C 2/M
;
_chemical_formula_sum "Si O2"
_cell_formula_units_Z 58
_cell_length_a 28.296037
_cell_length_b 9.130382
_cell_length_c 12.369920
_cell_angle_alpha 90.000000
_cell_angle_beta 86.113733
_cell_angle_gamma 90.000000
_cell_volume 3188.465091
_symmetry_space_group_name_H-M "C 2/M"
_symmetry_group_IT_number 12
_symmetry_cell_setting 'monoclinic'
loop_
_space_group_symop_operation_xyz
x,y,z
-x,y,-z
-x,-y,-z
x,-y,z
1/2+x,1/2+y,z
1/2-x,1/2+y,-z
1/2-x,1/2-y,-z
1/2+x,1/2-y,z
loop_
_atom_site_type_symbol
_atom_site_label
_atom_site_fract_x
_atom_site_fract_y
_atom_site_fract_z
Si Si1 0.635776 0.825607 0.497764
Si Si2 0.456342 0.838922 0.202166
Si Si3 0.705464 0.670853 0.647336
Si Si4 0.000000 0.500000 0.000000
Si Si5 0.798234 0.824197 0.949900
Si Si6 0.461415 0.325474 0.414223
Si Si7 0.308834 0.824667 0.719084
Si Si8 0.864174 0.829565 0.138175
O O1 0.679370 0.770453 0.564322
O O2 0.588808 0.744495 0.545029
O O3 0.649237 0.792183 0.371397
O O4 0.630803 0.000000 0.508539
O O5 0.475561 0.740060 0.295839
O O6 0.408431 0.768307 0.163756
O O7 0.444769 0.000000 0.251459
O O8 0.489842 0.874507 0.095665
O O9 0.704031 0.500000 0.613010
O O10 0.759276 0.710254 0.666758
O O11 0.675596 0.682540 0.762796
O O12 0.810423 0.762129 0.830385
O O13 0.792275 0.000000 0.949169
O O14 0.750000 0.750000 0.000000
O O15 0.839667 0.789141 0.029119
O O16 0.500000 0.291728 0.500000
O O17 0.456086 0.500000 0.406795
O O18 0.308175 0.000000 0.741047
O O19 0.878778 0.000000 0.131732
#
# Coordination Sequence:
#
# PCOD9187615 Si02
#       8
#     8   8   8   2   8   8   8   8
#     4  11  23  38  60  92 121 157 202 252 306 361
#     4  10  21  42  67  90 122 150 196 251 309 365
#     4  10  19  35  60  85 123 163 198 246 293 354
#     4   8  24  44  64 100 124 148 194 266 312 368
#     4  11  22  37  57  82 119 162 209 249 295 352
#     4  11  24  43  67  92 121 161 207 252 309 381
#     4  10  22  40  56  84 127 165 202 251 302 352
#     4  10  20  36  61  89 117 159 204 246 292 356
#
# _framework density 18.190570000000001
#
# number of rings (size 3 to 8) (size 9 to 14) (size 15 to 20)
#    0.414    1.241    2.759    2.069    0.000    3.862 
#    2.483    1.379    0.000    0.000    0.000    0.000 
#    0.000    0.000    0.000    0.000    0.000    0.000 
#
# Total GULP energy -161601.722219 kJ/mol
# GULP energy per Si atom -5572.473180 kJ/mol
# Density = 1.814917 g / cm^3
# Si number density = 18.190570 Si / 1000 Ang^3
#
#
#
# Elastic Constant Matrix: (Units=GPa)
#
#
# Indices 1 2 3 4 5 6 
#
# 1 29.3594 30.7309 45.3003 0.0000 7.1721 0.0000
# 2 30.7309 60.0392 57.7067 0.0000 10.6624 0.0000
# 3 45.3003 57.7067 143.0689 0.0000 -1.1934 0.0000
# 4 0.0000 0.0000 0.0000 38.8070 0.0000 3.6295
# 5 7.1721 10.6624 -1.1934 0.0000 27.6961 0.0000
# 6 0.0000 0.0000 0.0000 3.6295 0.0000 12.7968
#
#
#
# Elastic Compliance Matrix: (Units=1/GPa)
#
#
# Indices 1 2 3 4 5 6 
#
# 1 0.097965 -0.028591 -0.019614 0.000000 -0.015207 0.000000
# 2 -0.028591 0.039325 -0.006876 0.000000 -0.008032 0.000000
# 3 -0.019614 -0.006876 0.016044 0.000000 0.008418 0.000000
# 4 0.000000 0.000000 0.000000 0.026471 0.000000 -0.007508
# 5 -0.015207 -0.008032 0.008418 0.000000 0.043499 0.000000
# 6 0.000000 0.000000 0.000000 -0.007508 0.000000 0.080274
#
#
# Mechanical properties :
#
#
# Convention : Reuss Voigt Hill
#
# Bulk Modulus (GPa) = 23.16270 55.54923 39.35597
# Shear Modulus (GPa) = 11.67874 22.44198 17.06036
#
# Velocity S-wave (km/s) = 2.53656 3.51624 3.06579
# Velocity P-wave (km/s) = 4.61951 6.86214 5.84931
#
# Compressibility (1/GPa) = 0.04317285
#
# Stress axis : x y z
#
# Youngs Moduli (GPa) = 10.20775 25.42910 62.33015
#
# Poissons Ratio (x) = 0.72703 1.22252
# Poissons Ratio (y) = 0.29185 0.42858
# Poissons Ratio (z) = 0.20021 0.17485
#
# Static dielectric constant tensor:
#      x y z
#    x 1.604160 0.000000 -0.008550 
#    y 0.000000 1.615890 0.000000 
#    z -0.008550 0.000000 1.622290 
# 
# From -- ./inp_files/186642.got.cif
#   From: 2010.05.17/outbox.cif.g08.bks.cpg/sg12_94_cif.got.tgz:186642.got - 2010.06.03 13:09:07.
