data_PCOD9187155
_publ_section_title
;
Structure prediction by ZEFSAII (Michael W. Deem and Ramdas Pophale) SiO2 
 PCOD9187155
Probable space group: C 2/M
;
_chemical_formula_sum "Si O2"
_cell_formula_units_Z 56
_cell_length_a 19.914641
_cell_length_b 7.441862
_cell_length_c 30.047592
_cell_angle_alpha 90.000000
_cell_angle_beta 148.021235
_cell_angle_gamma 90.000000
_cell_volume 2358.390853
_symmetry_space_group_name_H-M "C 2/M"
_symmetry_group_IT_number 12
_symmetry_cell_setting 'monoclinic'
loop_
_space_group_symop_operation_xyz
x,y,z
-x,y,-z
-x,-y,-z
x,-y,z
1/2+x,1/2+y,z
1/2-x,1/2+y,-z
1/2-x,1/2-y,-z
1/2+x,1/2-y,z
loop_
_atom_site_type_symbol
_atom_site_label
_atom_site_fract_x
_atom_site_fract_y
_atom_site_fract_z
Si Si1 0.834983 0.783573 0.118791
Si Si2 0.709328 0.206080 0.545726
Si Si3 0.002540 0.220773 0.296281
Si Si4 0.035457 0.710525 0.161426
Si Si5 0.050629 0.203505 0.639103
Si Si6 0.715471 0.718787 0.650283
Si Si7 0.451139 0.220234 0.020908
O O1 0.927947 0.721783 0.210630
O O2 0.899612 0.729141 0.108826
O O3 0.833293 0.000000 0.118143
O O4 0.693012 0.723603 0.049705
O O5 0.851385 0.279885 0.621236
O O6 0.598097 0.299778 0.456239
O O7 0.680415 0.213299 0.582013
O O8 0.709786 0.000000 0.530886
O O9 0.936340 0.282479 0.304558
O O10 0.004052 0.000000 0.297112
O O11 0.063377 0.500000 0.173155
O O12 0.144569 0.780604 0.255560
O O13 0.032199 0.781285 0.109315
O O14 0.122484 0.281955 0.637209
O O15 0.099926 0.000000 0.670198
O O16 0.710168 0.500000 0.643862
O O17 0.452864 0.000000 0.021624
O O18 0.500000 0.277814 0.000000
#
# Coordination Sequence:
#
# PCOD9187155 Si02
#       7
#     8   8   8   8   8   8   8
#     4  10  19  35  58  81 109 145 179 215 263 318
#     4  11  21  36  55  78 107 139 179 223 269 322
#     4   9  19  34  54  79 105 139 180 219 263 316
#     4  10  20  35  55  82 111 141 179 220 262 312
#     4  10  21  36  54  76 105 141 181 224 270 315
#     4  10  21  35  54  78 107 142 179 222 267 313
#     4   9  19  33  56  88 114 137 174 223 266 308
#
# _framework density 23.745003000000001
#
# number of rings (size 3 to 8) (size 9 to 14) (size 15 to 20)
#    0.000    2.143    1.429    1.714    2.000    2.286 
#    0.000    1.429    0.000    1.714    0.000    0.000 
#    0.000    0.000    0.000    0.000    0.000    0.000 
#
# Total GULP energy -156536.271487 kJ/mol
# GULP energy per Si atom -5590.581125 kJ/mol
# Density = 2.369096 g / cm^3
# Si number density = 23.745003 Si / 1000 Ang^3
#
#
#
# Elastic Constant Matrix: (Units=GPa)
#
#
# Indices 1 2 3 4 5 6 
#
# 1 101.4668 -7.0244 15.1454 0.0002 -34.3846 0.0010
# 2 -7.0244 74.4296 -4.5717 -0.0012 2.7425 0.0031
# 3 15.1454 -4.5717 65.0412 -0.0002 -16.9957 0.0003
# 4 0.0002 -0.0012 -0.0002 68.6210 -0.0006 2.7933
# 5 -34.3846 2.7425 -16.9957 -0.0006 42.5679 -0.0003
# 6 0.0010 0.0031 0.0003 2.7933 -0.0003 13.9812
#
#
#
# Elastic Compliance Matrix: (Units=1/GPa)
#
#
# Indices 1 2 3 4 5 6 
#
# 1 0.013632 0.000870 -0.000280 0.000000 0.010844 -0.000001
# 2 0.000870 0.013561 0.000788 0.000000 0.000144 -0.000003
# 3 -0.000280 0.000788 0.017220 0.000000 0.006598 0.000000
# 4 0.000000 0.000000 0.000000 0.014692 0.000000 -0.002935
# 5 0.010844 0.000144 0.006598 0.000000 0.034876 0.000000
# 6 -0.000001 -0.000003 0.000000 -0.002935 0.000000 0.072111
#
#
# Mechanical properties :
#
#
# Convention : Reuss Voigt Hill
#
# Bulk Modulus (GPa) = 21.20038 27.55958 24.37998
# Shear Modulus (GPa) = 27.92383 40.85991 34.39187
#
# Velocity S-wave (km/s) = 3.43299 4.15273 3.80989
# Velocity P-wave (km/s) = 4.96605 5.88432 5.44458
#
# Compressibility (1/GPa) = 0.04716897
#
# Stress axis : x y z
#
# Youngs Moduli (GPa) = 73.35646 73.74239 58.07334
#
# Poissons Ratio (x) = -0.06414 0.01624
# Poissons Ratio (y) = -0.06381 -0.04577
# Poissons Ratio (z) = 0.02052 -0.05812
#
# Static dielectric constant tensor:
#      x y z
#    x 1.888480 0.000000 0.013350 
#    y 0.000000 1.934380 0.000000 
#    z 0.013350 0.000000 1.863560 
# 
# From -- ./inp_files/275281.got.cif
#   From: 2010.05.17/outbox.cif.g08.bks.cpg/sg12_138_cif.got.tgz:275281.got - 2010.06.03 13:09:07.
