data_PCOD9187354
_publ_section_title
;
Structure prediction by ZEFSAII (Michael W. Deem and Ramdas Pophale) SiO2 
 PCOD9187354
Probable space group: C 2/M
;
_chemical_formula_sum "Si O2"
_cell_formula_units_Z 56
_cell_length_a 30.988424
_cell_length_b 18.874177
_cell_length_c 9.783919
_cell_angle_alpha 90.000000
_cell_angle_beta 147.359391
_cell_angle_gamma 90.000000
_cell_volume 3086.493272
_symmetry_space_group_name_H-M "C 2/M"
_symmetry_group_IT_number 12
_symmetry_cell_setting 'monoclinic'
loop_
_space_group_symop_operation_xyz
x,y,z
-x,y,-z
-x,-y,-z
x,-y,z
1/2+x,1/2+y,z
1/2-x,1/2+y,-z
1/2-x,1/2-y,-z
1/2+x,1/2-y,z
loop_
_atom_site_type_symbol
_atom_site_label
_atom_site_fract_x
_atom_site_fract_y
_atom_site_fract_z
Si Si1 0.642620 0.789636 0.638788
Si Si2 0.237259 0.917373 0.099450
Si Si3 0.001566 0.204979 0.169021
Si Si4 0.885133 0.077463 0.476753
Si Si5 0.828949 0.165751 0.826180
Si Si6 0.716085 0.207232 0.118586
Si Si7 0.266481 0.580303 0.403790
O O1 0.687185 0.863365 0.715712
O O2 0.552693 0.774262 0.350561
O O3 0.698641 0.728179 0.721498
O O4 0.652775 0.781197 0.828823
O O5 0.180060 0.885494 0.065494
O O6 0.258426 0.000000 0.182060
O O7 0.186123 0.915512 0.823382
O O8 0.051965 0.139378 0.362595
O O9 0.000000 0.202971 0.000000
O O10 0.914363 0.191884 0.998555
O O11 0.846436 0.077856 0.524394
O O12 0.922521 0.000000 0.553541
O O13 0.789345 0.238024 0.772371
O O14 0.785009 0.122951 0.589820
O O15 0.709416 0.128712 0.159112
O O16 0.239833 0.500000 0.356361
#
# Coordination Sequence:
#
# PCOD9187354 Si02
#       7
#     8   8   8   8   8   8   8
#     4  10  19  35  59  80 108 149 195 235 280 332
#     4  10  21  39  61  86 111 146 196 243 284 330
#     4  12  22  37  52  81 118 156 186 223 287 348
#     4  10  20  34  56  80 109 146 186 223 270 339
#     4  11  23  34  55  84 121 151 185 233 286 336
#     4  10  19  36  57  82 107 145 194 242 275 325
#     4  11  20  35  57  84 112 144 185 229 281 335
#
# _framework density 18.143567999999998
#
# number of rings (size 3 to 8) (size 9 to 14) (size 15 to 20)
#    0.000    1.429    4.286    2.571    0.000    4.857 
#    0.000    1.429    0.000    1.286    0.000    2.000 
#    0.000    0.000    0.000    0.000    0.000    0.000 
#
# Total GULP energy -156042.028180 kJ/mol
# GULP energy per Si atom -5572.929578 kJ/mol
# Density = 1.810227 g / cm^3
# Si number density = 18.143568 Si / 1000 Ang^3
#
#
#
# Elastic Constant Matrix: (Units=GPa)
#
#
# Indices 1 2 3 4 5 6 
#
# 1 76.4660 36.4820 27.2638 0.0000 -24.3429 0.0000
# 2 36.4820 124.6865 46.6601 0.0000 -7.3108 0.0000
# 3 27.2638 46.6601 61.9685 0.0000 -18.0161 0.0000
# 4 0.0000 0.0000 0.0000 20.4713 0.0000 -2.7262
# 5 -24.3429 -7.3108 -18.0161 0.0000 14.8317 0.0000
# 6 0.0000 0.0000 0.0000 -2.7262 0.0000 15.3206
#
#
#
# Elastic Compliance Matrix: (Units=1/GPa)
#
#
# Indices 1 2 3 4 5 6 
#
# 1 0.035629 -0.011111 0.012521 0.000000 0.068209 0.000000
# 2 -0.011111 0.015164 -0.014932 0.000000 -0.028899 0.000000
# 3 0.012521 -0.014932 0.039741 0.000000 0.061464 0.000000
# 4 0.000000 0.000000 0.000000 0.050035 0.000000 0.008903
# 5 0.068209 -0.028899 0.061464 0.000000 0.239788 0.000000
# 6 0.000000 0.000000 0.000000 0.008903 0.000000 0.066856
#
#
# Mechanical properties :
#
#
# Convention : Reuss Voigt Hill
#
# Bulk Modulus (GPa) = 15.75019 53.77032 34.76026
# Shear Modulus (GPa) = 10.09249 20.30572 15.19911
#
# Velocity S-wave (km/s) = 2.36107 3.34903 2.89747
# Velocity P-wave (km/s) = 4.01654 6.68244 5.51306
#
# Compressibility (1/GPa) = 0.06349131
#
# Stress axis : x y z
#
# Youngs Moduli (GPa) = 28.06739 65.94432 25.16312
#
# Poissons Ratio (x) = 0.73270 -0.31508
# Poissons Ratio (y) = 0.31186 0.37572
# Poissons Ratio (z) = -0.35144 0.98465
#
# Static dielectric constant tensor:
#      x y z
#    x 1.635200 0.000000 -0.008770 
#    y 0.000000 1.665270 0.000000 
#    z -0.008770 0.000000 1.621620 
# 
# From -- ./inp_files/113398.got.cif
#   From: 2010.05.17/outbox.cif.g08.bks.cpg/sg12_57_cif.got.tgz:113398.got - 2010.06.03 13:09:07.
