data_PCOD9187614
_publ_section_title
;
Structure prediction by ZEFSAII (Michael W. Deem and Ramdas Pophale) SiO2 
 PCOD9187614
Probable space group: C 2/M
;
_chemical_formula_sum "Si O2"
_cell_formula_units_Z 48
_cell_length_a 17.300905
_cell_length_b 25.776373
_cell_length_c 7.039715
_cell_angle_alpha 90.000000
_cell_angle_beta 36.769262
_cell_angle_gamma 90.000000
_cell_volume 1879.221704
_symmetry_space_group_name_H-M "C 2/M"
_symmetry_group_IT_number 12
_symmetry_cell_setting 'monoclinic'
loop_
_space_group_symop_operation_xyz
x,y,z
-x,y,-z
-x,-y,-z
x,-y,z
1/2+x,1/2+y,z
1/2-x,1/2+y,-z
1/2-x,1/2-y,-z
1/2+x,1/2-y,z
loop_
_atom_site_type_symbol
_atom_site_label
_atom_site_fract_x
_atom_site_fract_y
_atom_site_fract_z
Si Si1 0.744680 0.740929 0.785593
Si Si2 0.243020 0.440552 0.847843
Si Si3 0.319989 0.558246 0.258704
Si Si4 0.035621 0.578524 0.720261
Si Si5 0.002677 0.301020 0.264558
Si Si6 0.383456 0.362882 0.856697
O O1 0.890175 0.738851 0.425669
O O2 0.750000 0.750000 0.000000
O O3 0.642581 0.783200 0.917488
O O4 0.686897 0.683181 0.893873
O O5 0.284583 0.500000 0.811659
O O6 0.283910 0.429708 0.547784
O O7 0.300639 0.395149 0.864550
O O8 0.086711 0.438394 0.164045
O O9 0.368329 0.500000 0.154238
O O10 0.183455 0.561339 0.410945
O O11 0.415721 0.595833 0.957476
O O12 0.031424 0.640928 0.726143
O O13 0.000000 0.559357 0.000000
O O14 0.000000 0.301139 0.500000
O O15 0.500000 0.341423 0.500000
#
# Coordination Sequence:
#
# PCOD9187614 Si02
#       6
#     8   8   8   8   8   8
#     4  10  20  36  61  87 117 159 209 257 314 371
#     4  10  22  39  62  92 125 163 207 257 312 366
#     4  10  22  40  62  92 128 162 203 258 312 369
#     4  10  20  37  62  90 124 159 202 259 315 373
#     4  10  19  35  60  85 119 161 205 256 318 368
#     4  12  24  40  63  89 123 167 214 254 307 377
#
# _framework density 25.542490000000001
#
# number of rings (size 3 to 8) (size 9 to 14) (size 15 to 20)
#    0.000    1.667    1.667    4.500    0.000    4.000 
#    0.000    4.167   11.000    0.000    0.000    0.000 
#    0.000    0.000    0.000    0.000    0.000    0.000 
#
# Total GULP energy -134274.396241 kJ/mol
# GULP energy per Si atom -5594.766510 kJ/mol
# Density = 2.548435 g / cm^3
# Si number density = 25.542490 Si / 1000 Ang^3
#
#
#
# Elastic Constant Matrix: (Units=GPa)
#
#
# Indices 1 2 3 4 5 6 
#
# 1 68.4774 7.5198 18.2402 0.0000 6.4515 0.0000
# 2 7.5198 104.5526 -2.7145 0.0000 -13.5166 0.0000
# 3 18.2402 -2.7145 47.8559 0.0000 -11.3225 0.0000
# 4 0.0000 0.0000 0.0000 34.1662 0.0000 -1.8284
# 5 6.4515 -13.5166 -11.3225 0.0000 51.6316 0.0000
# 6 0.0000 0.0000 0.0000 -1.8284 0.0000 -31.7453
#
#
#
# Elastic Compliance Matrix: (Units=1/GPa)
#
#
# Indices 1 2 3 4 5 6 
#
# 1 0.017301 -0.002013 -0.007747 0.000000 -0.004387 0.000000
# 2 -0.002013 0.010204 0.002149 0.000000 0.003394 0.000000
# 3 -0.007747 0.002149 0.025664 0.000000 0.007159 0.000000
# 4 0.000000 0.000000 0.000000 0.029179 0.000000 -0.001681
# 5 -0.004387 0.003394 0.007159 0.000000 0.022375 0.000000
# 6 0.000000 0.000000 0.000000 -0.001681 0.000000 -0.031404
#
#
# Mechanical properties :
#
#
# Convention : Reuss Voigt Hill
#
# Bulk Modulus (GPa) = 26.35137 29.66410 28.00774
# Shear Modulus (GPa) = 49.41252 23.99986 36.70619
#
# Velocity S-wave (km/s) = 4.40309 3.06862 3.79498
# Velocity P-wave (km/s) = 6.01571 4.91875 5.49467
#
# Compressibility (1/GPa) = 0.03794869
#
# Stress axis : x y z
#
# Youngs Moduli (GPa) = 57.79951 98.00173 38.96471
#
# Poissons Ratio (x) = 0.19725 0.30184
# Poissons Ratio (y) = 0.11633 -0.08373
# Poissons Ratio (z) = 0.44775 -0.21060
#
# Static dielectric constant tensor:
#      x y z
#    x 2.056650 0.000000 -0.023710 
#    y 0.000000 2.327190 0.000000 
#    z -0.023710 0.000000 2.003200 
# 
# From -- ./inp_files/51951.got.cif
#   From: 2010.05.17/outbox.cif.g08.bks.cpg/sg12_26_cif.got.tgz:51951.got - 2010.06.03 13:09:07.
