data_PCOD9187484
_publ_section_title
;
Structure prediction by ZEFSAII (Michael W. Deem and Ramdas Pophale) SiO2 
 PCOD9187484
Probable space group: C 2/M
;
_chemical_formula_sum "Si O2"
_cell_formula_units_Z 56
_cell_length_a 30.384671
_cell_length_b 9.131921
_cell_length_c 11.704173
_cell_angle_alpha 90.000000
_cell_angle_beta 65.781702
_cell_angle_gamma 90.000000
_cell_volume 2961.741093
_symmetry_space_group_name_H-M "C 2/M"
_symmetry_group_IT_number 12
_symmetry_cell_setting 'monoclinic'
loop_
_space_group_symop_operation_xyz
x,y,z
-x,y,-z
-x,-y,-z
x,-y,z
1/2+x,1/2+y,z
1/2-x,1/2+y,-z
1/2-x,1/2-y,-z
1/2+x,1/2-y,z
loop_
_atom_site_type_symbol
_atom_site_label
_atom_site_fract_x
_atom_site_fract_y
_atom_site_fract_z
Si Si1 0.733727 0.324766 0.190425
Si Si2 0.707180 0.676256 0.475830
Si Si3 0.581190 0.824807 0.172193
Si Si4 0.516256 0.825495 0.853712
Si Si5 0.557234 0.173173 0.454231
Si Si6 0.098751 0.824968 0.632950
Si Si7 0.322239 0.325475 0.983709
O O1 0.741681 0.500000 0.179940
O O2 0.711837 0.285132 0.336475
O O3 0.698733 0.290035 0.120930
O O4 0.783972 0.243573 0.111990
O O5 0.711053 0.500000 0.479814
O O6 0.750000 0.750000 0.500000
O O7 0.654756 0.719688 0.579166
O O8 0.528758 0.783674 0.179118
O O9 0.581561 0.793185 0.306879
O O10 0.624905 0.743276 0.064542
O O11 0.586292 0.000000 0.151551
O O12 0.564421 0.743447 0.765332
O O13 0.523935 0.000000 0.832298
O O14 0.500000 0.796635 0.000000
O O15 0.500000 0.197059 0.500000
O O16 0.578277 0.267281 0.534144
O O17 0.563744 0.000000 0.472503
O O18 0.096274 0.000000 0.639329
O O19 0.323784 0.500000 0.994535
#
# Coordination Sequence:
#
# PCOD9187484 Si02
#       7
#     8   8   8   8   8   8   8
#     4   9  19  38  58  79 113 150 187 231 283 340
#     4  10  23  41  60  84 115 152 194 241 287 341
#     4  10  20  35  56  84 116 149 188 233 280 335
#     4  10  22  41  61  80 110 155 200 234 274 340
#     4  10  19  35  59  86 118 151 190 236 279 339
#     4  11  23  39  60  88 121 150 186 242 300 345
#     4  10  20  34  57  86 115 146 184 232 287 343
#
# _framework density 18.907796000000001
#
# number of rings (size 3 to 8) (size 9 to 14) (size 15 to 20)
#    0.000    2.000    1.429    1.714    0.000    6.286 
#    0.000    4.286    0.000    0.000    0.000    0.000 
#    0.000    0.000    0.000    0.000    0.000    0.000 
#
# Total GULP energy -156410.353854 kJ/mol
# GULP energy per Si atom -5586.084066 kJ/mol
# Density = 1.886476 g / cm^3
# Si number density = 18.907796 Si / 1000 Ang^3
#
#
#
# Elastic Constant Matrix: (Units=GPa)
#
#
# Indices 1 2 3 4 5 6 
#
# 1 104.2976 43.8335 60.9664 0.0000 -32.6939 0.0000
# 2 43.8335 30.4611 44.3546 0.0000 -15.9497 0.0000
# 3 60.9664 44.3546 95.2665 0.0000 -27.2715 0.0000
# 4 0.0000 0.0000 0.0000 28.9262 0.0000 -5.9288
# 5 -32.6939 -15.9497 -27.2715 0.0000 35.1836 0.0000
# 6 0.0000 0.0000 0.0000 -5.9288 0.0000 27.0765
#
#
#
# Elastic Compliance Matrix: (Units=1/GPa)
#
#
# Indices 1 2 3 4 5 6 
#
# 1 0.026983 -0.039048 0.003885 0.000000 0.010383 0.000000
# 2 -0.039048 0.162623 -0.051418 0.000000 -0.002419 0.000000
# 3 0.003885 -0.051418 0.033814 0.000000 0.006510 0.000000
# 4 0.000000 0.000000 0.000000 0.036195 0.000000 0.007925
# 5 0.010383 -0.002419 0.006510 0.000000 0.042020 0.000000
# 6 0.000000 0.000000 0.000000 0.007925 0.000000 0.038668
#
#
# Mechanical properties :
#
#
# Convention : Reuss Voigt Hill
#
# Bulk Modulus (GPa) = 19.89787 58.70382 39.30084
# Shear Modulus (GPa) = 9.43008 23.62863 16.52936
#
# Velocity S-wave (km/s) = 2.23567 3.53891 2.95991
# Velocity P-wave (km/s) = 4.14859 6.91472 5.70194
#
# Compressibility (1/GPa) = 0.05025665
#
# Stress axis : x y z
#
# Youngs Moduli (GPa) = 37.06058 6.14919 29.57364
#
# Poissons Ratio (x) = 0.24012 -0.11489
# Poissons Ratio (y) = 1.44716 1.52061
# Poissons Ratio (z) = -0.14397 0.31618
#
# Static dielectric constant tensor:
#      x y z
#    x 1.638730 0.000000 0.003540 
#    y 0.000000 1.627660 0.000000 
#    z 0.003540 0.000000 1.655750 
# 
# From -- ./inp_files/186367.got.cif
#   From: 2010.05.17/outbox.cif.g08.bks.cpg/sg12_94_cif.got.tgz:186367.got - 2010.06.03 13:09:07.
