data_PCOD9187286
_publ_section_title
;
Structure prediction by ZEFSAII (Michael W. Deem and Ramdas Pophale) SiO2 
 PCOD9187286
Probable space group: C 2/M
;
_chemical_formula_sum "Si O2"
_cell_formula_units_Z 56
_cell_length_a 27.556900
_cell_length_b 13.480139
_cell_length_c 9.713025
_cell_angle_alpha 90.000000
_cell_angle_beta 60.021846
_cell_angle_gamma 90.000000
_cell_volume 3125.398721
_symmetry_space_group_name_H-M "C 2/M"
_symmetry_group_IT_number 12
_symmetry_cell_setting 'monoclinic'
loop_
_space_group_symop_operation_xyz
x,y,z
-x,y,-z
-x,-y,-z
x,-y,z
1/2+x,1/2+y,z
1/2-x,1/2+y,-z
1/2-x,1/2-y,-z
1/2+x,1/2-y,z
loop_
_atom_site_type_symbol
_atom_site_label
_atom_site_fract_x
_atom_site_fract_y
_atom_site_fract_z
Si Si1 0.304145 0.617501 0.337042
Si Si2 0.478999 0.228770 0.874019
Si Si3 0.432013 0.118802 0.442014
Si Si4 0.096036 0.384952 0.210384
Si Si5 0.186838 0.245178 0.136812
Si Si6 0.611996 0.615748 0.041131
Si Si7 0.684215 0.215226 0.449799
O O1 0.303902 0.500000 0.376904
O O2 0.348931 0.628450 0.149695
O O3 0.319898 0.698713 0.430276
O O4 0.241403 0.651813 0.382744
O O5 0.527464 0.189665 0.703317
O O6 0.428064 0.159200 0.895653
O O7 0.500000 0.218782 0.000000
O O8 0.449213 0.334891 0.892679
O O9 0.433446 0.145906 0.603127
O O10 0.369394 0.142767 0.477638
O O11 0.444517 0.000000 0.410255
O O12 0.089675 0.500000 0.213328
O O13 0.159279 0.351234 0.141758
O O14 0.184954 0.230586 0.301755
O O15 0.250000 0.250000 0.000000
O O16 0.146758 0.169132 0.113325
O O17 0.606350 0.500000 0.076889
#
# Coordination Sequence:
#
# PCOD9187286 Si02
#       7
#     8   8   8   8   8   8   8
#     4  10  20  36  57  81 114 153 188 228 281 340
#     4  11  22  36  56  80 114 144 187 235 284 322
#     4  10  20  36  58  82 110 148 188 228 281 341
#     4   9  20  36  56  81 109 145 186 225 279 346
#     4  10  19  35  58  86 115 146 184 231 285 331
#     4  10  22  39  59  82 113 152 194 231 277 338
#     4  10  20  35  59  83 116 145 189 236 279 340
#
# _framework density 17.917712999999999
#
# number of rings (size 3 to 8) (size 9 to 14) (size 15 to 20)
#    0.000    2.000    1.429    2.143    0.000    4.286 
#    0.000    0.714    0.000   11.143    0.000    0.000 
#    0.000    0.000    0.000    0.000    0.000    0.000 
#
# Total GULP energy -155968.271814 kJ/mol
# GULP energy per Si atom -5570.295422 kJ/mol
# Density = 1.787693 g / cm^3
# Si number density = 17.917713 Si / 1000 Ang^3
#
#
#
# Elastic Constant Matrix: (Units=GPa)
#
#
# Indices 1 2 3 4 5 6 
#
# 1 88.2826 19.8963 17.3429 0.0000 7.0993 0.0000
# 2 19.8963 77.9992 24.2232 0.0000 8.2986 0.0000
# 3 17.3429 24.2232 25.5033 0.0000 0.7625 0.0000
# 4 0.0000 0.0000 0.0000 24.6585 0.0000 -3.2458
# 5 7.0993 8.2986 0.7625 0.0000 37.5093 0.0000
# 6 0.0000 0.0000 0.0000 -3.2458 0.0000 7.8802
#
#
#
# Elastic Compliance Matrix: (Units=1/GPa)
#
#
# Indices 1 2 3 4 5 6 
#
# 1 0.013289 -0.000521 -0.008476 0.000000 -0.002228 0.000000
# 2 -0.000521 0.018726 -0.017321 0.000000 -0.003692 0.000000
# 3 -0.008476 -0.017321 0.061301 0.000000 0.004190 0.000000
# 4 0.000000 0.000000 0.000000 0.042879 0.000000 0.017662
# 5 -0.002228 -0.003692 0.004190 0.000000 0.027813 0.000000
# 6 0.000000 0.000000 0.000000 0.017662 0.000000 0.134176
#
#
# Mechanical properties :
#
#
# Convention : Reuss Voigt Hill
#
# Bulk Modulus (GPa) = 24.58195 34.96776 29.77485
# Shear Modulus (GPa) = 13.72201 22.69778 18.20989
#
# Velocity S-wave (km/s) = 2.77037 3.56304 3.19142
# Velocity P-wave (km/s) = 4.89719 6.04029 5.49853
#
# Compressibility (1/GPa) = 0.04068025
#
# Stress axis : x y z
#
# Youngs Moduli (GPa) = 75.25179 53.40309 16.31296
#
# Poissons Ratio (x) = 0.02780 0.13826
# Poissons Ratio (y) = 0.03917 0.28256
# Poissons Ratio (z) = 0.63781 0.92501
#
# Static dielectric constant tensor:
#      x y z
#    x 1.637410 0.000000 -0.014240 
#    y 0.000000 1.600710 0.000000 
#    z -0.014240 0.000000 1.627400 
# 
# From -- ./inp_files/104416.got.cif
#   From: 2010.05.17/outbox.cif.g08.bks.cpg/sg12_53_cif.got.tgz:104416.got - 2010.06.03 13:09:07.
