data_PCOD9187063
_publ_section_title
;
Structure prediction by ZEFSAII (Michael W. Deem and Ramdas Pophale) SiO2 
 PCOD9187063
Probable space group: C 2/M
;
_chemical_formula_sum "Si O2"
_cell_formula_units_Z 56
_cell_length_a 24.414082
_cell_length_b 19.533771
_cell_length_c 13.367867
_cell_angle_alpha 90.000000
_cell_angle_beta 149.158065
_cell_angle_gamma 90.000000
_cell_volume 3268.343548
_symmetry_space_group_name_H-M "C 2/M"
_symmetry_group_IT_number 12
_symmetry_cell_setting 'monoclinic'
loop_
_space_group_symop_operation_xyz
x,y,z
-x,y,-z
-x,-y,-z
x,-y,z
1/2+x,1/2+y,z
1/2-x,1/2+y,-z
1/2-x,1/2-y,-z
1/2+x,1/2-y,z
loop_
_atom_site_type_symbol
_atom_site_label
_atom_site_fract_x
_atom_site_fract_y
_atom_site_fract_z
Si Si1 0.197860 0.577999 0.439692
Si Si2 0.583199 0.575006 0.338353
Si Si3 0.500000 0.872730 0.000000
Si Si4 0.491668 0.295095 0.267864
Si Si5 0.299579 0.423452 0.262846
Si Si6 0.000000 0.144662 0.500000
Si Si7 0.709036 0.222288 0.543513
Si Si8 0.644392 0.798782 0.068796
O O1 0.190017 0.500000 0.465345
O O2 0.315339 0.586714 0.574366
O O3 0.102442 0.587711 0.207773
O O4 0.191802 0.640974 0.506787
O O5 0.537783 0.500000 0.245335
O O6 0.496343 0.634442 0.211137
O O7 0.639090 0.573991 0.534797
O O8 0.452520 0.827819 0.015814
O O9 0.497803 0.311720 0.394793
O O10 0.598803 0.257473 0.400626
O O11 0.395768 0.246570 0.085803
O O12 0.257308 0.500000 0.176353
O O13 0.393054 0.401273 0.333753
O O14 0.212780 0.363803 0.138759
O O15 0.750000 0.250000 0.500000
O O16 0.790261 0.249830 0.754012
#
# Coordination Sequence:
#
# PCOD9187063 Si02
#       8
#     8   8   4   8   8   4   8   8
#     4  11  21  32  53  81 117 156 190 230 278 336
#     4   9  17  33  53  77 112 149 184 233 283 327
#     4  12  19  32  54  88 121 144 190 230 289 336
#     4  11  21  37  57  86 113 150 193 233 288 336
#     4  10  19  35  57  84 113 141 184 242 294 331
#     4  10  21  40  60  82 113 148 192 238 293 332
#     4  12  19  38  55  80 121 154 187 226 282 346
#     4  12  22  34  59  89 115 152 189 235 281 347
#
# _framework density 17.134062
#
# number of rings (size 3 to 8) (size 9 to 14) (size 15 to 20)
#    0.000    1.143    8.571    0.429    0.000    1.714 
#    0.000    0.714    0.000    1.714    0.000    1.000 
#    0.000    0.000    0.000    0.000    0.000    0.000 
#
# Total GULP energy -156060.382484 kJ/mol
# GULP energy per Si atom -5573.585089 kJ/mol
# Density = 1.709506 g / cm^3
# Si number density = 17.134062 Si / 1000 Ang^3
#
#
#
# Elastic Constant Matrix: (Units=GPa)
#
#
# Indices 1 2 3 4 5 6 
#
# 1 71.6846 45.0845 14.4550 0.0000 3.6392 0.0000
# 2 45.0845 151.7243 34.2387 0.0000 -1.4708 0.0000
# 3 14.4550 34.2387 45.1886 0.0000 -3.1286 0.0000
# 4 0.0000 0.0000 0.0000 27.6617 0.0000 2.5810
# 5 3.6392 -1.4708 -3.1286 0.0000 14.5684 0.0000
# 6 0.0000 0.0000 0.0000 2.5810 0.0000 15.3394
#
#
#
# Elastic Compliance Matrix: (Units=1/GPa)
#
#
# Indices 1 2 3 4 5 6 
#
# 1 0.017714 -0.004768 -0.002430 0.000000 -0.005428 0.000000
# 2 -0.004768 0.009237 -0.005407 0.000000 0.000962 0.000000
# 3 -0.002430 -0.005407 0.027415 0.000000 0.005949 0.000000
# 4 0.000000 0.000000 0.000000 0.036728 0.000000 -0.006180
# 5 -0.005428 0.000962 0.005949 0.000000 0.071372 0.000000
# 6 0.000000 0.000000 0.000000 -0.006180 0.000000 0.066231
#
#
# Mechanical properties :
#
#
# Convention : Reuss Voigt Hill
#
# Bulk Modulus (GPa) = 34.29659 50.68375 42.49017
# Shear Modulus (GPa) = 18.96620 23.16853 21.06736
#
# Velocity S-wave (km/s) = 3.33066 3.68120 3.51031
# Velocity P-wave (km/s) = 5.90349 6.90748 6.42512
#
# Compressibility (1/GPa) = 0.02915742
#
# Stress axis : x y z
#
# Youngs Moduli (GPa) = 56.45170 108.25755 36.47594
#
# Poissons Ratio (x) = 0.51618 0.08862
# Poissons Ratio (y) = 0.26917 0.19723
# Poissons Ratio (z) = 0.13715 0.58535
#
# Static dielectric constant tensor:
#      x y z
#    x 1.585180 0.000000 0.013370 
#    y 0.000000 1.635400 0.000000 
#    z 0.013370 0.000000 1.590160 
# 
# From -- ./inp_files/169533.got.cif
#   From: 2010.05.17/outbox.cif.g08.bks.cpg/sg12_85_cif.got.tgz:169533.got - 2010.06.03 13:09:07.
