data_PCOD9187117
_publ_section_title
;
Structure prediction by ZEFSAII (Michael W. Deem and Ramdas Pophale) SiO2 
 PCOD9187117
Probable space group: C 2/M
;
_chemical_formula_sum "Si O2"
_cell_formula_units_Z 56
_cell_length_a 20.325764
_cell_length_b 8.020109
_cell_length_c 21.544062
_cell_angle_alpha 90.000000
_cell_angle_beta 52.184382
_cell_angle_gamma 90.000000
_cell_volume 2774.439037
_symmetry_space_group_name_H-M "C 2/M"
_symmetry_group_IT_number 12
_symmetry_cell_setting 'monoclinic'
loop_
_space_group_symop_operation_xyz
x,y,z
-x,y,-z
-x,-y,-z
x,-y,z
1/2+x,1/2+y,z
1/2-x,1/2+y,-z
1/2-x,1/2-y,-z
1/2+x,1/2-y,z
loop_
_atom_site_type_symbol
_atom_site_label
_atom_site_fract_x
_atom_site_fract_y
_atom_site_fract_z
Si Si1 0.874963 0.296054 0.295877
Si Si2 0.810747 0.301469 0.021494
Si Si3 0.396889 0.798338 0.426534
Si Si4 0.421114 0.199333 0.639861
Si Si5 0.669934 0.800159 0.186217
Si Si6 0.047890 0.295974 0.144303
Si Si7 0.191902 0.802723 0.403794
O O1 0.874980 0.500000 0.294474
O O2 0.889033 0.247439 0.359566
O O3 0.782775 0.237808 0.331116
O O4 0.953456 0.240086 0.209584
O O5 0.813749 0.500000 0.022455
O O6 0.762908 0.242608 0.110348
O O7 0.750000 0.250000 0.000000
O O8 0.901648 0.241491 0.946323
O O9 0.485768 0.737720 0.401848
O O10 0.326138 0.737097 0.514110
O O11 0.395425 0.000000 0.428446
O O12 0.360227 0.263305 0.729717
O O13 0.381500 0.234110 0.596471
O O14 0.426266 0.000000 0.643507
O O15 0.603827 0.744056 0.171566
O O16 0.664653 0.000000 0.189739
O O17 0.047335 0.500000 0.144677
O O18 0.192254 0.000000 0.395999
#
# Coordination Sequence:
#
# PCOD9187117 Si02
#       7
#     8   8   8   8   8   8   8
#     4   9  17  32  53  74  97 129 169 206 242 289
#     4   9  16  25  44  73 103 129 156 199 247 290
#     4  10  19  35  58  74  90 127 177 213 238 288
#     4  10  20  35  55  74  95 132 175 206 238 294
#     4   9  16  29  50  73  96 124 163 208 246 282
#     4   8  13  26  48  72  95 122 162 202 235 280
#     4  11  23  34  48  74 106 132 156 204 263 299
#
# _framework density 20.184260999999999
#
# number of rings (size 3 to 8) (size 9 to 14) (size 15 to 20)
#    0.000    2.571    1.429    2.571    0.000    2.857 
#    0.000    0.714    0.000    9.429    0.000    6.000 
#    0.000    0.000    0.000    0.000    0.000    0.000 
#
# Total GULP energy -156114.035179 kJ/mol
# GULP energy per Si atom -5575.501256 kJ/mol
# Density = 2.013832 g / cm^3
# Si number density = 20.184261 Si / 1000 Ang^3
#
#
#
# Elastic Constant Matrix: (Units=GPa)
#
#
# Indices 1 2 3 4 5 6 
#
# 1 44.2704 0.3696 -5.2776 0.0001 -17.2110 0.0001
# 2 0.3696 11.9693 -0.0469 -0.0001 -2.9455 0.0000
# 3 -5.2776 -0.0469 91.8207 0.0000 -28.2158 0.0001
# 4 0.0001 -0.0001 0.0000 25.1613 0.0000 -1.6414
# 5 -17.2110 -2.9455 -28.2158 0.0000 28.1405 0.0001
# 6 0.0001 0.0000 0.0001 -1.6414 0.0001 7.5229
#
#
#
# Elastic Compliance Matrix: (Units=1/GPa)
#
#
# Indices 1 2 3 4 5 6 
#
# 1 0.039667 0.008596 0.014476 0.000000 0.039675 -0.000002
# 2 0.008596 0.088673 0.007237 0.000000 0.021795 0.000000
# 3 0.014476 0.007237 0.021217 0.000000 0.030885 -0.000001
# 4 0.000000 0.000000 0.000000 0.040317 0.000000 0.008797
# 5 0.039675 0.021795 0.030885 0.000000 0.093051 -0.000003
# 6 -0.000002 0.000000 -0.000001 0.008797 -0.000003 0.134846
#
#
# Mechanical properties :
#
#
# Convention : Reuss Voigt Hill
#
# Bulk Modulus (GPa) = 4.75794 15.35008 10.05401
# Shear Modulus (GPa) = 11.70375 22.36598 17.03487
#
# Velocity S-wave (km/s) = 2.41061 3.33241 2.90826
# Velocity P-wave (km/s) = 3.17969 4.73583 4.03352
#
# Compressibility (1/GPa) = 0.21017480
#
# Stress axis : x y z
#
# Youngs Moduli (GPa) = 25.20983 11.27734 47.13120
#
# Poissons Ratio (x) = -0.09693 -0.68228
# Poissons Ratio (y) = -0.21669 -0.34107
# Poissons Ratio (z) = -0.36494 -0.08161
#
# Static dielectric constant tensor:
#      x y z
#    x 1.703870 0.000000 -0.036390 
#    y 0.000000 1.724770 0.000000 
#    z -0.036390 0.000000 1.750360 
# 
# From -- ./inp_files/313807.got.cif
#   From: 2010.05.17/outbox.cif.g08.bks.cpg/sg12_157_cif.got.tgz:313807.got - 2010.06.03 13:09:07.
