data_PCOD9187807
_publ_section_title
;
Structure prediction by ZEFSAII (Michael W. Deem and Ramdas Pophale) SiO2 
 PCOD9187807
Probable space group: C 2/M
;
_chemical_formula_sum "Si O2"
_cell_formula_units_Z 64
_cell_length_a 25.422551
_cell_length_b 18.181352
_cell_length_c 11.322059
_cell_angle_alpha 90.000000
_cell_angle_beta 146.105859
_cell_angle_gamma 90.000000
_cell_volume 2918.370250
_symmetry_space_group_name_H-M "C 2/M"
_symmetry_group_IT_number 12
_symmetry_cell_setting 'monoclinic'
loop_
_space_group_symop_operation_xyz
x,y,z
-x,y,-z
-x,-y,-z
x,-y,z
1/2+x,1/2+y,z
1/2-x,1/2+y,-z
1/2-x,1/2-y,-z
1/2+x,1/2-y,z
loop_
_atom_site_type_symbol
_atom_site_label
_atom_site_fract_x
_atom_site_fract_y
_atom_site_fract_z
Si Si1 0.921798 0.274548 0.050820
Si Si2 0.625599 0.655562 0.565326
Si Si3 0.794995 0.819668 0.647110
Si Si4 0.627111 0.184047 0.488817
Si Si5 0.664277 0.303222 0.885979
Si Si6 0.069598 0.085917 0.241317
Si Si7 0.822190 0.582830 0.937298
Si Si8 0.176663 0.586191 0.782349
O O1 0.896754 0.239703 0.132074
O O2 0.031197 0.295622 0.243376
O O3 0.879605 0.216224 0.880719
O O4 0.868776 0.352755 0.948957
O O5 0.663947 0.735315 0.595613
O O6 0.604096 0.670626 0.661564
O O7 0.550127 0.627596 0.328870
O O8 0.710249 0.597091 0.723484
O O9 0.750000 0.750000 0.500000
O O10 0.710693 0.851575 0.569379
O O11 0.834937 0.877579 0.629290
O O12 0.610109 0.133169 0.571312
O O13 0.750000 0.250000 0.000000
O O14 0.721458 0.373794 0.041416
O O15 0.077226 0.000000 0.280020
O O16 0.000000 0.094073 0.000000
O O17 0.845760 0.500000 0.945145
O O18 0.848627 0.591984 0.125805
O O19 0.178552 0.500000 0.756065
#
# Coordination Sequence:
#
# PCOD9187807 Si02
#       8
#     8   8   8   8   8   8   8   8
#     4  12  23  39  64 100 134 172 225 275 329 414
#     4  11  19  39  65  94 124 167 223 277 334 394
#     4  12  24  43  68  95 132 172 225 282 330 395
#     4  12  23  38  64  93 129 177 217 270 334 394
#     4  11  18  39  66  95 134 172 223 273 337 399
#     4  11  25  45  69  98 132 175 232 289 347 405
#     4  10  19  35  61  90 128 172 215 265 322 395
#     4  10  20  36  59  92 135 175 211 262 336 403
#
# _framework density 21.930046999999998
#
# number of rings (size 3 to 8) (size 9 to 14) (size 15 to 20)
#    0.000    0.875    7.500    1.125    0.000    3.500 
#    0.000    1.250    0.000    0.750    0.000   10.500 
#    0.000    0.000    0.000    0.000    0.000    0.000 
#
# Total GULP energy -178775.669316 kJ/mol
# GULP energy per Si atom -5586.739666 kJ/mol
# Density = 2.188013 g / cm^3
# Si number density = 21.930047 Si / 1000 Ang^3
#
#
#
# Elastic Constant Matrix: (Units=GPa)
#
#
# Indices 1 2 3 4 5 6 
#
# 1 35.9897 23.1745 24.5959 0.0000 -1.1304 0.0000
# 2 23.1745 125.6701 17.8944 0.0000 -7.1222 0.0000
# 3 24.5959 17.8944 108.9433 0.0000 -13.6368 0.0000
# 4 0.0000 0.0000 0.0000 30.3070 0.0000 -9.0932
# 5 -1.1304 -7.1222 -13.6368 0.0000 33.9108 0.0000
# 6 0.0000 0.0000 0.0000 -9.0932 0.0000 23.3724
#
#
#
# Elastic Compliance Matrix: (Units=1/GPa)
#
#
# Indices 1 2 3 4 5 6 
#
# 1 0.036732 -0.005850 -0.007721 0.000000 -0.003109 0.000000
# 2 -0.005850 0.009129 0.000039 0.000000 0.001738 0.000000
# 3 -0.007721 0.000039 0.011462 0.000000 0.004360 0.000000
# 4 0.000000 0.000000 0.000000 0.037356 0.000000 0.014534
# 5 -0.003109 0.001738 0.004360 0.000000 0.031504 0.000000
# 6 0.000000 0.000000 0.000000 0.014534 0.000000 0.048440
#
#
# Mechanical properties :
#
#
# Convention : Reuss Voigt Hill
#
# Bulk Modulus (GPa) = 33.04973 44.65919 38.85446
# Shear Modulus (GPa) = 23.61006 31.18060 27.39533
#
# Velocity S-wave (km/s) = 3.28473 3.77479 3.53826
# Velocity P-wave (km/s) = 5.43039 6.27753 5.86926
#
# Compressibility (1/GPa) = 0.03025743
#
# Stress axis : x y z
#
# Youngs Moduli (GPa) = 27.22415 109.53899 87.24754
#
# Poissons Ratio (x) = 0.64085 0.67365
# Poissons Ratio (y) = 0.15927 -0.00339
# Poissons Ratio (z) = 0.21020 -0.00426
#
# Static dielectric constant tensor:
#      x y z
#    x 1.864170 0.000000 -0.013140 
#    y 0.000000 1.760090 0.000000 
#    z -0.013140 0.000000 1.901500 
# 
# From -- ./inp_files/190084.got.cif
#   From: 2010.05.17/outbox.cif.g08.bks.cpg/sg12_96_cif.got.tgz:190084.got - 2010.06.03 13:09:07.
