data_PCOD9187490
_publ_section_title
;
Structure prediction by ZEFSAII (Michael W. Deem and Ramdas Pophale) SiO2 
 PCOD9187490
Probable space group: C 2/M
;
_chemical_formula_sum "Si O2"
_cell_formula_units_Z 56
_cell_length_a 11.655360
_cell_length_b 13.842953
_cell_length_c 18.481946
_cell_angle_alpha 90.000000
_cell_angle_beta 57.731946
_cell_angle_gamma 90.000000
_cell_volume 2521.426873
_symmetry_space_group_name_H-M "C 2/M"
_symmetry_group_IT_number 12
_symmetry_cell_setting 'monoclinic'
loop_
_space_group_symop_operation_xyz
x,y,z
-x,y,-z
-x,-y,-z
x,-y,z
1/2+x,1/2+y,z
1/2-x,1/2+y,-z
1/2-x,1/2-y,-z
1/2+x,1/2-y,z
loop_
_atom_site_type_symbol
_atom_site_label
_atom_site_fract_x
_atom_site_fract_y
_atom_site_fract_z
Si Si1 0.343326 0.607554 0.726486
Si Si2 0.251537 0.684589 0.287911
Si Si3 0.107233 0.391293 0.201066
Si Si4 0.412783 0.363474 0.458522
Si Si5 0.641802 0.392228 0.993530
Si Si6 0.550654 0.310238 0.165273
Si Si7 0.141788 0.645304 0.482040
O O1 0.284981 0.500000 0.735963
O O2 0.269552 0.700525 0.717284
O O3 0.492280 0.608611 0.640076
O O4 0.363182 0.633824 0.803608
O O5 0.145781 0.630495 0.270997
O O6 0.398978 0.648670 0.212915
O O7 0.225302 0.663777 0.380234
O O8 0.053324 0.500000 0.211510
O O9 0.241122 0.382577 0.105236
O O10 0.026022 0.298961 0.200712
O O11 0.500000 0.393642 0.500000
O O12 0.256735 0.395727 0.498088
O O13 0.403183 0.247202 0.467808
O O14 0.655996 0.500000 0.021195
O O15 0.500000 0.387360 0.000000
O O16 0.628123 0.318030 0.063734
O O17 0.000000 0.601250 0.500000
#
# Coordination Sequence:
#
# PCOD9187490 Si02
#       7
#     8   8   8   8   8   8   8
#     4  11  23  38  58  93 123 159 211 262 313 381
#     4  11  21  39  61  89 118 166 204 257 316 372
#     4  10  23  39  62  91 124 160 205 254 311 376
#     4  10  19  35  59  86 119 163 208 261 319 379
#     4  10  19  36  62  95 123 158 205 256 304 371
#     4  11  22  38  65  89 123 166 205 254 319 373
#     4  10  19  36  62  88 119 166 214 261 324 379
#
# _framework density 22.209648000000001
#
# number of rings (size 3 to 8) (size 9 to 14) (size 15 to 20)
#    0.000    1.571    5.714    0.857    0.000    1.429 
#    0.000    0.000    0.000    2.143    0.000    0.000 
#    0.000    0.000    0.000    0.000    0.000    0.000 
#
# Total GULP energy -156203.644918 kJ/mol
# GULP energy per Si atom -5578.701604 kJ/mol
# Density = 2.215910 g / cm^3
# Si number density = 22.209648 Si / 1000 Ang^3
#
#
#
# Elastic Constant Matrix: (Units=GPa)
#
#
# Indices 1 2 3 4 5 6 
#
# 1 124.5239 14.2581 10.8736 0.0000 -1.1813 0.0000
# 2 14.2581 96.0971 13.3312 0.0000 18.8895 0.0000
# 3 10.8736 13.3312 68.2303 0.0000 14.6781 0.0000
# 4 0.0000 0.0000 0.0000 337.4301 0.0000 -56.9896
# 5 -1.1813 18.8895 14.6781 0.0000 29.7881 0.0000
# 6 0.0000 0.0000 0.0000 -56.9896 0.0000 -7.1050
#
#
#
# Elastic Compliance Matrix: (Units=1/GPa)
#
#
# Indices 1 2 3 4 5 6 
#
# 1 0.008340 -0.001417 -0.001473 0.000000 0.001955 0.000000
# 2 -0.001417 0.012166 -0.000536 0.000000 -0.007507 0.000000
# 3 -0.001473 -0.000536 0.016706 0.000000 -0.007950 0.000000
# 4 0.000000 0.000000 0.000000 0.001259 0.000000 -0.010095
# 5 0.001955 -0.007507 -0.007950 0.000000 0.042326 0.000000
# 6 0.000000 0.000000 0.000000 -0.010095 0.000000 -0.059772
#
#
# Mechanical properties :
#
#
# Convention : Reuss Voigt Hill
#
# Bulk Modulus (GPa) = 32.93863 40.64188 36.79025
# Shear Modulus (GPa) = 131.58664 88.71520 110.15092
#
# Velocity S-wave (km/s) = 7.70559 6.32702 7.05008
# Velocity P-wave (km/s) = 9.69697 8.46840 9.10343
#
# Compressibility (1/GPa) = 0.03035949
#
# Stress axis : x y z
#
# Youngs Moduli (GPa) = 119.90346 82.19291 59.85859
#
# Poissons Ratio (x) = 0.11651 0.08816
# Poissons Ratio (y) = 0.16996 0.03210
# Poissons Ratio (z) = 0.17659 0.04408
#
# Static dielectric constant tensor:
#      x y z
#    x 1.835660 0.000000 -0.005010 
#    y 0.000000 1.847230 0.000000 
#    z -0.005010 0.000000 1.773730 
# 
# From -- ./inp_files/262858.got.cif
#   From: 2010.05.17/outbox.cif.g08.bks.cpg/sg12_132_cif.got.tgz:262858.got - 2010.06.03 13:09:07.
