data_PCOD9187777
_publ_section_title
;
Structure prediction by ZEFSAII (Michael W. Deem and Ramdas Pophale) SiO2 
 PCOD9187777
Probable space group: C 2/M
;
_chemical_formula_sum "Si O2"
_cell_formula_units_Z 56
_cell_length_a 14.434730
_cell_length_b 14.259295
_cell_length_c 23.159369
_cell_angle_alpha 90.000000
_cell_angle_beta 30.948260
_cell_angle_gamma 90.000000
_cell_volume 2451.429499
_symmetry_space_group_name_H-M "C 2/M"
_symmetry_group_IT_number 12
_symmetry_cell_setting 'monoclinic'
loop_
_space_group_symop_operation_xyz
x,y,z
-x,y,-z
-x,-y,-z
x,-y,z
1/2+x,1/2+y,z
1/2-x,1/2+y,-z
1/2-x,1/2-y,-z
1/2+x,1/2-y,z
loop_
_atom_site_type_symbol
_atom_site_label
_atom_site_fract_x
_atom_site_fract_y
_atom_site_fract_z
Si Si1 0.588651 0.112768 0.894172
Si Si2 0.162072 0.613925 0.075462
Si Si3 0.068113 0.886816 0.834341
Si Si4 0.419686 0.602154 0.651786
Si Si5 0.685376 0.111410 0.194684
Si Si6 0.814043 0.267255 0.622119
Si Si7 0.297104 0.834538 0.433337
O O1 0.491351 0.146999 0.887227
O O2 0.804349 0.123443 0.771124
O O3 0.557052 0.000000 0.912420
O O4 0.500000 0.150976 0.000000
O O5 0.143901 0.500000 0.088502
O O6 0.165084 0.648759 0.140153
O O7 0.357261 0.635154 0.944674
O O8 0.153811 0.854310 0.850014
O O9 0.180961 0.839034 0.723459
O O10 0.085919 0.000000 0.822204
O O11 0.352006 0.500000 0.666739
O O12 0.375509 0.687467 0.633880
O O13 0.634465 0.596966 0.536849
O O14 0.498537 0.127505 0.328681
O O15 0.715021 0.000000 0.172352
O O16 0.725714 0.208156 0.618044
O O17 0.000000 0.313044 0.500000
O O18 0.250000 0.750000 0.500000
#
# Coordination Sequence:
#
# PCOD9187777 Si02
#       7
#     8   8   8   8   8   8   8
#     4   9  18  34  56  85 121 157 196 244 296 356
#     4   9  18  34  58  87 117 151 197 251 301 353
#     4  10  21  39  62  87 120 162 201 242 300 363
#     4  10  21  39  63  87 114 153 198 245 300 351
#     4  10  19  35  61  89 116 152 200 250 299 354
#     4  10  22  39  58  83 117 153 198 252 296 349
#     4  11  23  38  56  83 121 156 194 248 301 355
#
# _framework density 22.843814999999999
#
# number of rings (size 3 to 8) (size 9 to 14) (size 15 to 20)
#    0.000    2.143    0.000    3.429    0.000    7.429 
#    0.000    8.571    0.000    0.000    0.000    0.000 
#    0.000    0.000    0.000    0.000    0.000    0.000 
#
# Total GULP energy -156385.788738 kJ/mol
# GULP energy per Si atom -5585.206741 kJ/mol
# Density = 2.279182 g / cm^3
# Si number density = 22.843815 Si / 1000 Ang^3
#
#
#
# Elastic Constant Matrix: (Units=GPa)
#
#
# Indices 1 2 3 4 5 6 
#
# 1 42.4235 4.0993 35.3635 0.0002 -6.3079 -0.0015
# 2 4.0993 54.8351 24.9116 -0.0017 5.7332 0.0004
# 3 35.3635 24.9116 147.6358 -0.0059 2.6830 -0.0006
# 4 0.0002 -0.0017 -0.0059 37.4486 0.0007 3.5145
# 5 -6.3079 5.7332 2.6830 0.0007 33.8936 0.0017
# 6 -0.0015 0.0004 -0.0006 3.5145 0.0017 -15.5209
#
#
#
# Elastic Compliance Matrix: (Units=1/GPa)
#
#
# Indices 1 2 3 4 5 6 
#
# 1 0.030757 0.000484 -0.007562 -0.000001 0.006241 -0.000002
# 2 0.000484 0.020085 -0.003450 0.000000 -0.003034 0.000000
# 3 -0.007562 -0.003450 0.009195 0.000001 -0.001552 0.000000
# 4 -0.000001 0.000000 0.000001 0.026148 -0.000001 0.005921
# 5 0.006241 -0.003034 -0.001552 -0.000001 0.031302 0.000002
# 6 -0.000002 0.000000 0.000000 0.005921 0.000002 -0.063089
#
#
# Mechanical properties :
#
#
# Convention : Reuss Voigt Hill
#
# Bulk Modulus (GPa) = 25.65408 41.51591 33.58499
# Shear Modulus (GPa) = 56.53064 23.19891 39.86478
#
# Velocity S-wave (km/s) = 4.97999 3.19022 4.18197
# Velocity P-wave (km/s) = 6.65745 5.63766 6.16867
#
# Compressibility (1/GPa) = 0.03898015
#
# Stress axis : x y z
#
# Youngs Moduli (GPa) = 32.51309 49.78882 108.75307
#
# Poissons Ratio (x) = -0.02408 0.82242
# Poissons Ratio (y) = -0.01573 0.37517
# Poissons Ratio (z) = 0.24587 0.17176
#
# Static dielectric constant tensor:
#      x y z
#    x 1.681510 0.000000 -0.313740 
#    y 0.000000 1.987710 0.000000 
#    z -0.313740 0.000000 1.335460 
# 
# From -- ./inp_files/340286.got.cif
#   From: 2010.05.17/outbox.cif.g08.bks.cpg/sg12_171_cif.got.tgz:340286.got - 2010.06.03 13:09:07.
