data_PCOD9187728
_publ_section_title
;
Structure prediction by ZEFSAII (Michael W. Deem and Ramdas Pophale) SiO2 
 PCOD9187728
Probable space group: C 2/M
;
_chemical_formula_sum "Si O2"
_cell_formula_units_Z 48
_cell_length_a 19.308305
_cell_length_b 13.172156
_cell_length_c 16.707174
_cell_angle_alpha 90.000000
_cell_angle_beta 145.387931
_cell_angle_gamma 90.000000
_cell_volume 2413.600782
_symmetry_space_group_name_H-M "C 2/M"
_symmetry_group_IT_number 12
_symmetry_cell_setting 'monoclinic'
loop_
_space_group_symop_operation_xyz
x,y,z
-x,y,-z
-x,-y,-z
x,-y,z
1/2+x,1/2+y,z
1/2-x,1/2+y,-z
1/2-x,1/2-y,-z
1/2+x,1/2-y,z
loop_
_atom_site_type_symbol
_atom_site_label
_atom_site_fract_x
_atom_site_fract_y
_atom_site_fract_z
Si Si1 0.300569 0.617498 0.289398
Si Si2 0.395300 0.879558 0.152428
Si Si3 0.276312 0.261137 0.909252
Si Si4 0.455505 0.384343 0.587000
Si Si5 0.487738 0.382167 0.892843
Si Si6 0.884886 0.246730 0.664244
O O1 0.254994 0.500000 0.246683
O O2 0.219924 0.703912 0.172193
O O3 0.419730 0.618056 0.344764
O O4 0.348905 0.645352 0.423287
O O5 0.346719 0.822028 0.186005
O O6 0.533880 0.848911 0.260533
O O7 0.381548 0.000000 0.144426
O O8 0.307966 0.828673 0.002103
O O9 0.382452 0.343978 0.016791
O O10 0.431519 0.500000 0.586085
O O11 0.457184 0.322282 0.669049
O O12 0.463365 0.500000 0.851209
O O13 0.393230 0.308594 0.757684
O O14 0.500000 0.372180 0.000000
O O15 0.750000 0.250000 0.500000
#
# Coordination Sequence:
#
# PCOD9187728 Si02
#       6
#     8   8   8   8   8   8
#     4   9  17  31  57  86 112 140 182 240 289 336
#     4  10  21  36  55  86 114 144 192 239 289 343
#     4  10  19  35  61  83 112 151 183 239 293 346
#     4   9  18  33  54  83 111 143 188 233 283 340
#     4  10  23  41  60  85 116 154 198 237 284 351
#     4  11  23  38  60  82 113 160 194 241 285 341
#
# _framework density 19.887298000000001
#
# number of rings (size 3 to 8) (size 9 to 14) (size 15 to 20)
#    0.000    2.167    1.667    2.500    2.333    1.333 
#    0.000    0.000    0.000    3.500    0.000    0.000 
#    0.000    0.000    0.000    0.000    0.000    0.000 
#
# Total GULP energy -133770.727236 kJ/mol
# GULP energy per Si atom -5573.780301 kJ/mol
# Density = 1.984203 g / cm^3
# Si number density = 19.887298 Si / 1000 Ang^3
#
#
#
# Elastic Constant Matrix: (Units=GPa)
#
#
# Indices 1 2 3 4 5 6 
#
# 1 36.0732 27.8111 16.1839 0.0000 -7.8951 0.0000
# 2 27.8111 111.6517 39.5167 0.0000 -2.7674 0.0000
# 3 16.1839 39.5167 71.7410 0.0000 6.1634 0.0000
# 4 0.0000 0.0000 0.0000 24.7547 0.0000 -9.5478
# 5 -7.8951 -2.7674 6.1634 0.0000 34.0393 0.0000
# 6 0.0000 0.0000 0.0000 -9.5478 0.0000 16.3932
#
#
#
# Elastic Compliance Matrix: (Units=1/GPa)
#
#
# Indices 1 2 3 4 5 6 
#
# 1 0.037707 -0.007303 -0.005266 0.000000 0.009106 0.000000
# 2 -0.007303 0.012682 -0.005365 0.000000 0.000309 0.000000
# 3 -0.005266 -0.005365 0.018512 0.000000 -0.005009 0.000000
# 4 0.000000 0.000000 0.000000 0.052100 0.000000 0.030344
# 5 0.009106 0.000309 -0.005009 0.000000 0.032422 0.000000
# 6 0.000000 0.000000 0.000000 0.030344 0.000000 0.078674
#
#
# Mechanical properties :
#
#
# Convention : Reuss Voigt Hill
#
# Bulk Modulus (GPa) = 30.27148 42.94327 36.60738
# Shear Modulus (GPa) = 17.92271 24.10104 21.01188
#
# Velocity S-wave (km/s) = 3.00528 3.48499 3.25398
# Velocity P-wave (km/s) = 5.22464 6.15091 5.70660
#
# Compressibility (1/GPa) = 0.03303439
#
# Stress axis : x y z
#
# Youngs Moduli (GPa) = 26.52024 78.85318 54.01833
#
# Poissons Ratio (x) = 0.57586 0.28446
# Poissons Ratio (y) = 0.19368 0.28978
# Poissons Ratio (z) = 0.13965 0.42301
#
# Static dielectric constant tensor:
#      x y z
#    x 1.745390 0.000000 0.005150 
#    y 0.000000 1.678780 0.000000 
#    z 0.005150 0.000000 1.767260 
# 
# From -- ./inp_files/289459.got.cif
#   From: 2010.05.17/outbox.cif.g08.bks.cpg/sg12_145_cif.got.tgz:289459.got - 2010.06.03 13:09:07.
