data_PCOD9187243
_publ_section_title
;
Structure prediction by ZEFSAII (Michael W. Deem and Ramdas Pophale) SiO2 
 PCOD9187243
Probable space group: C 2/M
;
_chemical_formula_sum "Si O2"
_cell_formula_units_Z 40
_cell_length_a 26.080517
_cell_length_b 7.819832
_cell_length_c 13.404803
_cell_angle_alpha 90.000000
_cell_angle_beta 121.726497
_cell_angle_gamma 90.000000
_cell_volume 2325.321993
_symmetry_space_group_name_H-M "C 2/M"
_symmetry_group_IT_number 12
_symmetry_cell_setting 'monoclinic'
loop_
_space_group_symop_operation_xyz
x,y,z
-x,y,-z
-x,-y,-z
x,-y,z
1/2+x,1/2+y,z
1/2-x,1/2+y,-z
1/2-x,1/2-y,-z
1/2+x,1/2-y,z
loop_
_atom_site_type_symbol
_atom_site_label
_atom_site_fract_x
_atom_site_fract_y
_atom_site_fract_z
Si Si1 0.847146 0.000000 0.468394
Si Si2 0.294625 0.000000 0.916269
Si Si3 0.615295 0.186634 0.358425
Si Si4 0.371620 0.695059 0.078175
Si Si5 0.999617 0.793358 0.114696
Si Si6 0.297248 0.000000 0.685095
Si Si7 0.150127 0.000000 0.761168
O O1 0.871969 0.835164 0.551255
O O2 0.774355 0.000000 0.400075
O O3 0.864442 0.000000 0.369651
O O4 0.322371 0.831989 0.995882
O O5 0.311814 0.000000 0.816920
O O6 0.222464 0.000000 0.847667
O O7 0.555722 0.220872 0.233096
O O8 0.609945 0.000000 0.402762
O O9 0.670886 0.160008 0.337751
O O10 0.358480 0.500000 0.026108
O O11 0.435992 0.749749 0.100534
O O12 0.373789 0.661742 0.199369
O O13 0.004913 0.000000 0.121594
O O14 0.000000 0.736863 0.000000
#
# Coordination Sequence:
#
# PCOD9187243 Si02
#       7
#     4   4   8   8   8   4   4
#     4  11  20  43  57  71 121 151 182 243 260 314
#     4  11  18  37  60  81 120 143 169 241 283 322
#     4  10  22  36  57  85 111 143 189 223 281 329
#     4   9  21  36  54  86 114 142 186 221 275 341
#     4  10  19  35  58  84 116 145 173 226 291 334
#     4   9  22  35  56  91 108 143 189 217 289 340
#     4   9  22  39  55  83 107 153 198 217 272 326
#
# _framework density 17.201919
#
# number of rings (size 3 to 8) (size 9 to 14) (size 15 to 20)
#    1.200    1.000    1.000    2.400    1.400    0.400 
#    3.600    4.000    0.000    1.200    0.000    0.000 
#    0.000    0.000    0.000    0.000    0.000    0.000 
#
# Total GULP energy -111385.031479 kJ/mol
# GULP energy per Si atom -5569.251574 kJ/mol
# Density = 1.716277 g / cm^3
# Si number density = 17.201919 Si / 1000 Ang^3
#
#
#
# Elastic Constant Matrix: (Units=GPa)
#
#
# Indices 1 2 3 4 5 6 
#
# 1 94.0709 18.6548 46.3069 0.0000 -23.7223 0.0000
# 2 18.6548 73.7192 40.2534 0.0000 -8.9555 0.0000
# 3 46.3069 40.2534 103.4007 0.0000 -23.2434 0.0000
# 4 0.0000 0.0000 0.0000 -84.9393 0.0000 -20.2946
# 5 -23.7223 -8.9555 -23.2434 0.0000 28.0089 0.0000
# 6 0.0000 0.0000 0.0000 -20.2946 0.0000 2.8693
#
#
#
# Elastic Compliance Matrix: (Units=1/GPa)
#
#
# Indices 1 2 3 4 5 6 
#
# 1 0.015256 -0.000179 -0.004759 0.000000 0.008915 0.000000
# 2 -0.000179 0.017229 -0.006666 0.000000 -0.000175 0.000000
# 3 -0.004759 -0.006666 0.015996 0.000000 0.007113 0.000000
# 4 0.000000 0.000000 0.000000 -0.004377 0.000000 -0.030956
# 5 0.008915 -0.000175 0.007113 0.000000 0.049100 0.000000
# 6 0.000000 0.000000 0.000000 -0.030956 0.000000 0.129562
#
#
# Mechanical properties :
#
#
# Convention : Reuss Voigt Hill
#
# Bulk Modulus (GPa) = 39.56710 53.51343 46.54027
# Shear Modulus (GPa) = 19.65404 0.25282 9.95343
#
# Velocity S-wave (km/s) = 3.38383 0.38379 2.40807
# Velocity P-wave (km/s) = 6.19020 5.60115 5.90303
#
# Compressibility (1/GPa) = 0.02527352
#
# Stress axis : x y z
#
# Youngs Moduli (GPa) = 65.54597 58.04124 62.51461
#
# Poissons Ratio (x) = 0.01040 0.29748
# Poissons Ratio (y) = 0.01175 0.41674
# Poissons Ratio (z) = 0.31191 0.38692
#
# Static dielectric constant tensor:
#      x y z
#    x 1.591260 0.000000 -0.011840 
#    y 0.000000 1.589610 0.000000 
#    z -0.011840 0.000000 1.544700 
# 
# From -- ./inp_files/186047.got.cif
#   From: 2010.05.17/outbox.cif.g08.bks.cpg/sg12_94_cif.got.tgz:186047.got - 2010.06.03 13:09:07.
