data_PCOD9187120
_publ_section_title
;
Structure prediction by ZEFSAII (Michael W. Deem and Ramdas Pophale) SiO2 
 PCOD9187120
Probable space group: C 2/M
;
_chemical_formula_sum "Si O2"
_cell_formula_units_Z 56
_cell_length_a 14.957718
_cell_length_b 14.779266
_cell_length_c 17.230417
_cell_angle_alpha 90.000000
_cell_angle_beta 142.065327
_cell_angle_gamma 90.000000
_cell_volume 2341.647070
_symmetry_space_group_name_H-M "C 2/M"
_symmetry_group_IT_number 12
_symmetry_cell_setting 'monoclinic'
loop_
_space_group_symop_operation_xyz
x,y,z
-x,y,-z
-x,-y,-z
x,-y,z
1/2+x,1/2+y,z
1/2-x,1/2+y,-z
1/2-x,1/2-y,-z
1/2+x,1/2-y,z
loop_
_atom_site_type_symbol
_atom_site_label
_atom_site_fract_x
_atom_site_fract_y
_atom_site_fract_z
Si Si1 0.466052 0.632292 0.565841
Si Si2 0.868317 0.796499 0.733188
Si Si3 0.194459 0.149659 0.979129
Si Si4 0.573907 0.846368 0.469487
Si Si5 0.331459 0.298473 0.879095
Si Si6 0.126521 0.599040 0.337908
Si Si7 0.246544 0.406242 0.142681
O O1 0.500000 0.606434 0.500000
O O2 0.470929 0.741446 0.571976
O O3 0.301913 0.601912 0.468726
O O4 0.590354 0.599614 0.709701
O O5 0.749850 0.840406 0.596693
O O6 0.787567 0.806865 0.760580
O O7 0.899511 0.691623 0.729961
O O8 0.020994 0.846609 0.846113
O O9 0.255279 0.091021 0.951718
O O10 0.250000 0.250000 0.000000
O O11 0.234693 0.141230 0.097160
O O12 0.500000 0.879693 0.500000
O O13 0.551140 0.892872 0.370817
O O14 0.321171 0.190734 0.885467
O O15 0.500000 0.322438 0.000000
O O16 0.089609 0.500000 0.278277
O O17 0.181511 0.500000 0.129387
#
# Coordination Sequence:
#
# PCOD9187120 Si02
#       7
#     8   8   8   8   8   8   8
#     4  10  20  34  54  81 111 145 182 220 266 328
#     4  10  19  35  58  78 101 140 181 222 271 321
#     4   9  19  36  55  75 101 136 182 222 260 319
#     4  10  20  35  56  78 108 148 189 221 254 322
#     4   9  19  34  53  74  98 135 180 223 262 311
#     4  11  22  34  52  82 116 142 172 221 275 330
#     4  11  20  31  52  78 107 138 168 215 274 322
#
# _framework density 23.914791999999998
#
# number of rings (size 3 to 8) (size 9 to 14) (size 15 to 20)
#    0.000    2.000    0.000    6.429    0.000    4.571 
#    0.000    5.714    0.000    4.714    0.000    0.000 
#    0.000    0.000    0.000    0.000    0.000    0.000 
#
# Total GULP energy -156142.212909 kJ/mol
# GULP energy per Si atom -5576.507604 kJ/mol
# Density = 2.386036 g / cm^3
# Si number density = 23.914792 Si / 1000 Ang^3
#
#
#
# Elastic Constant Matrix: (Units=GPa)
#
#
# Indices 1 2 3 4 5 6 
#
# 1 72.7571 -6.8366 27.8030 0.0003 -13.1905 0.0001
# 2 -6.8366 27.1036 12.8198 0.0002 -11.0923 0.0001
# 3 27.8030 12.8198 84.5459 0.0005 -14.0040 0.0002
# 4 0.0003 0.0002 0.0005 -80.5016 0.0004 -0.7772
# 5 -13.1905 -11.0923 -14.0040 0.0004 48.3216 0.0001
# 6 0.0001 0.0001 0.0002 -0.7772 0.0001 -4.6356
#
#
#
# Elastic Compliance Matrix: (Units=1/GPa)
#
#
# Indices 1 2 3 4 5 6 
#
# 1 0.018151 0.009867 -0.006585 0.000000 0.005311 0.000000
# 2 0.009867 0.048078 -0.008677 0.000000 0.011215 0.000001
# 3 -0.006585 -0.008677 0.015422 0.000000 0.000680 0.000000
# 4 0.000000 0.000000 0.000000 -0.012442 0.000000 0.002086
# 5 0.005311 0.011215 0.000680 0.000000 0.024916 0.000001
# 6 0.000000 0.000001 0.000000 0.002086 0.000001 -0.216074
#
#
# Mechanical properties :
#
#
# Convention : Reuss Voigt Hill
#
# Bulk Modulus (GPa) = 14.11243 27.99767 21.05505
# Shear Modulus (GPa) = -57.11831 2.67824 -27.22003
#
# Velocity S-wave (km/s) = -4.89244 1.05941 -3.37740
# Velocity P-wave (km/s) = 5.09908 3.63719 2.52701
#
# Compressibility (1/GPa) = 0.07085953
#
# Stress axis : x y z
#
# Youngs Moduli (GPa) = 55.09386 20.79937 64.84309
#
# Poissons Ratio (x) = -0.20522 0.42701
# Poissons Ratio (y) = -0.54360 0.56266
# Poissons Ratio (z) = 0.36281 0.18048
#
# Static dielectric constant tensor:
#      x y z
#    x 1.967280 0.000000 -0.026290 
#    y 0.000000 1.888190 0.000000 
#    z -0.026290 0.000000 1.975980 
# 
# From -- ./inp_files/145636.got.cif
#   From: 2010.05.17/outbox.cif.g08.bks.cpg/sg12_73_cif.got.tgz:145636.got - 2010.06.03 13:09:07.
