data_PCOD9187623
_publ_section_title
;
Structure prediction by ZEFSAII (Michael W. Deem and Ramdas Pophale) SiO2 
 PCOD9187623
Probable space group: C 2/M
;
_chemical_formula_sum "Si O2"
_cell_formula_units_Z 40
_cell_length_a 10.820327
_cell_length_b 23.570500
_cell_length_c 7.680262
_cell_angle_alpha 90.000000
_cell_angle_beta 120.087846
_cell_angle_gamma 90.000000
_cell_volume 1694.847910
_symmetry_space_group_name_H-M "C 2/M"
_symmetry_group_IT_number 12
_symmetry_cell_setting 'monoclinic'
loop_
_space_group_symop_operation_xyz
x,y,z
-x,y,-z
-x,-y,-z
x,-y,z
1/2+x,1/2+y,z
1/2-x,1/2+y,-z
1/2-x,1/2-y,-z
1/2+x,1/2-y,z
loop_
_atom_site_type_symbol
_atom_site_label
_atom_site_fract_x
_atom_site_fract_y
_atom_site_fract_z
Si Si1 0.305967 0.563918 0.520196
Si Si2 0.813021 0.563284 0.170280
Si Si3 0.556593 0.865602 0.237139
Si Si4 0.059326 0.124911 0.842408
Si Si5 0.924233 0.750739 0.136528
O O1 0.287684 0.500000 0.435849
O O2 0.244782 0.563744 0.674833
O O3 0.220525 0.615287 0.367638
O O4 0.470111 0.580580 0.667619
O O5 0.798461 0.500000 0.090631
O O6 0.973309 0.584449 0.275852
O O7 0.720390 0.605620 0.987422
O O8 0.499264 0.805150 0.270154
O O9 0.500000 0.866875 0.000000
O O10 0.042931 0.188195 0.758280
O O11 0.000000 0.124526 0.000000
O O12 0.750000 0.750000 0.000000
O O13 0.000000 0.753013 0.000000
#
# Coordination Sequence:
#
# PCOD9187623 Si02
#       5
#     8   8   8   8   8
#     4  10  21  37  59  90 118 152 207 256 297 363
#     4  10  19  35  60  86 113 154 199 250 303 360
#     4  11  23  37  57  83 122 159 200 247 306 366
#     4   9  18  35  61  85 116 150 198 255 307 348
#     4  10  20  38  64  91 121 160 208 254 305 370
#
# _framework density 23.600936999999998
#
# number of rings (size 3 to 8) (size 9 to 14) (size 15 to 20)
#    0.000    2.000    2.000    1.800    0.000    6.400 
#    0.000    1.000    0.000    2.400    0.000    0.000 
#    0.000    0.000    0.000    0.000    0.000    0.000 
#
# Total GULP energy -111652.050807 kJ/mol
# GULP energy per Si atom -5582.602540 kJ/mol
# Density = 2.354722 g / cm^3
# Si number density = 23.600937 Si / 1000 Ang^3
#
#
#
# Elastic Constant Matrix: (Units=GPa)
#
#
# Indices 1 2 3 4 5 6 
#
# 1 65.9793 -6.5271 17.7246 0.0000 4.1014 0.0000
# 2 -6.5271 139.4520 43.4349 0.0000 4.9590 0.0000
# 3 17.7246 43.4349 77.0201 0.0000 18.0143 0.0000
# 4 0.0000 0.0000 0.0000 18.2112 0.0000 6.4591
# 5 4.1014 4.9590 18.0143 0.0000 42.4597 0.0000
# 6 0.0000 0.0000 0.0000 6.4591 0.0000 23.6410
#
#
#
# Elastic Compliance Matrix: (Units=1/GPa)
#
#
# Indices 1 2 3 4 5 6 
#
# 1 0.016804 0.002431 -0.005320 0.000000 0.000350 0.000000
# 2 0.002431 0.009104 -0.005984 0.000000 0.001241 0.000000
# 3 -0.005320 -0.005984 0.019205 0.000000 -0.006935 0.000000
# 4 0.000000 0.000000 0.000000 0.060803 0.000000 -0.016612
# 5 0.000350 0.001241 -0.006935 0.000000 0.026315 0.000000
# 6 0.000000 0.000000 0.000000 -0.016612 0.000000 0.046838
#
#
# Mechanical properties :
#
#
# Convention : Reuss Voigt Hill
#
# Bulk Modulus (GPa) = 36.53982 43.52402 40.03192
# Shear Modulus (GPa) = 24.27910 32.05030 28.16470
#
# Velocity S-wave (km/s) = 3.21087 3.68912 3.45827
# Velocity P-wave (km/s) = 5.40946 6.05209 5.73977
#
# Compressibility (1/GPa) = 0.02736740
#
# Stress axis : x y z
#
# Youngs Moduli (GPa) = 59.50904 109.83666 52.07080
#
# Poissons Ratio (x) = -0.26702 0.27702
# Poissons Ratio (y) = -0.14467 0.31159
# Poissons Ratio (z) = 0.31659 0.65726
#
# Static dielectric constant tensor:
#      x y z
#    x 3.270150 0.000000 -0.953930 
#    y 0.000000 1.927290 0.000000 
#    z -0.953930 0.000000 2.463650 
# 
# From -- ./inp_files/50935.got.cif
#   From: 2010.05.17/outbox.cif.g08.bks.cpg/sg12_26_cif.got.tgz:50935.got - 2010.06.03 13:09:07.
