data_PCOD9187313
_publ_section_title
;
Structure prediction by ZEFSAII (Michael W. Deem and Ramdas Pophale) SiO2 
 PCOD9187313
Probable space group: C 2/M
;
_chemical_formula_sum "Si O2"
_cell_formula_units_Z 64
_cell_length_a 14.411117
_cell_length_b 16.390704
_cell_length_c 15.501396
_cell_angle_alpha 90.000000
_cell_angle_beta 121.203743
_cell_angle_gamma 90.000000
_cell_volume 3131.842973
_symmetry_space_group_name_H-M "C 2/M"
_symmetry_group_IT_number 12
_symmetry_cell_setting 'monoclinic'
loop_
_space_group_symop_operation_xyz
x,y,z
-x,y,-z
-x,-y,-z
x,-y,z
1/2+x,1/2+y,z
1/2-x,1/2+y,-z
1/2-x,1/2-y,-z
1/2+x,1/2-y,z
loop_
_atom_site_type_symbol
_atom_site_label
_atom_site_fract_x
_atom_site_fract_y
_atom_site_fract_z
Si Si1 0.568310 0.246358 0.606117
Si Si2 0.283726 0.407621 0.058922
Si Si3 0.763058 0.091634 0.844642
Si Si4 0.607371 0.090508 0.213118
Si Si5 0.487484 0.088460 0.334685
Si Si6 0.690876 0.269165 0.265813
Si Si7 0.959741 0.805743 0.216264
Si Si8 0.072062 0.684133 0.958026
O O1 0.500000 0.291703 0.500000
O O2 0.504089 0.163242 0.597264
O O3 0.690232 0.226308 0.635741
O O4 0.576719 0.287187 0.704313
O O5 0.251454 0.500000 0.063031
O O6 0.398994 0.386401 0.155759
O O7 0.287938 0.399188 0.957326
O O8 0.190362 0.344823 0.042881
O O9 0.633378 0.093435 0.765222
O O10 0.809627 0.167046 0.813584
O O11 0.800035 0.000000 0.835678
O O12 0.570175 0.093320 0.295126
O O13 0.673442 0.174181 0.232320
O O14 0.498270 0.105402 0.105098
O O15 0.652876 0.000000 0.217528
O O16 0.498310 0.000000 0.381635
O O17 0.589538 0.297826 0.274733
O O18 0.922744 0.740553 0.124472
O O19 0.000000 0.722629 0.000000
#
# Coordination Sequence:
#
# PCOD9187313 Si02
#       8
#     8   8   8   8   8   8   8   8
#     4  11  23  43  67  90 114 156 210 261 323 380
#     4  11  23  38  59  88 130 171 209 249 295 363
#     4   9  18  35  61  90 124 168 207 246 298 363
#     4  10  19  35  58  87 128 163 204 250 299 351
#     4   9  16  35  62  91 122 149 191 262 316 355
#     4  10  22  39  62  92 122 164 201 253 322 368
#     4  11  25  40  58  91 128 162 205 256 305 371
#     4  11  22  35  61  91 125 169 211 247 297 353
#
# _framework density 20.435251000000001
#
# number of rings (size 3 to 8) (size 9 to 14) (size 15 to 20)
#    0.000    1.750    3.750    1.500    7.000    2.250 
#    0.000    1.250    0.000    1.500    0.000    0.000 
#    0.000    0.000    0.000    0.000    0.000    0.000 
#
# Total GULP energy -178553.029357 kJ/mol
# GULP energy per Si atom -5579.782167 kJ/mol
# Density = 2.038874 g / cm^3
# Si number density = 20.435251 Si / 1000 Ang^3
#
#
#
# Elastic Constant Matrix: (Units=GPa)
#
#
# Indices 1 2 3 4 5 6 
#
# 1 78.5048 20.6108 25.7238 0.0000 12.5923 0.0000
# 2 20.6108 97.5235 10.2239 0.0000 -5.3152 0.0000
# 3 25.7238 10.2239 73.2627 0.0000 -1.9465 0.0000
# 4 0.0000 0.0000 0.0000 8.4319 0.0000 3.4195
# 5 12.5923 -5.3152 -1.9465 0.0000 22.2147 0.0000
# 6 0.0000 0.0000 0.0000 3.4195 0.0000 22.6621
#
#
#
# Elastic Compliance Matrix: (Units=1/GPa)
#
#
# Indices 1 2 3 4 5 6 
#
# 1 0.017455 -0.003684 -0.005915 0.000000 -0.011294 0.000000
# 2 -0.003684 0.011310 -0.000158 0.000000 0.004781 0.000000
# 3 -0.005915 -0.000158 0.015873 0.000000 0.004706 0.000000
# 4 0.000000 0.000000 0.000000 0.126327 0.000000 -0.019061
# 5 -0.011294 0.004781 0.004706 0.000000 0.052974 0.000000
# 6 0.000000 0.000000 0.000000 -0.019061 0.000000 0.047003
#
#
# Mechanical properties :
#
#
# Convention : Reuss Voigt Hill
#
# Bulk Modulus (GPa) = 39.80165 40.26756 40.03460
# Shear Modulus (GPa) = 16.73193 23.51058 20.12125
#
# Velocity S-wave (km/s) = 2.86453 3.39557 3.14129
# Velocity P-wave (km/s) = 5.51906 5.92629 5.72629
#
# Compressibility (1/GPa) = 0.02512459
#
# Stress axis : x y z
#
# Youngs Moduli (GPa) = 57.28981 88.41957 62.99897
#
# Poissons Ratio (x) = 0.32578 0.37262
# Poissons Ratio (y) = 0.21108 0.00993
# Poissons Ratio (z) = 0.33885 0.01393
#
# Static dielectric constant tensor:
#      x y z
#    x 1.769360 0.000000 -0.009730 
#    y 0.000000 1.763160 0.000000 
#    z -0.009730 0.000000 1.730880 
# 
# From -- ./inp_files/216831.got.cif
#   From: 2010.05.17/outbox.cif.g08.bks.cpg/sg12_109_cif.got.tgz:216831.got - 2010.06.03 13:09:07.
