data_PCOD9187134
_publ_section_title
;
Structure prediction by ZEFSAII (Michael W. Deem and Ramdas Pophale) SiO2 
 PCOD9187134
Probable space group: C 2/M
;
_chemical_formula_sum "Si O2"
_cell_formula_units_Z 64
_cell_length_a 21.646956
_cell_length_b 23.969709
_cell_length_c 11.755035
_cell_angle_alpha 90.000000
_cell_angle_beta 144.931866
_cell_angle_gamma 90.000000
_cell_volume 3504.382105
_symmetry_space_group_name_H-M "C 2/M"
_symmetry_group_IT_number 12
_symmetry_cell_setting 'monoclinic'
loop_
_space_group_symop_operation_xyz
x,y,z
-x,y,-z
-x,-y,-z
x,-y,z
1/2+x,1/2+y,z
1/2-x,1/2+y,-z
1/2-x,1/2-y,-z
1/2+x,1/2-y,z
loop_
_atom_site_type_symbol
_atom_site_label
_atom_site_fract_x
_atom_site_fract_y
_atom_site_fract_z
Si Si1 0.652748 0.790060 0.385006
Si Si2 0.739379 0.561571 0.715719
Si Si3 0.053989 0.436732 0.805513
Si Si4 0.104769 0.589921 0.237488
Si Si5 0.283603 0.779611 0.269302
Si Si6 0.088958 0.324303 0.726981
Si Si7 0.050668 0.767310 0.862050
Si Si8 0.918297 0.165662 0.482199
O O1 0.750000 0.750000 0.500000
O O2 0.645564 0.847006 0.307668
O O3 0.662717 0.802996 0.535174
O O4 0.542136 0.758109 0.201340
O O5 0.692512 0.500000 0.666957
O O6 0.796872 0.560892 0.678654
O O7 0.654049 0.611241 0.602502
O O8 0.840558 0.569458 0.954483
O O9 0.054971 0.500000 0.761244
O O10 0.064839 0.386291 0.733385
O O11 0.945580 0.429251 0.718070
O O12 0.000000 0.585378 0.000000
O O13 0.304793 0.815062 0.187241
O O14 0.336268 0.717820 0.336032
O O15 0.156343 0.780030 0.091684
O O16 0.085687 0.281175 0.825567
O O17 0.000000 0.307097 0.500000
O O18 0.993093 0.815467 0.701221
O O19 0.000000 0.158472 0.500000
#
# Coordination Sequence:
#
# PCOD9187134 Si02
#       8
#     8   8   8   8   8   8   8   8
#     4  11  23  35  52  85 117 143 188 236 280 342
#     4  10  22  38  56  81 113 148 190 240 286 335
#     4  10  21  35  57  85 111 147 191 236 287 340
#     4  10  19  35  58  79 111 150 187 234 290 342
#     4  11  22  36  56  82 116 154 183 230 280 345
#     4  12  19  36  55  81 116 148 188 229 280 343
#     4  11  21  35  56  84 113 153 186 223 283 342
#     4  11  21  35  55  85 111 148 192 230 280 340
#
# _framework density 18.262847000000001
#
# number of rings (size 3 to 8) (size 9 to 14) (size 15 to 20)
#    0.000    1.250    5.000    3.000    5.250    2.000 
#    0.000    0.000    0.000    0.000    0.000    0.875 
#    0.000    0.000    0.000    0.000    0.000    0.000 
#
# Total GULP energy -178526.047304 kJ/mol
# GULP energy per Si atom -5578.938978 kJ/mol
# Density = 1.822128 g / cm^3
# Si number density = 18.262847 Si / 1000 Ang^3
#
#
#
# Elastic Constant Matrix: (Units=GPa)
#
#
# Indices 1 2 3 4 5 6 
#
# 1 66.0812 26.4363 7.6000 0.0000 9.1180 0.0000
# 2 26.4363 83.3105 5.3222 0.0000 11.1258 0.0000
# 3 7.6000 5.3222 52.6743 0.0000 20.6747 0.0000
# 4 0.0000 0.0000 0.0000 14.9861 0.0000 -8.7090
# 5 9.1180 11.1258 20.6747 0.0000 20.7699 0.0000
# 6 0.0000 0.0000 0.0000 -8.7090 0.0000 12.9334
#
#
#
# Elastic Compliance Matrix: (Units=1/GPa)
#
#
# Indices 1 2 3 4 5 6 
#
# 1 0.017834 -0.004974 -0.000071 0.000000 -0.005094 0.000000
# 2 -0.004974 0.014490 0.002368 0.000000 -0.007936 0.000000
# 3 -0.000071 0.002368 0.031579 0.000000 -0.032672 0.000000
# 4 0.000000 0.000000 0.000000 0.109629 0.000000 0.073821
# 5 -0.005094 -0.007936 -0.032672 0.000000 0.087156 0.000000
# 6 0.000000 0.000000 0.000000 0.073821 0.000000 0.127029
#
#
# Mechanical properties :
#
#
# Convention : Reuss Voigt Hill
#
# Bulk Modulus (GPa) = 17.07968 31.19810 24.13889
# Shear Modulus (GPa) = 12.11864 20.58505 16.35184
#
# Velocity S-wave (km/s) = 2.57878 3.36095 2.99550
# Velocity P-wave (km/s) = 4.27074 5.67285 5.02098
#
# Compressibility (1/GPa) = 0.05854910
#
# Stress axis : x y z
#
# Youngs Moduli (GPa) = 56.07293 69.01193 31.66631
#
# Poissons Ratio (x) = 0.34329 0.00226
# Poissons Ratio (y) = 0.27892 -0.07500
# Poissons Ratio (z) = 0.00400 -0.16345
#
# Static dielectric constant tensor:
#      x y z
#    x 1.792190 0.000000 -0.120550 
#    y 0.000000 1.580770 0.000000 
#    z -0.120550 0.000000 1.801370 
# 
# From -- ./inp_files/170181.got.cif
#   From: 2010.05.17/outbox.cif.g08.bks.cpg/sg12_86_cif.got.tgz:170181.got - 2010.06.03 13:09:07.
