data_PCOD9187867
_publ_section_title
;
Structure prediction by ZEFSAII (Michael W. Deem and Ramdas Pophale) SiO2 
 PCOD9187867
Probable space group: C 2/M
;
_chemical_formula_sum "Si O2"
_cell_formula_units_Z 40
_cell_length_a 12.733201
_cell_length_b 13.553202
_cell_length_c 15.663667
_cell_angle_alpha 90.000000
_cell_angle_beta 135.862203
_cell_angle_gamma 90.000000
_cell_volume 1882.448988
_symmetry_space_group_name_H-M "C 2/M"
_symmetry_group_IT_number 12
_symmetry_cell_setting 'monoclinic'
loop_
_space_group_symop_operation_xyz
x,y,z
-x,y,-z
-x,-y,-z
x,-y,z
1/2+x,1/2+y,z
1/2-x,1/2+y,-z
1/2-x,1/2-y,-z
1/2+x,1/2-y,z
loop_
_atom_site_type_symbol
_atom_site_label
_atom_site_fract_x
_atom_site_fract_y
_atom_site_fract_z
Si Si1 0.172585 0.180216 0.130497
Si Si2 0.910025 0.382901 0.531388
Si Si3 0.127908 0.606258 0.147823
Si Si4 0.537482 0.815793 0.784821
Si Si5 0.403627 0.609732 0.735734
O O1 0.216328 0.292725 0.181640
O O2 0.289853 0.151464 0.126262
O O3 0.176389 0.115878 0.218001
O O4 0.000000 0.178475 0.000000
O O5 0.941536 0.500000 0.557618
O O6 0.732120 0.372447 0.409856
O O7 0.000000 0.346298 0.500000
O O8 0.962693 0.332885 0.649005
O O9 0.207332 0.500000 0.193458
O O10 0.046551 0.623326 0.190947
O O11 0.000000 0.603688 0.000000
O O12 0.517742 0.700961 0.798387
O O13 0.467051 0.500000 0.761187
#
# Coordination Sequence:
#
# PCOD9187867 Si02
#       5
#     8   8   8   8   8
#     4  10  22  38  56  83 116 151 192 234 278 333
#     4  10  19  35  62  88 112 144 188 236 283 337
#     4   9  20  37  56  80 111 147 190 231 276 335
#     4  11  21  37  62  84 113 153 189 231 284 335
#     4  10  22  38  57  87 117 145 188 238 283 333
#
# _framework density 21.248915
#
# number of rings (size 3 to 8) (size 9 to 14) (size 15 to 20)
#    0.000    2.000    2.000    1.200    0.000    9.200 
#    0.000    4.000    0.000    0.600    0.000    0.000 
#    0.000    0.000    0.000    0.000    0.000    0.000 
#
# Total GULP energy -111657.307467 kJ/mol
# GULP energy per Si atom -5582.865373 kJ/mol
# Density = 2.120055 g / cm^3
# Si number density = 21.248915 Si / 1000 Ang^3
#
#
#
# Elastic Constant Matrix: (Units=GPa)
#
#
# Indices 1 2 3 4 5 6 
#
# 1 57.8594 -11.9517 8.8213 0.0000 -15.8574 0.0000
# 2 -11.9517 71.7659 17.4245 0.0000 -7.5064 0.0000
# 3 8.8213 17.4245 67.3784 0.0000 -15.0177 0.0000
# 4 0.0000 0.0000 0.0000 25.8327 0.0000 -7.4129
# 5 -15.8574 -7.5064 -15.0177 0.0000 32.8222 0.0000
# 6 0.0000 0.0000 0.0000 -7.4129 0.0000 5.4257
#
#
#
# Elastic Compliance Matrix: (Units=1/GPa)
#
#
# Indices 1 2 3 4 5 6 
#
# 1 0.021573 0.005147 -0.001748 0.000000 0.010800 0.000000
# 2 0.005147 0.016195 -0.003878 0.000000 0.004416 0.000000
# 3 -0.001748 -0.003878 0.017469 0.000000 0.006261 0.000000
# 4 0.000000 0.000000 0.000000 0.063675 0.000000 0.086998
# 5 0.010800 0.004416 0.006261 0.000000 0.039560 0.000000
# 6 0.000000 0.000000 0.000000 0.086998 0.000000 0.303171
#
#
# Mechanical properties :
#
#
# Convention : Reuss Voigt Hill
#
# Bulk Modulus (GPa) = 18.42368 25.06575 21.74471
# Shear Modulus (GPa) = 10.40165 24.99675 17.69920
#
# Velocity S-wave (km/s) = 2.21490 3.43356 2.88921
# Velocity P-wave (km/s) = 3.90260 5.24795 4.62446
#
# Compressibility (1/GPa) = 0.05427799
#
# Stress axis : x y z
#
# Youngs Moduli (GPa) = 46.35480 61.74864 57.24497
#
# Poissons Ratio (x) = -0.31780 0.10008
# Poissons Ratio (y) = -0.23858 0.22197
# Poissons Ratio (z) = 0.08104 0.23944
#
# Static dielectric constant tensor:
#      x y z
#    x 1.777750 0.000000 0.017720 
#    y 0.000000 1.778480 0.000000 
#    z 0.017720 0.000000 1.767160 
# 
# From -- ./inp_files/129105.got.cif
#   From: 2010.05.17/outbox.cif.g08.bks.cpg/sg12_65_cif.got.tgz:129105.got - 2010.06.03 13:09:07.
