data_PCOD9187412
_publ_section_title
;
Structure prediction by ZEFSAII (Michael W. Deem and Ramdas Pophale) SiO2 
 PCOD9187412
Probable space group: C 2/M
;
_chemical_formula_sum "Si O2"
_cell_formula_units_Z 64
_cell_length_a 15.704791
_cell_length_b 14.625109
_cell_length_c 12.849399
_cell_angle_alpha 90.000000
_cell_angle_beta 108.516179
_cell_angle_gamma 90.000000
_cell_volume 2798.527761
_symmetry_space_group_name_H-M "C 2/M"
_symmetry_group_IT_number 12
_symmetry_cell_setting 'monoclinic'
loop_
_space_group_symop_operation_xyz
x,y,z
-x,y,-z
-x,-y,-z
x,-y,z
1/2+x,1/2+y,z
1/2-x,1/2+y,-z
1/2-x,1/2-y,-z
1/2+x,1/2-y,z
loop_
_atom_site_type_symbol
_atom_site_label
_atom_site_fract_x
_atom_site_fract_y
_atom_site_fract_z
Si Si1 0.362652 0.388270 0.191804
Si Si2 0.093878 0.608430 0.274066
Si Si3 0.094631 0.105420 0.566659
Si Si4 0.759781 0.642941 0.493877
Si Si5 0.236044 0.108007 0.245870
Si Si6 0.533481 0.611695 0.127641
Si Si7 0.397865 0.887838 0.166903
Si Si8 0.666538 0.111690 0.078669
O O1 0.360958 0.500000 0.186343
O O2 0.361399 0.357241 0.311334
O O3 0.455578 0.358612 0.176463
O O4 0.270035 0.360083 0.102252
O O5 0.085939 0.500000 0.255465
O O6 0.159373 0.618809 0.397319
O O7 0.133849 0.642852 0.179645
O O8 0.992814 0.643099 0.250437
O O9 0.166480 0.104502 0.502944
O O10 0.000000 0.149933 0.500000
O O11 0.073990 0.000000 0.585969
O O12 0.750000 0.750000 0.500000
O O13 0.768869 0.617357 0.377329
O O14 0.134283 0.143650 0.192813
O O15 0.311462 0.145559 0.197245
O O16 0.229500 0.000000 0.220003
O O17 0.535093 0.500000 0.132293
O O18 0.500000 0.637487 0.000000
O O19 0.395425 0.000000 0.169325
O O20 0.391208 0.860421 0.043352
O O21 0.664506 0.000000 0.079334
#
# Coordination Sequence:
#
# PCOD9187412 Si02
#       8
#     8   8   8   8   8   8   8   8
#     4   9  15  24  45  78 111 141 171 219 283 333
#     4  10  19  35  59  84 112 147 188 231 277 325
#     4  10  19  35  59  85 109 141 192 245 294 340
#     4  12  25  40  55  79 114 153 194 237 286 342
#     4  10  20  36  57  82 116 150 186 229 278 340
#     4   9  16  27  49  84 118 144 173 223 290 346
#     4   9  18  31  54  88 114 142 180 225 278 332
#     4   9  15  27  51  85 119 139 174 233 282 329
#
# _framework density 22.869167000000001
#
# number of rings (size 3 to 8) (size 9 to 14) (size 15 to 20)
#    0.000    2.250    1.250    3.000    0.000    7.000 
#    2.250    1.875    0.000    2.250    0.000    0.000 
#    0.000    0.000    0.000    0.000    0.000    0.000 
#
# Total GULP energy -178762.003988 kJ/mol
# GULP energy per Si atom -5586.312625 kJ/mol
# Density = 2.281712 g / cm^3
# Si number density = 22.869167 Si / 1000 Ang^3
#
#
#
# Elastic Constant Matrix: (Units=GPa)
#
#
# Indices 1 2 3 4 5 6 
#
# 1 125.8338 -0.0902 57.0342 0.0000 17.2626 0.0000
# 2 -0.0902 46.6524 -14.5808 0.0000 1.6174 0.0000
# 3 57.0342 -14.5808 114.9087 0.0000 8.7221 0.0000
# 4 0.0000 0.0000 0.0000 -16.6526 0.0000 -6.8647
# 5 17.2626 1.6174 8.7221 0.0000 41.6942 0.0000
# 6 0.0000 0.0000 0.0000 -6.8647 0.0000 -29.6599
#
#
#
# Elastic Compliance Matrix: (Units=1/GPa)
#
#
# Indices 1 2 3 4 5 6 
#
# 1 0.010804 -0.001522 -0.005305 0.000000 -0.003304 0.000000
# 2 -0.001522 0.022625 0.003704 0.000000 -0.001022 0.000000
# 3 -0.005305 0.003704 0.011838 0.000000 -0.000424 0.000000
# 4 0.000000 0.000000 0.000000 -0.066384 0.000000 0.015364
# 5 -0.003304 -0.001022 -0.000424 0.000000 0.025480 0.000000
# 6 0.000000 0.000000 0.000000 0.015364 0.000000 -0.037272
#
#
# Mechanical properties :
#
#
# Convention : Reuss Voigt Hill
#
# Bulk Modulus (GPa) = 25.62743 41.34681 33.48712
# Shear Modulus (GPa) = -366.13566 15.41179 -175.36194
#
# Velocity S-wave (km/s) = -12.66679 2.59880 -8.76624
# Velocity P-wave (km/s) = 14.23727 5.20807 9.36952
#
# Compressibility (1/GPa) = 0.03902068
#
# Stress axis : x y z
#
# Youngs Moduli (GPa) = 92.56240 44.19825 84.47599
#
# Poissons Ratio (x) = 0.06729 0.44811
# Poissons Ratio (y) = 0.14092 -0.31292
# Poissons Ratio (z) = 0.49101 -0.16372
#
# Static dielectric constant tensor:
#      x y z
#    x 2.186890 0.000000 0.364900 
#    y 0.000000 1.911610 0.000000 
#    z 0.364900 0.000000 2.185100 
# 
# From -- ./inp_files/147678.got.cif
#   From: 2010.05.17/outbox.cif.g08.bks.cpg/sg12_74_cif.got.tgz:147678.got - 2010.06.03 13:09:07.
