data_PCOD9187222
_publ_section_title
;
Structure prediction by ZEFSAII (Michael W. Deem and Ramdas Pophale) SiO2 
 PCOD9187222
Probable space group: C 2/M
;
_chemical_formula_sum "Si O2"
_cell_formula_units_Z 64
_cell_length_a 20.575064
_cell_length_b 8.694689
_cell_length_c 18.009715
_cell_angle_alpha 90.000000
_cell_angle_beta 111.654142
_cell_angle_gamma 90.000000
_cell_volume 2994.456007
_symmetry_space_group_name_H-M "C 2/M"
_symmetry_group_IT_number 12
_symmetry_cell_setting 'monoclinic'
loop_
_space_group_symop_operation_xyz
x,y,z
-x,y,-z
-x,-y,-z
x,-y,z
1/2+x,1/2+y,z
1/2-x,1/2+y,-z
1/2-x,1/2-y,-z
1/2+x,1/2-y,z
loop_
_atom_site_type_symbol
_atom_site_label
_atom_site_fract_x
_atom_site_fract_y
_atom_site_fract_z
Si Si1 0.842366 0.318347 0.597730
Si Si2 0.105732 0.813485 0.688838
Si Si3 0.171200 0.315260 0.175930
Si Si4 0.066303 0.179255 0.231413
Si Si5 0.817425 0.317334 0.988908
Si Si6 0.770354 0.317157 0.347616
Si Si7 0.038365 0.182122 0.437384
Si Si8 0.099716 0.177696 0.848360
O O1 0.832333 0.500000 0.590704
O O2 0.896359 0.268357 0.685814
O O3 0.769571 0.243142 0.595242
O O4 0.887582 0.263422 0.545807
O O5 0.154793 0.751450 0.644276
O O6 0.025106 0.766338 0.643142
O O7 0.130214 0.765542 0.781908
O O8 0.107383 0.000000 0.687285
O O9 0.179375 0.500000 0.185175
O O10 0.095104 0.260819 0.170216
O O11 0.222679 0.237682 0.257518
O O12 0.181076 0.264639 0.095604
O O13 0.983304 0.181048 0.197333
O O14 0.088669 0.000000 0.244653
O O15 0.814306 0.500000 0.985580
O O16 0.879600 0.266486 0.069243
O O17 0.750000 0.250000 0.000000
O O18 0.774207 0.500000 0.353214
O O19 0.000000 0.200792 0.500000
O O20 0.050645 0.000000 0.430427
O O21 0.122463 0.000000 0.866627
#
# Coordination Sequence:
#
# PCOD9187222 Si02
#       8
#     8   8   8   8   8   8   8   8
#     4  11  21  36  60  88 121 157 193 237 288 344
#     4  10  20  38  60  87 120 150 189 239 291 344
#     4  10  21  37  54  78 112 150 189 239 296 341
#     4  10  19  35  58  84 110 146 192 236 284 343
#     4  11  24  38  53  74 107 147 191 238 291 348
#     4  11  22  36  59  88 116 153 201 244 285 343
#     4  10  21  40  66  92 121 156 191 233 288 347
#     4  10  21  36  57  81 111 147 187 237 288 341
#
# _framework density 21.372831000000001
#
# number of rings (size 3 to 8) (size 9 to 14) (size 15 to 20)
#    0.000    1.625    1.250    5.625    0.000    7.750 
#    0.000    3.125    0.000    0.000    0.000    0.000 
#    0.000    0.000    0.000    0.000    0.000    0.000 
#
# Total GULP energy -178747.067007 kJ/mol
# GULP energy per Si atom -5585.845844 kJ/mol
# Density = 2.132419 g / cm^3
# Si number density = 21.372831 Si / 1000 Ang^3
#
#
#
# Elastic Constant Matrix: (Units=GPa)
#
#
# Indices 1 2 3 4 5 6 
#
# 1 104.7275 21.7177 14.9597 0.0000 -26.4696 0.0000
# 2 21.7177 63.6515 5.2928 0.0000 -10.0475 0.0000
# 3 14.9597 5.2928 70.5864 0.0000 -12.3176 0.0000
# 4 0.0000 0.0000 0.0000 20.6163 0.0000 -12.7541
# 5 -26.4696 -10.0475 -12.3176 0.0000 28.5359 0.0000
# 6 0.0000 0.0000 0.0000 -12.7541 0.0000 27.1764
#
#
#
# Elastic Compliance Matrix: (Units=1/GPa)
#
#
# Indices 1 2 3 4 5 6 
#
# 1 0.012912 -0.002652 -0.000660 0.000000 0.010758 0.000000
# 2 -0.002652 0.017184 -0.000108 0.000000 0.003543 0.000000
# 3 -0.000660 -0.000108 0.015358 0.000000 0.005979 0.000000
# 4 0.000000 0.000000 0.000000 0.068349 0.000000 0.032077
# 5 0.010758 0.003543 0.005979 0.000000 0.048851 0.000000
# 6 0.000000 0.000000 0.000000 0.032077 0.000000 0.051851
#
#
# Mechanical properties :
#
#
# Convention : Reuss Voigt Hill
#
# Bulk Modulus (GPa) = 25.89808 35.87840 30.88824
# Shear Modulus (GPa) = 21.34761 28.39873 24.87317
#
# Velocity S-wave (km/s) = 3.16384 3.64913 3.41512
# Velocity P-wave (km/s) = 5.04877 5.88033 5.48034
#
# Compressibility (1/GPa) = 0.03861290
#
# Stress axis : x y z
#
# Youngs Moduli (GPa) = 77.44698 58.19415 65.11078
#
# Poissons Ratio (x) = 0.15436 0.04299
# Poissons Ratio (y) = 0.20542 0.00703
# Poissons Ratio (z) = 0.05114 0.00629
#
# Static dielectric constant tensor:
#      x y z
#    x 1.806970 0.000000 -0.008060 
#    y 0.000000 1.756740 0.000000 
#    z -0.008060 0.000000 1.831080 
# 
# From -- ./inp_files/281294.got.cif
#   From: 2010.05.17/outbox.cif.g08.bks.cpg/sg12_141_cif.got.tgz:281294.got - 2010.06.03 13:09:07.
