data_PCOD9187913
_publ_section_title
;
Structure prediction by ZEFSAII (Michael W. Deem and Ramdas Pophale) SiO2 
 PCOD9187913
Probable space group: C 2/M
;
_chemical_formula_sum "Si O2"
_cell_formula_units_Z 58
_cell_length_a 23.807826
_cell_length_b 22.232071
_cell_length_c 8.443777
_cell_angle_alpha 90.000000
_cell_angle_beta 142.399726
_cell_angle_gamma 90.000000
_cell_volume 2726.919301
_symmetry_space_group_name_H-M "C 2/M"
_symmetry_group_IT_number 12
_symmetry_cell_setting 'monoclinic'
loop_
_space_group_symop_operation_xyz
x,y,z
-x,y,-z
-x,-y,-z
x,-y,z
1/2+x,1/2+y,z
1/2-x,1/2+y,-z
1/2-x,1/2-y,-z
1/2+x,1/2-y,z
loop_
_atom_site_type_symbol
_atom_site_label
_atom_site_fract_x
_atom_site_fract_y
_atom_site_fract_z
Si Si1 0.391907 0.070047 0.794504
Si Si2 0.865243 0.129621 0.246501
Si Si3 0.500000 0.500000 0.000000
Si Si4 0.351924 0.699054 0.769268
Si Si5 0.893545 0.726725 0.305269
Si Si6 0.705696 0.857393 0.690381
Si Si7 0.311067 0.822701 0.801619
Si Si8 0.981829 0.893084 0.194225
O O1 0.339549 0.092694 0.520340
O O2 0.355258 0.114062 0.851030
O O3 0.373835 0.000000 0.787446
O O4 0.500000 0.077710 0.000000
O O5 0.876066 0.202071 0.278688
O O6 0.923721 0.106146 0.226621
O O7 0.912949 0.104765 0.510641
O O8 0.761531 0.115691 0.964484
O O9 0.537968 0.447527 0.964645
O O10 0.280744 0.676618 0.747973
O O11 0.357264 0.770572 0.795194
O O12 0.296683 0.679988 0.488310
O O13 0.446480 0.666974 0.026976
O O14 0.865294 0.690951 0.398960
O O15 0.000000 0.718271 0.500000
O O16 0.833644 0.699365 0.027556
#
# Coordination Sequence:
#
# PCOD9187913 Si02
#       8
#     8   8   2   8   8   8   8   8
#     4  10  22  42  60  85 125 171 213 250 317 395
#     4  10  20  40  65  88 130 171 206 262 329 377
#     4  12  28  42  60  92 128 182 230 252 292 366
#     4   9  19  39  60  91 127 163 210 263 321 369
#     4  12  20  35  63  99 128 152 204 266 336 376
#     4  10  21  37  63  94 121 166 208 262 318 393
#     4  10  19  35  62  93 120 160 201 268 325 368
#     4  10  21  44  60  90 129 176 213 259 312 376
#
# _framework density 21.269423
#
# number of rings (size 3 to 8) (size 9 to 14) (size 15 to 20)
#    0.000    1.793    4.138    1.241    0.000    2.207 
#   18.621    0.690    0.000    2.483    0.000    0.000 
#    0.000    0.000    0.000    0.000    0.000    0.000 
#
# Total GULP energy -161689.927457 kJ/mol
# GULP energy per Si atom -5575.514740 kJ/mol
# Density = 2.122101 g / cm^3
# Si number density = 21.269423 Si / 1000 Ang^3
#
#
#
# Elastic Constant Matrix: (Units=GPa)
#
#
# Indices 1 2 3 4 5 6 
#
# 1 56.4014 11.8806 -10.8374 0.0000 0.9176 0.0000
# 2 11.8806 99.4806 -3.6507 0.0000 -2.2935 0.0000
# 3 -10.8374 -3.6507 77.9473 0.0000 0.2447 0.0000
# 4 0.0000 0.0000 0.0000 31.1295 0.0000 -13.2736
# 5 0.9176 -2.2935 0.2447 0.0000 14.1903 0.0000
# 6 0.0000 0.0000 0.0000 -13.2736 0.0000 19.8121
#
#
#
# Elastic Compliance Matrix: (Units=1/GPa)
#
#
# Indices 1 2 3 4 5 6 
#
# 1 0.018696 -0.002178 0.002502 0.000000 -0.001604 0.000000
# 2 -0.002178 0.010361 0.000177 0.000000 0.001812 0.000000
# 3 0.002502 0.000177 0.013187 0.000000 -0.000361 0.000000
# 4 0.000000 0.000000 0.000000 0.044971 0.000000 0.030129
# 5 -0.001604 0.001812 -0.000361 0.000000 0.070874 0.000000
# 6 0.000000 0.000000 0.000000 0.030129 0.000000 0.070660
#
#
# Mechanical properties :
#
#
# Convention : Reuss Voigt Hill
#
# Bulk Modulus (GPa) = 23.12390 25.40160 24.26275
# Shear Modulus (GPa) = 20.64746 28.78883 24.71815
#
# Velocity S-wave (km/s) = 3.11908 3.68303 3.41272
# Velocity P-wave (km/s) = 4.88539 5.48224 5.19240
#
# Compressibility (1/GPa) = 0.04324529
#
# Stress axis : x y z
#
# Youngs Moduli (GPa) = 53.48804 96.51971 75.83510
#
# Poissons Ratio (x) = 0.21021 -0.18977
# Poissons Ratio (y) = 0.11649 -0.01340
# Poissons Ratio (z) = -0.13385 -0.01706
#
# Static dielectric constant tensor:
#      x y z
#    x 1.823970 0.000000 -0.015950 
#    y 0.000000 1.705280 0.000000 
#    z -0.015950 0.000000 1.872620 
# 
# From -- ./inp_files/99288.got.cif
#   From: 2010.05.17/outbox.cif.g08.bks.cpg/sg12_50_cif.got.tgz:99288.got - 2010.06.03 13:09:07.
