data_PCOD9187773
_publ_section_title
;
Structure prediction by ZEFSAII (Michael W. Deem and Ramdas Pophale) SiO2 
 PCOD9187773
Probable space group: C 2/M
;
_chemical_formula_sum "Si O2"
_cell_formula_units_Z 64
_cell_length_a 20.439978
_cell_length_b 16.995850
_cell_length_c 14.098746
_cell_angle_alpha 90.000000
_cell_angle_beta 143.596336
_cell_angle_gamma 90.000000
_cell_volume 2906.717543
_symmetry_space_group_name_H-M "C 2/M"
_symmetry_group_IT_number 12
_symmetry_cell_setting 'monoclinic'
loop_
_space_group_symop_operation_xyz
x,y,z
-x,y,-z
-x,-y,-z
x,-y,z
1/2+x,1/2+y,z
1/2-x,1/2+y,-z
1/2-x,1/2-y,-z
1/2+x,1/2-y,z
loop_
_atom_site_type_symbol
_atom_site_label
_atom_site_fract_x
_atom_site_fract_y
_atom_site_fract_z
Si Si1 0.453926 0.086998 0.593632
Si Si2 0.775801 0.251896 0.918977
Si Si3 0.337456 0.087395 0.662216
Si Si4 0.339896 0.912467 0.038110
Si Si5 0.849525 0.736207 0.397838
Si Si6 0.639894 0.586013 0.942454
Si Si7 0.592518 0.349264 0.369608
Si Si8 0.101580 0.749245 0.186962
O O1 0.383672 0.092515 0.609208
O O2 0.577755 0.096817 0.776610
O O3 0.410308 0.153912 0.475500
O O4 0.440591 0.000000 0.537750
O O5 0.667340 0.261928 0.729466
O O6 0.750000 0.250000 0.000000
O O7 0.847411 0.331688 0.986926
O O8 0.827812 0.165381 0.962659
O O9 0.207221 0.104207 0.506298
O O10 0.392830 0.156109 0.786955
O O11 0.359280 0.000000 0.723987
O O12 0.363384 0.000000 0.023670
O O13 0.218500 0.914687 0.941827
O O14 0.908980 0.796204 0.537793
O O15 0.722520 0.729791 0.286666
O O16 0.655181 0.500000 0.007575
O O17 0.514172 0.597176 0.765035
O O18 0.593288 0.292028 0.278949
O O19 0.000000 0.769791 0.000000
#
# Coordination Sequence:
#
# PCOD9187773 Si02
#       8
#     8   8   8   8   8   8   8   8
#     4  10  19  35  61  88 121 160 202 256 307 365
#     4  10  22  40  63  89 120 160 208 258 304 368
#     4  10  20  36  58  87 123 159 201 252 306 363
#     4   9  20  40  63  89 119 160 209 261 311 357
#     4  11  21  38  62  88 123 163 202 256 313 367
#     4  10  21  39  63  87 123 164 203 255 308 365
#     4  11  20  39  60  87 123 161 206 244 306 370
#     4  11  22  36  59  88 122 163 200 250 306 370
#
# _framework density 22.017963999999999
#
# number of rings (size 3 to 8) (size 9 to 14) (size 15 to 20)
#    0.000    1.750    2.500    2.625    1.750    0.750 
#    0.000   13.125    0.000   12.375    0.000    0.000 
#    0.000    0.000    0.000    0.000    0.000    0.000 
#
# Total GULP energy -178777.119143 kJ/mol
# GULP energy per Si atom -5586.784973 kJ/mol
# Density = 2.196785 g / cm^3
# Si number density = 22.017964 Si / 1000 Ang^3
#
#
#
# Elastic Constant Matrix: (Units=GPa)
#
#
# Indices 1 2 3 4 5 6 
#
# 1 64.6183 16.5387 24.6543 0.0000 6.9920 0.0000
# 2 16.5387 174.2129 38.1269 0.0000 -6.3034 0.0000
# 3 24.6543 38.1269 60.0049 0.0000 -5.7697 0.0000
# 4 0.0000 0.0000 0.0000 100.6330 0.0000 -12.1601
# 5 6.9920 -6.3034 -5.7697 0.0000 41.9514 0.0000
# 6 0.0000 0.0000 0.0000 -12.1601 0.0000 14.0369
#
#
#
# Elastic Compliance Matrix: (Units=1/GPa)
#
#
# Indices 1 2 3 4 5 6 
#
# 1 0.019100 -0.000187 -0.008145 0.000000 -0.004332 0.000000
# 2 -0.000187 0.006677 -0.004120 0.000000 0.000468 0.000000
# 3 -0.008145 -0.004120 0.023005 0.000000 0.003902 0.000000
# 4 0.000000 0.000000 0.000000 0.011099 0.000000 0.009615
# 5 -0.004332 0.000468 0.003902 0.000000 0.025166 0.000000
# 6 0.000000 0.000000 0.000000 0.009615 0.000000 0.079570
#
#
# Mechanical properties :
#
#
# Convention : Reuss Voigt Hill
#
# Bulk Modulus (GPa) = 41.88294 50.83066 46.35680
# Shear Modulus (GPa) = 25.31896 45.95867 35.63881
#
# Velocity S-wave (km/s) = 3.39473 4.57368 4.02758
# Velocity P-wave (km/s) = 5.86763 7.14336 6.53669
#
# Compressibility (1/GPa) = 0.02387607
#
# Stress axis : x y z
#
# Youngs Moduli (GPa) = 52.35663 149.77793 43.46867
#
# Poissons Ratio (x) = 0.02807 0.35405
# Poissons Ratio (y) = 0.00981 0.17910
# Poissons Ratio (z) = 0.42644 0.61713
#
# Static dielectric constant tensor:
#      x y z
#    x 1.857870 0.000000 0.010400 
#    y 0.000000 1.853680 0.000000 
#    z 0.010400 0.000000 1.774810 
# 
# From -- ./inp_files/241528.got.cif
#   From: 2010.05.17/outbox.cif.g08.bks.cpg/sg12_121_cif.got.tgz:241528.got - 2010.06.03 13:09:07.
