data_PCOD9187350
_publ_section_title
;
Structure prediction by ZEFSAII (Michael W. Deem and Ramdas Pophale) SiO2 
 PCOD9187350
Probable space group: C 2/M
;
_chemical_formula_sum "Si O2"
_cell_formula_units_Z 48
_cell_length_a 20.616912
_cell_length_b 17.701640
_cell_length_c 14.622634
_cell_angle_alpha 90.000000
_cell_angle_beta 29.504114
_cell_angle_gamma 90.000000
_cell_volume 2628.189447
_symmetry_space_group_name_H-M "C 2/M"
_symmetry_group_IT_number 12
_symmetry_cell_setting 'monoclinic'
loop_
_space_group_symop_operation_xyz
x,y,z
-x,y,-z
-x,-y,-z
x,-y,z
1/2+x,1/2+y,z
1/2-x,1/2+y,-z
1/2-x,1/2-y,-z
1/2+x,1/2-y,z
loop_
_atom_site_type_symbol
_atom_site_label
_atom_site_fract_x
_atom_site_fract_y
_atom_site_fract_z
Si Si1 0.609103 0.734085 0.718737
Si Si2 0.874504 0.782124 0.712950
Si Si3 0.936380 0.913397 0.922452
Si Si4 0.996746 0.331989 0.302094
Si Si5 0.232439 0.179067 0.738893
Si Si6 0.248897 0.583584 0.974867
O O1 0.750000 0.750000 0.500000
O O2 0.546742 0.651558 0.774081
O O3 0.521421 0.797779 0.777273
O O4 0.640888 0.730935 0.786946
O O5 0.931143 0.732978 0.727112
O O6 0.788843 0.727765 0.753528
O O7 0.794740 0.851682 0.850096
O O8 0.000000 0.808003 0.500000
O O9 0.836354 0.909597 0.959318
O O10 0.984322 0.000000 0.870738
O O11 0.853088 0.888300 0.113777
O O12 0.857111 0.345997 0.523834
O O13 0.095675 0.401705 0.183516
O O14 0.269495 0.500000 0.912121
#
# Coordination Sequence:
#
# PCOD9187350 Si02
#       6
#     8   8   8   8   8   8
#     4  10  21  37  58  82 110 149 191 229 275 330
#     4  10  19  35  59  80 105 143 197 239 269 319
#     4  11  22  36  56  85 119 149 182 229 287 344
#     4  10  19  37  59  82 113 148 191 230 274 332
#     4  10  21  34  58  89 110 144 187 233 278 330
#     4  11  22  35  56  84 116 151 184 232 290 332
#
# _framework density 18.263522999999999
#
# number of rings (size 3 to 8) (size 9 to 14) (size 15 to 20)
#    0.000    1.667    3.333    2.000    0.000    2.333 
#    0.000    4.167    0.000    2.000    0.000    0.000 
#    0.000    0.000    0.000    0.000    0.000    0.000 
#
# Total GULP energy -133854.504697 kJ/mol
# GULP energy per Si atom -5577.271029 kJ/mol
# Density = 1.822195 g / cm^3
# Si number density = 18.263523 Si / 1000 Ang^3
#
#
#
# Elastic Constant Matrix: (Units=GPa)
#
#
# Indices 1 2 3 4 5 6 
#
# 1 62.5218 -8.9605 5.1799 0.0000 -14.4992 0.0000
# 2 -8.9605 61.3716 38.0160 0.0000 -9.1080 0.0000
# 3 5.1799 38.0160 73.9390 0.0000 -13.0251 0.0000
# 4 0.0000 0.0000 0.0000 5.3488 0.0000 -1.3805
# 5 -14.4992 -9.1080 -13.0251 0.0000 21.6964 0.0000
# 6 0.0000 0.0000 0.0000 -1.3805 0.0000 22.2581
#
#
#
# Elastic Compliance Matrix: (Units=1/GPa)
#
#
# Indices 1 2 3 4 5 6 
#
# 1 0.020671 0.006627 -0.002160 0.000000 0.015299 0.000000
# 2 0.006627 0.026206 -0.012547 0.000000 0.007897 0.000000
# 3 -0.002160 -0.012547 0.021185 0.000000 0.006008 0.000000
# 4 0.000000 0.000000 0.000000 0.189999 0.000000 0.011784
# 5 0.015299 0.007897 0.006008 0.000000 0.063236 0.000000
# 6 0.000000 0.000000 0.000000 0.011784 0.000000 0.045658
#
#
# Mechanical properties :
#
#
# Convention : Reuss Voigt Hill
#
# Bulk Modulus (GPa) = 19.26736 29.58924 24.42830
# Shear Modulus (GPa) = 12.48698 20.76712 16.62705
#
# Velocity S-wave (km/s) = 2.61762 3.37572 3.02055
# Velocity P-wave (km/s) = 4.43942 5.60629 5.05663
#
# Compressibility (1/GPa) = 0.05190125
#
# Stress axis : x y z
#
# Youngs Moduli (GPa) = 48.37688 38.15960 47.20248
#
# Poissons Ratio (x) = -0.25287 0.10197
# Poissons Ratio (y) = -0.32058 0.59224
# Poissons Ratio (z) = 0.10450 0.47878
#
# Static dielectric constant tensor:
#      x y z
#    x 1.656570 0.000000 -0.015450 
#    y 0.000000 1.607450 0.000000 
#    z -0.015450 0.000000 1.669700 
# 
# From -- ./inp_files/234233.got.cif
#   From: 2010.05.17/outbox.cif.g08.bks.cpg/sg12_118_cif.got.tgz:234233.got - 2010.06.03 13:09:07.
