data_PCOD9187828
_publ_section_title
;
Structure prediction by ZEFSAII (Michael W. Deem and Ramdas Pophale) SiO2 
 PCOD9187828
Probable space group: C 2/M
;
_chemical_formula_sum "Si O2"
_cell_formula_units_Z 40
_cell_length_a 15.672106
_cell_length_b 10.095546
_cell_length_c 12.383811
_cell_angle_alpha 90.000000
_cell_angle_beta 65.079406
_cell_angle_gamma 90.000000
_cell_volume 1776.917875
_symmetry_space_group_name_H-M "C 2/M"
_symmetry_group_IT_number 12
_symmetry_cell_setting 'monoclinic'
loop_
_space_group_symop_operation_xyz
x,y,z
-x,y,-z
-x,-y,-z
x,-y,z
1/2+x,1/2+y,z
1/2-x,1/2+y,-z
1/2-x,1/2-y,-z
1/2+x,1/2-y,z
loop_
_atom_site_type_symbol
_atom_site_label
_atom_site_fract_x
_atom_site_fract_y
_atom_site_fract_z
Si Si1 0.291288 0.646617 0.173145
Si Si2 0.145135 0.844266 0.175665
Si Si3 0.194181 0.647422 0.458266
Si Si4 0.987925 0.266371 0.121183
Si Si5 0.006064 0.351061 0.345569
O O1 0.278438 0.500000 0.130883
O O2 0.241679 0.762208 0.130781
O O3 0.235784 0.649146 0.316648
O O4 0.398807 0.672653 0.148276
O O5 0.082846 0.814305 0.101940
O O6 0.077921 0.771544 0.300468
O O7 0.157105 0.000000 0.185580
O O8 0.209547 0.500000 0.494632
O O9 0.250000 0.750000 0.500000
O O10 0.082748 0.671027 0.530310
O O11 0.970021 0.349615 0.239165
O O12 0.000000 0.338089 0.000000
O O13 0.045325 0.500000 0.343781
#
# Coordination Sequence:
#
# PCOD9187828 Si02
#       5
#     8   8   8   8   8
#     4  11  23  40  65  94 127 165 205 252 315 371
#     4  10  23  42  63  93 127 161 211 257 307 371
#     4  10  19  35  61  92 125 163 204 249 305 371
#     4  10  23  42  67  90 122 167 208 258 311 368
#     4   9  20  39  61  88 124 160 202 251 304 362
#
# _framework density 22.510887
#
# number of rings (size 3 to 8) (size 9 to 14) (size 15 to 20)
#    1.200    0.800    2.000    1.200    0.000    6.000 
#    0.000    4.000    0.000    0.000    0.000    0.000 
#    0.000    0.000    0.000    0.000    0.000    0.000 
#
# Total GULP energy -111565.562108 kJ/mol
# GULP energy per Si atom -5578.278105 kJ/mol
# Density = 2.245965 g / cm^3
# Si number density = 22.510887 Si / 1000 Ang^3
#
#
#
# Elastic Constant Matrix: (Units=GPa)
#
#
# Indices 1 2 3 4 5 6 
#
# 1 143.2444 86.3405 8.8864 0.0000 -11.7857 0.0000
# 2 86.3405 170.6339 13.9304 0.0000 -2.3819 0.0000
# 3 8.8864 13.9304 87.4639 0.0000 3.0695 0.0000
# 4 0.0000 0.0000 0.0000 7.7582 0.0000 6.1373
# 5 -11.7857 -2.3819 3.0695 0.0000 30.6740 0.0000
# 6 0.0000 0.0000 0.0000 6.1373 0.0000 34.0780
#
#
#
# Elastic Compliance Matrix: (Units=1/GPa)
#
#
# Indices 1 2 3 4 5 6 
#
# 1 0.010438 -0.005202 -0.000360 0.000000 0.003643 0.000000
# 2 -0.005202 0.008539 -0.000787 0.000000 -0.001257 0.000000
# 3 -0.000360 -0.000787 0.011643 0.000000 -0.001365 0.000000
# 4 0.000000 0.000000 0.000000 0.150312 0.000000 -0.027071
# 5 0.003643 -0.001257 -0.001365 0.000000 0.034039 0.000000
# 6 0.000000 0.000000 0.000000 -0.027071 0.000000 0.034220
#
#
# Mechanical properties :
#
#
# Convention : Reuss Voigt Hill
#
# Bulk Modulus (GPa) = 55.79471 68.85075 62.32273
# Shear Modulus (GPa) = 18.66620 33.98102 26.32361
#
# Velocity S-wave (km/s) = 2.88272 3.88949 3.42332
# Velocity P-wave (km/s) = 5.99329 7.12901 6.58568
#
# Compressibility (1/GPa) = 0.01792285
#
# Stress axis : x y z
#
# Youngs Moduli (GPa) = 95.80049 117.10660 85.88732
#
# Poissons Ratio (x) = 0.60914 0.03091
# Poissons Ratio (y) = 0.49831 0.06763
# Poissons Ratio (z) = 0.03448 0.09222
#
# Static dielectric constant tensor:
#      x y z
#    x 1.866380 0.000000 0.017450 
#    y 0.000000 1.768980 0.000000 
#    z 0.017450 0.000000 1.878370 
# 
# From -- ./inp_files/220570.got.cif
#   From: 2010.05.17/outbox.cif.g08.bks.cpg/sg12_111_cif.got.tgz:220570.got - 2010.06.03 13:09:07.
