data_PCOD9187704
_publ_section_title
;
Structure prediction by ZEFSAII (Michael W. Deem and Ramdas Pophale) SiO2 
 PCOD9187704
Probable space group: C 2/M
;
_chemical_formula_sum "Si O2"
_cell_formula_units_Z 56
_cell_length_a 28.884873
_cell_length_b 8.624231
_cell_length_c 22.504003
_cell_angle_alpha 90.000000
_cell_angle_beta 149.355381
_cell_angle_gamma 90.000000
_cell_volume 2857.426748
_symmetry_space_group_name_H-M "C 2/M"
_symmetry_group_IT_number 12
_symmetry_cell_setting 'monoclinic'
loop_
_space_group_symop_operation_xyz
x,y,z
-x,y,-z
-x,-y,-z
x,-y,z
1/2+x,1/2+y,z
1/2-x,1/2+y,-z
1/2-x,1/2-y,-z
1/2+x,1/2-y,z
loop_
_atom_site_type_symbol
_atom_site_label
_atom_site_fract_x
_atom_site_fract_y
_atom_site_fract_z
Si Si1 0.542545 0.686170 0.611013
Si Si2 0.069742 0.819311 0.962329
Si Si3 0.297316 0.318385 0.655145
Si Si4 0.598175 0.316193 0.442484
Si Si5 0.267653 0.820667 0.206557
Si Si6 0.141158 0.681825 0.156856
Si Si7 0.432736 0.818540 0.716884
O O1 0.500000 0.724562 0.500000
O O2 0.553761 0.500000 0.626585
O O3 0.473073 0.733364 0.585834
O O4 0.640856 0.764327 0.722218
O O5 0.009620 0.729371 0.848987
O O6 0.043354 0.000000 0.935733
O O7 0.177561 0.811240 0.066100
O O8 0.071251 0.744758 0.029956
O O9 0.304773 0.500000 0.651333
O O10 0.193927 0.270843 0.552577
O O11 0.354632 0.273285 0.777097
O O12 0.338844 0.223990 0.646132
O O13 0.614433 0.500000 0.466934
O O14 0.559404 0.278145 0.334650
O O15 0.237805 0.716061 0.230025
O O16 0.274897 0.000000 0.234037
O O17 0.129225 0.500000 0.154128
O O18 0.436030 0.000000 0.707252
#
# Coordination Sequence:
#
# PCOD9187704 Si02
#       7
#     8   8   8   8   8   8   8
#     4  10  21  37  62  92 122 157 198 246 302 361
#     4   9  20  39  61  90 124 160 202 253 305 356
#     4  12  24  40  62  89 122 161 204 257 309 359
#     4  11  24  42  62  90 125 161 202 253 305 363
#     4   9  19  35  58  88 122 156 194 246 301 354
#     4  10  19  35  60  90 124 158 199 246 299 361
#     4  12  25  42  63  87 118 164 210 251 301 364
#
# _framework density 19.598051999999999
#
# number of rings (size 3 to 8) (size 9 to 14) (size 15 to 20)
#    0.857    0.714    0.000    6.000    0.000    3.143 
#    0.000    3.571    0.000    0.000    0.000    0.000 
#    0.000    0.000    0.000    0.000    0.000    0.000 
#
# Total GULP energy -156409.704430 kJ/mol
# GULP energy per Si atom -5586.060872 kJ/mol
# Density = 1.955345 g / cm^3
# Si number density = 19.598052 Si / 1000 Ang^3
#
#
#
# Elastic Constant Matrix: (Units=GPa)
#
#
# Indices 1 2 3 4 5 6 
#
# 1 102.2112 -4.2026 27.4540 0.0000 4.5699 0.0000
# 2 -4.2026 53.4606 -1.9494 0.0000 11.5805 0.0000
# 3 27.4540 -1.9494 75.0168 0.0000 1.9225 0.0000
# 4 0.0000 0.0000 0.0000 32.8538 0.0000 1.8549
# 5 4.5699 11.5805 1.9225 0.0000 32.4397 0.0000
# 6 0.0000 0.0000 0.0000 1.8549 0.0000 25.1898
#
#
#
# Elastic Compliance Matrix: (Units=1/GPa)
#
#
# Indices 1 2 3 4 5 6 
#
# 1 0.010963 0.001086 -0.003940 0.000000 -0.001699 0.000000
# 2 0.001086 0.020419 0.000324 0.000000 -0.007461 0.000000
# 3 -0.003940 0.000324 0.014792 0.000000 -0.000437 0.000000
# 4 0.000000 0.000000 0.000000 0.030565 0.000000 -0.002251
# 5 -0.001699 -0.007461 -0.000437 0.000000 0.033755 0.000000
# 6 0.000000 0.000000 0.000000 -0.002251 0.000000 0.039864
#
#
# Mechanical properties :
#
#
# Convention : Reuss Voigt Hill
#
# Bulk Modulus (GPa) = 24.32273 30.36584 27.34429
# Shear Modulus (GPa) = 29.56439 32.05576 30.81007
#
# Velocity S-wave (km/s) = 3.88820 4.04872 3.96927
# Velocity P-wave (km/s) = 5.70922 6.11425 5.91521
#
# Compressibility (1/GPa) = 0.04111381
#
# Stress axis : x y z
#
# Youngs Moduli (GPa) = 91.21917 48.97432 67.60408
#
# Poissons Ratio (x) = -0.05319 0.26638
# Poissons Ratio (y) = -0.09907 -0.02193
# Poissons Ratio (z) = 0.35943 -0.01589
#
# Static dielectric constant tensor:
#      x y z
#    x 1.685070 0.000000 0.026630 
#    y 0.000000 1.653450 0.000000 
#    z 0.026630 0.000000 1.707240 
# 
# From -- ./inp_files/292518.got.cif
#   From: 2010.05.17/outbox.cif.g08.bks.cpg/sg12_147_cif.got.tgz:292518.got - 2010.06.03 13:09:07.
