data_PCOD9187249
_publ_section_title
;
Structure prediction by ZEFSAII (Michael W. Deem and Ramdas Pophale) SiO2 
 PCOD9187249
Probable space group: C 2/M
;
_chemical_formula_sum "Si O2"
_cell_formula_units_Z 34
_cell_length_a 14.272359
_cell_length_b 7.716655
_cell_length_c 22.488963
_cell_angle_alpha 90.000000
_cell_angle_beta 36.108736
_cell_angle_gamma 90.000000
_cell_volume 1459.637865
_symmetry_space_group_name_H-M "C 2/M"
_symmetry_group_IT_number 12
_symmetry_cell_setting 'monoclinic'
loop_
_space_group_symop_operation_xyz
x,y,z
-x,y,-z
-x,-y,-z
x,-y,z
1/2+x,1/2+y,z
1/2-x,1/2+y,-z
1/2-x,1/2-y,-z
1/2+x,1/2-y,z
loop_
_atom_site_type_symbol
_atom_site_label
_atom_site_fract_x
_atom_site_fract_y
_atom_site_fract_z
Si Si1 0.944082 0.687862 0.946059
Si Si2 0.857986 0.293344 0.612664
Si Si3 0.002719 0.792294 0.211476
Si Si4 0.794760 0.298366 0.778159
Si Si5 0.000000 0.000000 0.000000
O O1 0.878754 0.500000 0.997119
O O2 0.917936 0.723503 0.889749
O O3 0.136913 0.686541 0.852827
O O4 0.908067 0.846596 0.007436
O O5 0.850333 0.500000 0.604204
O O6 0.679910 0.226753 0.691742
O O7 0.886168 0.278289 0.668878
O O8 0.000000 0.220209 0.500000
O O9 0.094583 0.742529 0.223660
O O10 0.996088 0.000000 0.208765
O O11 0.731272 0.500000 0.815143
#
# Coordination Sequence:
#
# PCOD9187249 Si02
#       5
#     8   8   8   8   2
#     4  11  22  40  65  87 118 156 194 241 300 357
#     4   8  16  31  52  82 119 160 203 247 293 338
#     4  10  19  35  58  84 118 159 201 244 290 355
#     4  10  19  35  58  84 118 159 201 244 290 355
#     4  12  22  44  64  90 122 146 190 252 296 358
#
# _framework density 23.293451000000001
#
# number of rings (size 3 to 8) (size 9 to 14) (size 15 to 20)
#    0.000    2.118    2.353    3.176    0.000    0.941 
#    0.000    1.176    0.000   24.000    0.000    0.000 
#    0.000    0.000    0.000    0.000    0.000    0.000 
#
# Total GULP energy -94906.045389 kJ/mol
# GULP energy per Si atom -5582.708552 kJ/mol
# Density = 2.324043 g / cm^3
# Si number density = 23.293451 Si / 1000 Ang^3
#
#
#
# Elastic Constant Matrix: (Units=GPa)
#
#
# Indices 1 2 3 4 5 6 
#
# 1 175.7429 22.1434 40.7984 0.0000 3.5075 -0.0001
# 2 22.1434 144.6582 23.2071 0.0000 14.3822 -0.0002
# 3 40.7984 23.2071 119.5460 0.0000 -10.6711 0.0000
# 4 0.0000 0.0000 0.0000 13.4724 0.0000 3.4905
# 5 3.5075 14.3822 -10.6711 0.0000 16.0066 0.0000
# 6 -0.0001 -0.0002 0.0000 3.4905 0.0000 30.9320
#
#
#
# Elastic Compliance Matrix: (Units=1/GPa)
#
#
# Indices 1 2 3 4 5 6 
#
# 1 0.006326 -0.000332 -0.002330 0.000000 -0.002641 0.000000
# 2 -0.000332 0.008203 -0.002265 0.000000 -0.008808 0.000000
# 3 -0.002330 -0.002265 0.010449 0.000000 0.009512 0.000000
# 4 0.000000 0.000000 0.000000 0.076461 0.000000 -0.008628
# 5 -0.002641 -0.008808 0.009512 0.000000 0.077309 0.000000
# 6 0.000000 0.000000 0.000000 -0.008628 0.000000 0.033303
#
#
# Mechanical properties :
#
#
# Convention : Reuss Voigt Hill
#
# Bulk Modulus (GPa) = 66.12560 68.02722 67.07641
# Shear Modulus (GPa) = 22.03173 35.66873 28.85023
#
# Velocity S-wave (km/s) = 3.07878 3.91740 3.52313
# Velocity P-wave (km/s) = 6.41001 7.05189 6.73860
#
# Compressibility (1/GPa) = 0.01512274
#
# Stress axis : x y z
#
# Youngs Moduli (GPa) = 158.08782 121.91015 95.70239
#
# Poissons Ratio (x) = 0.04046 0.22300
# Poissons Ratio (y) = 0.05246 0.21680
# Poissons Ratio (z) = 0.36837 0.27617
#
# Static dielectric constant tensor:
#      x y z
#    x 1.854560 0.000000 -0.020750 
#    y 0.000000 1.889210 0.000000 
#    z -0.020750 0.000000 1.761260 
# 
# From -- ./inp_files/337513.got.cif
#   From: 2010.05.17/outbox.cif.g08.bks.cpg/sg12_169_cif.got.tgz:337513.got - 2010.06.03 13:09:07.
