data_PCOD9187569
_publ_section_title
;
Structure prediction by ZEFSAII (Michael W. Deem and Ramdas Pophale) SiO2 
 PCOD9187569
Probable space group: C 2/M
;
_chemical_formula_sum "Si O2"
_cell_formula_units_Z 48
_cell_length_a 23.690144
_cell_length_b 10.361994
_cell_length_c 10.135812
_cell_angle_alpha 90.000000
_cell_angle_beta 68.351192
_cell_angle_gamma 90.000000
_cell_volume 2312.605122
_symmetry_space_group_name_H-M "C 2/M"
_symmetry_group_IT_number 12
_symmetry_cell_setting 'monoclinic'
loop_
_space_group_symop_operation_xyz
x,y,z
-x,y,-z
-x,-y,-z
x,-y,z
1/2+x,1/2+y,z
1/2-x,1/2+y,-z
1/2-x,1/2-y,-z
1/2+x,1/2-y,z
loop_
_atom_site_type_symbol
_atom_site_label
_atom_site_fract_x
_atom_site_fract_y
_atom_site_fract_z
Si Si1 0.340114 0.152543 0.879689
Si Si2 0.468759 0.145420 0.651233
Si Si3 0.601226 0.500000 0.420199
Si Si4 0.967676 0.740526 0.163988
Si Si5 0.286962 0.645368 0.739242
Si Si6 0.495770 0.500000 0.727308
Si Si7 0.842769 0.650841 0.192778
O O1 0.405868 0.192777 0.765335
O O2 0.294699 0.245274 0.841313
O O3 0.329845 0.000000 0.863062
O O4 0.341905 0.169829 0.035066
O O5 0.500000 0.215611 0.500000
O O6 0.515488 0.146898 0.730805
O O7 0.454214 0.000000 0.620387
O O8 0.648574 0.620290 0.387853
O O9 0.551874 0.500000 0.576531
O O10 0.564905 0.500000 0.311534
O O11 0.895565 0.738804 0.205695
O O12 0.996085 0.875389 0.187946
O O13 0.000000 0.700297 0.000000
O O14 0.275790 0.500000 0.807974
O O15 0.227116 0.672798 0.704997
O O16 0.858362 0.500000 0.204313
#
# Coordination Sequence:
#
# PCOD9187569 Si02
#       7
#     8   8   4   8   8   4   8
#     4  10  19  35  59  92 123 159 213 264 311 367
#     4  10  22  37  60  90 123 160 207 260 311 376
#     4   9  22  42  72  84 123 168 223 259 323 376
#     4  12  24  39  63  92 130 163 208 259 328 383
#     4   9  20  37  62  90 120 170 215 256 308 384
#     4  11  25  42  62  98 120 166 209 276 315 382
#     4  10  21  39  60  88 127 168 207 253 320 384
#
# _framework density 20.755811999999999
#
# number of rings (size 3 to 8) (size 9 to 14) (size 15 to 20)
#    0.500    1.333    1.667    2.250    4.667    0.667 
#    3.000    0.833    0.000    0.000    0.000    0.000 
#    0.000    0.000    0.000    0.000    0.000    0.000 
#
# Total GULP energy -133783.820284 kJ/mol
# GULP energy per Si atom -5574.325845 kJ/mol
# Density = 2.070857 g / cm^3
# Si number density = 20.755812 Si / 1000 Ang^3
#
#
#
# Elastic Constant Matrix: (Units=GPa)
#
#
# Indices 1 2 3 4 5 6 
#
# 1 136.9719 10.8610 22.9170 0.0000 -12.3984 0.0000
# 2 10.8610 52.0205 -10.2877 0.0000 7.3447 0.0000
# 3 22.9170 -10.2877 75.0462 0.0000 -7.5117 0.0000
# 4 0.0000 0.0000 0.0000 -7.0000 0.0000 5.8296
# 5 -12.3984 7.3447 -7.5117 0.0000 28.6821 0.0000
# 6 0.0000 0.0000 0.0000 5.8296 0.0000 12.0941
#
#
#
# Elastic Compliance Matrix: (Units=1/GPa)
#
#
# Indices 1 2 3 4 5 6 
#
# 1 0.008270 -0.002739 -0.002539 0.000000 0.003611 0.000000
# 2 -0.002739 0.021239 0.003168 0.000000 -0.005793 0.000000
# 3 -0.002539 0.003168 0.014730 0.000000 0.001949 0.000000
# 4 0.000000 0.000000 0.000000 -0.101938 0.000000 0.049136
# 5 0.003611 -0.005793 0.001949 0.000000 0.038420 0.000000
# 6 0.000000 0.000000 0.000000 0.049136 0.000000 0.059001
#
#
# Mechanical properties :
#
#
# Convention : Reuss Voigt Hill
#
# Bulk Modulus (GPa) = 24.98797 34.55768 29.77282
# Shear Modulus (GPa) = 87.28924 22.79181 55.04052
#
# Velocity S-wave (km/s) = 6.49204 3.31734 5.15516
# Velocity P-wave (km/s) = 8.26200 5.59989 7.05760
#
# Compressibility (1/GPa) = 0.04001925
#
# Stress axis : x y z
#
# Youngs Moduli (GPa) = 120.92445 47.08245 67.88910
#
# Poissons Ratio (x) = 0.12894 0.17239
# Poissons Ratio (y) = 0.33116 -0.21507
# Poissons Ratio (z) = 0.30706 -0.14916
#
# Static dielectric constant tensor:
#      x y z
#    x 1.784580 0.000000 -0.062150 
#    y 0.000000 1.782850 0.000000 
#    z -0.062150 0.000000 1.754510 
# 
# From -- ./inp_files/94935.got.cif
#   From: 2010.05.17/outbox.cif.g08.bks.cpg/sg12_48_cif.got.tgz:94935.got - 2010.06.03 13:09:07.
