data_PCOD9187823
_publ_section_title
;
Structure prediction by ZEFSAII (Michael W. Deem and Ramdas Pophale) SiO2 
 PCOD9187823
Probable space group: C 2/M
;
_chemical_formula_sum "Si O2"
_cell_formula_units_Z 64
_cell_length_a 14.544953
_cell_length_b 13.939474
_cell_length_c 19.081140
_cell_angle_alpha 90.000000
_cell_angle_beta 57.461540
_cell_angle_gamma 90.000000
_cell_volume 3261.417227
_symmetry_space_group_name_H-M "C 2/M"
_symmetry_group_IT_number 12
_symmetry_cell_setting 'monoclinic'
loop_
_space_group_symop_operation_xyz
x,y,z
-x,y,-z
-x,-y,-z
x,-y,z
1/2+x,1/2+y,z
1/2-x,1/2+y,-z
1/2-x,1/2-y,-z
1/2+x,1/2-y,z
loop_
_atom_site_type_symbol
_atom_site_label
_atom_site_fract_x
_atom_site_fract_y
_atom_site_fract_z
Si Si1 0.213428 0.616019 0.001648
Si Si2 0.497600 0.889915 0.836401
Si Si3 0.624224 0.615946 0.949243
Si Si4 0.405727 0.886836 0.482449
Si Si5 0.530670 0.215926 0.684137
Si Si6 0.773335 0.297667 0.764648
Si Si7 0.318523 0.613054 0.341305
Si Si8 0.301428 0.109285 0.152025
O O1 0.199837 0.500000 0.005360
O O2 0.324006 0.637734 0.996462
O O3 0.116290 0.652435 0.090771
O O4 0.208875 0.645259 0.923208
O O5 0.551665 0.835008 0.750070
O O6 0.574330 0.891018 0.872961
O O7 0.480855 0.000000 0.820213
O O8 0.624922 0.500000 0.940207
O O9 0.700094 0.658884 0.857482
O O10 0.500000 0.650157 0.000000
O O11 0.500000 0.856750 0.500000
O O12 0.413359 0.829805 0.406873
O O13 0.285640 0.876443 0.564609
O O14 0.425355 0.000000 0.460701
O O15 0.402361 0.193734 0.724048
O O16 0.578906 0.322938 0.675293
O O17 0.727826 0.347196 0.713542
O O18 0.756415 0.183370 0.773314
O O19 0.345297 0.500000 0.324414
O O20 0.260571 0.000000 0.173077
#
# Coordination Sequence:
#
# PCOD9187823 Si02
#       8
#     8   8   8   8   8   8   8   8
#     4   9  18  35  58  84 118 162 211 269 329 381
#     4  10  19  35  61  92 120 154 211 271 324 380
#     4  10  22  38  57  88 128 172 222 276 331 389
#     4  10  21  40  71 105 136 170 213 269 329 391
#     4  12  23  40  68 101 130 171 218 272 325 393
#     4  12  24  40  65  93 126 173 226 271 327 391
#     4  11  25  45  67  99 139 176 214 267 333 399
#     4  10  22  39  58  85 123 163 210 270 331 385
#
# _framework density 19.623370999999999
#
# number of rings (size 3 to 8) (size 9 to 14) (size 15 to 20)
#    0.000    1.500    3.750    1.500    0.000    5.500 
#    0.000    1.250    0.000    0.375    0.000    0.000 
#    0.000    0.000    0.000    0.000    0.000    0.000 
#
# Total GULP energy -178625.232154 kJ/mol
# GULP energy per Si atom -5582.038505 kJ/mol
# Density = 1.957871 g / cm^3
# Si number density = 19.623371 Si / 1000 Ang^3
#
#
#
# Elastic Constant Matrix: (Units=GPa)
#
#
# Indices 1 2 3 4 5 6 
#
# 1 90.2008 28.3632 55.5151 0.0000 14.9456 0.0000
# 2 28.3632 106.2984 61.6919 0.0000 8.2048 0.0000
# 3 55.5151 61.6919 100.1041 0.0000 13.6290 0.0000
# 4 0.0000 0.0000 0.0000 29.0743 0.0000 2.5541
# 5 14.9456 8.2048 13.6290 0.0000 25.9215 0.0000
# 6 0.0000 0.0000 0.0000 2.5541 0.0000 24.0003
#
#
#
# Elastic Compliance Matrix: (Units=1/GPa)
#
#
# Indices 1 2 3 4 5 6 
#
# 1 0.017651 0.001497 -0.009975 0.000000 -0.005406 0.000000
# 2 0.001497 0.014773 -0.009888 0.000000 -0.000340 0.000000
# 3 -0.009975 -0.009888 0.021979 0.000000 -0.002675 0.000000
# 4 0.000000 0.000000 0.000000 0.034719 0.000000 -0.003695
# 5 -0.005406 -0.000340 -0.002675 0.000000 0.043209 0.000000
# 6 0.000000 0.000000 0.000000 -0.003695 0.000000 0.042059
#
#
# Mechanical properties :
#
#
# Convention : Reuss Voigt Hill
#
# Bulk Modulus (GPa) = 56.59110 65.30484 60.94797
# Shear Modulus (GPa) = 23.04002 25.86810 24.45406
#
# Velocity S-wave (km/s) = 3.43025 3.63468 3.53394
# Velocity P-wave (km/s) = 6.67758 7.13904 6.91216
#
# Compressibility (1/GPa) = 0.01767062
#
# Stress axis : x y z
#
# Youngs Moduli (GPa) = 56.65500 67.69093 45.49701
#
# Poissons Ratio (x) = -0.10132 0.45383
# Poissons Ratio (y) = -0.08480 0.44988
# Poissons Ratio (z) = 0.56513 0.66933
#
# Static dielectric constant tensor:
#      x y z
#    x 1.730000 0.000000 -0.011410 
#    y 0.000000 1.724960 0.000000 
#    z -0.011410 0.000000 1.664050 
# 
# From -- ./inp_files/270279.got.cif
#   From: 2010.05.17/outbox.cif.g08.bks.cpg/sg12_136_cif.got.tgz:270279.got - 2010.06.03 13:09:07.
