data_PCOD9187518
_publ_section_title
;
Structure prediction by ZEFSAII (Michael W. Deem and Ramdas Pophale) SiO2 
 PCOD9187518
Probable space group: C 2/M
;
_chemical_formula_sum "Si O2"
_cell_formula_units_Z 56
_cell_length_a 18.308606
_cell_length_b 15.452373
_cell_length_c 9.605615
_cell_angle_alpha 90.000000
_cell_angle_beta 111.146558
_cell_angle_gamma 90.000000
_cell_volume 2534.540954
_symmetry_space_group_name_H-M "C 2/M"
_symmetry_group_IT_number 12
_symmetry_cell_setting 'monoclinic'
loop_
_space_group_symop_operation_xyz
x,y,z
-x,y,-z
-x,-y,-z
x,-y,z
1/2+x,1/2+y,z
1/2-x,1/2+y,-z
1/2-x,1/2-y,-z
1/2+x,1/2-y,z
loop_
_atom_site_type_symbol
_atom_site_label
_atom_site_fract_x
_atom_site_fract_y
_atom_site_fract_z
Si Si1 0.381518 0.605310 0.575148
Si Si2 0.267051 0.894430 0.341609
Si Si3 0.036815 0.337896 0.885937
Si Si4 0.163923 0.901312 0.759005
Si Si5 0.065972 0.601150 0.426859
Si Si6 0.027588 0.861087 0.869706
Si Si7 0.210536 0.396436 0.952065
O O1 0.389426 0.500000 0.580407
O O2 0.304153 0.630019 0.608151
O O3 0.371610 0.636149 0.408371
O O4 0.455974 0.637929 0.711845
O O5 0.350850 0.866893 0.460215
O O6 0.259385 0.864275 0.177067
O O7 0.268660 0.000000 0.338944
O O8 0.053607 0.236816 0.918323
O O9 0.118144 0.380857 0.898635
O O10 0.970220 0.347728 0.725103
O O11 0.000000 0.376273 0.000000
O O12 0.099336 0.903246 0.836433
O O13 0.184994 0.000000 0.734057
O O14 0.240384 0.860219 0.883472
O O15 0.074997 0.500000 0.392904
O O16 0.000000 0.604736 0.500000
O O17 0.000000 0.898614 0.000000
O O18 0.223272 0.500000 0.961997
#
# Coordination Sequence:
#
# PCOD9187518 Si02
#       7
#     8   8   8   8   8   8   8
#     4  10  21  39  64  93 119 146 191 249 300 351
#     4   9  18  34  59  90 119 148 189 241 293 348
#     4  11  25  39  57  84 122 161 203 242 287 347
#     4  10  22  39  64  93 118 147 192 247 301 353
#     4  10  19  35  59  87 119 156 200 246 291 344
#     4  11  24  42  60  82 120 161 200 240 291 353
#     4  10  20  38  62  90 120 154 195 241 293 347
#
# _framework density 22.094730999999999
#
# number of rings (size 3 to 8) (size 9 to 14) (size 15 to 20)
#    0.000    1.857    1.429    2.143    2.000    6.286 
#    0.000    0.714    0.000    0.000    0.000    0.000 
#    0.000    0.000    0.000    0.000    0.000    0.000 
#
# Total GULP energy -156420.962278 kJ/mol
# GULP energy per Si atom -5586.462938 kJ/mol
# Density = 2.204444 g / cm^3
# Si number density = 22.094731 Si / 1000 Ang^3
#
#
#
# Elastic Constant Matrix: (Units=GPa)
#
#
# Indices 1 2 3 4 5 6 
#
# 1 61.9645 -3.2780 22.6516 0.0000 8.8840 0.0000
# 2 -3.2780 22.9156 3.1396 0.0000 -4.9155 0.0000
# 3 22.6516 3.1396 138.3295 0.0000 3.0293 0.0000
# 4 0.0000 0.0000 0.0000 35.9428 0.0000 38.7588
# 5 8.8840 -4.9155 3.0293 0.0000 44.4198 0.0000
# 6 0.0000 0.0000 0.0000 38.7588 0.0000 95.5930
#
#
#
# Elastic Compliance Matrix: (Units=1/GPa)
#
#
# Indices 1 2 3 4 5 6 
#
# 1 0.017761 0.002271 -0.002892 0.000000 -0.003104 0.000000
# 2 0.002271 0.045165 -0.001499 0.000000 0.004646 0.000000
# 3 -0.002892 -0.001499 0.007739 0.000000 -0.000115 0.000000
# 4 0.000000 0.000000 0.000000 0.049437 0.000000 -0.020045
# 5 -0.003104 0.004646 -0.000115 0.000000 0.023655 0.000000
# 6 0.000000 0.000000 0.000000 -0.020045 0.000000 0.018588
#
#
# Mechanical properties :
#
#
# Convention : Reuss Voigt Hill
#
# Bulk Modulus (GPa) = 15.05438 29.80399 22.42919
# Shear Modulus (GPa) = 26.49336 48.57087 37.53212
#
# Velocity S-wave (km/s) = 3.46653 4.69369 4.12599
# Velocity P-wave (km/s) = 4.78025 6.54926 5.73339
#
# Compressibility (1/GPa) = 0.06642585
#
# Stress axis : x y z
#
# Youngs Moduli (GPa) = 56.30463 22.14094 129.21223
#
# Poissons Ratio (x) = -0.05028 0.37367
# Poissons Ratio (y) = -0.12787 0.19366
# Poissons Ratio (z) = 0.16283 0.03318
#
# Static dielectric constant tensor:
#      x y z
#    x 1.761260 0.000000 -0.019320 
#    y 0.000000 1.814230 0.000000 
#    z -0.019320 0.000000 1.778600 
# 
# From -- ./inp_files/75971.got.cif
#   From: 2010.05.17/outbox.cif.g08.bks.cpg/sg12_38_cif.got.tgz:75971.got - 2010.06.03 13:09:07.
