data_PCOD9187908
_publ_section_title
;
Structure prediction by ZEFSAII (Michael W. Deem and Ramdas Pophale) SiO2 
 PCOD9187908
Probable space group: C 2/M
;
_chemical_formula_sum "Si O2"
_cell_formula_units_Z 58
_cell_length_a 30.161694
_cell_length_b 7.503285
_cell_length_c 21.511483
_cell_angle_alpha 90.000000
_cell_angle_beta 146.497975
_cell_angle_gamma 90.000000
_cell_volume 2687.139484
_symmetry_space_group_name_H-M "C 2/M"
_symmetry_group_IT_number 12
_symmetry_cell_setting 'monoclinic'
loop_
_space_group_symop_operation_xyz
x,y,z
-x,y,-z
-x,-y,-z
x,-y,z
1/2+x,1/2+y,z
1/2-x,1/2+y,-z
1/2-x,1/2-y,-z
1/2+x,1/2-y,z
loop_
_atom_site_type_symbol
_atom_site_label
_atom_site_fract_x
_atom_site_fract_y
_atom_site_fract_z
Si Si1 0.680488 0.295278 0.076968
Si Si2 0.692952 0.711992 0.874503
Si Si3 0.987153 0.216586 0.310218
Si Si4 0.051217 0.794309 0.117486
Si Si5 0.285467 0.801248 0.747927
Si Si6 0.500000 0.000000 0.500000
Si Si7 0.987818 0.216636 0.173690
Si Si8 0.895414 0.216803 0.438736
O O1 0.665951 0.500000 0.077326
O O2 0.761545 0.281708 0.132745
O O3 0.684050 0.193766 0.145460
O O4 0.605908 0.238854 0.947037
O O5 0.687470 0.500000 0.861046
O O6 0.603078 0.780158 0.780544
O O7 0.750000 0.750000 0.000000
O O8 0.047124 0.262130 0.435645
O O9 0.012345 0.278978 0.270877
O O10 0.984591 0.000000 0.305585
O O11 0.144732 0.790165 0.209588
O O12 0.032960 0.718685 0.164503
O O13 0.024437 0.000000 0.090037
O O14 0.000000 0.714411 0.000000
O O15 0.195154 0.731062 0.648498
O O16 0.278349 0.000000 0.713885
O O17 0.430728 0.840673 0.426225
O O18 0.994557 0.000000 0.183634
O O19 0.897544 0.000000 0.428800
#
# Coordination Sequence:
#
# PCOD9187908 Si02
#       8
#     8   8   8   8   8   2   8   8
#     4  11  21  35  57  85 119 154 202 252 305 371
#     4  11  21  34  54  84 118 158 196 241 303 367
#     4   9  19  39  61  80 121 167 205 251 307 374
#     4  10  19  35  62  92 121 158 208 261 313 373
#     4  11  24  40  59  87 128 162 199 259 322 375
#     4  12  26  44  72  94 122 168 220 260 308 368
#     4   9  17  34  59  88 115 159 205 249 312 371
#     4  10  25  45  65  94 129 169 214 262 311 372
#
# _framework density 21.584291
#
# number of rings (size 3 to 8) (size 9 to 14) (size 15 to 20)
#    0.000    1.793    2.759    1.448    3.862    0.276 
#    1.241    0.690    1.517    0.000    0.000    0.000 
#    0.000    0.000    0.000    0.000    0.000    0.000 
#
# Total GULP energy -161698.343152 kJ/mol
# GULP energy per Si atom -5575.804936 kJ/mol
# Density = 2.153516 g / cm^3
# Si number density = 21.584291 Si / 1000 Ang^3
#
#
#
# Elastic Constant Matrix: (Units=GPa)
#
#
# Indices 1 2 3 4 5 6 
#
# 1 106.9549 8.5803 8.4966 0.0000 18.9666 0.0000
# 2 8.5803 73.8477 9.6622 0.0000 8.7785 0.0000
# 3 8.4966 9.6622 64.5691 0.0000 14.0149 0.0000
# 4 0.0000 0.0000 0.0000 14.9095 0.0000 9.6926
# 5 18.9666 8.7785 14.0149 0.0000 34.6458 0.0000
# 6 0.0000 0.0000 0.0000 9.6926 0.0000 13.5168
#
#
#
# Elastic Compliance Matrix: (Units=1/GPa)
#
#
# Indices 1 2 3 4 5 6 
#
# 1 0.010377 -0.000539 -0.000089 0.000000 -0.005508 0.000000
# 2 -0.000539 0.014115 -0.001457 0.000000 -0.002692 0.000000
# 3 -0.000089 -0.001457 0.017130 0.000000 -0.006512 0.000000
# 4 0.000000 0.000000 0.000000 0.125641 0.000000 -0.090094
# 5 -0.005508 -0.002692 -0.006512 0.000000 0.035195 0.000000
# 6 0.000000 0.000000 0.000000 -0.090094 0.000000 0.138586
#
#
# Mechanical properties :
#
#
# Convention : Reuss Voigt Hill
#
# Bulk Modulus (GPa) = 26.70153 33.20555 29.95354
# Shear Modulus (GPa) = 13.97824 27.18991 20.58407
#
# Velocity S-wave (km/s) = 2.54758 3.55309 3.09149
# Velocity P-wave (km/s) = 4.58816 5.67892 5.16243
#
# Compressibility (1/GPa) = 0.03745104
#
# Stress axis : x y z
#
# Youngs Moduli (GPa) = 96.36850 70.84837 58.37575
#
# Poissons Ratio (x) = 0.03820 0.00521
# Poissons Ratio (y) = 0.05197 0.08505
# Poissons Ratio (z) = 0.00860 0.10322
#
# Static dielectric constant tensor:
#      x y z
#    x 1.792440 0.000000 -0.012200 
#    y 0.000000 2.010660 0.000000 
#    z -0.012200 0.000000 1.770210 
# 
# From -- ./inp_files/353065.got.cif
#   From: 2010.05.17/outbox.cif.g08.bks.cpg/sg12_177_cif.got.tgz:353065.got - 2010.06.03 13:09:07.
