data_PCOD9187229
_publ_section_title
;
Structure prediction by ZEFSAII (Michael W. Deem and Ramdas Pophale) SiO2 
 PCOD9187229
Probable space group: C 2/M
;
_chemical_formula_sum "Si O2"
_cell_formula_units_Z 52
_cell_length_a 13.419606
_cell_length_b 18.946545
_cell_length_c 14.219101
_cell_angle_alpha 90.000000
_cell_angle_beta 146.574671
_cell_angle_gamma 90.000000
_cell_volume 1991.476048
_symmetry_space_group_name_H-M "C 2/M"
_symmetry_group_IT_number 12
_symmetry_cell_setting 'monoclinic'
loop_
_space_group_symop_operation_xyz
x,y,z
-x,y,-z
-x,-y,-z
x,-y,z
1/2+x,1/2+y,z
1/2-x,1/2+y,-z
1/2-x,1/2-y,-z
1/2+x,1/2-y,z
loop_
_atom_site_type_symbol
_atom_site_label
_atom_site_fract_x
_atom_site_fract_y
_atom_site_fract_z
Si Si1 0.056762 0.781813 0.693030
Si Si2 0.432966 0.887356 0.295253
Si Si3 0.161375 0.100519 0.421637
Si Si4 0.360053 0.500000 0.235177
Si Si5 0.631227 0.618064 0.193349
Si Si6 0.674219 0.125527 0.985853
Si Si7 0.365864 0.217924 0.804508
O O1 0.048566 0.697848 0.684690
O O2 0.170868 0.802656 0.690344
O O3 0.868467 0.819958 0.564300
O O4 0.186425 0.811468 0.879063
O O5 0.630039 0.917233 0.428556
O O6 0.322859 0.907376 0.301830
O O7 0.309350 0.901960 0.107018
O O8 0.083364 0.083902 0.254993
O O9 0.022748 0.059279 0.377940
O O10 0.216111 0.563091 0.091276
O O11 0.647672 0.700780 0.236600
O O12 0.500000 0.612258 0.000000
O O13 0.473456 0.159523 0.831306
O O14 0.500000 0.222996 0.000000
#
# Coordination Sequence:
#
# PCOD9187229 Si02
#       7
#     8   8   8   4   8   8   8
#     4   9  18  34  58  89 115 143 179 227 292 348
#     4  11  21  34  59  87 112 144 182 235 297 340
#     4  11  22  38  53  81 119 151 185 233 281 333
#     4  10  24  40  57  76 110 158 204 228 262 330
#     4  10  19  35  58  84 112 143 182 233 286 341
#     4  10  19  37  57  82 113 150 191 232 269 330
#     4   8  16  31  57  87 110 137 182 231 278 331
#
# _framework density 26.111286
#
# number of rings (size 3 to 8) (size 9 to 14) (size 15 to 20)
#    0.000    2.154    0.000    5.077    0.000    0.615 
#    0.000   16.923    0.000    0.000    0.000   18.308 
#    0.000    0.000    0.000    0.000    0.000    0.000 
#
# Total GULP energy -144760.023130 kJ/mol
# GULP energy per Si atom -5567.693197 kJ/mol
# Density = 2.605186 g / cm^3
# Si number density = 26.111286 Si / 1000 Ang^3
#
#
#
# Elastic Constant Matrix: (Units=GPa)
#
#
# Indices 1 2 3 4 5 6 
#
# 1 71.0701 -2.6762 9.0735 0.0000 22.5310 0.0000
# 2 -2.6762 90.4421 5.3008 0.0000 10.8021 0.0000
# 3 9.0735 5.3008 122.6107 0.0000 30.0717 0.0000
# 4 0.0000 0.0000 0.0000 2.3565 0.0000 -11.5106
# 5 22.5310 10.8021 30.0717 0.0000 39.3700 0.0000
# 6 0.0000 0.0000 0.0000 -11.5106 0.0000 4.3423
#
#
#
# Elastic Compliance Matrix: (Units=1/GPa)
#
#
# Indices 1 2 3 4 5 6 
#
# 1 0.017679 0.001841 0.001498 0.000000 -0.011767 0.000000
# 2 0.001841 0.011634 0.000495 0.000000 -0.004624 0.000000
# 3 0.001498 0.000495 0.010173 0.000000 -0.008763 0.000000
# 4 0.000000 0.000000 0.000000 -0.035516 0.000000 -0.094147
# 5 -0.011767 -0.004624 -0.008763 0.000000 0.040096 0.000000
# 6 0.000000 0.000000 0.000000 -0.094147 0.000000 -0.019274
#
#
# Mechanical properties :
#
#
# Convention : Reuss Voigt Hill
#
# Bulk Modulus (GPa) = 21.20730 34.16880 27.68805
# Shear Modulus (GPa) = 152.23987 27.37542 89.80764
#
# Velocity S-wave (km/s) = 7.64400 3.24143 5.87102
# Velocity P-wave (km/s) = 9.27617 5.20802 7.52232
#
# Compressibility (1/GPa) = 0.04715357
#
# Stress axis : x y z
#
# Youngs Moduli (GPa) = 56.56416 85.95145 98.29964
#
# Poissons Ratio (x) = -0.15821 -0.14726
# Poissons Ratio (y) = -0.10412 -0.04864
# Poissons Ratio (z) = -0.08474 -0.04253
#
# Static dielectric constant tensor:
#      x y z
#    x 2.125560 0.000000 -0.001790 
#    y 0.000000 2.191370 0.000000 
#    z -0.001790 0.000000 2.123960 
# 
# From -- ./inp_files/272227.got.cif
#   From: 2010.05.17/outbox.cif.g08.bks.cpg/sg12_137_cif.got.tgz:272227.got - 2010.06.03 13:09:07.
