data_PCOD9187284
_publ_section_title
;
Structure prediction by ZEFSAII (Michael W. Deem and Ramdas Pophale) SiO2 
 PCOD9187284
Probable space group: C 2/M
;
_chemical_formula_sum "Si O2"
_cell_formula_units_Z 50
_cell_length_a 28.860600
_cell_length_b 9.836430
_cell_length_c 12.406672
_cell_angle_alpha 90.000000
_cell_angle_beta 125.313047
_cell_angle_gamma 90.000000
_cell_volume 2874.031377
_symmetry_space_group_name_H-M "C 2/M"
_symmetry_group_IT_number 12
_symmetry_cell_setting 'monoclinic'
loop_
_space_group_symop_operation_xyz
x,y,z
-x,y,-z
-x,-y,-z
x,-y,z
1/2+x,1/2+y,z
1/2-x,1/2+y,-z
1/2-x,1/2-y,-z
1/2+x,1/2-y,z
loop_
_atom_site_type_symbol
_atom_site_label
_atom_site_fract_x
_atom_site_fract_y
_atom_site_fract_z
Si Si1 0.947905 0.228324 0.368088
Si Si2 0.125184 0.660359 0.138677
Si Si3 0.435727 0.659265 0.762551
Si Si4 0.251456 0.660151 0.394629
Si Si5 0.500000 0.000000 0.500000
Si Si6 0.931469 0.153285 0.103436
Si Si7 0.870168 0.838065 0.452198
O O1 0.932323 0.165580 0.233524
O O2 0.896334 0.232569 0.383076
O O3 0.000000 0.153728 0.500000
O O4 0.972672 0.379256 0.387464
O O5 0.111386 0.500000 0.120230
O O6 0.091728 0.741062 0.187524
O O7 0.192061 0.674616 0.253136
O O8 0.107158 0.734594 0.004917
O O9 0.422605 0.500000 0.768978
O O10 0.503498 0.672802 0.848060
O O11 0.409102 0.689828 0.609314
O O12 0.258613 0.500000 0.432481
O O13 0.250000 0.750000 0.500000
O O14 0.306063 0.699775 0.397101
O O15 0.914038 0.000000 0.049028
O O16 0.872029 0.000000 0.435035
#
# Coordination Sequence:
#
# PCOD9187284 Si02
#       7
#     8   8   8   8   2   8   8
#     4  10  20  37  58  86 117 150 187 230 289 343
#     4  11  24  38  55  83 119 156 191 233 292 344
#     4  10  19  35  58  86 114 148 187 236 287 341
#     4  10  21  39  59  85 112 152 194 240 287 337
#     4   8  20  36  54  84 126 152 178 232 294 340
#     4  11  23  37  59  85 117 153 194 236 280 345
#     4  10  19  35  62  86 114 145 191 246 283 335
#
# _framework density 17.397165999999999
#
# number of rings (size 3 to 8) (size 9 to 14) (size 15 to 20)
#    0.480    1.280    3.200    1.440    1.120    3.840 
#    5.760    0.800    0.000    0.000    0.000    0.000 
#    0.000    0.000    0.000    0.000    0.000    0.000 
#
# Total GULP energy -139201.662210 kJ/mol
# GULP energy per Si atom -5568.066488 kJ/mol
# Density = 1.735757 g / cm^3
# Si number density = 17.397166 Si / 1000 Ang^3
#
#
#
# Elastic Constant Matrix: (Units=GPa)
#
#
# Indices 1 2 3 4 5 6 
#
# 1 88.5403 32.2647 33.0199 0.0000 1.6017 0.0000
# 2 32.2647 85.6325 45.1889 0.0000 9.5726 0.0000
# 3 33.0199 45.1889 87.9507 0.0000 1.4071 0.0000
# 4 0.0000 0.0000 0.0000 25.0554 0.0000 2.6077
# 5 1.6017 9.5726 1.4071 0.0000 20.0993 0.0000
# 6 0.0000 0.0000 0.0000 2.6077 0.0000 8.9793
#
#
#
# Elastic Compliance Matrix: (Units=1/GPa)
#
#
# Indices 1 2 3 4 5 6 
#
# 1 0.013826 -0.003503 -0.003404 0.000000 0.000805 0.000000
# 2 -0.003503 0.017978 -0.007798 0.000000 -0.007737 0.000000
# 3 -0.003404 -0.007798 0.016609 0.000000 0.002822 0.000000
# 4 0.000000 0.000000 0.000000 0.041155 0.000000 -0.011952
# 5 0.000805 -0.007737 0.002822 0.000000 0.053176 0.000000
# 6 0.000000 0.000000 0.000000 -0.011952 0.000000 0.114838
#
#
# Mechanical properties :
#
#
# Convention : Reuss Voigt Hill
#
# Bulk Modulus (GPa) = 52.62260 53.67449 53.14855
# Shear Modulus (GPa) = 17.04590 20.93681 18.99135
#
# Velocity S-wave (km/s) = 3.13359 3.47286 3.30757
# Velocity P-wave (km/s) = 6.58832 6.85568 6.72333
#
# Compressibility (1/GPa) = 0.01900324
#
# Stress axis : x y z
#
# Youngs Moduli (GPa) = 72.32949 55.62478 60.20736
#
# Poissons Ratio (x) = 0.19486 0.20493
# Poissons Ratio (y) = 0.25338 0.46949
# Poissons Ratio (z) = 0.24618 0.43376
#
# Static dielectric constant tensor:
#      x y z
#    x 1.594530 0.000000 0.004080 
#    y 0.000000 1.573030 0.000000 
#    z 0.004080 0.000000 1.598790 
# 
# From -- ./inp_files/186897.got.cif
#   From: 2010.05.17/outbox.cif.g08.bks.cpg/sg12_94_cif.got.tgz:186897.got - 2010.06.03 13:09:07.
