data_PCOD9187252
_publ_section_title
;
Structure prediction by ZEFSAII (Michael W. Deem and Ramdas Pophale) SiO2 
 PCOD9187252
Probable space group: C 2/M
;
_chemical_formula_sum "Si O2"
_cell_formula_units_Z 48
_cell_length_a 26.402105
_cell_length_b 9.090591
_cell_length_c 26.076078
_cell_angle_alpha 90.000000
_cell_angle_beta 157.293195
_cell_angle_gamma 90.000000
_cell_volume 2415.893639
_symmetry_space_group_name_H-M "C 2/M"
_symmetry_group_IT_number 12
_symmetry_cell_setting 'monoclinic'
loop_
_space_group_symop_operation_xyz
x,y,z
-x,y,-z
-x,-y,-z
x,-y,z
1/2+x,1/2+y,z
1/2-x,1/2+y,-z
1/2-x,1/2-y,-z
1/2+x,1/2-y,z
loop_
_atom_site_type_symbol
_atom_site_label
_atom_site_fract_x
_atom_site_fract_y
_atom_site_fract_z
Si Si1 0.129596 0.823848 0.915945
Si Si2 0.564975 0.669369 0.652249
Si Si3 0.339100 0.675954 0.625973
Si Si4 0.810795 0.825404 0.915073
Si Si5 0.803712 0.330181 0.807143
Si Si6 0.258471 0.678402 0.361491
O O1 0.158321 0.728462 0.774110
O O2 0.147153 0.000000 0.932210
O O3 0.250000 0.750000 0.000000
O O4 0.124594 0.777954 0.971254
O O5 0.570676 0.500000 0.676352
O O6 0.492240 0.709872 0.760694
O O7 0.647599 0.671960 0.676324
O O8 0.414513 0.711555 0.506394
O O9 0.322747 0.500000 0.610571
O O10 0.250000 0.750000 0.500000
O O11 0.300733 0.742366 0.644946
O O12 0.864799 0.753169 0.912931
O O13 0.817602 0.000000 0.916701
O O14 0.844929 0.500000 0.846863
O O15 0.810274 0.272786 0.755706
O O16 0.246140 0.500000 0.353219
#
# Coordination Sequence:
#
# PCOD9187252 Si02
#       6
#     8   8   8   8   8   8
#     4  10  24  44  65  87 116 155 201 249 299 358
#     4   8  16  30  52  82 117 155 193 235 286 341
#     4  11  26  45  62  87 121 156 197 248 305 359
#     4   9  18  33  54  84 115 145 193 244 288 342
#     4   8  16  31  53  84 119 158 195 237 290 345
#     4  10  19  35  58  84 119 159 198 241 292 351
#
# _framework density 19.868424999999998
#
# number of rings (size 3 to 8) (size 9 to 14) (size 15 to 20)
#    1.000    1.667    0.000    1.000    2.333    6.000 
#    0.000    1.667    0.000    5.000    0.000    0.000 
#    0.000    0.000    0.000    0.000    0.000    0.000 
#
# Total GULP energy -133759.786002 kJ/mol
# GULP energy per Si atom -5573.324417 kJ/mol
# Density = 1.982320 g / cm^3
# Si number density = 19.868425 Si / 1000 Ang^3
#
#
#
# Elastic Constant Matrix: (Units=GPa)
#
#
# Indices 1 2 3 4 5 6 
#
# 1 95.5060 33.4087 64.1007 0.0001 -12.1487 0.0001
# 2 33.4087 38.6896 51.4119 0.0002 -15.2800 0.0001
# 3 64.1007 51.4119 139.2990 0.0003 -16.8326 0.0002
# 4 0.0001 0.0002 0.0003 24.3028 0.0002 -7.5634
# 5 -12.1487 -15.2800 -16.8326 0.0002 26.7690 0.0001
# 6 0.0001 0.0001 0.0002 -7.5634 0.0001 29.2711
#
#
#
# Elastic Compliance Matrix: (Units=1/GPa)
#
#
# Indices 1 2 3 4 5 6 
#
# 1 0.016344 -0.008113 -0.004534 0.000000 -0.000065 0.000000
# 2 -0.008113 0.065038 -0.017564 -0.000001 0.022398 0.000000
# 3 -0.004534 -0.017564 0.015462 0.000000 -0.002361 0.000000
# 4 0.000000 -0.000001 0.000000 0.044746 -0.000001 0.011562
# 5 -0.000065 0.022398 -0.002361 -0.000001 0.048628 0.000000
# 6 0.000000 0.000000 0.000000 0.011562 0.000000 0.037151
#
#
# Mechanical properties :
#
#
# Convention : Reuss Voigt Hill
#
# Bulk Modulus (GPa) = 27.45664 63.48192 45.46928
# Shear Modulus (GPa) = 16.67048 24.37346 20.52197
#
# Velocity S-wave (km/s) = 2.89977 3.50629 3.21735
# Velocity P-wave (km/s) = 5.00607 6.95792 6.06108
#
# Compressibility (1/GPa) = 0.03642106
#
# Stress axis : x y z
#
# Youngs Moduli (GPa) = 61.18612 15.37568 64.67268
#
# Poissons Ratio (x) = 0.12475 0.29324
# Poissons Ratio (y) = 0.49642 1.13591
# Poissons Ratio (z) = 0.27743 0.27006
#
# Static dielectric constant tensor:
#      x y z
#    x 1.720940 0.000000 0.010320 
#    y 0.000000 1.665370 0.000000 
#    z 0.010320 0.000000 1.728450 
# 
# From -- ./inp_files/287130.got.cif
#   From: 2010.05.17/outbox.cif.g08.bks.cpg/sg12_144_cif.got.tgz:287130.got - 2010.06.03 13:09:07.
