data_PCOD9187011
_publ_section_title
;
Structure prediction by ZEFSAII (Michael W. Deem and Ramdas Pophale) SiO2 
 PCOD9187011
Probable space group: C 2/M
;
_chemical_formula_sum "Si O2"
_cell_formula_units_Z 64
_cell_length_a 20.975152
_cell_length_b 8.283036
_cell_length_c 17.299093
_cell_angle_alpha 90.000000
_cell_angle_beta 76.355852
_cell_angle_gamma 90.000000
_cell_volume 2920.691892
_symmetry_space_group_name_H-M "C 2/M"
_symmetry_group_IT_number 12
_symmetry_cell_setting 'monoclinic'
loop_
_space_group_symop_operation_xyz
x,y,z
-x,y,-z
-x,-y,-z
x,-y,z
1/2+x,1/2+y,z
1/2-x,1/2+y,-z
1/2-x,1/2-y,-z
1/2+x,1/2-y,z
loop_
_atom_site_type_symbol
_atom_site_label
_atom_site_fract_x
_atom_site_fract_y
_atom_site_fract_z
Si Si1 0.398310 0.805111 0.647263
Si Si2 0.323237 0.308895 0.991431
Si Si3 0.754193 0.695983 0.685664
Si Si4 0.052348 0.313525 0.756833
Si Si5 0.596173 0.186660 0.175917
Si Si6 0.541009 0.313301 0.589530
Si Si7 0.182296 0.804874 0.557415
Si Si8 0.337381 0.695428 0.158852
O O1 0.326614 0.747113 0.639554
O O2 0.396650 0.751804 0.738164
O O3 0.468247 0.752873 0.591471
O O4 0.399612 0.000000 0.644846
O O5 0.323079 0.500000 0.998478
O O6 0.344852 0.244201 0.069417
O O7 0.250000 0.250000 0.000000
O O8 0.365652 0.265095 0.904959
O O9 0.756913 0.500000 0.682750
O O10 0.697306 0.744885 0.641967
O O11 0.730732 0.742243 0.778330
O O12 0.061914 0.500000 0.729136
O O13 0.048068 0.207135 0.680596
O O14 0.105570 0.259082 0.802752
O O15 0.981250 0.305157 0.816788
O O16 0.617662 0.000000 0.172869
O O17 0.540360 0.500000 0.568090
O O18 0.612489 0.241389 0.544687
O O19 0.250000 0.750000 0.500000
O O20 0.178827 0.000000 0.555369
O O21 0.339657 0.500000 0.158909
#
# Coordination Sequence:
#
# PCOD9187011 Si02
#       8
#     8   8   8   8   8   8   8   8
#     4   9  18  34  59  84 108 146 192 232 270 321
#     4  11  23  36  53  75 104 144 185 230 282 331
#     4   9  17  35  59  81 107 142 185 228 274 326
#     4  10  20  34  55  82 107 140 183 228 274 321
#     4   9  19  35  52  75 110 144 179 226 276 324
#     4  10  19  35  57  82 115 149 181 221 276 332
#     4  10  21  37  59  84 111 147 181 222 275 329
#     4  10  20  36  56  77 105 142 184 230 277 326
#
# _framework density 21.912617999999998
#
# number of rings (size 3 to 8) (size 9 to 14) (size 15 to 20)
#    0.000    2.250    1.250    2.625    0.000    7.000 
#    0.000    4.375    0.000    3.750    0.000    0.000 
#    0.000    0.000    0.000    0.000    0.000    0.000 
#
# Total GULP energy -178511.300491 kJ/mol
# GULP energy per Si atom -5578.478140 kJ/mol
# Density = 2.186274 g / cm^3
# Si number density = 21.912618 Si / 1000 Ang^3
#
#
#
# Elastic Constant Matrix: (Units=GPa)
#
#
# Indices 1 2 3 4 5 6 
#
# 1 133.5832 15.3438 17.1331 0.0000 -18.0047 0.0000
# 2 15.3438 12.4682 12.7631 0.0000 -8.3040 0.0000
# 3 17.1331 12.7631 82.3100 0.0000 -13.8527 0.0000
# 4 0.0000 0.0000 0.0000 25.0125 0.0000 -10.2762
# 5 -18.0047 -8.3040 -13.8527 0.0000 30.3973 0.0000
# 6 0.0000 0.0000 0.0000 -10.2762 0.0000 26.0748
#
#
#
# Elastic Compliance Matrix: (Units=1/GPa)
#
#
# Indices 1 2 3 4 5 6 
#
# 1 0.008908 -0.009133 0.000033 0.000000 0.002796 0.000000
# 2 -0.009133 0.118787 -0.012961 0.000000 0.021134 0.000000
# 3 0.000033 -0.012961 0.014686 0.000000 0.003171 0.000000
# 4 0.000000 0.000000 0.000000 0.047704 0.000000 0.018800
# 5 0.002796 0.021134 0.003171 0.000000 0.041772 0.000000
# 6 0.000000 0.000000 0.000000 0.018800 0.000000 0.045760
#
#
# Mechanical properties :
#
#
# Convention : Reuss Voigt Hill
#
# Bulk Modulus (GPa) = 10.17745 35.42680 22.80213
# Shear Modulus (GPa) = 14.10464 28.50501 21.30483
#
# Velocity S-wave (km/s) = 2.53983 3.61064 3.12150
# Velocity P-wave (km/s) = 3.64083 5.79523 4.83944
#
# Compressibility (1/GPa) = 0.09825643
#
# Stress axis : x y z
#
# Youngs Moduli (GPa) = 112.26212 8.41844 68.09253
#
# Poissons Ratio (x) = 0.07689 -0.00222
# Poissons Ratio (y) = 1.02533 0.88257
# Poissons Ratio (z) = -0.00366 0.10911
#
# Static dielectric constant tensor:
#      x y z
#    x 1.831310 0.000000 0.001580 
#    y 0.000000 1.782330 0.000000 
#    z 0.001580 0.000000 1.858880 
# 
# From -- ./inp_files/319834.got.cif
#   From: 2010.05.17/outbox.cif.g08.bks.cpg/sg12_160_cif.got.tgz:319834.got - 2010.06.03 13:09:07.
