data_PCOD9187170
_publ_section_title
;
Structure prediction by ZEFSAII (Michael W. Deem and Ramdas Pophale) SiO2 
 PCOD9187170
Probable space group: C 2/M
;
_chemical_formula_sum "Si O2"
_cell_formula_units_Z 48
_cell_length_a 11.918553
_cell_length_b 14.474363
_cell_length_c 21.396262
_cell_angle_alpha 90.000000
_cell_angle_beta 40.353300
_cell_angle_gamma 90.000000
_cell_volume 2390.011484
_symmetry_space_group_name_H-M "C 2/M"
_symmetry_group_IT_number 12
_symmetry_cell_setting 'monoclinic'
loop_
_space_group_symop_operation_xyz
x,y,z
-x,y,-z
-x,-y,-z
x,-y,z
1/2+x,1/2+y,z
1/2-x,1/2+y,-z
1/2-x,1/2-y,-z
1/2+x,1/2-y,z
loop_
_atom_site_type_symbol
_atom_site_label
_atom_site_fract_x
_atom_site_fract_y
_atom_site_fract_z
Si Si1 0.558344 0.895228 0.660011
Si Si2 0.795612 0.298521 0.074458
Si Si3 0.843481 0.101944 0.200325
Si Si4 0.306591 0.395492 0.008452
Si Si5 0.337531 0.110681 0.525662
Si Si6 0.446678 0.290343 0.276327
O O1 0.350569 0.894373 0.740725
O O2 0.630300 0.869135 0.560820
O O3 0.597712 0.816143 0.692502
O O4 0.612555 0.000000 0.652267
O O5 0.751598 0.193886 0.070527
O O6 0.652894 0.312412 0.189219
O O7 0.755333 0.370783 0.035752
O O8 0.000000 0.304258 0.000000
O O9 0.882618 0.177722 0.235436
O O10 0.868428 0.000000 0.219517
O O11 0.984133 0.107855 0.085823
O O12 0.255248 0.500000 0.048746
O O13 0.500000 0.142116 0.500000
O O14 0.162749 0.153349 0.626641
O O15 0.331340 0.000000 0.533990
#
# Coordination Sequence:
#
# PCOD9187170 Si02
#       6
#     8   8   8   8   8   8
#     4  10  20  33  53  81 110 137 172 216 264 316
#     4  10  21  35  52  80 110 139 179 217 256 313
#     4   9  17  33  56  81 104 136 182 222 255 303
#     4   9  19  35  54  75 107 144 178 218 260 302
#     4  10  19  35  58  82 103 130 176 225 263 308
#     4  11  20  32  56  82 107 138 175 218 266 309
#
# _framework density 20.083586
#
# number of rings (size 3 to 8) (size 9 to 14) (size 15 to 20)
#    0.000    2.167    1.667    2.000    0.000    2.000 
#    0.000    0.000    0.000    2.500    0.000    0.000 
#    0.000    0.000    0.000    0.000    0.000    0.000 
#
# Total GULP energy -133934.115781 kJ/mol
# GULP energy per Si atom -5580.588158 kJ/mol
# Density = 2.003787 g / cm^3
# Si number density = 20.083586 Si / 1000 Ang^3
#
#
#
# Elastic Constant Matrix: (Units=GPa)
#
#
# Indices 1 2 3 4 5 6 
#
# 1 25.2555 30.0319 21.9608 0.0000 -0.3606 0.0000
# 2 30.0319 77.4213 25.1961 0.0000 5.2794 0.0000
# 3 21.9608 25.1961 105.4777 0.0001 -17.7975 0.0000
# 4 0.0000 0.0000 0.0001 28.7843 0.0000 3.9667
# 5 -0.3606 5.2794 -17.7975 0.0000 19.0060 0.0000
# 6 0.0000 0.0000 0.0000 3.9667 0.0000 23.5485
#
#
#
# Elastic Compliance Matrix: (Units=1/GPa)
#
#
# Indices 1 2 3 4 5 6 
#
# 1 0.082788 -0.028711 -0.010413 0.000000 -0.000205 0.000000
# 2 -0.028711 0.025171 -0.001552 0.000000 -0.008990 0.000000
# 3 -0.010413 -0.001552 0.014322 0.000000 0.013645 0.000000
# 4 0.000000 0.000000 0.000000 0.035567 0.000000 -0.005991
# 5 -0.000205 -0.008990 0.013645 0.000000 0.067886 0.000000
# 6 0.000000 0.000000 0.000000 -0.005991 0.000000 0.043475
#
#
# Mechanical properties :
#
#
# Convention : Reuss Voigt Hill
#
# Bulk Modulus (GPa) = 24.43241 40.28134 32.35688
# Shear Modulus (GPa) = 13.72863 22.99881 18.36372
#
# Velocity S-wave (km/s) = 2.61736 3.38768 3.02713
# Velocity P-wave (km/s) = 4.61800 5.94998 5.32579
#
# Compressibility (1/GPa) = 0.04092925
#
# Stress axis : x y z
#
# Youngs Moduli (GPa) = 12.07911 39.72748 69.82385
#
# Poissons Ratio (x) = 1.14061 0.72707
# Poissons Ratio (y) = 0.34680 0.10838
# Poissons Ratio (z) = 0.12578 0.06166
#
# Static dielectric constant tensor:
#      x y z
#    x 1.721510 0.000000 0.012190 
#    y 0.000000 1.733850 0.000000 
#    z 0.012190 0.000000 1.745570 
# 
# From -- ./inp_files/204292.got.cif
#   From: 2010.05.17/outbox.cif.g08.bks.cpg/sg12_103_cif.got.tgz:204292.got - 2010.06.03 13:09:07.
