data_PCOD9187348
_publ_section_title
;
Structure prediction by ZEFSAII (Michael W. Deem and Ramdas Pophale) SiO2 
 PCOD9187348
Probable space group: C 2/M
;
_chemical_formula_sum "Si O2"
_cell_formula_units_Z 56
_cell_length_a 20.610952
_cell_length_b 13.837160
_cell_length_c 16.522763
_cell_angle_alpha 90.000000
_cell_angle_beta 146.304873
_cell_angle_gamma 90.000000
_cell_volume 2614.228394
_symmetry_space_group_name_H-M "C 2/M"
_symmetry_group_IT_number 12
_symmetry_cell_setting 'monoclinic'
loop_
_space_group_symop_operation_xyz
x,y,z
-x,y,-z
-x,-y,-z
x,-y,z
1/2+x,1/2+y,z
1/2-x,1/2+y,-z
1/2-x,1/2-y,-z
1/2+x,1/2-y,z
loop_
_atom_site_type_symbol
_atom_site_label
_atom_site_fract_x
_atom_site_fract_y
_atom_site_fract_z
Si Si1 0.752106 0.386755 0.867760
Si Si2 0.016767 0.103679 0.420438
Si Si3 0.285815 0.389101 0.657605
Si Si4 0.318361 0.884323 0.614358
Si Si5 0.459896 0.814460 0.550253
Si Si6 0.571852 0.116054 0.811792
Si Si7 0.866229 0.706856 0.833566
O O1 0.782529 0.500000 0.879454
O O2 0.615896 0.387322 0.747947
O O3 0.784650 0.320725 0.824991
O O4 0.827592 0.354425 0.022670
O O5 0.000000 0.099058 0.500000
O O6 0.076943 0.204892 0.465265
O O7 0.068122 0.000000 0.447245
O O8 0.325937 0.500000 0.702828
O O9 0.275964 0.355193 0.552901
O O10 0.150775 0.382044 0.547502
O O11 0.355117 0.315583 0.787035
O O12 0.446807 0.851635 0.717429
O O13 0.320746 0.855504 0.710316
O O14 0.317756 0.000000 0.608742
O O15 0.500000 0.817212 0.500000
O O16 0.569413 0.843411 0.719298
O O17 0.573944 0.000000 0.809880
O O18 0.000000 0.686086 0.000000
#
# Coordination Sequence:
#
# PCOD9187348 Si02
#       7
#     8   8   8   8   8   8   8
#     4  10  20  34  53  83 116 140 171 221 278 325
#     4   9  18  33  52  76 109 141 170 215 273 326
#     4  10  23  40  55  77 111 148 185 227 273 317
#     4   9  18  35  56  81 111 140 178 227 271 319
#     4  10  19  35  59  79  99 137 190 228 260 320
#     4   9  18  32  51  79 112 139 171 225 276 308
#     4  12  21  32  58  86 110 144 184 221 266 331
#
# _framework density 21.421233999999998
#
# number of rings (size 3 to 8) (size 9 to 14) (size 15 to 20)
#    0.000    2.143    1.429    3.857    0.000    2.571 
#    0.000    0.714    0.000    4.286    0.000    0.000 
#    0.000    0.000    0.000    0.000    0.000    0.000 
#
# Total GULP energy -156274.583291 kJ/mol
# GULP energy per Si atom -5581.235118 kJ/mol
# Density = 2.137248 g / cm^3
# Si number density = 21.421234 Si / 1000 Ang^3
#
#
#
# Elastic Constant Matrix: (Units=GPa)
#
#
# Indices 1 2 3 4 5 6 
#
# 1 49.6846 4.3780 36.7076 0.0000 -20.7694 0.0000
# 2 4.3780 67.6058 13.3523 0.0000 -16.8194 0.0000
# 3 36.7076 13.3523 126.9952 0.0000 -24.0241 0.0000
# 4 0.0000 0.0000 0.0000 31.0640 0.0000 -4.4045
# 5 -20.7694 -16.8194 -24.0241 0.0000 36.4440 0.0000
# 6 0.0000 0.0000 0.0000 -4.4045 0.0000 20.7178
#
#
#
# Elastic Compliance Matrix: (Units=1/GPa)
#
#
# Indices 1 2 3 4 5 6 
#
# 1 0.030728 0.002917 -0.006422 0.000000 0.014625 0.000000
# 2 0.002917 0.017000 -0.000950 0.000000 0.008882 0.000000
# 3 -0.006422 -0.000950 0.010345 0.000000 0.002721 0.000000
# 4 0.000000 0.000000 0.000000 0.033192 0.000000 0.007056
# 5 0.014625 0.008882 0.002721 0.000000 0.041667 0.000000
# 6 0.000000 0.000000 0.000000 0.007056 0.000000 0.049768
#
#
# Mechanical properties :
#
#
# Convention : Reuss Voigt Hill
#
# Bulk Modulus (GPa) = 20.34070 39.24017 29.79044
# Shear Modulus (GPa) = 24.03867 30.30169 27.17018
#
# Velocity S-wave (km/s) = 3.35354 3.76515 3.56529
# Velocity P-wave (km/s) = 4.95088 6.10409 5.55748
#
# Compressibility (1/GPa) = 0.04916252
#
# Stress axis : x y z
#
# Youngs Moduli (GPa) = 32.54363 58.82331 96.66275
#
# Poissons Ratio (x) = -0.17158 0.62076
# Poissons Ratio (y) = -0.09493 0.09186
# Poissons Ratio (z) = 0.20899 0.05590
#
# Static dielectric constant tensor:
#      x y z
#    x 1.783120 0.000000 -0.013320 
#    y 0.000000 1.815540 0.000000 
#    z -0.013320 0.000000 1.787180 
# 
# From -- ./inp_files/233743.got.cif
#   From: 2010.05.17/outbox.cif.g08.bks.cpg/sg12_117_cif.got.tgz:233743.got - 2010.06.03 13:09:07.
