data_PCOD9187632
_publ_section_title
;
Structure prediction by ZEFSAII (Michael W. Deem and Ramdas Pophale) SiO2 
 PCOD9187632
Probable space group: C 2/M
;
_chemical_formula_sum "Si O2"
_cell_formula_units_Z 64
_cell_length_a 16.707588
_cell_length_b 7.768926
_cell_length_c 22.251369
_cell_angle_alpha 90.000000
_cell_angle_beta 88.507642
_cell_angle_gamma 90.000000
_cell_volume 2887.248361
_symmetry_space_group_name_H-M "C 2/M"
_symmetry_group_IT_number 12
_symmetry_cell_setting 'monoclinic'
loop_
_space_group_symop_operation_xyz
x,y,z
-x,y,-z
-x,-y,-z
x,-y,z
1/2+x,1/2+y,z
1/2-x,1/2+y,-z
1/2-x,1/2-y,-z
1/2+x,1/2-y,z
loop_
_atom_site_type_symbol
_atom_site_label
_atom_site_fract_x
_atom_site_fract_y
_atom_site_fract_z
Si Si1 0.158962 0.301591 0.511397
Si Si2 0.571521 0.209419 0.630833
Si Si3 0.326854 0.710734 0.741170
Si Si4 0.892913 0.802761 0.616379
Si Si5 0.258827 0.705478 0.069483
Si Si6 0.074178 0.197925 0.880724
Si Si7 0.904000 0.205251 0.858362
Si Si8 0.645255 0.207343 0.757400
O O1 0.160712 0.500000 0.526456
O O2 0.250000 0.250000 0.500000
O O3 0.115567 0.222341 0.570038
O O4 0.114996 0.278807 0.448898
O O5 0.484148 0.290026 0.634774
O O6 0.619116 0.249527 0.690434
O O7 0.561849 0.000000 0.628754
O O8 0.330622 0.500000 0.738951
O O9 0.343153 0.772410 0.673178
O O10 0.389002 0.771039 0.790676
O O11 0.237810 0.757333 0.763412
O O12 0.866807 0.000000 0.608729
O O13 0.260157 0.500000 0.077827
O O14 0.344906 0.775073 0.091596
O O15 0.179298 0.769285 0.105073
O O16 0.250000 0.750000 0.000000
O O17 0.092061 0.205482 0.809205
O O18 0.984675 0.274792 0.888462
O O19 0.070583 0.000000 0.902504
O O20 0.916575 0.000000 0.853335
O O21 0.639073 0.000000 0.764895
#
# Coordination Sequence:
#
# PCOD9187632 Si02
#       8
#     8   8   8   8   8   8   8   8
#     4  11  23  40  59  79 110 150 195 247 305 367
#     4  10  22  38  55  80 116 153 192 243 301 358
#     4   9  18  34  58  86 116 154 195 240 295 357
#     4  11  22  37  58  84 115 152 199 247 297 360
#     4  11  24  42  63  91 127 162 202 249 298 354
#     4  10  22  39  61  92 126 158 198 254 307 354
#     4  10  20  39  65  89 120 162 203 243 301 362
#     4  10  19  35  60  86 115 155 199 243 294 357
#
# _framework density 22.166433000000001
#
# number of rings (size 3 to 8) (size 9 to 14) (size 15 to 20)
#    0.000    1.750    1.250    3.000    0.000    7.500 
#    0.000    6.250    0.000    0.000    0.000    0.000 
#    0.000    0.000    0.000    0.000    0.000    0.000 
#
# Total GULP energy -178720.191780 kJ/mol
# GULP energy per Si atom -5585.005993 kJ/mol
# Density = 2.211598 g / cm^3
# Si number density = 22.166433 Si / 1000 Ang^3
#
#
#
# Elastic Constant Matrix: (Units=GPa)
#
#
# Indices 1 2 3 4 5 6 
#
# 1 125.1513 -4.6562 19.8244 0.0000 26.3603 0.0000
# 2 -4.6562 29.1253 -12.0212 0.0000 4.6673 0.0000
# 3 19.8244 -12.0212 78.4797 0.0000 11.3559 0.0000
# 4 0.0000 0.0000 0.0000 21.3499 0.0000 -1.6600
# 5 26.3603 4.6673 11.3559 0.0000 25.2286 0.0000
# 6 0.0000 0.0000 0.0000 -1.6600 0.0000 23.1871
#
#
#
# Elastic Compliance Matrix: (Units=1/GPa)
#
#
# Indices 1 2 3 4 5 6 
#
# 1 0.010611 0.003324 -0.000511 0.000000 -0.011472 0.000000
# 2 0.003324 0.040190 0.007375 0.000000 -0.014228 0.000000
# 3 -0.000511 0.007375 0.015105 0.000000 -0.007629 0.000000
# 4 0.000000 0.000000 0.000000 0.047101 0.000000 0.003372
# 5 -0.011472 -0.014228 -0.007629 0.000000 0.057690 0.000000
# 6 0.000000 0.000000 0.000000 0.003372 0.000000 0.043369
#
#
# Mechanical properties :
#
#
# Convention : Reuss Voigt Hill
#
# Bulk Modulus (GPa) = 11.59003 26.56117 19.07560
# Shear Modulus (GPa) = 22.47685 29.26041 25.86863
#
# Velocity S-wave (km/s) = 3.18780 3.63717 3.41987
# Velocity P-wave (km/s) = 4.33467 5.44493 4.92121
#
# Compressibility (1/GPa) = 0.08628104
#
# Stress axis : x y z
#
# Youngs Moduli (GPa) = 94.23903 24.88199 66.20345
#
# Poissons Ratio (x) = -0.08270 0.03386
# Poissons Ratio (y) = -0.31322 -0.48826
# Poissons Ratio (z) = 0.04819 -0.18351
#
# Static dielectric constant tensor:
#      x y z
#    x 1.792440 0.000000 0.049920 
#    y 0.000000 1.619180 0.000000 
#    z 0.049920 0.000000 1.747640 
# 
# From -- ./inp_files/338841.got.cif
#   From: 2010.05.17/outbox.cif.g08.bks.cpg/sg12_170_cif.got.tgz:338841.got - 2010.06.03 13:09:07.
