data_PCOD9187407
_publ_section_title
;
Structure prediction by ZEFSAII (Michael W. Deem and Ramdas Pophale) SiO2 
 PCOD9187407
Probable space group: C 2/M
;
_chemical_formula_sum "Si O2"
_cell_formula_units_Z 64
_cell_length_a 20.276469
_cell_length_b 8.349649
_cell_length_c 32.350966
_cell_angle_alpha 90.000000
_cell_angle_beta 143.772261
_cell_angle_gamma 90.000000
_cell_volume 3236.924322
_symmetry_space_group_name_H-M "C 2/M"
_symmetry_group_IT_number 12
_symmetry_cell_setting 'monoclinic'
loop_
_space_group_symop_operation_xyz
x,y,z
-x,y,-z
-x,-y,-z
x,-y,z
1/2+x,1/2+y,z
1/2-x,1/2+y,-z
1/2-x,1/2-y,-z
1/2+x,1/2-y,z
loop_
_atom_site_type_symbol
_atom_site_label
_atom_site_fract_x
_atom_site_fract_y
_atom_site_fract_z
Si Si1 0.681638 0.810318 0.505284
Si Si2 0.036714 0.695495 0.221353
Si Si3 0.475311 0.806465 0.878799
Si Si4 0.666399 0.806446 0.824622
Si Si5 0.230230 0.806319 0.620497
Si Si6 0.069939 0.806151 0.610402
Si Si7 0.777489 0.192932 0.235665
Si Si8 0.598334 0.307061 0.019169
O O1 0.750000 0.750000 0.500000
O O2 0.731233 0.752088 0.574121
O O3 0.553113 0.753488 0.441415
O O4 0.684100 0.000000 0.505457
O O5 0.037980 0.500000 0.221662
O O6 0.010820 0.745832 0.161530
O O7 0.158444 0.744990 0.298803
O O8 0.940313 0.748880 0.203601
O O9 0.351105 0.751782 0.829384
O O10 0.477253 0.000000 0.880820
O O11 0.565817 0.744189 0.956727
O O12 0.664449 0.750436 0.776580
O O13 0.781725 0.750344 0.904085
O O14 0.666922 0.000000 0.825391
O O15 0.122711 0.754563 0.593142
O O16 0.228687 0.000000 0.618829
O O17 0.155832 0.755710 0.689858
O O18 0.066110 0.000000 0.607909
O O19 0.775259 0.000000 0.235274
O O20 0.598991 0.500000 0.021154
O O21 0.500000 0.248780 0.000000
#
# Coordination Sequence:
#
# PCOD9187407 Si02
#       8
#     8   8   8   8   8   8   8   8
#     4  12  27  44  62  90 126 159 197 243 292 347
#     4   9  19  37  60  86 114 148 193 239 290 349
#     4  10  19  35  59  84 110 146 193 242 286 344
#     4  10  21  36  55  80 114 156 197 240 294 351
#     4  10  20  40  67  90 119 158 197 241 299 359
#     4  10  21  40  65  91 121 158 196 241 299 357
#     4  10  20  35  58  87 116 145 190 245 290 339
#     4  10  20  34  51  77 116 155 192 240 296 347
#
# _framework density 19.771854999999999
#
# number of rings (size 3 to 8) (size 9 to 14) (size 15 to 20)
#    0.000    1.875    2.500    1.500    1.750    3.750 
#    0.000    1.250    0.000    0.000    0.000    0.000 
#    0.000    0.000    0.000    0.000    0.000    0.000 
#
# Total GULP energy -178733.729126 kJ/mol
# GULP energy per Si atom -5585.429035 kJ/mol
# Density = 1.972685 g / cm^3
# Si number density = 19.771855 Si / 1000 Ang^3
#
#
#
# Elastic Constant Matrix: (Units=GPa)
#
#
# Indices 1 2 3 4 5 6 
#
# 1 173.5803 22.1245 53.6689 0.0000 -11.7318 0.0000
# 2 22.1245 17.3085 17.4633 0.0000 0.3618 -0.0002
# 3 53.6689 17.4633 95.4641 0.0000 -15.7524 0.0000
# 4 0.0000 0.0000 0.0000 2.5832 0.0000 -10.3648
# 5 -11.7318 0.3618 -15.7524 0.0000 37.0742 0.0000
# 6 0.0000 -0.0002 0.0000 -10.3648 0.0000 24.9520
#
#
#
# Elastic Compliance Matrix: (Units=1/GPa)
#
#
# Indices 1 2 3 4 5 6 
#
# 1 0.007592 -0.006915 -0.002791 0.000000 0.001284 0.000000
# 2 -0.006915 0.078716 -0.011829 -0.000002 -0.007983 0.000000
# 3 -0.002791 -0.011829 0.015143 0.000000 0.005666 0.000000
# 4 0.000000 -0.000002 0.000000 -0.580639 0.000000 -0.241191
# 5 0.001284 -0.007983 0.005666 0.000000 0.029865 0.000000
# 6 0.000000 0.000000 0.000000 -0.241191 0.000000 -0.060111
#
#
# Mechanical properties :
#
#
# Convention : Reuss Voigt Hill
#
# Bulk Modulus (GPa) = 17.12909 52.54070 34.83489
# Shear Modulus (GPa) = -11.18813 25.79495 7.30341
#
# Velocity S-wave (km/s) = -2.38136 3.61588 1.92402
# Velocity P-wave (km/s) = 1.05876 6.63807 4.75316
#
# Compressibility (1/GPa) = 0.05838023
#
# Stress axis : x y z
#
# Youngs Moduli (GPa) = 131.71256 12.70388 66.03550
#
# Poissons Ratio (x) = 0.08785 0.18433
# Poissons Ratio (y) = 0.91082 0.78114
# Poissons Ratio (z) = 0.36767 0.15028
#
# Static dielectric constant tensor:
#      x y z
#    x 1.689530 0.000000 0.005280 
#    y 0.000000 1.691650 0.000000 
#    z 0.005280 0.000000 1.681600 
# 
# From -- ./inp_files/378521.got.cif
#   From: 2010.05.17/outbox.cif.g08.bks.cpg/sg12_190_cif.got.tgz:378521.got - 2010.06.03 13:09:07.
