data_PCOD9187993
_publ_section_title
;
Structure prediction by ZEFSAII (Michael W. Deem and Ramdas Pophale) SiO2 
 PCOD9187993
Probable space group: C 2/M
;
_chemical_formula_sum "Si O2"
_cell_formula_units_Z 56
_cell_length_a 21.414874
_cell_length_b 13.196239
_cell_length_c 18.715576
_cell_angle_alpha 90.000000
_cell_angle_beta 145.702660
_cell_angle_gamma 90.000000
_cell_volume 2980.254355
_symmetry_space_group_name_H-M "C 2/M"
_symmetry_group_IT_number 12
_symmetry_cell_setting 'monoclinic'
loop_
_space_group_symop_operation_xyz
x,y,z
-x,y,-z
-x,-y,-z
x,-y,z
1/2+x,1/2+y,z
1/2-x,1/2+y,-z
1/2-x,1/2-y,-z
1/2+x,1/2-y,z
loop_
_atom_site_type_symbol
_atom_site_label
_atom_site_fract_x
_atom_site_fract_y
_atom_site_fract_z
Si Si1 0.282322 0.749600 0.204266
Si Si2 0.623551 0.620980 0.580997
Si Si3 0.952339 0.380960 0.281314
Si Si4 0.787528 0.616992 0.993719
Si Si5 0.922437 0.121432 0.988259
Si Si6 0.360527 0.738757 0.555580
Si Si7 0.538905 0.380720 0.817618
O O1 0.302159 0.674977 0.288607
O O2 0.393552 0.803511 0.280631
O O3 0.223553 0.687452 0.085080
O O4 0.199893 0.840676 0.142370
O O5 0.500000 0.629946 0.500000
O O6 0.643574 0.500000 0.590740
O O7 0.644969 0.680318 0.526260
O O8 0.938575 0.500000 0.286057
O O9 0.080115 0.347925 0.398262
O O10 0.885285 0.364525 0.143127
O O11 0.796221 0.500000 0.979378
O O12 0.668498 0.629527 0.919963
O O13 0.922523 0.000000 0.989377
O O14 0.969056 0.154300 0.108646
O O15 0.000000 0.161233 0.000000
O O16 0.250000 0.750000 0.500000
O O17 0.454019 0.677084 0.687654
O O18 0.513763 0.500000 0.788721
#
# Coordination Sequence:
#
# PCOD9187993 Si02
#       7
#     8   8   8   8   8   8   8
#     4  12  20  37  64  91 122 160 201 258 321 373
#     4  11  24  44  67  91 119 160 218 269 303 363
#     4  11  22  38  61  94 128 158 204 264 323 381
#     4  10  19  35  65  98 120 148 198 264 322 372
#     4  10  22  37  58  90 124 156 196 249 314 381
#     4  12  26  42  62  87 127 176 217 255 314 377
#     4  10  19  37  64  90 115 153 206 259 304 363
#
# _framework density 18.790341999999999
#
# number of rings (size 3 to 8) (size 9 to 14) (size 15 to 20)
#    0.000    1.143    4.286    2.571    2.000    3.429 
#    0.000    2.143    0.000    0.857    0.000    0.000 
#    0.000    0.000    0.000    0.000    0.000    0.000 
#
# Total GULP energy -156213.702520 kJ/mol
# GULP energy per Si atom -5579.060804 kJ/mol
# Density = 1.874757 g / cm^3
# Si number density = 18.790342 Si / 1000 Ang^3
#
#
#
# Elastic Constant Matrix: (Units=GPa)
#
#
# Indices 1 2 3 4 5 6 
#
# 1 106.8156 34.1648 43.3624 0.0000 -6.2636 0.0000
# 2 34.1648 89.5894 37.9105 0.0000 -18.9012 0.0000
# 3 43.3624 37.9105 66.9758 0.0000 -14.7962 0.0000
# 4 0.0000 0.0000 0.0000 32.0122 0.0000 -1.2298
# 5 -6.2636 -18.9012 -14.7962 0.0000 30.7715 0.0000
# 6 0.0000 0.0000 0.0000 -1.2298 0.0000 21.1546
#
#
#
# Elastic Compliance Matrix: (Units=1/GPa)
#
#
# Indices 1 2 3 4 5 6 
#
# 1 0.013073 -0.002221 -0.007743 0.000000 -0.002426 0.000000
# 2 -0.002221 0.015977 -0.006196 0.000000 0.006383 0.000000
# 3 -0.007743 -0.006196 0.024908 0.000000 0.006595 0.000000
# 4 0.000000 0.000000 0.000000 0.031308 0.000000 0.001820
# 5 -0.002426 0.006383 0.006595 0.000000 0.039095 0.000000
# 6 0.000000 0.000000 0.000000 0.001820 0.000000 0.047377
#
#
# Mechanical properties :
#
#
# Convention : Reuss Voigt Hill
#
# Bulk Modulus (GPa) = 46.21251 54.91737 50.56494
# Shear Modulus (GPa) = 23.66625 26.65051 25.15838
#
# Velocity S-wave (km/s) = 3.55278 3.77013 3.66307
# Velocity P-wave (km/s) = 6.44025 6.94562 6.69770
#
# Compressibility (1/GPa) = 0.02163916
#
# Stress axis : x y z
#
# Youngs Moduli (GPa) = 76.49170 62.58849 40.14799
#
# Poissons Ratio (x) = 0.13900 0.31087
# Poissons Ratio (y) = 0.16987 0.24875
# Poissons Ratio (z) = 0.59228 0.38779
#
# Static dielectric constant tensor:
#      x y z
#    x 1.692940 0.000000 0.005760 
#    y 0.000000 1.674620 0.000000 
#    z 0.005760 0.000000 1.636800 
# 
# From -- ./inp_files/284601.got.cif
#   From: 2010.05.17/outbox.cif.g08.bks.cpg/sg12_143_cif.got.tgz:284601.got - 2010.06.03 13:09:07.
