data_PCOD9187071
_publ_section_title
;
Structure prediction by ZEFSAII (Michael W. Deem and Ramdas Pophale) SiO2 
 PCOD9187071
Probable space group: C 2/M
;
_chemical_formula_sum "Si O2"
_cell_formula_units_Z 56
_cell_length_a 8.621420
_cell_length_b 22.458169
_cell_length_c 20.464594
_cell_angle_alpha 90.000000
_cell_angle_beta 132.386214
_cell_angle_gamma 90.000000
_cell_volume 2926.684530
_symmetry_space_group_name_H-M "C 2/M"
_symmetry_group_IT_number 12
_symmetry_cell_setting 'monoclinic'
loop_
_space_group_symop_operation_xyz
x,y,z
-x,y,-z
-x,-y,-z
x,-y,z
1/2+x,1/2+y,z
1/2-x,1/2+y,-z
1/2-x,1/2-y,-z
1/2+x,1/2-y,z
loop_
_atom_site_type_symbol
_atom_site_label
_atom_site_fract_x
_atom_site_fract_y
_atom_site_fract_z
Si Si1 0.106639 0.171796 0.212318
Si Si2 0.887322 0.566667 0.258051
Si Si3 0.385873 0.436810 0.397837
Si Si4 0.202353 0.318136 0.010932
Si Si5 0.995444 0.747009 0.297238
Si Si6 0.927842 0.190039 0.404587
Si Si7 0.746378 0.930830 0.930362
O O1 0.252811 0.114292 0.259212
O O2 0.263985 0.220274 0.224521
O O3 0.907168 0.162684 0.110215
O O4 0.029848 0.197782 0.259196
O O5 0.817639 0.500000 0.254912
O O6 0.841235 0.575783 0.167973
O O7 0.137008 0.569555 0.339133
O O8 0.500000 0.439104 0.500000
O O9 0.421331 0.500000 0.373392
O O10 0.468418 0.376363 0.390168
O O11 0.250000 0.250000 0.000000
O O12 0.173488 0.372432 0.950587
O O13 0.000000 0.315316 0.000000
O O14 0.024918 0.764069 0.381315
O O15 0.178049 0.701134 0.331258
O O16 0.000000 0.196117 0.500000
O O17 0.692560 0.000000 0.936932
O O18 0.000000 0.928338 0.000000
#
# Coordination Sequence:
#
# PCOD9187071 Si02
#       7
#     8   8   8   8   8   8   8
#     4  11  22  39  56  83 115 154 192 247 293 354
#     4  10  20  37  63  86 114 160 201 242 297 356
#     4   9  18  33  57  86 114 146 190 236 286 344
#     4  12  26  39  58  87 121 159 203 253 306 362
#     4  10  22  35  56  84 116 151 193 236 298 350
#     4  10  19  35  57  84 115 151 190 240 288 352
#     4  10  21  39  63  88 118 159 207 250 300 368
#
# _framework density 19.13428
#
# number of rings (size 3 to 8) (size 9 to 14) (size 15 to 20)
#    0.000    1.714    2.857    1.714    2.000    1.429 
#    0.000    0.714    0.000    0.000    0.000    5.000 
#    0.000    0.000    0.000    0.000    0.000    0.000 
#
# Total GULP energy -156032.409844 kJ/mol
# GULP energy per Si atom -5572.586066 kJ/mol
# Density = 1.909073 g / cm^3
# Si number density = 19.134280 Si / 1000 Ang^3
#
#
#
# Elastic Constant Matrix: (Units=GPa)
#
#
# Indices 1 2 3 4 5 6 
#
# 1 69.5981 36.5359 20.6356 0.0000 3.4317 0.0000
# 2 36.5359 122.8360 6.9185 0.0000 -11.1501 0.0000
# 3 20.6356 6.9185 87.3507 0.0000 19.8341 0.0000
# 4 0.0000 0.0000 0.0000 25.3472 0.0000 -0.7988
# 5 3.4317 -11.1501 19.8341 0.0000 22.9011 0.0000
# 6 0.0000 0.0000 0.0000 -0.7988 0.0000 24.5636
#
#
#
# Elastic Compliance Matrix: (Units=1/GPa)
#
#
# Indices 1 2 3 4 5 6 
#
# 1 0.018372 -0.005509 -0.003323 0.000000 -0.002557 0.000000
# 2 -0.005509 0.010463 -0.001085 0.000000 0.006859 0.000000
# 3 -0.003323 -0.001085 0.015343 0.000000 -0.013319 0.000000
# 4 0.000000 0.000000 0.000000 0.039493 0.000000 0.001284
# 5 -0.002557 0.006859 -0.013319 0.000000 0.058924 0.000000
# 6 0.000000 0.000000 0.000000 0.001284 0.000000 0.040752
#
#
# Mechanical properties :
#
#
# Convention : Reuss Voigt Hill
#
# Bulk Modulus (GPa) = 41.07797 45.32941 43.20369
# Shear Modulus (GPa) = 23.66345 28.94203 26.30274
#
# Velocity S-wave (km/s) = 3.52050 3.89340 3.71164
# Velocity P-wave (km/s) = 6.16766 6.62971 6.40285
#
# Compressibility (1/GPa) = 0.02434395
#
# Stress axis : x y z
#
# Youngs Moduli (GPa) = 54.43134 95.57141 65.17541
#
# Poissons Ratio (x) = 0.52654 0.21658
# Poissons Ratio (y) = 0.29988 0.07070
# Poissons Ratio (z) = 0.18088 0.10367
#
# Static dielectric constant tensor:
#      x y z
#    x 1.620310 0.000000 0.012190 
#    y 0.000000 1.749110 0.000000 
#    z 0.012190 0.000000 1.678340 
# 
# From -- ./inp_files/301806.got.cif
#   From: 2010.05.17/outbox.cif.g08.bks.cpg/sg12_151_cif.got.tgz:301806.got - 2010.06.03 13:09:07.
