data_PCOD9187513
_publ_section_title
;
Structure prediction by ZEFSAII (Michael W. Deem and Ramdas Pophale) SiO2 
 PCOD9187513
Probable space group: C 2/M
;
_chemical_formula_sum "Si O2"
_cell_formula_units_Z 64
_cell_length_a 15.153324
_cell_length_b 8.289235
_cell_length_c 23.026217
_cell_angle_alpha 90.000000
_cell_angle_beta 100.006879
_cell_angle_gamma 90.000000
_cell_volume 2848.309748
_symmetry_space_group_name_H-M "C 2/M"
_symmetry_group_IT_number 12
_symmetry_cell_setting 'monoclinic'
loop_
_space_group_symop_operation_xyz
x,y,z
-x,y,-z
-x,-y,-z
x,-y,z
1/2+x,1/2+y,z
1/2-x,1/2+y,-z
1/2-x,1/2-y,-z
1/2+x,1/2-y,z
loop_
_atom_site_type_symbol
_atom_site_label
_atom_site_fract_x
_atom_site_fract_y
_atom_site_fract_z
Si Si1 0.198148 0.191030 0.895734
Si Si2 0.394995 0.694066 0.233810
Si Si3 0.463391 0.808939 0.058472
Si Si4 0.956344 0.305670 0.555181
Si Si5 0.868254 0.810155 0.861003
Si Si6 0.623200 0.194354 0.643477
Si Si7 0.897607 0.197014 0.737960
Si Si8 0.199775 0.805892 0.391560
O O1 0.154136 0.251677 0.829900
O O2 0.302633 0.228854 0.899978
O O3 0.139673 0.269006 0.939959
O O4 0.186325 0.000000 0.898855
O O5 0.394063 0.500000 0.232180
O O6 0.352611 0.750335 0.289378
O O7 0.498618 0.748005 0.248055
O O8 0.528318 0.721403 0.111702
O O9 0.476744 0.000000 0.065387
O O10 0.500000 0.757076 0.000000
O O11 0.956888 0.500000 0.554239
O O12 0.857033 0.253183 0.560478
O O13 0.000000 0.249928 0.500000
O O14 0.025344 0.247570 0.612908
O O15 0.853277 0.748864 0.793528
O O16 0.850809 0.000000 0.860573
O O17 0.697725 0.245923 0.605280
O O18 0.622025 0.000000 0.643578
O O19 0.850006 0.249741 0.673473
O O20 0.895757 0.000000 0.738174
O O21 0.198156 0.000000 0.392287
#
# Coordination Sequence:
#
# PCOD9187513 Si02
#       8
#     8   8   8   8   8   8   8   8
#     4  11  23  40  62  91 124 158 197 241 295 359
#     4  10  19  35  59  87 118 151 187 232 286 346
#     4  11  25  44  64  88 119 158 205 252 298 350
#     4  10  22  39  55  76 111 149 188 238 290 338
#     4  11  22  40  65  92 123 159 197 243 298 352
#     4  10  21  36  56  84 113 147 189 234 287 345
#     4   9  17  33  57  85 117 148 180 229 292 346
#     4  10  20  36  58  82 111 145 186 232 279 340
#
# _framework density 22.469467000000002
#
# number of rings (size 3 to 8) (size 9 to 14) (size 15 to 20)
#    0.000    1.750    2.500    1.875    0.000    4.750 
#    0.000    1.250    0.000    0.000    0.000    0.000 
#    0.000    0.000    0.000    0.000    0.000    0.000 
#
# Total GULP energy -178856.348802 kJ/mol
# GULP energy per Si atom -5589.260900 kJ/mol
# Density = 2.241833 g / cm^3
# Si number density = 22.469467 Si / 1000 Ang^3
#
#
#
# Elastic Constant Matrix: (Units=GPa)
#
#
# Indices 1 2 3 4 5 6 
#
# 1 95.9697 2.4239 5.5947 0.0000 -37.3637 0.0000
# 2 2.4239 13.8799 7.1205 0.0000 -5.9204 0.0000
# 3 5.5947 7.1205 67.3365 0.0000 -34.9861 0.0000
# 4 0.0000 0.0000 0.0000 21.7973 0.0000 -7.1875
# 5 -37.3637 -5.9204 -34.9861 0.0000 43.3090 0.0000
# 6 0.0000 0.0000 0.0000 -7.1875 0.0000 25.2591
#
#
#
# Elastic Compliance Matrix: (Units=1/GPa)
#
#
# Indices 1 2 3 4 5 6 
#
# 1 0.020769 0.001948 0.012953 0.000000 0.028648 0.000000
# 2 0.001948 0.077518 -0.003412 0.000000 0.009520 0.000000
# 3 0.012953 -0.003412 0.033948 0.000000 0.038133 0.000000
# 4 0.000000 0.000000 0.000000 0.050628 0.000000 0.014406
# 5 0.028648 0.009520 0.038133 0.000000 0.079912 0.000000
# 6 0.000000 0.000000 0.000000 0.014406 0.000000 0.043689
#
#
# Mechanical properties :
#
#
# Convention : Reuss Voigt Hill
#
# Bulk Modulus (GPa) = 6.44280 23.05161 14.74720
# Shear Modulus (GPa) = 14.91540 28.87620 21.89580
#
# Velocity S-wave (km/s) = 2.57924 3.58876 3.12504
# Velocity P-wave (km/s) = 3.42689 5.23962 4.42703
#
# Compressibility (1/GPa) = 0.15521211
#
# Stress axis : x y z
#
# Youngs Moduli (GPa) = 48.14811 12.90026 29.45669
#
# Poissons Ratio (x) = -0.02512 -0.38156
# Poissons Ratio (y) = -0.09377 0.10052
# Poissons Ratio (z) = -0.62368 0.04402
#
# Static dielectric constant tensor:
#      x y z
#    x 1.832760 0.000000 0.000550 
#    y 0.000000 1.764640 0.000000 
#    z 0.000550 0.000000 1.853060 
# 
# From -- ./inp_files/338721.got.cif
#   From: 2010.05.17/outbox.cif.g08.bks.cpg/sg12_170_cif.got.tgz:338721.got - 2010.06.03 13:09:07.
