data_PCOD9187392
_publ_section_title
;
Structure prediction by ZEFSAII (Michael W. Deem and Ramdas Pophale) SiO2 
 PCOD9187392
Probable space group: C 2/M
;
_chemical_formula_sum "Si O2"
_cell_formula_units_Z 52
_cell_length_a 10.749429
_cell_length_b 23.122751
_cell_length_c 12.035632
_cell_angle_alpha 90.000000
_cell_angle_beta 89.495697
_cell_angle_gamma 90.000000
_cell_volume 2991.417125
_symmetry_space_group_name_H-M "C 2/M"
_symmetry_group_IT_number 12
_symmetry_cell_setting 'monoclinic'
loop_
_space_group_symop_operation_xyz
x,y,z
-x,y,-z
-x,-y,-z
x,-y,z
1/2+x,1/2+y,z
1/2-x,1/2+y,-z
1/2-x,1/2-y,-z
1/2+x,1/2-y,z
loop_
_atom_site_type_symbol
_atom_site_label
_atom_site_fract_x
_atom_site_fract_y
_atom_site_fract_z
Si Si1 0.639820 0.645790 0.242623
Si Si2 0.803014 0.266895 0.380902
Si Si3 0.654390 0.650821 0.761657
Si Si4 0.850115 0.802296 0.996804
Si Si5 0.315943 0.066002 0.621098
Si Si6 0.500000 0.846795 0.500000
Si Si7 0.886046 0.064102 0.570724
O O1 0.701588 0.697311 0.312272
O O2 0.491573 0.640219 0.249801
O O3 0.669935 0.659491 0.114237
O O4 0.673337 0.590828 0.317852
O O5 0.750000 0.250000 0.500000
O O6 0.825458 0.208950 0.310658
O O7 0.920661 0.306451 0.415732
O O8 0.738053 0.598431 0.717265
O O9 0.676479 0.663055 0.890645
O O10 0.750000 0.750000 0.000000
O O11 0.000000 0.785516 0.000000
O O12 0.419929 0.110530 0.578284
O O13 0.222366 0.061897 0.518137
O O14 0.355977 0.000000 0.647840
O O15 0.000000 0.093992 0.500000
O O16 0.933134 0.000000 0.599407
#
# Coordination Sequence:
#
# PCOD9187392 Si02
#       7
#     8   8   8   8   8   4   8
#     4  11  21  37  57  84 115 148 196 244 287 352
#     4  12  22  34  55  87 119 147 184 242 302 350
#     4  11  22  38  59  84 118 154 201 242 299 355
#     4  10  22  39  59  84 117 160 203 250 301 358
#     4  11  23  38  57  84 121 159 196 237 295 364
#     4  12  23  36  56  92 119 158 190 240 302 368
#     4  10  19  35  59  83 111 150 190 236 295 354
#
# _framework density 17.383067
#
# number of rings (size 3 to 8) (size 9 to 14) (size 15 to 20)
#    0.000    1.077    6.154    1.154    0.000    0.000 
#    0.000    0.769    0.000    2.769    0.000    1.077 
#    0.000    0.000    0.000    0.000    0.000    0.000 
#
# Total GULP energy -144751.144279 kJ/mol
# GULP energy per Si atom -5567.351703 kJ/mol
# Density = 1.734350 g / cm^3
# Si number density = 17.383067 Si / 1000 Ang^3
#
#
#
# Elastic Constant Matrix: (Units=GPa)
#
#
# Indices 1 2 3 4 5 6 
#
# 1 43.2362 14.6182 24.8857 0.0000 -6.3057 0.0000
# 2 14.6182 78.6070 44.7753 0.0000 -12.4710 0.0000
# 3 24.8857 44.7753 149.8851 0.0000 -10.1044 0.0000
# 4 0.0000 0.0000 0.0000 -7.2216 0.0000 -5.1294
# 5 -6.3057 -12.4710 -10.1044 0.0000 25.4273 0.0000
# 6 0.0000 0.0000 0.0000 -5.1294 0.0000 34.0941
#
#
#
# Elastic Compliance Matrix: (Units=1/GPa)
#
#
# Indices 1 2 3 4 5 6 
#
# 1 0.026481 -0.002328 -0.003427 0.000000 0.004063 0.000000
# 2 -0.002328 0.016433 -0.004129 0.000000 0.005842 0.000000
# 3 -0.003427 -0.004129 0.008508 0.000000 0.000506 0.000000
# 4 0.000000 0.000000 0.000000 -0.125104 0.000000 -0.018822
# 5 0.004063 0.005842 0.000506 0.000000 0.043402 0.000000
# 6 0.000000 0.000000 0.000000 -0.018822 0.000000 0.026499
#
#
# Mechanical properties :
#
#
# Convention : Reuss Voigt Hill
#
# Bulk Modulus (GPa) = 31.59076 48.92072 40.25574
# Shear Modulus (GPa) = 188.40621 22.95657 105.68139
#
# Velocity S-wave (km/s) = 10.42210 3.63799 7.80561
# Velocity P-wave (km/s) = 12.76870 6.77130 10.21984
#
# Compressibility (1/GPa) = 0.03165482
#
# Stress axis : x y z
#
# Youngs Moduli (GPa) = 37.76274 60.85337 117.53165
#
# Poissons Ratio (x) = 0.14164 0.40283
# Poissons Ratio (y) = 0.08790 0.48526
# Poissons Ratio (z) = 0.12943 0.25125
#
# Static dielectric constant tensor:
#      x y z
#    x 1.071000 0.000000 -0.150080 
#    y 0.000000 1.770330 0.000000 
#    z -0.150080 0.000000 1.568160 
# 
# From -- ./inp_files/133253.got.cif
#   From: 2010.05.17/outbox.cif.g08.bks.cpg/sg12_67_cif.got.tgz:133253.got - 2010.06.03 13:09:07.
