data_PCOD9187432
_publ_section_title
;
Structure prediction by ZEFSAII (Michael W. Deem and Ramdas Pophale) SiO2 
 PCOD9187432
Probable space group: C 2/M
;
_chemical_formula_sum "Si O2"
_cell_formula_units_Z 56
_cell_length_a 18.722113
_cell_length_b 22.765007
_cell_length_c 9.924785
_cell_angle_alpha 90.000000
_cell_angle_beta 144.508401
_cell_angle_gamma 90.000000
_cell_volume 2455.887714
_symmetry_space_group_name_H-M "C 2/M"
_symmetry_group_IT_number 12
_symmetry_cell_setting 'monoclinic'
loop_
_space_group_symop_operation_xyz
x,y,z
-x,y,-z
-x,-y,-z
x,-y,z
1/2+x,1/2+y,z
1/2-x,1/2+y,-z
1/2-x,1/2-y,-z
1/2+x,1/2-y,z
loop_
_atom_site_type_symbol
_atom_site_label
_atom_site_fract_x
_atom_site_fract_y
_atom_site_fract_z
Si Si1 0.898566 0.431100 0.177553
Si Si2 0.746850 0.390175 0.706349
Si Si3 0.564132 0.270441 0.785957
Si Si4 0.513768 0.591725 0.676233
Si Si5 0.307494 0.744345 0.298999
Si Si6 0.255424 0.067491 0.203472
Si Si7 0.865527 0.571034 0.629994
O O1 0.919736 0.500000 0.232046
O O2 0.853891 0.404392 0.250648
O O3 0.015153 0.409909 0.272276
O O4 0.787505 0.423003 0.903508
O O5 0.618491 0.417414 0.459815
O O6 0.723413 0.323425 0.713773
O O7 0.845519 0.398494 0.741098
O O8 0.540061 0.338626 0.717299
O O9 0.630854 0.246606 0.753594
O O10 0.425558 0.241886 0.579788
O O11 0.667618 0.269281 0.063773
O O12 0.500000 0.572582 0.500000
O O13 0.625951 0.566603 0.931518
O O14 0.258438 0.089585 0.360204
O O15 0.295417 0.000000 0.281234
O O16 0.870880 0.500000 0.664116
#
# Coordination Sequence:
#
# PCOD9187432 Si02
#       7
#     8   8   8   8   8   8   8
#     4  10  19  35  59  84 116 157 199 244 292 345
#     4  11  20  34  57  86 119 152 197 241 290 356
#     4   9  16  33  55  85 119 151 191 248 300 359
#     4  11  19  36  57  84 120 154 193 242 301 351
#     4   9  17  31  56  85 119 150 193 248 301 353
#     4  10  21  36  57  86 119 154 199 248 291 348
#     4  10  22  38  55  83 122 162 199 240 297 351
#
# _framework density 22.802347000000001
#
# number of rings (size 3 to 8) (size 9 to 14) (size 15 to 20)
#    0.000    2.000    4.286    1.286    0.000    4.857 
#    2.571    1.429    0.000    0.857    3.714    0.000 
#    0.000    0.000    0.000    0.000    0.000    0.000 
#
# Total GULP energy -155972.828459 kJ/mol
# GULP energy per Si atom -5570.458159 kJ/mol
# Density = 2.275045 g / cm^3
# Si number density = 22.802347 Si / 1000 Ang^3
#
#
#
# Elastic Constant Matrix: (Units=GPa)
#
#
# Indices 1 2 3 4 5 6 
#
# 1 60.0446 -0.0741 18.7172 0.0000 -1.0967 0.0000
# 2 -0.0741 35.0232 13.6565 0.0000 3.5261 0.0000
# 3 18.7172 13.6565 139.1694 0.0000 18.5362 0.0000
# 4 0.0000 0.0000 0.0000 25.7996 0.0000 14.0221
# 5 -1.0967 3.5261 18.5362 0.0000 36.7033 0.0000
# 6 0.0000 0.0000 0.0000 14.0221 0.0000 -4.7222
#
#
#
# Elastic Compliance Matrix: (Units=1/GPa)
#
#
# Indices 1 2 3 4 5 6 
#
# 1 0.017525 0.000903 -0.002684 0.000000 0.001793 0.000000
# 2 0.000903 0.029810 -0.002861 0.000000 -0.001392 0.000000
# 3 -0.002684 -0.002861 0.008364 0.000000 -0.004029 0.000000
# 4 0.000000 0.000000 0.000000 0.014829 0.000000 0.044032
# 5 0.001793 -0.001392 -0.004029 0.000000 0.029468 0.000000
# 6 0.000000 0.000000 0.000000 0.044032 0.000000 -0.081016
#
#
# Mechanical properties :
#
#
# Convention : Reuss Voigt Hill
#
# Bulk Modulus (GPa) = 21.54504 33.20402 27.37453
# Shear Modulus (GPa) = 114.32331 25.01865 69.67098
#
# Velocity S-wave (km/s) = 7.08840 3.31599 5.53359
# Velocity P-wave (km/s) = 8.74432 5.40873 7.27040
#
# Compressibility (1/GPa) = 0.04641440
#
# Stress axis : x y z
#
# Youngs Moduli (GPa) = 57.06159 33.54550 119.56042
#
# Poissons Ratio (x) = -0.03030 0.32094
# Poissons Ratio (y) = -0.05154 0.34210
# Poissons Ratio (z) = 0.15317 0.09598
#
# Static dielectric constant tensor:
#      x y z
#    x 1.853580 0.000000 0.039530 
#    y 0.000000 1.866840 0.000000 
#    z 0.039530 0.000000 1.972570 
# 
# From -- ./inp_files/80095.got.cif
#   From: 2010.05.17/outbox.cif.g08.bks.cpg/sg12_41_cif.got.tgz:80095.got - 2010.06.03 13:09:07.
