data_PCOD9187529
_publ_section_title
;
Structure prediction by ZEFSAII (Michael W. Deem and Ramdas Pophale) SiO2 
 PCOD9187529
Probable space group: C 2/M
;
_chemical_formula_sum "Si O2"
_cell_formula_units_Z 64
_cell_length_a 31.201478
_cell_length_b 16.112308
_cell_length_c 9.404858
_cell_angle_alpha 90.000000
_cell_angle_beta 143.240261
_cell_angle_gamma 90.000000
_cell_volume 2829.572749
_symmetry_space_group_name_H-M "C 2/M"
_symmetry_group_IT_number 12
_symmetry_cell_setting 'monoclinic'
loop_
_space_group_symop_operation_xyz
x,y,z
-x,y,-z
-x,-y,-z
x,-y,z
1/2+x,1/2+y,z
1/2-x,1/2+y,-z
1/2-x,1/2-y,-z
1/2+x,1/2-y,z
loop_
_atom_site_type_symbol
_atom_site_label
_atom_site_fract_x
_atom_site_fract_y
_atom_site_fract_z
Si Si1 0.020337 0.599603 0.217464
Si Si2 0.428426 0.092969 0.217873
Si Si3 0.324798 0.095430 0.413406
Si Si4 0.795609 0.309617 0.914959
Si Si5 0.253039 0.898000 0.510278
Si Si6 0.438894 0.599706 0.639038
Si Si7 0.808717 0.150042 0.109416
Si Si8 0.092556 0.100779 0.121470
O O1 0.020613 0.500000 0.252843
O O2 0.101347 0.633493 0.449497
O O3 0.957262 0.634239 0.149430
O O4 0.000000 0.609097 0.000000
O O5 0.500000 0.089022 0.500000
O O6 0.401853 0.000000 0.116845
O O7 0.365700 0.136745 0.135242
O O8 0.300103 0.128809 0.500536
O O9 0.343779 0.000000 0.492523
O O10 0.255938 0.095704 0.128107
O O11 0.775196 0.345808 0.707352
O O12 0.728963 0.319078 0.844836
O O13 0.819255 0.216928 0.013470
O O14 0.169476 0.878842 0.262565
O O15 0.258668 0.000000 0.545179
O O16 0.440464 0.500000 0.649942
O O17 0.384958 0.619444 0.368120
O O18 0.411708 0.627467 0.723822
O O19 0.521176 0.629899 0.850464
O O20 0.089469 0.000000 0.114881
#
# Coordination Sequence:
#
# PCOD9187529 Si02
#       8
#     8   8   8   8   8   8   8   8
#     4   9  17  32  55  84 114 145 188 247 305 351
#     4  10  20  35  58  86 112 146 199 255 301 348
#     4  10  21  36  59  90 123 157 200 255 313 365
#     4  11  23  37  56  82 118 162 202 246 298 370
#     4  10  19  35  59  88 117 154 206 254 299 360
#     4   9  16  31  57  86 115 152 200 253 300 344
#     4  11  23  37  54  83 125 164 198 245 306 369
#     4   8  15  29  55  88 114 143 195 252 292 341
#
# _framework density 22.618255999999999
#
# number of rings (size 3 to 8) (size 9 to 14) (size 15 to 20)
#    0.000    2.250    1.250    3.000    0.000    5.000 
#    0.000    1.875    0.000    6.000    0.000    0.000 
#    0.000    0.000    0.000    0.250    0.000    1.125 
#
# Total GULP energy -178383.019787 kJ/mol
# GULP energy per Si atom -5574.469368 kJ/mol
# Density = 2.256678 g / cm^3
# Si number density = 22.618256 Si / 1000 Ang^3
#
#
#
# Elastic Constant Matrix: (Units=GPa)
#
#
# Indices 1 2 3 4 5 6 
#
# 1 45.2804 15.9033 43.7147 0.0000 -0.2422 0.0000
# 2 15.9033 20.0148 22.1100 0.0000 5.8119 0.0000
# 3 43.7147 22.1100 140.4433 0.0000 12.6787 0.0000
# 4 0.0000 0.0000 0.0000 71.8060 0.0000 -25.1705
# 5 -0.2422 5.8119 12.6787 0.0000 42.5363 0.0000
# 6 0.0000 0.0000 0.0000 -25.1705 0.0000 17.9495
#
#
#
# Elastic Compliance Matrix: (Units=1/GPa)
#
#
# Indices 1 2 3 4 5 6 
#
# 1 0.038789 -0.022550 -0.009065 0.000000 0.006004 0.000000
# 2 -0.022550 0.074905 -0.003944 0.000000 -0.009187 0.000000
# 3 -0.009065 -0.003944 0.010810 0.000000 -0.002735 0.000000
# 4 0.000000 0.000000 0.000000 0.027390 0.000000 0.038409
# 5 0.006004 -0.009187 -0.002735 0.000000 0.025614 0.000000
# 6 0.000000 0.000000 0.000000 0.038409 0.000000 0.109573
#
#
# Mechanical properties :
#
#
# Convention : Reuss Voigt Hill
#
# Bulk Modulus (GPa) = 18.73169 41.02160 29.87665
# Shear Modulus (GPa) = 13.29807 34.72571 24.01189
#
# Velocity S-wave (km/s) = 2.42737 3.92254 3.26178
# Velocity P-wave (km/s) = 4.01943 6.22020 5.23673
#
# Compressibility (1/GPa) = 0.05338547
#
# Stress axis : x y z
#
# Youngs Moduli (GPa) = 25.78079 13.35019 92.50816
#
# Poissons Ratio (x) = 0.30104 0.83863
# Poissons Ratio (y) = 0.58134 0.36486
# Poissons Ratio (z) = 0.23371 0.05265
#
# Static dielectric constant tensor:
#      x y z
#    x 1.926240 0.000000 -0.002740 
#    y 0.000000 1.886250 0.000000 
#    z -0.002740 0.000000 1.879310 
# 
# From -- ./inp_files/112883.got.cif
#   From: 2010.05.17/outbox.cif.g08.bks.cpg/sg12_57_cif.got.tgz:112883.got - 2010.06.03 13:09:07.
