data_PCOD9187506
_publ_section_title
;
Structure prediction by ZEFSAII (Michael W. Deem and Ramdas Pophale) SiO2 
 PCOD9187506
Probable space group: C 2/M
;
_chemical_formula_sum "Si O2"
_cell_formula_units_Z 56
_cell_length_a 23.624235
_cell_length_b 8.738699
_cell_length_c 14.548991
_cell_angle_alpha 90.000000
_cell_angle_beta 84.346368
_cell_angle_gamma 90.000000
_cell_volume 2988.957102
_symmetry_space_group_name_H-M "C 2/M"
_symmetry_group_IT_number 12
_symmetry_cell_setting 'monoclinic'
loop_
_space_group_symop_operation_xyz
x,y,z
-x,y,-z
-x,-y,-z
x,-y,z
1/2+x,1/2+y,z
1/2-x,1/2+y,-z
1/2-x,1/2-y,-z
1/2+x,1/2-y,z
loop_
_atom_site_type_symbol
_atom_site_label
_atom_site_fract_x
_atom_site_fract_y
_atom_site_fract_z
Si Si1 0.794336 0.183391 0.330398
Si Si2 0.434304 0.316416 0.988728
Si Si3 0.110464 0.183518 0.533981
Si Si4 0.474619 0.182930 0.316504
Si Si5 0.169907 0.183719 0.340245
Si Si6 0.908438 0.683958 0.793095
Si Si7 0.879911 0.683331 0.177635
O O1 0.837471 0.226606 0.406062
O O2 0.733048 0.258372 0.351672
O O3 0.824532 0.243233 0.233010
O O4 0.789457 0.000000 0.329708
O O5 0.430539 0.500000 0.987650
O O6 0.416583 0.248854 0.893584
O O7 0.500000 0.274034 0.000000
O O8 0.395765 0.249884 0.076413
O O9 0.053200 0.248503 0.587684
O O10 0.128027 0.234336 0.429681
O O11 0.106512 0.000000 0.535017
O O12 0.536921 0.235126 0.276317
O O13 0.431902 0.221193 0.239116
O O14 0.475429 0.000000 0.325580
O O15 0.146803 0.253635 0.249596
O O16 0.169594 0.000000 0.336258
O O17 0.907992 0.500000 0.796475
O O18 0.874494 0.500000 0.174772
#
# Coordination Sequence:
#
# PCOD9187506 Si02
#       7
#     8   8   8   8   8   8   8
#     4  10  20  37  60  86 113 148 193 238 282 335
#     4  11  22  36  59  89 117 148 186 231 281 337
#     4   9  20  36  58  84 113 148 191 237 284 334
#     4   9  19  34  55  83 114 147 188 233 281 333
#     4  11  23  39  56  81 115 154 193 235 286 338
#     4  11  23  39  57  82 116 154 192 233 282 339
#     4  10  19  35  59  87 116 148 186 235 283 331
#
# _framework density 18.735631999999999
#
# number of rings (size 3 to 8) (size 9 to 14) (size 15 to 20)
#    0.000    1.857    1.429    2.571    0.000    4.571 
#    0.000    3.571    0.000    0.000    0.000    0.000 
#    0.000    0.000    0.000    0.000    0.000    0.000 
#
# Total GULP energy -156429.862761 kJ/mol
# GULP energy per Si atom -5586.780813 kJ/mol
# Density = 1.869299 g / cm^3
# Si number density = 18.735632 Si / 1000 Ang^3
#
#
#
# Elastic Constant Matrix: (Units=GPa)
#
#
# Indices 1 2 3 4 5 6 
#
# 1 12.7052 5.5178 13.6249 0.0000 6.5777 0.0000
# 2 5.5178 38.9006 26.0643 0.0000 5.8544 0.0000
# 3 13.6249 26.0643 113.9398 0.0000 1.9430 0.0000
# 4 0.0000 0.0000 0.0000 30.9226 0.0000 -7.9546
# 5 6.5777 5.8544 1.9430 0.0000 24.0227 0.0000
# 6 0.0000 0.0000 0.0000 -7.9546 0.0000 20.8471
#
#
#
# Elastic Compliance Matrix: (Units=1/GPa)
#
#
# Indices 1 2 3 4 5 6 
#
# 1 0.106747 -0.003265 -0.011549 0.000000 -0.027499 0.000000
# 2 -0.003265 0.031627 -0.006738 0.000000 -0.006269 0.000000
# 3 -0.011549 -0.006738 0.011633 0.000000 0.003863 0.000000
# 4 0.000000 0.000000 0.000000 0.035859 0.000000 0.013682
# 5 -0.027499 -0.006269 0.003863 0.000000 0.050372 0.000000
# 6 0.000000 0.000000 0.000000 0.013682 0.000000 0.053189
#
#
# Mechanical properties :
#
#
# Convention : Reuss Voigt Hill
#
# Bulk Modulus (GPa) = 9.35410 28.43996 18.89703
# Shear Modulus (GPa) = 13.58085 23.18106 18.38096
#
# Velocity S-wave (km/s) = 2.69526 3.52130 3.13560
# Velocity P-wave (km/s) = 3.83267 5.63430 4.81844
#
# Compressibility (1/GPa) = 0.10690505
#
# Stress axis : x y z
#
# Youngs Moduli (GPa) = 9.36791 31.61813 85.96242
#
# Poissons Ratio (x) = 0.10322 0.99279
# Poissons Ratio (y) = 0.03058 0.57918
# Poissons Ratio (z) = 0.10819 0.21303
#
# Static dielectric constant tensor:
#      x y z
#    x 1.638240 0.000000 -0.002820 
#    y 0.000000 1.621420 0.000000 
#    z -0.002820 0.000000 1.633940 
# 
# From -- ./inp_files/237403.got.cif
#   From: 2010.05.17/outbox.cif.g08.bks.cpg/sg12_119_cif.got.tgz:237403.got - 2010.06.03 13:09:07.
