data_PCOD9187303
_publ_section_title
;
Structure prediction by ZEFSAII (Michael W. Deem and Ramdas Pophale) SiO2 
 PCOD9187303
Probable space group: C 2/M
;
_chemical_formula_sum "Si O2"
_cell_formula_units_Z 64
_cell_length_a 17.951996
_cell_length_b 19.079120
_cell_length_c 15.500173
_cell_angle_alpha 90.000000
_cell_angle_beta 34.648961
_cell_angle_gamma 90.000000
_cell_volume 3018.380238
_symmetry_space_group_name_H-M "C 2/M"
_symmetry_group_IT_number 12
_symmetry_cell_setting 'monoclinic'
loop_
_space_group_symop_operation_xyz
x,y,z
-x,y,-z
-x,-y,-z
x,-y,z
1/2+x,1/2+y,z
1/2-x,1/2+y,-z
1/2-x,1/2-y,-z
1/2+x,1/2-y,z
loop_
_atom_site_type_symbol
_atom_site_label
_atom_site_fract_x
_atom_site_fract_y
_atom_site_fract_z
Si Si1 0.840154 0.173205 0.154444
Si Si2 0.258697 0.143175 0.411142
Si Si3 0.520101 0.923371 0.220769
Si Si4 0.652892 0.421590 0.334000
Si Si5 0.874614 0.197543 0.304729
Si Si6 0.110315 0.420981 0.331339
Si Si7 0.896043 0.272659 0.859335
Si Si8 0.385716 0.722700 0.682719
O O1 0.817368 0.158581 0.277729
O O2 0.752901 0.114918 0.189701
O O3 0.751213 0.241227 0.216054
O O4 0.000000 0.177442 0.000000
O O5 0.369275 0.092207 0.343393
O O6 0.216876 0.113225 0.358781
O O7 0.146895 0.152784 0.588994
O O8 0.313099 0.223498 0.359661
O O9 0.548261 0.923361 0.295731
O O10 0.587770 0.851924 0.124639
O O11 0.559137 0.000000 0.149276
O O12 0.500000 0.430414 0.500000
O O13 0.705830 0.500000 0.264659
O O14 0.651230 0.358757 0.266111
O O15 0.025895 0.218046 0.156485
O O16 0.131401 0.500000 0.343167
O O17 0.000000 0.387639 0.500000
O O18 0.939108 0.261149 0.718055
O O19 0.750000 0.250000 0.000000
O O20 0.500000 0.725128 0.500000
#
# Coordination Sequence:
#
# PCOD9187303 Si02
#       8
#     8   8   8   8   8   8   8   8
#     4  12  23  36  58  89 127 160 200 256 315 374
#     4  10  19  35  58  87 118 151 198 263 306 362
#     4  10  21  36  60  86 118 159 200 252 312 373
#     4  10  20  35  58  89 123 156 198 259 319 366
#     4  10  21  33  56  87 116 152 204 250 308 366
#     4  10  21  38  61  88 118 158 206 251 304 375
#     4  11  23  40  62  89 125 163 206 259 314 375
#     4  11  22  39  66  90 116 167 215 259 308 370
#
# _framework density 21.203426
#
# number of rings (size 3 to 8) (size 9 to 14) (size 15 to 20)
#    0.000    1.500    2.500    3.750    3.500    0.250 
#    0.000    1.250    0.000    2.625    0.000    0.000 
#    0.000    0.000    0.000    0.000    0.000    0.000 
#
# Total GULP energy -178182.195125 kJ/mol
# GULP energy per Si atom -5568.193598 kJ/mol
# Density = 2.115517 g / cm^3
# Si number density = 21.203426 Si / 1000 Ang^3
#
#
#
# Elastic Constant Matrix: (Units=GPa)
#
#
# Indices 1 2 3 4 5 6 
#
# 1 74.7818 9.8441 7.0637 0.0000 -24.4992 0.0000
# 2 9.8441 133.6937 16.3277 0.0001 -15.1222 0.0000
# 3 7.0637 16.3277 69.3254 0.0002 -27.9500 0.0001
# 4 0.0000 0.0001 0.0002 6.3024 0.0000 5.1764
# 5 -24.4992 -15.1222 -27.9500 0.0000 34.5098 -0.0001
# 6 0.0000 0.0000 0.0001 5.1764 -0.0001 31.2917
#
#
#
# Elastic Compliance Matrix: (Units=1/GPa)
#
#
# Indices 1 2 3 4 5 6 
#
# 1 0.018556 -0.000033 0.005082 0.000000 0.017274 0.000000
# 2 -0.000033 0.007892 -0.000699 0.000000 0.002869 0.000000
# 3 0.005082 -0.000699 0.022871 0.000000 0.021825 0.000000
# 4 0.000000 0.000000 0.000000 0.183618 0.000000 -0.030375
# 5 0.017274 0.002869 0.021825 0.000000 0.060174 0.000000
# 6 0.000000 0.000000 0.000000 -0.030375 0.000000 0.036982
#
#
# Mechanical properties :
#
#
# Convention : Reuss Voigt Hill
#
# Bulk Modulus (GPa) = 17.23595 38.25243 27.74419
# Shear Modulus (GPa) = 14.67430 30.72514 22.69972
#
# Velocity S-wave (km/s) = 2.63358 3.81079 3.27550
# Velocity P-wave (km/s) = 4.17063 6.11904 5.23626
#
# Compressibility (1/GPa) = 0.05801826
#
# Stress axis : x y z
#
# Youngs Moduli (GPa) = 53.89145 126.70966 43.72432
#
# Poissons Ratio (x) = 0.00418 -0.22219
# Poissons Ratio (y) = 0.00178 0.03055
# Poissons Ratio (z) = -0.27385 0.08853
#
# Static dielectric constant tensor:
#      x y z
#    x 1.842000 0.000000 0.074550 
#    y 0.000000 1.817870 0.000000 
#    z 0.074550 0.000000 1.843400 
# 
# From -- ./inp_files/279110.got.cif
#   From: 2010.05.17/outbox.cif.g08.bks.cpg/sg12_140_cif.got.tgz:279110.got - 2010.06.03 13:09:07.
