data_PCOD9187976
_publ_section_title
;
Structure prediction by ZEFSAII (Michael W. Deem and Ramdas Pophale) SiO2 
 PCOD9187976
Probable space group: C 2/M
;
_chemical_formula_sum "Si O2"
_cell_formula_units_Z 56
_cell_length_a 22.645981
_cell_length_b 14.626148
_cell_length_c 9.659490
_cell_angle_alpha 90.000000
_cell_angle_beta 53.946660
_cell_angle_gamma 90.000000
_cell_volume 2586.657383
_symmetry_space_group_name_H-M "C 2/M"
_symmetry_group_IT_number 12
_symmetry_cell_setting 'monoclinic'
loop_
_space_group_symop_operation_xyz
x,y,z
-x,y,-z
-x,-y,-z
x,-y,z
1/2+x,1/2+y,z
1/2-x,1/2+y,-z
1/2-x,1/2-y,-z
1/2+x,1/2-y,z
loop_
_atom_site_type_symbol
_atom_site_label
_atom_site_fract_x
_atom_site_fract_y
_atom_site_fract_z
Si Si1 0.103735 0.396847 0.360948
Si Si2 0.911171 0.100768 0.768421
Si Si3 0.739402 0.337391 0.911949
Si Si4 0.892617 0.713109 0.359188
Si Si5 0.694791 0.187939 0.785049
Si Si6 0.850266 0.896521 0.549798
Si Si7 0.051332 0.703373 0.168642
O O1 0.083474 0.500000 0.423541
O O2 0.186615 0.392725 0.190350
O O3 0.108337 0.333949 0.489642
O O4 0.055550 0.355337 0.303796
O O5 0.899694 0.112649 0.619789
O O6 0.946887 0.190463 0.784853
O O7 0.943480 0.000000 0.750434
O O8 0.829510 0.105718 0.943585
O O9 0.722746 0.289642 0.787443
O O10 0.750000 0.250000 0.000000
O O11 0.833908 0.678233 0.330727
O O12 0.875661 0.819709 0.407885
O O13 0.974966 0.693306 0.196037
O O14 0.765830 0.124945 0.707710
O O15 0.623151 0.177856 0.981172
O O16 0.855696 0.000000 0.491798
#
# Coordination Sequence:
#
# PCOD9187976 Si02
#       7
#     8   8   8   8   8   8   8
#     4  12  24  40  65  92 123 164 213 264 312 366
#     4  10  19  35  64  96 122 156 206 259 311 369
#     4  11  17  38  65  92 121 157 208 260 309 363
#     4  12  25  42  61  94 134 167 205 257 319 380
#     4  11  22  42  66  92 126 170 207 254 313 375
#     4  11  22  39  66  96 126 162 207 263 319 370
#     4  11  23  43  65  90 127 169 214 256 307 377
#
# _framework density 21.649562
#
# number of rings (size 3 to 8) (size 9 to 14) (size 15 to 20)
#    0.000    0.857    7.143    1.714    0.000    4.000 
#    0.000    4.286    0.000    6.857    0.000    0.000 
#    0.000    0.000    0.000    0.000    0.000    0.000 
#
# Total GULP energy -156471.666854 kJ/mol
# GULP energy per Si atom -5588.273816 kJ/mol
# Density = 2.160029 g / cm^3
# Si number density = 21.649562 Si / 1000 Ang^3
#
#
#
# Elastic Constant Matrix: (Units=GPa)
#
#
# Indices 1 2 3 4 5 6 
#
# 1 80.0168 1.8976 8.6591 0.0000 0.4071 0.0000
# 2 1.8976 95.9379 9.2601 0.0000 9.1180 0.0000
# 3 8.6591 9.2601 53.7873 0.0000 -2.1596 0.0000
# 4 0.0000 0.0000 0.0000 6.0686 0.0000 1.5158
# 5 0.4071 9.1180 -2.1596 0.0000 36.3480 0.0000
# 6 0.0000 0.0000 0.0000 1.5158 0.0000 5.6426
#
#
#
# Elastic Compliance Matrix: (Units=1/GPa)
#
#
# Indices 1 2 3 4 5 6 
#
# 1 0.012722 -0.000029 -0.002053 0.000000 -0.000257 0.000000
# 2 -0.000029 0.010886 -0.001984 0.000000 -0.002848 0.000000
# 3 -0.002053 -0.001984 0.019331 0.000000 0.001669 0.000000
# 4 0.000000 0.000000 0.000000 0.176637 0.000000 -0.047453
# 5 -0.000257 -0.002848 0.001669 0.000000 0.028328 0.000000
# 6 0.000000 0.000000 0.000000 -0.047453 0.000000 0.189972
#
#
# Mechanical properties :
#
#
# Convention : Reuss Voigt Hill
#
# Bulk Modulus (GPa) = 28.73052 29.93062 29.33057
# Shear Modulus (GPa) = 10.92633 23.60683 17.26658
#
# Velocity S-wave (km/s) = 2.24897 3.30571 2.82715
# Velocity P-wave (km/s) = 4.47698 5.33155 4.92284
#
# Compressibility (1/GPa) = 0.03480619
#
# Stress axis : x y z
#
# Youngs Moduli (GPa) = 78.60655 91.85953 51.73070
#
# Poissons Ratio (x) = 0.00266 0.10622
# Poissons Ratio (y) = 0.00228 0.10263
# Poissons Ratio (z) = 0.16141 0.18224
#
# Static dielectric constant tensor:
#      x y z
#    x 1.797160 0.000000 -0.040410 
#    y 0.000000 1.759630 0.000000 
#    z -0.040410 0.000000 1.839970 
# 
# From -- ./inp_files/96745.got.cif
#   From: 2010.05.17/outbox.cif.g08.bks.cpg/sg12_49_cif.got.tgz:96745.got - 2010.06.03 13:09:07.
