data_PCOD9187723
_publ_section_title
;
Structure prediction by ZEFSAII (Michael W. Deem and Ramdas Pophale) SiO2 
 PCOD9187723
Probable space group: C 2/M
;
_chemical_formula_sum "Si O2"
_cell_formula_units_Z 40
_cell_length_a 7.718541
_cell_length_b 29.596202
_cell_length_c 9.970034
_cell_angle_alpha 90.000000
_cell_angle_beta 118.817787
_cell_angle_gamma 90.000000
_cell_volume 1995.491182
_symmetry_space_group_name_H-M "C 2/M"
_symmetry_group_IT_number 12
_symmetry_cell_setting 'monoclinic'
loop_
_space_group_symop_operation_xyz
x,y,z
-x,y,-z
-x,-y,-z
x,-y,z
1/2+x,1/2+y,z
1/2-x,1/2+y,-z
1/2-x,1/2-y,-z
1/2+x,1/2-y,z
loop_
_atom_site_type_symbol
_atom_site_label
_atom_site_fract_x
_atom_site_fract_y
_atom_site_fract_z
Si Si1 0.955507 0.949040 0.825320
Si Si2 0.835156 0.292236 0.321463
Si Si3 0.183590 0.603271 0.171215
Si Si4 0.572389 0.307054 0.681589
Si Si5 0.430130 0.887530 0.321135
O O1 0.770690 0.915530 0.746476
O O2 0.907570 0.000000 0.762160
O O3 0.146351 0.930147 0.818500
O O4 0.000000 0.950545 0.000000
O O5 0.627247 0.305503 0.307489
O O6 0.826119 0.241873 0.260677
O O7 0.897396 0.335724 0.258277
O O8 0.000000 0.287775 0.500000
O O9 0.090097 0.591130 0.280960
O O10 0.289263 0.651816 0.225420
O O11 0.000000 0.603988 0.000000
O O12 0.500000 0.312639 0.500000
O O13 0.500000 0.884008 0.500000
#
# Coordination Sequence:
#
# PCOD9187723 Si02
#       5
#     8   8   8   8   8
#     4  11  25  47  71  96 129 174 219 269 334 404
#     4  10  19  35  60  95 132 175 217 261 316 388
#     4  12  25  42  66  98 133 173 218 272 331 387
#     4  11  20  36  62  94 132 176 224 259 315 390
#     4  11  23  43  69  99 136 170 217 275 325 380
#
# _framework density 20.045190000000002
#
# number of rings (size 3 to 8) (size 9 to 14) (size 15 to 20)
#    0.000    1.000    4.000    6.000    0.000    1.600 
#    0.000    6.000    0.000    0.000    0.000    0.000 
#    0.000    0.000    0.000    0.000    0.000    0.000 
#
# Total GULP energy -111708.475157 kJ/mol
# GULP energy per Si atom -5585.423758 kJ/mol
# Density = 1.999957 g / cm^3
# Si number density = 20.045190 Si / 1000 Ang^3
#
#
#
# Elastic Constant Matrix: (Units=GPa)
#
#
# Indices 1 2 3 4 5 6 
#
# 1 132.6844 8.7840 8.9470 0.0000 -3.6269 0.0000
# 2 8.7840 112.3416 20.9026 0.0000 8.6438 0.0000
# 3 8.9470 20.9026 33.0046 0.0000 3.2064 0.0000
# 4 0.0000 0.0000 0.0000 -260.7977 0.0000 394.2772
# 5 -3.6269 8.6438 3.2064 0.0000 33.4560 0.0000
# 6 0.0000 0.0000 0.0000 394.2772 0.0000 -516.5963
#
#
#
# Elastic Compliance Matrix: (Units=1/GPa)
#
#
# Indices 1 2 3 4 5 6 
#
# 1 0.007723 -0.000317 -0.002001 0.000000 0.001111 0.000000
# 2 -0.000317 0.010240 -0.006196 0.000000 -0.002086 0.000000
# 3 -0.002001 -0.006196 0.034956 0.000000 -0.001966 0.000000
# 4 0.000000 0.000000 0.000000 0.024923 0.000000 0.019022
# 5 0.001111 -0.002086 -0.001966 0.000000 0.030738 0.000000
# 6 0.000000 0.000000 0.000000 0.019022 0.000000 0.012582
#
#
# Mechanical properties :
#
#
# Convention : Reuss Voigt Hill
#
# Bulk Modulus (GPa) = 27.86231 39.47752 33.66992
# Shear Modulus (GPa) = 33.29908 -132.82777 -49.76434
#
# Velocity S-wave (km/s) = 4.08020 -8.14911 -4.98798
# Velocity P-wave (km/s) = 6.01060 8.29500 4.04226
#
# Compressibility (1/GPa) = 0.03589078
#
# Stress axis : x y z
#
# Youngs Moduli (GPa) = 129.48428 97.65978 28.60704
#
# Poissons Ratio (x) = 0.03097 0.05723
# Poissons Ratio (y) = 0.04106 0.17726
# Poissons Ratio (z) = 0.25905 0.60514
#
# Static dielectric constant tensor:
#      x y z
#    x 1.709530 0.000000 -0.031150 
#    y 0.000000 1.744510 0.000000 
#    z -0.031150 0.000000 1.670750 
# 
# From -- ./inp_files/123944.got.cif
#   From: 2010.05.17/outbox.cif.g08.bks.cpg/sg12_62_cif.got.tgz:123944.got - 2010.06.03 13:09:07.
