data_PCOD9187301
_publ_section_title
;
Structure prediction by ZEFSAII (Michael W. Deem and Ramdas Pophale) SiO2 
 PCOD9187301
Probable space group: C 2/M
;
_chemical_formula_sum "Si O2"
_cell_formula_units_Z 64
_cell_length_a 18.771846
_cell_length_b 9.188595
_cell_length_c 32.865098
_cell_angle_alpha 90.000000
_cell_angle_beta 37.464665
_cell_angle_gamma 90.000000
_cell_volume 3448.171676
_symmetry_space_group_name_H-M "C 2/M"
_symmetry_group_IT_number 12
_symmetry_cell_setting 'monoclinic'
loop_
_space_group_symop_operation_xyz
x,y,z
-x,y,-z
-x,-y,-z
x,-y,z
1/2+x,1/2+y,z
1/2-x,1/2+y,-z
1/2-x,1/2-y,-z
1/2+x,1/2-y,z
loop_
_atom_site_type_symbol
_atom_site_label
_atom_site_fract_x
_atom_site_fract_y
_atom_site_fract_z
Si Si1 0.660501 0.665906 0.775336
Si Si2 0.253839 0.326586 0.868684
Si Si3 0.057716 0.669221 0.349537
Si Si4 0.657921 0.830678 0.696315
Si Si5 0.547192 0.672170 0.915280
Si Si6 0.938254 0.828220 0.569644
Si Si7 0.700239 0.173566 0.982302
Si Si8 0.988894 0.173476 0.712145
O O1 0.635483 0.500000 0.773158
O O2 0.800450 0.679208 0.717388
O O3 0.623579 0.775600 0.756827
O O4 0.599709 0.689043 0.846030
O O5 0.230403 0.500000 0.874665
O O6 0.142536 0.237487 0.902905
O O7 0.274358 0.300149 0.907369
O O8 0.366732 0.289340 0.790416
O O9 0.025538 0.500000 0.362373
O O10 0.023225 0.739689 0.408145
O O11 0.009087 0.755045 0.333057
O O12 0.798028 0.812336 0.629250
O O13 0.591897 0.735862 0.693078
O O14 0.629413 0.000000 0.704028
O O15 0.528655 0.500000 0.931174
O O16 0.426827 0.760453 0.970258
O O17 0.000000 0.781245 0.500000
O O18 0.962819 0.000000 0.564652
O O19 0.694101 0.000000 0.991575
O O20 0.750000 0.250000 0.000000
O O21 0.995054 0.000000 0.706220
#
# Coordination Sequence:
#
# PCOD9187301 Si02
#       8
#     8   8   8   8   8   8   8   8
#     4   9  19  35  55  81 113 147 183 229 283 339
#     4  10  23  41  60  81 111 151 193 237 289 348
#     4  10  19  35  58  87 118 149 189 236 279 333
#     4  10  21  35  56  86 117 149 189 235 282 334
#     4  11  22  38  61  86 113 147 190 237 290 349
#     4   9  19  38  62  87 118 156 194 232 279 339
#     4  11  25  43  59  82 114 151 194 243 295 350
#     4  11  22  37  58  84 117 154 190 237 293 343
#
# _framework density 18.560561
#
# number of rings (size 3 to 8) (size 9 to 14) (size 15 to 20)
#    0.000    1.875    1.250    2.250    1.750    5.250 
#    0.000    0.625    0.000    0.000    0.000    0.000 
#    0.000    0.000    0.000    0.000    0.000    0.000 
#
# Total GULP energy -178759.293538 kJ/mol
# GULP energy per Si atom -5586.227923 kJ/mol
# Density = 1.851832 g / cm^3
# Si number density = 18.560561 Si / 1000 Ang^3
#
#
#
# Elastic Constant Matrix: (Units=GPa)
#
#
# Indices 1 2 3 4 5 6 
#
# 1 104.4767 67.1147 29.3635 -0.0004 32.6212 -0.0017
# 2 67.1147 84.5935 37.1353 -0.0020 19.7867 -0.0016
# 3 29.3635 37.1353 65.5769 0.0000 31.0095 -0.0002
# 4 -0.0004 -0.0020 0.0000 22.9661 -0.0002 4.4563
# 5 32.6212 19.7867 31.0095 -0.0002 25.4295 -0.0003
# 6 -0.0017 -0.0016 -0.0002 4.4563 -0.0003 41.3789
#
#
#
# Elastic Compliance Matrix: (Units=1/GPa)
#
#
# Indices 1 2 3 4 5 6 
#
# 1 0.041165 -0.030407 0.029689 -0.000003 -0.065351 0.000000
# 2 -0.030407 0.038307 -0.029354 0.000003 0.044995 0.000000
# 3 0.029689 -0.029354 0.060910 -0.000003 -0.089520 0.000000
# 4 -0.000003 0.000003 -0.000003 0.044472 0.000005 -0.004789
# 5 -0.065351 0.044995 -0.089520 0.000005 0.197310 0.000000
# 6 0.000000 0.000000 0.000000 -0.004789 0.000000 0.024683
#
#
# Mechanical properties :
#
#
# Convention : Reuss Voigt Hill
#
# Bulk Modulus (GPa) = 12.46289 57.98599 35.22444
# Shear Modulus (GPa) = 10.12687 26.02382 18.07535
#
# Velocity S-wave (km/s) = 2.33837 3.74853 3.12405
# Velocity P-wave (km/s) = 3.74432 7.07422 5.65971
#
# Compressibility (1/GPa) = 0.08023822
#
# Stress axis : x y z
#
# Youngs Moduli (GPa) = 24.29240 26.10497 16.41778
#
# Poissons Ratio (x) = 0.79377 -0.48743
# Poissons Ratio (y) = 0.73865 0.48193
# Poissons Ratio (z) = -0.72122 0.76629
#
# Static dielectric constant tensor:
#      x y z
#    x 1.614300 0.000000 0.005870 
#    y 0.000000 1.619550 0.000000 
#    z 0.005870 0.000000 1.637720 
# 
# From -- ./inp_files/377987.got.cif
#   From: 2010.05.17/outbox.cif.g08.bks.cpg/sg12_189_cif.got.tgz:377987.got - 2010.06.03 13:09:07.
