data_PCOD9187176
_publ_section_title
;
Structure prediction by ZEFSAII (Michael W. Deem and Ramdas Pophale) SiO2 
 PCOD9187176
Probable space group: C 2/M
;
_chemical_formula_sum "Si O2"
_cell_formula_units_Z 56
_cell_length_a 10.491319
_cell_length_b 17.725563
_cell_length_c 23.037158
_cell_angle_alpha 90.000000
_cell_angle_beta 132.004767
_cell_angle_gamma 90.000000
_cell_volume 3183.464069
_symmetry_space_group_name_H-M "C 2/M"
_symmetry_group_IT_number 12
_symmetry_cell_setting 'monoclinic'
loop_
_space_group_symop_operation_xyz
x,y,z
-x,y,-z
-x,-y,-z
x,-y,z
1/2+x,1/2+y,z
1/2-x,1/2+y,-z
1/2-x,1/2-y,-z
1/2+x,1/2-y,z
loop_
_atom_site_type_symbol
_atom_site_label
_atom_site_fract_x
_atom_site_fract_y
_atom_site_fract_z
Si Si1 0.477289 0.163392 0.656541
Si Si2 0.350438 0.409867 0.500476
Si Si3 0.218264 0.408849 0.915422
Si Si4 0.869229 0.155403 0.750632
Si Si5 0.007051 0.090398 0.909080
Si Si6 0.606344 0.836478 0.236447
Si Si7 0.499793 0.345336 0.336090
O O1 0.326926 0.128865 0.572014
O O2 0.667997 0.137866 0.697545
O O3 0.439651 0.140953 0.711643
O O4 0.475007 0.254564 0.651297
O O5 0.500000 0.387565 0.500000
O O6 0.332898 0.500000 0.492607
O O7 0.406804 0.384048 0.581483
O O8 0.199772 0.500000 0.909469
O O9 0.346411 0.387841 0.901392
O O10 0.037560 0.369721 0.849539
O O11 0.319654 0.386020 0.004704
O O12 0.892299 0.245655 0.763571
O O13 0.929948 0.131794 0.705367
O O14 0.976855 0.119928 0.835713
O O15 0.008774 0.000000 0.908809
O O16 0.797532 0.861883 0.279050
#
# Coordination Sequence:
#
# PCOD9187176 Si02
#       7
#     8   8   8   8   8   8   8
#     4  10  20  38  59  80 108 147 186 219 268 330
#     4  11  23  38  58  84 111 142 184 227 268 321
#     4   9  18  33  57  83 108 145 188 225 264 320
#     4  10  21  35  57  83 110 145 180 226 276 317
#     4   9  18  34  55  82 113 144 182 226 271 321
#     4  10  19  35  58  82 109 144 188 223 263 328
#     4  10  22  38  55  81 114 143 179 226 276 323
#
# _framework density 17.590900000000001
#
# number of rings (size 3 to 8) (size 9 to 14) (size 15 to 20)
#    0.000    2.143    2.857    1.286    0.000    3.429 
#    0.000    1.429    0.000    1.714    0.000    0.000 
#    0.000    0.000    0.000    0.000    0.000    0.000 
#
# Total GULP energy -156245.187001 kJ/mol
# GULP energy per Si atom -5580.185250 kJ/mol
# Density = 1.755086 g / cm^3
# Si number density = 17.590900 Si / 1000 Ang^3
#
#
#
# Elastic Constant Matrix: (Units=GPa)
#
#
# Indices 1 2 3 4 5 6 
#
# 1 140.4294 32.6126 97.0966 0.0000 -0.1164 0.0000
# 2 32.6126 15.4771 43.2213 0.0000 5.4694 0.0000
# 3 97.0966 43.2213 197.7754 0.0000 7.6451 0.0000
# 4 0.0000 0.0000 0.0000 44.1855 0.0000 4.5222
# 5 -0.1164 5.4694 7.6451 0.0000 34.8009 0.0000
# 6 0.0000 0.0000 0.0000 4.5222 0.0000 11.5560
#
#
#
# Elastic Compliance Matrix: (Units=1/GPa)
#
#
# Indices 1 2 3 4 5 6 
#
# 1 0.014828 -0.031221 -0.000654 0.000000 0.005100 0.000000
# 2 -0.031221 0.243882 -0.036796 0.000000 -0.030350 0.000000
# 3 -0.000654 -0.036796 0.013308 0.000000 0.002857 0.000000
# 4 0.000000 0.000000 0.000000 0.023576 0.000000 -0.009226
# 5 0.005100 -0.030350 0.002857 0.000000 0.032894 0.000000
# 6 0.000000 0.000000 0.000000 -0.009226 0.000000 0.090146
#
#
# Mechanical properties :
#
#
# Convention : Reuss Voigt Hill
#
# Bulk Modulus (GPa) = 7.42525 77.72698 42.57611
# Shear Modulus (GPa) = 8.32129 30.15858 19.23994
#
# Velocity S-wave (km/s) = 2.17732 4.14507 3.31077
# Velocity P-wave (km/s) = 3.24826 8.19699 6.23466
#
# Compressibility (1/GPa) = 0.13467562
#
# Stress axis : x y z
#
# Youngs Moduli (GPa) = 67.44007 4.10034 75.14197
#
# Poissons Ratio (x) = 0.12802 0.04913
# Poissons Ratio (y) = 2.10556 2.76494
# Poissons Ratio (z) = 0.04410 0.15088
#
# Static dielectric constant tensor:
#      x y z
#    x 1.595390 0.000000 -0.003430 
#    y 0.000000 1.586560 0.000000 
#    z -0.003430 0.000000 1.579240 
# 
# From -- ./inp_files/257027.got.cif
#   From: 2010.05.17/outbox.cif.g08.bks.cpg/sg12_129_cif.got.tgz:257027.got - 2010.06.03 13:09:07.
