data_PCOD9187922
_publ_section_title
;
Structure prediction by ZEFSAII (Michael W. Deem and Ramdas Pophale) SiO2 
 PCOD9187922
Probable space group: C 2/M
;
_chemical_formula_sum "Si O2"
_cell_formula_units_Z 26
_cell_length_a 28.419944
_cell_length_b 7.440515
_cell_length_c 7.097481
_cell_angle_alpha 90.000000
_cell_angle_beta 140.753583
_cell_angle_gamma 90.000000
_cell_volume 949.508162
_symmetry_space_group_name_H-M "C 2/M"
_symmetry_group_IT_number 12
_symmetry_cell_setting 'monoclinic'
loop_
_space_group_symop_operation_xyz
x,y,z
-x,y,-z
-x,-y,-z
x,-y,z
1/2+x,1/2+y,z
1/2-x,1/2+y,-z
1/2-x,1/2-y,-z
1/2+x,1/2-y,z
loop_
_atom_site_type_symbol
_atom_site_label
_atom_site_fract_x
_atom_site_fract_y
_atom_site_fract_z
Si Si1 0.441152 0.297596 0.108900
Si Si2 0.191512 0.293067 0.544483
Si Si3 0.500000 0.000000 0.000000
Si Si4 0.148576 0.216733 0.821485
O O1 0.473072 0.500000 0.201708
O O2 0.358112 0.308506 0.758454
O O3 0.420260 0.240746 0.257322
O O4 0.480552 0.156326 0.098252
O O5 0.197220 0.500000 0.501096
O O6 0.147968 0.291408 0.609109
O O7 0.273110 0.220618 0.845099
O O8 0.153517 0.000000 0.822588
#
# Coordination Sequence:
#
# PCOD9187922 Si02
#       4
#     8   8   2   8
#     4  11  23  42  63  86 123 164 207 258 302 355
#     4  10  19  35  62  95 127 157 196 251 314 374
#     4  12  26  44  62  90 120 170 226 246 294 366
#     4   9  20  36  60  94 126 158 197 250 315 372
#
# _framework density 27.382594999999998
#
# number of rings (size 3 to 8) (size 9 to 14) (size 15 to 20)
#    0.000    1.846    1.538    2.308    2.154    1.231 
#    0.000    3.077    0.000    5.538    0.000    0.000 
#    0.000    0.000    0.000    0.000    0.000    0.000 
#
# Total GULP energy -72687.520563 kJ/mol
# GULP energy per Si atom -5591.347736 kJ/mol
# Density = 2.732027 g / cm^3
# Si number density = 27.382595 Si / 1000 Ang^3
#
#
#
# Elastic Constant Matrix: (Units=GPa)
#
#
# Indices 1 2 3 4 5 6 
#
# 1 241.6263 68.9335 6.1664 0.0000 3.5604 0.0000
# 2 68.9335 150.7647 0.5832 0.0000 -6.1615 0.0000
# 3 6.1664 0.5832 96.1356 0.0000 6.9624 0.0000
# 4 0.0000 0.0000 0.0000 14.6013 0.0000 8.0322
# 5 3.5604 -6.1615 6.9624 0.0000 44.7685 0.0000
# 6 0.0000 0.0000 0.0000 8.0322 0.0000 29.5410
#
#
#
# Elastic Compliance Matrix: (Units=1/GPa)
#
#
# Indices 1 2 3 4 5 6 
#
# 1 0.004786 -0.002214 -0.000247 0.000000 -0.000647 0.000000
# 2 -0.002214 0.007695 0.000006 0.000000 0.001234 0.000000
# 3 -0.000247 0.000006 0.010535 0.000000 -0.001618 0.000000
# 4 0.000000 0.000000 0.000000 0.080533 0.000000 -0.021897
# 5 -0.000647 0.001234 -0.001618 0.000000 0.022810 0.000000
# 6 0.000000 0.000000 0.000000 -0.021897 0.000000 0.039805
#
#
# Mechanical properties :
#
#
# Convention : Reuss Voigt Hill
#
# Bulk Modulus (GPa) = 55.22629 71.09920 63.16275
# Shear Modulus (GPa) = 28.23119 45.30504 36.76812
#
# Velocity S-wave (km/s) = 3.21439 4.07199 3.66834
# Velocity P-wave (km/s) = 5.82997 6.93755 6.40774
#
# Compressibility (1/GPa) = 0.01810732
#
# Stress axis : x y z
#
# Youngs Moduli (GPa) = 208.94187 129.94658 94.92219
#
# Poissons Ratio (x) = 0.28767 0.02342
# Poissons Ratio (y) = 0.46255 -0.00056
# Poissons Ratio (z) = 0.05155 -0.00077
#
# Static dielectric constant tensor:
#      x y z
#    x 2.082500 0.000000 0.058510 
#    y 0.000000 2.360240 0.000000 
#    z 0.058510 0.000000 2.252400 
# 
# From -- ./inp_files/26989.got.cif
#   From: 2010.05.17/outbox.cif.g08.bks.cpg/sg12_14_cif.got.tgz:26989.got - 2010.06.03 13:09:07.
