data_PCOD9187171
_publ_section_title
;
Structure prediction by ZEFSAII (Michael W. Deem and Ramdas Pophale) SiO2 
 PCOD9187171
Probable space group: C 2/M
;
_chemical_formula_sum "Si O2"
_cell_formula_units_Z 56
_cell_length_a 16.733193
_cell_length_b 14.877390
_cell_length_c 18.458448
_cell_angle_alpha 90.000000
_cell_angle_beta 138.911338
_cell_angle_gamma 90.000000
_cell_volume 3020.059933
_symmetry_space_group_name_H-M "C 2/M"
_symmetry_group_IT_number 12
_symmetry_cell_setting 'monoclinic'
loop_
_space_group_symop_operation_xyz
x,y,z
-x,y,-z
-x,-y,-z
x,-y,z
1/2+x,1/2+y,z
1/2-x,1/2+y,-z
1/2-x,1/2-y,-z
1/2+x,1/2-y,z
loop_
_atom_site_type_symbol
_atom_site_label
_atom_site_fract_x
_atom_site_fract_y
_atom_site_fract_z
Si Si1 0.053350 0.602482 0.734947
Si Si2 0.179122 0.891950 0.806186
Si Si3 0.865736 0.401087 0.371461
Si Si4 0.742642 0.752307 0.373984
Si Si5 0.639500 0.108157 0.952641
Si Si6 0.127296 0.606855 0.190330
Si Si7 0.930108 0.216421 0.621799
O O1 0.007908 0.500000 0.714673
O O2 0.128743 0.601423 0.711896
O O3 0.121168 0.630480 0.855451
O O4 0.954408 0.677422 0.649951
O O5 0.283326 0.877406 0.816432
O O6 0.055851 0.837591 0.706914
O O7 0.154900 0.000000 0.791620
O O8 0.241179 0.859897 0.923780
O O9 0.818504 0.500000 0.360763
O O10 0.791128 0.317534 0.348657
O O11 0.000000 0.394445 0.500000
O O12 0.675487 0.833623 0.289013
O O13 0.853884 0.791915 0.496594
O O14 0.656437 0.696195 0.369479
O O15 0.515893 0.130979 0.912221
O O16 0.648177 0.000000 0.961257
O O17 0.132010 0.500000 0.208404
#
# Coordination Sequence:
#
# PCOD9187171 Si02
#       7
#     8   8   8   8   8   8   8
#     4  10  19  35  58  82 105 139 190 233 275 324
#     4  10  22  38  58  84 114 149 186 231 284 335
#     4  10  20  35  58  81 106 146 190 233 276 322
#     4  11  23  37  55  82 118 149 184 230 279 337
#     4   9  18  36  60  84 111 144 189 235 275 332
#     4  10  20  36  60  86 113 147 185 229 284 338
#     4  11  23  37  55  83 115 151 185 227 283 336
#
# _framework density 18.542677999999999
#
# number of rings (size 3 to 8) (size 9 to 14) (size 15 to 20)
#    0.000    1.857    2.857    1.286    0.000    3.429 
#    0.000    4.286    0.000    0.000    0.000    4.000 
#    0.000    0.000    0.000    0.000    0.000    0.000 
#
# Total GULP energy -156065.976455 kJ/mol
# GULP energy per Si atom -5573.784873 kJ/mol
# Density = 1.850047 g / cm^3
# Si number density = 18.542678 Si / 1000 Ang^3
#
#
#
# Elastic Constant Matrix: (Units=GPa)
#
#
# Indices 1 2 3 4 5 6 
#
# 1 74.1488 18.1198 34.4018 0.0000 -1.7611 0.0000
# 2 18.1198 41.8983 17.8559 0.0000 7.1266 0.0000
# 3 34.4018 17.8559 93.2094 0.0000 8.7728 0.0000
# 4 0.0000 0.0000 0.0000 13.1337 0.0000 3.2491
# 5 -1.7611 7.1266 8.7728 0.0000 24.7136 0.0000
# 6 0.0000 0.0000 0.0000 3.2491 0.0000 11.5274
#
#
#
# Elastic Compliance Matrix: (Units=1/GPa)
#
#
# Indices 1 2 3 4 5 6 
#
# 1 0.017827 -0.006065 -0.005899 0.000000 0.005113 0.000000
# 2 -0.006065 0.028919 -0.002561 0.000000 -0.007862 0.000000
# 3 -0.005899 -0.002561 0.013828 0.000000 -0.004591 0.000000
# 4 0.000000 0.000000 0.000000 0.081847 0.000000 -0.023069
# 5 0.005113 -0.007862 -0.004591 0.000000 0.044725 0.000000
# 6 0.000000 0.000000 0.000000 -0.023069 0.000000 0.093252
#
#
# Mechanical properties :
#
#
# Convention : Reuss Voigt Hill
#
# Bulk Modulus (GPa) = 31.72253 38.89015 35.30634
# Shear Modulus (GPa) = 15.62711 19.13356 17.38033
#
# Velocity S-wave (km/s) = 2.90619 3.21575 3.06488
# Velocity P-wave (km/s) = 5.32975 5.89974 5.62197
#
# Compressibility (1/GPa) = 0.03152333
#
# Stress axis : x y z
#
# Youngs Moduli (GPa) = 56.09511 34.57886 72.31482
#
# Poissons Ratio (x) = 0.20974 0.42658
# Poissons Ratio (y) = 0.34024 0.18522
# Poissons Ratio (z) = 0.33090 0.08857
#
# Static dielectric constant tensor:
#      x y z
#    x 1.687700 0.000000 -0.024660 
#    y 0.000000 1.643660 0.000000 
#    z -0.024660 0.000000 1.639090 
# 
# From -- ./inp_files/156143.got.cif
#   From: 2010.05.17/outbox.cif.g08.bks.cpg/sg12_79_cif.got.tgz:156143.got - 2010.06.03 13:09:07.
