data_PCOD9187372
_publ_section_title
;
Structure prediction by ZEFSAII (Michael W. Deem and Ramdas Pophale) SiO2 
 PCOD9187372
Probable space group: C 2/M
;
_chemical_formula_sum "Si O2"
_cell_formula_units_Z 64
_cell_length_a 24.720578
_cell_length_b 9.750954
_cell_length_c 14.861478
_cell_angle_alpha 90.000000
_cell_angle_beta 87.951659
_cell_angle_gamma 90.000000
_cell_volume 3580.058638
_symmetry_space_group_name_H-M "C 2/M"
_symmetry_group_IT_number 12
_symmetry_cell_setting 'monoclinic'
loop_
_space_group_symop_operation_xyz
x,y,z
-x,y,-z
-x,-y,-z
x,-y,z
1/2+x,1/2+y,z
1/2-x,1/2+y,-z
1/2-x,1/2-y,-z
1/2+x,1/2-y,z
loop_
_atom_site_type_symbol
_atom_site_label
_atom_site_fract_x
_atom_site_fract_y
_atom_site_fract_z
Si Si1 0.065394 0.835288 0.492795
Si Si2 0.820081 0.663507 0.183313
Si Si3 0.288073 0.837036 0.810183
Si Si4 0.599029 0.843479 0.655646
Si Si5 0.961101 0.849043 0.918073
Si Si6 0.885904 0.656177 0.670114
Si Si7 0.506354 0.853705 0.221458
Si Si8 0.139407 0.662603 0.020987
O O1 0.095114 0.766172 0.576485
O O2 0.093536 0.762410 0.405670
O O3 0.000000 0.806035 0.500000
O O4 0.071317 0.000000 0.490519
O O5 0.809295 0.500000 0.184261
O O6 0.765516 0.748803 0.198817
O O7 0.861371 0.690512 0.263255
O O8 0.844200 0.695586 0.082700
O O9 0.332517 0.806264 0.730080
O O10 0.314116 0.810905 0.907304
O O11 0.276724 0.000000 0.805900
O O12 0.538820 0.848455 0.700159
O O13 0.612057 0.000000 0.623854
O O14 0.911656 0.751037 0.945731
O O15 0.996729 0.777132 0.840185
O O16 0.941816 0.000000 0.891895
O O17 0.000000 0.860077 0.000000
O O18 0.879277 0.500000 0.633805
O O19 0.934599 0.648072 0.738778
O O20 0.498739 0.000000 0.172387
O O21 0.126996 0.500000 0.026223
#
# Coordination Sequence:
#
# PCOD9187372 Si02
#       8
#     8   8   8   8   8   8   8   8
#     4  11  23  37  58  90 121 150 184 232 294 350
#     4  10  22  38  59  87 116 151 196 242 286 335
#     4  10  21  38  60  86 116 152 195 238 284 338
#     4  10  21  38  60  86 115 152 195 235 283 346
#     4  11  23  34  48  79 120 156 190 233 289 343
#     4  10  20  37  61  87 112 147 192 233 280 341
#     4  10  19  35  59  82 110 150 190 232 283 337
#     4  10  20  38  60  83 113 151 201 243 276 338
#
# _framework density 17.876802000000001
#
# number of rings (size 3 to 8) (size 9 to 14) (size 15 to 20)
#    0.000    1.750    2.500    1.875    0.000    5.500 
#    0.000    0.625    0.000    0.000    0.000    0.000 
#    0.000    0.000    0.000    0.000    0.000    0.000 
#
# Total GULP energy -178478.366388 kJ/mol
# GULP energy per Si atom -5577.448950 kJ/mol
# Density = 1.783611 g / cm^3
# Si number density = 17.876802 Si / 1000 Ang^3
#
#
#
# Elastic Constant Matrix: (Units=GPa)
#
#
# Indices 1 2 3 4 5 6 
#
# 1 31.4428 22.0486 8.9198 0.0000 0.6758 0.0000
# 2 22.0486 78.8964 55.1054 0.0000 -0.6147 0.0000
# 3 8.9198 55.1054 92.6287 0.0000 -1.3046 0.0000
# 4 0.0000 0.0000 0.0000 -117.2978 0.0000 67.4205
# 5 0.6758 -0.6147 -1.3046 0.0000 16.1797 0.0000
# 6 0.0000 0.0000 0.0000 67.4205 0.0000 -4.1346
#
#
#
# Elastic Compliance Matrix: (Units=1/GPa)
#
#
# Indices 1 2 3 4 5 6 
#
# 1 0.040864 -0.014830 0.004861 0.000000 -0.001878 0.000000
# 2 -0.014830 0.027068 -0.014668 0.000000 0.000465 0.000000
# 3 0.004861 -0.014668 0.019065 0.000000 0.000777 0.000000
# 4 0.000000 0.000000 0.000000 0.001018 0.000000 0.016604
# 5 -0.001878 0.000465 0.000777 0.000000 0.061965 0.000000
# 6 0.000000 0.000000 0.000000 0.016604 0.000000 0.028887
#
#
# Mechanical properties :
#
#
# Convention : Reuss Voigt Hill
#
# Bulk Modulus (GPa) = 26.50928 41.67948 34.09438
# Shear Modulus (GPa) = 20.77138 -13.25759 3.75690
#
# Velocity S-wave (km/s) = 3.41239 -2.72620 1.45124
# Velocity P-wave (km/s) = 5.51243 3.66822 4.68203
#
# Compressibility (1/GPa) = 0.03772264
#
# Stress axis : x y z
#
# Youngs Moduli (GPa) = 24.47129 36.94410 52.45235
#
# Poissons Ratio (x) = 0.54787 -0.25496
# Poissons Ratio (y) = 0.36290 0.76939
# Poissons Ratio (z) = -0.11895 0.54191
#
# Static dielectric constant tensor:
#      x y z
#    x 1.581160 0.000000 0.004810 
#    y 0.000000 1.633610 0.000000 
#    z 0.004810 0.000000 1.621460 
# 
# From -- ./inp_files/238732.got.cif
#   From: 2010.05.17/outbox.cif.g08.bks.cpg/sg12_120_cif.got.tgz:238732.got - 2010.06.03 13:09:07.
