data_PCOD9187744
_publ_section_title
;
Structure prediction by ZEFSAII (Michael W. Deem and Ramdas Pophale) SiO2 
 PCOD9187744
Probable space group: C 2/M
;
_chemical_formula_sum "Si O2"
_cell_formula_units_Z 48
_cell_length_a 21.112653
_cell_length_b 8.343442
_cell_length_c 15.224700
_cell_angle_alpha 90.000000
_cell_angle_beta 71.864820
_cell_angle_gamma 90.000000
_cell_volume 2548.642174
_symmetry_space_group_name_H-M "C 2/M"
_symmetry_group_IT_number 12
_symmetry_cell_setting 'monoclinic'
loop_
_space_group_symop_operation_xyz
x,y,z
-x,y,-z
-x,-y,-z
x,-y,z
1/2+x,1/2+y,z
1/2-x,1/2+y,-z
1/2-x,1/2-y,-z
1/2+x,1/2-y,z
loop_
_atom_site_type_symbol
_atom_site_label
_atom_site_fract_x
_atom_site_fract_y
_atom_site_fract_z
Si Si1 0.070489 0.806262 0.012083
Si Si2 0.319939 0.307714 0.510268
Si Si3 0.333281 0.695599 0.182930
Si Si4 0.581020 0.306351 0.684057
Si Si5 0.566430 0.808461 0.212718
Si Si6 0.184024 0.693821 0.289420
O O1 0.076417 0.747456 0.108544
O O2 0.070038 0.000000 0.013733
O O3 0.129733 0.753006 0.921873
O O4 0.000000 0.754896 0.000000
O O5 0.319645 0.500000 0.511066
O O6 0.250000 0.250000 0.500000
O O7 0.379154 0.253586 0.419778
O O8 0.327275 0.245769 0.605705
O O9 0.333010 0.500000 0.183278
O O10 0.377205 0.745813 0.248012
O O11 0.257288 0.749408 0.226874
O O12 0.580263 0.500000 0.685412
O O13 0.505717 0.248085 0.723286
O O14 0.625535 0.748756 0.250464
O O15 0.567593 0.000000 0.213641
O O16 0.184757 0.500000 0.287037
#
# Coordination Sequence:
#
# PCOD9187744 Si02
#       6
#     8   8   8   8   8   8
#     4  10  19  35  61  86 109 149 200 239 280 345
#     4  11  22  37  62  91 116 150 194 241 287 339
#     4   9  17  35  61  83 108 151 197 234 277 343
#     4  10  20  38  62  84 112 153 197 235 279 346
#     4  11  24  38  56  86 123 154 185 243 301 336
#     4  10  22  41  59  82 121 159 191 233 292 348
#
# _framework density 18.833558
#
# number of rings (size 3 to 8) (size 9 to 14) (size 15 to 20)
#    0.000    1.833    3.333    1.000    0.000    4.333 
#    0.000    4.167    0.000    0.000    0.000    0.000 
#    0.000    0.000    0.000    0.000    0.000    0.000 
#
# Total GULP energy -134045.245280 kJ/mol
# GULP energy per Si atom -5585.218553 kJ/mol
# Density = 1.879069 g / cm^3
# Si number density = 18.833558 Si / 1000 Ang^3
#
#
#
# Elastic Constant Matrix: (Units=GPa)
#
#
# Indices 1 2 3 4 5 6 
#
# 1 199.3924 23.2153 129.8449 0.0000 -0.9533 0.0000
# 2 23.2153 9.8504 21.1296 0.0000 -2.2469 0.0000
# 3 129.8449 21.1296 214.7411 0.0000 -12.3578 0.0000
# 4 0.0000 0.0000 0.0000 30.5766 0.0000 2.1869
# 5 -0.9533 -2.2469 -12.3578 0.0000 39.2136 0.0000
# 6 0.0000 0.0000 0.0000 2.1869 0.0000 23.3335
#
#
#
# Elastic Compliance Matrix: (Units=1/GPa)
#
#
# Indices 1 2 3 4 5 6 
#
# 1 0.009503 -0.013025 -0.004577 0.000000 -0.001958 0.000000
# 2 -0.013025 0.146989 -0.006234 0.000000 0.006141 0.000000
# 3 -0.004577 -0.006234 0.008159 0.000000 0.002103 0.000000
# 4 0.000000 0.000000 0.000000 0.032925 0.000000 -0.003086
# 5 -0.001958 0.006141 0.002103 0.000000 0.026468 0.000000
# 6 0.000000 0.000000 0.000000 -0.003086 0.000000 0.043146
#
#
# Mechanical properties :
#
#
# Convention : Reuss Voigt Hill
#
# Bulk Modulus (GPa) = 8.54858 85.81817 47.18337
# Shear Modulus (GPa) = 14.13005 35.27767 24.70386
#
# Velocity S-wave (km/s) = 2.74206 4.33266 3.62566
# Velocity P-wave (km/s) = 3.81760 8.40802 6.52950
#
# Compressibility (1/GPa) = 0.11697848
#
# Stress axis : x y z
#
# Youngs Moduli (GPa) = 105.22974 6.80323 122.56728
#
# Poissons Ratio (x) = 0.08861 0.56101
# Poissons Ratio (y) = 1.37061 0.76409
# Poissons Ratio (z) = 0.48165 0.04241
#
# Static dielectric constant tensor:
#      x y z
#    x 1.632490 0.000000 -0.010830 
#    y 0.000000 1.661010 0.000000 
#    z -0.010830 0.000000 1.633320 
# 
# From -- ./inp_files/229803.got.cif
#   From: 2010.05.17/outbox.cif.g08.bks.cpg/sg12_115_cif.got.tgz:229803.got - 2010.06.03 13:09:07.
