data_PCOD9187336
_publ_section_title
;
Structure prediction by ZEFSAII (Michael W. Deem and Ramdas Pophale) SiO2 
 PCOD9187336
Probable space group: C 2/M
;
_chemical_formula_sum "Si O2"
_cell_formula_units_Z 40
_cell_length_a 7.994077
_cell_length_b 19.925015
_cell_length_c 13.587281
_cell_angle_alpha 90.000000
_cell_angle_beta 120.162637
_cell_angle_gamma 90.000000
_cell_volume 1871.182293
_symmetry_space_group_name_H-M "C 2/M"
_symmetry_group_IT_number 12
_symmetry_cell_setting 'monoclinic'
loop_
_space_group_symop_operation_xyz
x,y,z
-x,y,-z
-x,-y,-z
x,-y,z
1/2+x,1/2+y,z
1/2-x,1/2+y,-z
1/2-x,1/2-y,-z
1/2+x,1/2-y,z
loop_
_atom_site_type_symbol
_atom_site_label
_atom_site_fract_x
_atom_site_fract_y
_atom_site_fract_z
Si Si1 0.112572 0.573686 0.783430
Si Si2 0.785344 0.797898 0.919095
Si Si3 0.236117 0.646268 0.632615
Si Si4 0.780534 0.893730 0.427905
Si Si5 0.380947 0.726342 0.314120
O O1 0.167288 0.500000 0.837196
O O2 0.148252 0.637532 0.864423
O O3 0.234151 0.593330 0.720899
O O4 0.888987 0.571863 0.683413
O O5 0.760076 0.750328 0.815403
O O6 0.750000 0.750000 0.000000
O O7 0.000000 0.825050 0.000000
O O8 0.211860 0.612268 0.520166
O O9 0.435086 0.688926 0.678584
O O10 0.082742 0.702729 0.622123
O O11 0.806487 0.823310 0.376898
O O12 0.000000 0.921631 0.500000
#
# Coordination Sequence:
#
# PCOD9187336 Si02
#       5
#     8   8   8   8   8
#     4  11  24  41  59  86 122 160 204 247 297 365
#     4  11  22  39  64  88 114 153 203 260 311 349
#     4  10  20  34  58  89 123 160 192 240 301 361
#     4  10  21  36  59  90 124 161 197 242 300 362
#     4  10  19  35  58  91 122 148 201 258 302 352
#
# _framework density 21.376860000000001
#
# number of rings (size 3 to 8) (size 9 to 14) (size 15 to 20)
#    0.000    1.600    0.000    7.200    0.000    8.800 
#    0.000    3.000    0.000    5.400    0.000    0.000 
#    0.000    0.000    0.000    0.000    0.000    0.000 
#
# Total GULP energy -111578.094855 kJ/mol
# GULP energy per Si atom -5578.904743 kJ/mol
# Density = 2.132821 g / cm^3
# Si number density = 21.376860 Si / 1000 Ang^3
#
#
#
# Elastic Constant Matrix: (Units=GPa)
#
#
# Indices 1 2 3 4 5 6 
#
# 1 82.8866 19.0208 19.3451 0.0000 3.4628 0.0000
# 2 19.0208 126.5213 35.4661 0.0000 -3.5930 0.0000
# 3 19.3451 35.4661 117.5036 0.0000 1.8469 0.0000
# 4 0.0000 0.0000 0.0000 1.7062 0.0000 6.1071
# 5 3.4628 -3.5930 1.8469 0.0000 47.9867 0.0000
# 6 0.0000 0.0000 0.0000 6.1071 0.0000 7.4113
#
#
#
# Elastic Compliance Matrix: (Units=1/GPa)
#
#
# Indices 1 2 3 4 5 6 
#
# 1 0.012833 -0.001496 -0.001646 0.000000 -0.000975 0.000000
# 2 -0.001496 0.008835 -0.002434 0.000000 0.000863 0.000000
# 3 -0.001646 -0.002434 0.009523 0.000000 -0.000430 0.000000
# 4 0.000000 0.000000 0.000000 -0.300639 0.000000 0.247736
# 5 -0.000975 0.000863 -0.000430 0.000000 0.020991 0.000000
# 6 0.000000 0.000000 0.000000 0.247736 0.000000 -0.069214
#
#
# Mechanical properties :
#
#
# Convention : Reuss Voigt Hill
#
# Bulk Modulus (GPa) = 49.90093 52.73061 51.31577
# Shear Modulus (GPa) = -16.67559 28.29281 5.80861
#
# Velocity S-wave (km/s) = -2.79602 3.64197 1.65019
# Velocity P-wave (km/s) = 3.60146 6.51199 5.26196
#
# Compressibility (1/GPa) = 0.02003971
#
# Stress axis : x y z
#
# Youngs Moduli (GPa) = 77.92563 113.17990 105.01078
#
# Poissons Ratio (x) = 0.16926 0.17285
# Poissons Ratio (y) = 0.11654 0.25561
# Poissons Ratio (z) = 0.12827 0.27550
#
# Static dielectric constant tensor:
#      x y z
#    x 1.855720 0.000000 0.045380 
#    y 0.000000 1.763270 0.000000 
#    z 0.045380 0.000000 1.835760 
# 
# From -- ./inp_files/197318.got.cif
#   From: 2010.05.17/outbox.cif.g08.bks.cpg/sg12_99_cif.got.tgz:197318.got - 2010.06.03 13:09:07.
