data_PCOD9187934
_publ_section_title
;
Structure prediction by ZEFSAII (Michael W. Deem and Ramdas Pophale) SiO2 
 PCOD9187934
Probable space group: C 2/M
;
_chemical_formula_sum "Si O2"
_cell_formula_units_Z 36
_cell_length_a 5.124308
_cell_length_b 31.052021
_cell_length_c 11.251975
_cell_angle_alpha 90.000000
_cell_angle_beta 105.582585
_cell_angle_gamma 90.000000
_cell_volume 1724.607558
_symmetry_space_group_name_H-M "C 2/M"
_symmetry_group_IT_number 12
_symmetry_cell_setting 'monoclinic'
loop_
_space_group_symop_operation_xyz
x,y,z
-x,y,-z
-x,-y,-z
x,-y,z
1/2+x,1/2+y,z
1/2-x,1/2+y,-z
1/2-x,1/2-y,-z
1/2+x,1/2-y,z
loop_
_atom_site_type_symbol
_atom_site_label
_atom_site_fract_x
_atom_site_fract_y
_atom_site_fract_z
Si Si1 0.448195 0.135995 0.860199
Si Si2 0.248425 0.500000 0.364694
Si Si3 0.829775 0.000000 0.785454
Si Si4 0.889561 0.095866 0.759087
Si Si5 0.270337 0.267439 0.139284
Si Si6 0.000000 0.429000 0.500000
O O1 0.724347 0.128449 0.822946
O O2 0.349852 0.185297 0.859444
O O3 0.195389 0.110499 0.773507
O O4 0.500000 0.120090 0.000000
O O5 0.528684 0.500000 0.329103
O O6 0.184761 0.458846 0.437426
O O7 0.994958 0.500000 0.243549
O O8 0.904207 0.950932 0.827570
O O9 0.707446 0.093331 0.617073
O O10 0.589469 0.263628 0.198579
O O11 0.250000 0.250000 0.000000
#
# Coordination Sequence:
#
# PCOD9187934 Si02
#       6
#     8   4   4   8   8   4
#     4  12  24  39  58  93 126 149 196 248 310 348
#     4   9  18  32  64  81 106 147 216 298 261 314
#     4  10  20  39  55  85 116 165 219 233 305 314
#     4  11  24  37  61  86 124 165 195 262 277 356
#     4  10  19  35  63  88 113 136 186 260 299 348
#     4   9  20  38  58  92 114 152 216 246 320 316
#
# _framework density 20.874313000000001
#
# number of rings (size 3 to 8) (size 9 to 14) (size 15 to 20)
#    0.000    1.556    2.222    5.333    3.111   11.556 
#    0.000    3.333    0.000    0.000    0.000   15.556 
#    0.000    0.000    0.000    0.000    0.000    0.000 
#
# Total GULP energy -100271.227762 kJ/mol
# GULP energy per Si atom -5570.623765 kJ/mol
# Density = 2.082680 g / cm^3
# Si number density = 20.874313 Si / 1000 Ang^3
#
#
#
# Elastic Constant Matrix: (Units=GPa)
#
#
# Indices 1 2 3 4 5 6 
#
# 1 104.2913 10.8089 -4.9261 0.0000 -3.1736 0.0000
# 2 10.8089 97.8265 -3.1707 0.0000 -3.2171 0.0000
# 3 -4.9261 -3.1707 49.1521 0.0000 2.4307 0.0000
# 4 0.0000 0.0000 0.0000 22.6356 0.0000 -5.2476
# 5 -3.1736 -3.2171 2.4307 0.0000 26.3344 0.0000
# 6 0.0000 0.0000 0.0000 -5.2476 0.0000 41.0412
#
#
#
# Elastic Compliance Matrix: (Units=1/GPa)
#
#
# Indices 1 2 3 4 5 6 
#
# 1 0.009765 -0.001019 0.000865 0.000000 0.000972 0.000000
# 2 -0.001019 0.010388 0.000514 0.000000 0.001099 0.000000
# 3 0.000865 0.000514 0.020550 0.000000 -0.001730 0.000000
# 4 0.000000 0.000000 0.000000 0.045528 0.000000 0.005821
# 5 0.000972 0.001099 -0.001730 0.000000 0.038384 0.000000
# 6 0.000000 0.000000 0.000000 0.005821 0.000000 0.025110
#
#
# Mechanical properties :
#
#
# Convention : Reuss Voigt Hill
#
# Bulk Modulus (GPa) = 24.14203 28.52158 26.33180
# Shear Modulus (GPa) = 30.71016 34.57277 32.64146
#
# Velocity S-wave (km/s) = 3.83978 4.07410 3.95867
# Velocity P-wave (km/s) = 5.59008 5.98533 5.79108
#
# Compressibility (1/GPa) = 0.04142155
#
# Stress axis : x y z
#
# Youngs Moduli (GPa) = 102.41116 96.26926 48.66094
#
# Poissons Ratio (x) = 0.09809 -0.04208
# Poissons Ratio (y) = 0.10434 -0.02499
# Poissons Ratio (z) = -0.08856 -0.04945
#
# Static dielectric constant tensor:
#      x y z
#    x 1.838740 0.000000 0.104000 
#    y 0.000000 1.816070 0.000000 
#    z 0.104000 0.000000 1.830150 
# 
# From -- ./inp_files/115850.got.cif
#   From: 2010.05.17/outbox.cif.g08.bks.cpg/sg12_58_cif.got.tgz:115850.got - 2010.06.03 13:09:07.
