data_PCOD9187481
_publ_section_title
;
Structure prediction by ZEFSAII (Michael W. Deem and Ramdas Pophale) SiO2 
 PCOD9187481
Probable space group: C 2/M
;
_chemical_formula_sum "Si O2"
_cell_formula_units_Z 48
_cell_length_a 30.054788
_cell_length_b 9.103817
_cell_length_c 14.284242
_cell_angle_alpha 90.000000
_cell_angle_beta 38.940221
_cell_angle_gamma 90.000000
_cell_volume 2456.439323
_symmetry_space_group_name_H-M "C 2/M"
_symmetry_group_IT_number 12
_symmetry_cell_setting 'monoclinic'
loop_
_space_group_symop_operation_xyz
x,y,z
-x,y,-z
-x,-y,-z
x,-y,z
1/2+x,1/2+y,z
1/2-x,1/2+y,-z
1/2-x,1/2-y,-z
1/2+x,1/2-y,z
loop_
_atom_site_type_symbol
_atom_site_label
_atom_site_fract_x
_atom_site_fract_y
_atom_site_fract_z
Si Si1 0.138844 0.174163 0.642772
Si Si2 0.607270 0.672894 0.383826
Si Si3 0.723948 0.827820 0.889795
Si Si4 0.207868 0.673730 0.699503
Si Si5 0.599175 0.326245 0.183543
Si Si6 0.532666 0.825452 0.679531
O O1 0.156983 0.233544 0.716078
O O2 0.210897 0.203012 0.465125
O O3 0.074754 0.256832 0.697770
O O4 0.126707 0.000000 0.662475
O O5 0.593283 0.500000 0.428341
O O6 0.691931 0.692998 0.243044
O O7 0.580927 0.703774 0.322028
O O8 0.573671 0.770909 0.519251
O O9 0.701342 0.796026 0.819822
O O10 0.709837 0.000000 0.932719
O O11 0.678262 0.727428 0.032586
O O12 0.195607 0.500000 0.703717
O O13 0.593031 0.500000 0.179252
O O14 0.545683 0.239426 0.204591
O O15 0.531478 0.000000 0.687304
#
# Coordination Sequence:
#
# PCOD9187481 Si02
#       6
#     8   8   8   8   8   8
#     4  10  19  35  59  86 117 149 188 237 288 342
#     4  10  21  40  62  85 115 154 195 240 290 340
#     4  10  20  38  61  86 120 154 189 235 288 343
#     4   9  18  34  58  87 117 149 186 233 287 341
#     4  11  24  39  58  84 119 157 195 238 289 345
#     4  12  24  38  59  86 117 153 197 242 288 343
#
# _framework density 19.540478
#
# number of rings (size 3 to 8) (size 9 to 14) (size 15 to 20)
#    0.000    1.667    1.667    3.500    0.000    5.333 
#    0.000    0.833    0.000    5.000    0.000    0.000 
#    0.000    0.000    0.000    0.000    0.000    0.000 
#
# Total GULP energy -134174.394234 kJ/mol
# GULP energy per Si atom -5590.599760 kJ/mol
# Density = 1.949600 g / cm^3
# Si number density = 19.540478 Si / 1000 Ang^3
#
#
#
# Elastic Constant Matrix: (Units=GPa)
#
#
# Indices 1 2 3 4 5 6 
#
# 1 94.1163 46.6187 -2.3763 0.0000 -13.5016 0.0000
# 2 46.6187 62.5982 10.1708 0.0000 -6.3088 0.0000
# 3 -2.3763 10.1708 26.5071 0.0000 -2.3571 0.0000
# 4 0.0000 0.0000 0.0000 28.0405 0.0000 1.4790
# 5 -13.5016 -6.3088 -2.3571 0.0000 21.5244 0.0000
# 6 0.0000 0.0000 0.0000 1.4790 0.0000 29.4579
#
#
#
# Elastic Compliance Matrix: (Units=1/GPa)
#
#
# Indices 1 2 3 4 5 6 
#
# 1 0.019521 -0.015002 0.008285 0.000000 0.008755 0.000000
# 2 -0.015002 0.028973 -0.012667 0.000000 -0.002305 0.000000
# 3 0.008285 -0.012667 0.043888 0.000000 0.006290 0.000000
# 4 0.000000 0.000000 0.000000 0.035757 0.000000 -0.001795
# 5 0.008755 -0.002305 0.006290 0.000000 0.051964 0.000000
# 6 0.000000 0.000000 0.000000 -0.001795 0.000000 0.034037
#
#
# Mechanical properties :
#
#
# Convention : Reuss Voigt Hill
#
# Bulk Modulus (GPa) = 18.65165 32.44978 25.55071
# Shear Modulus (GPa) = 18.46523 24.39178 21.42850
#
# Velocity S-wave (km/s) = 3.07738 3.53692 3.31512
# Velocity P-wave (km/s) = 4.71093 5.77254 5.26854
#
# Compressibility (1/GPa) = 0.05361456
#
# Stress axis : x y z
#
# Youngs Moduli (GPa) = 51.22661 34.51512 22.78525
#
# Poissons Ratio (x) = 0.51778 -0.18877
# Poissons Ratio (y) = 0.76848 0.28862
# Poissons Ratio (z) = -0.42440 0.43720
#
# Static dielectric constant tensor:
#      x y z
#    x 1.683320 0.000000 -0.011540 
#    y 0.000000 1.642610 0.000000 
#    z -0.011540 0.000000 1.683900 
# 
# From -- ./inp_files/244615.got.cif
#   From: 2010.05.17/outbox.cif.g08.bks.cpg/sg12_123_cif.got.tgz:244615.got - 2010.06.03 13:09:07.
