data_PCOD9187115
_publ_section_title
;
Structure prediction by ZEFSAII (Michael W. Deem and Ramdas Pophale) SiO2 
 PCOD9187115
Probable space group: C 2/M
;
_chemical_formula_sum "Si O2"
_cell_formula_units_Z 52
_cell_length_a 21.923323
_cell_length_b 7.747757
_cell_length_c 20.938166
_cell_angle_alpha 90.000000
_cell_angle_beta 42.428766
_cell_angle_gamma 90.000000
_cell_volume 2399.464761
_symmetry_space_group_name_H-M "C 2/M"
_symmetry_group_IT_number 12
_symmetry_cell_setting 'monoclinic'
loop_
_space_group_symop_operation_xyz
x,y,z
-x,y,-z
-x,-y,-z
x,-y,z
1/2+x,1/2+y,z
1/2-x,1/2+y,-z
1/2-x,1/2-y,-z
1/2+x,1/2-y,z
loop_
_atom_site_type_symbol
_atom_site_label
_atom_site_fract_x
_atom_site_fract_y
_atom_site_fract_z
Si Si1 0.819336 0.702608 0.076498
Si Si2 0.756200 0.700420 0.588355
Si Si3 0.781675 0.500000 0.917398
Si Si4 0.715977 0.802947 0.756942
Si Si5 0.072985 0.191613 0.175643
Si Si6 0.512196 0.701154 0.898360
Si Si7 0.903249 0.699916 0.377747
O O1 0.800916 0.500000 0.075687
O O2 0.790213 0.845344 0.048174
O O3 0.769763 0.755202 0.181057
O O4 0.927254 0.720495 0.001366
O O5 0.746859 0.500000 0.577464
O O6 0.758574 0.712308 0.662722
O O7 0.845281 0.766005 0.482983
O O8 0.668037 0.789098 0.626073
O O9 0.857530 0.347156 0.871957
O O10 0.608077 0.791079 0.830896
O O11 0.745422 0.000000 0.731370
O O12 0.018934 0.209165 0.151173
O O13 0.995188 0.204740 0.289483
O O14 0.115877 0.000000 0.145240
O O15 0.524467 0.500000 0.905990
O O16 0.926574 0.500000 0.370287
#
# Coordination Sequence:
#
# PCOD9187115 Si02
#       7
#     8   8   4   8   8   8   8
#     4  11  26  45  63  92 125 167 224 262 309 376
#     4  10  20  32  58  94 130 165 200 251 318 387
#     4  12  26  46  67  87 123 182 210 265 312 367
#     4  11  23  38  63  93 130 166 205 264 319 381
#     4  11  24  41  64  94 128 164 212 263 312 376
#     4  11  23  40  63  96 126 165 211 263 326 377
#     4  10  19  35  57  92 132 164 202 253 318 380
#
# _framework density 21.671500999999999
#
# number of rings (size 3 to 8) (size 9 to 14) (size 15 to 20)
#    0.000    1.231    3.077    2.769    4.308    4.308 
#    0.000    0.000    0.000    1.846    0.000    3.231 
#    0.000    0.000    0.000    0.000    0.000    0.000 
#
# Total GULP energy -144846.883630 kJ/mol
# GULP energy per Si atom -5571.033986 kJ/mol
# Density = 2.162218 g / cm^3
# Si number density = 21.671501 Si / 1000 Ang^3
#
#
#
# Elastic Constant Matrix: (Units=GPa)
#
#
# Indices 1 2 3 4 5 6 
#
# 1 19.7213 21.7594 24.2748 -0.0002 -15.9460 -0.0001
# 2 21.7594 122.1362 19.4521 0.0025 5.7392 -0.0023
# 3 24.2748 19.4521 90.4805 -0.0005 39.6187 0.0001
# 4 -0.0002 0.0025 -0.0005 30.4970 -0.0002 -3.4098
# 5 -15.9460 5.7392 39.6187 -0.0002 1.5117 0.0002
# 6 -0.0001 -0.0023 0.0001 -3.4098 0.0002 24.6958
#
#
#
# Elastic Compliance Matrix: (Units=1/GPa)
#
#
# Indices 1 2 3 4 5 6 
#
# 1 0.018515 -0.003315 0.009096 0.000000 -0.030490 0.000000
# 2 -0.003315 0.009036 -0.002795 -0.000001 0.003977 0.000001
# 3 0.009096 -0.002795 0.003574 0.000000 0.012877 0.000000
# 4 0.000000 -0.000001 0.000000 0.033304 0.000000 0.004598
# 5 -0.030490 0.003977 0.012877 0.000000 -0.012679 0.000000
# 6 0.000000 0.000001 0.000000 0.004598 0.000000 0.041128
#
#
# Mechanical properties :
#
#
# Convention : Reuss Voigt Hill
#
# Bulk Modulus (GPa) = 26.95526 40.36784 33.66155
# Shear Modulus (GPa) = 50.36646 22.46434 36.41540
#
# Velocity S-wave (km/s) = 4.82611 3.22310 4.10364
# Velocity P-wave (km/s) = 6.59699 5.70252 6.16599
#
# Compressibility (1/GPa) = 0.03709851
#
# Stress axis : x y z
#
# Youngs Moduli (GPa) = 54.00966 110.66435 279.76720
#
# Poissons Ratio (x) = 0.36680 -2.54466
# Poissons Ratio (y) = 0.17902 0.78190
# Poissons Ratio (z) = -0.49125 0.30929
#
# Static dielectric constant tensor:
#      x y z
#    x 1.780670 0.000000 0.061070 
#    y 0.000000 1.777670 0.000000 
#    z 0.061070 0.000000 1.868930 
# 
# From -- ./inp_files/324034.got.cif
#   From: 2010.05.17/outbox.cif.g08.bks.cpg/sg12_163_cif.got.tgz:324034.got - 2010.06.03 13:09:07.
