data_PCOD9187855
_publ_section_title
;
Structure prediction by ZEFSAII (Michael W. Deem and Ramdas Pophale) SiO2 
 PCOD9187855
Probable space group: C 2/M
;
_chemical_formula_sum "Si O2"
_cell_formula_units_Z 40
_cell_length_a 10.127220
_cell_length_b 18.138049
_cell_length_c 13.931608
_cell_angle_alpha 90.000000
_cell_angle_beta 139.981454
_cell_angle_gamma 90.000000
_cell_volume 1645.572554
_symmetry_space_group_name_H-M "C 2/M"
_symmetry_group_IT_number 12
_symmetry_cell_setting 'monoclinic'
loop_
_space_group_symop_operation_xyz
x,y,z
-x,y,-z
-x,-y,-z
x,-y,z
1/2+x,1/2+y,z
1/2-x,1/2+y,-z
1/2-x,1/2-y,-z
1/2+x,1/2-y,z
loop_
_atom_site_type_symbol
_atom_site_label
_atom_site_fract_x
_atom_site_fract_y
_atom_site_fract_z
Si Si1 0.210607 0.415192 0.176479
Si Si2 0.467898 0.276558 0.089974
Si Si3 0.186858 0.082942 0.202335
Si Si4 0.370456 0.656628 0.650651
Si Si5 0.383888 0.910901 0.652470
O O1 0.286023 0.500000 0.209965
O O2 0.393777 0.363694 0.241859
O O3 0.157281 0.401061 0.257813
O O4 0.000000 0.410726 0.000000
O O5 0.489644 0.364579 0.088008
O O6 0.619234 0.273841 0.268360
O O7 0.500000 0.246504 0.000000
O O8 0.250000 0.250000 0.000000
O O9 0.240546 0.095547 0.344018
O O10 0.381195 0.104753 0.246874
O O11 0.134959 0.000000 0.155461
O O12 0.252728 0.645622 0.485843
O O13 0.346578 0.000000 0.612301
#
# Coordination Sequence:
#
# PCOD9187855 Si02
#       5
#     8   8   8   8   8
#     4  10  21  33  53  97 152 194 221 264 340 420
#     4  10  25  46  67  95 133 190 234 284 353 417
#     4   9  20  37  66 103 138 173 225 290 350 414
#     4  10  21  36  65  96 136 185 230 278 338 409
#     4  10  19  35  62 102 152 185 220 280 353 421
#
# _framework density 24.307648
#
# number of rings (size 3 to 8) (size 9 to 14) (size 15 to 20)
#    1.200    1.000    0.000    3.000    2.800    4.400 
#    0.000    0.000    0.000    5.400    0.000    0.000 
#    0.000    0.000    0.000    3.600    0.000    0.000 
#
# Total GULP energy -111449.224733 kJ/mol
# GULP energy per Si atom -5572.461237 kJ/mol
# Density = 2.425232 g / cm^3
# Si number density = 24.307648 Si / 1000 Ang^3
#
#
#
# Elastic Constant Matrix: (Units=GPa)
#
#
# Indices 1 2 3 4 5 6 
#
# 1 179.4616 34.6428 51.9735 0.0000 -16.5770 0.0000
# 2 34.6428 70.4458 44.7479 0.0000 12.4256 0.0000
# 3 51.9735 44.7479 128.6736 -0.0002 -33.3336 0.0001
# 4 0.0000 0.0000 -0.0002 28.3092 -0.0001 10.8059
# 5 -16.5770 12.4256 -33.3336 -0.0001 56.2087 0.0000
# 6 0.0000 0.0000 0.0001 10.8059 0.0000 5.9584
#
#
#
# Elastic Compliance Matrix: (Units=1/GPa)
#
#
# Indices 1 2 3 4 5 6 
#
# 1 0.006641 -0.002818 -0.001222 0.000000 0.001857 0.000000
# 2 -0.002818 0.024582 -0.010674 -0.000001 -0.012595 0.000001
# 3 -0.001222 -0.010674 0.014763 0.000001 0.010754 -0.000001
# 4 0.000000 -0.000001 0.000001 0.114783 0.000001 -0.208166
# 5 0.001857 -0.012595 0.010754 0.000001 0.027500 -0.000001
# 6 0.000000 0.000001 -0.000001 -0.208166 -0.000001 0.545351
#
#
# Mechanical properties :
#
#
# Convention : Reuss Voigt Hill
#
# Bulk Modulus (GPa) = 60.38259 71.25658 65.81958
# Shear Modulus (GPa) = 6.50562 34.57637 20.54099
#
# Velocity S-wave (km/s) = 1.63773 3.77563 2.91011
# Velocity P-wave (km/s) = 5.33584 6.95595 6.19905
#
# Compressibility (1/GPa) = 0.01656107
#
# Stress axis : x y z
#
# Youngs Moduli (GPa) = 150.56923 40.67947 67.73771
#
# Poissons Ratio (x) = 0.11462 0.08275
# Poissons Ratio (y) = 0.42424 0.72300
# Poissons Ratio (z) = 0.18395 0.43420
#
# Static dielectric constant tensor:
#      x y z
#    x 2.031190 0.000000 -0.149890 
#    y 0.000000 1.978150 0.000000 
#    z -0.149890 0.000000 2.111860 
# 
# From -- ./inp_files/198660.got.cif
#   From: 2010.05.17/outbox.cif.g08.bks.cpg/sg12_100_cif.got.tgz:198660.got - 2010.06.03 13:09:07.
