data_PCOD9187427
_publ_section_title
;
Structure prediction by ZEFSAII (Michael W. Deem and Ramdas Pophale) SiO2 
 PCOD9187427
Probable space group: C 2/M
;
_chemical_formula_sum "Si O2"
_cell_formula_units_Z 48
_cell_length_a 17.387471
_cell_length_b 13.949624
_cell_length_c 19.422703
_cell_angle_alpha 90.000000
_cell_angle_beta 148.022484
_cell_angle_gamma 90.000000
_cell_volume 2494.855749
_symmetry_space_group_name_H-M "C 2/M"
_symmetry_group_IT_number 12
_symmetry_cell_setting 'monoclinic'
loop_
_space_group_symop_operation_xyz
x,y,z
-x,y,-z
-x,-y,-z
x,-y,z
1/2+x,1/2+y,z
1/2-x,1/2+y,-z
1/2-x,1/2-y,-z
1/2+x,1/2-y,z
loop_
_atom_site_type_symbol
_atom_site_label
_atom_site_fract_x
_atom_site_fract_y
_atom_site_fract_z
Si Si1 0.968575 0.104541 0.894375
Si Si2 0.500823 0.104965 0.250522
Si Si3 0.612652 0.279970 0.738212
Si Si4 0.357465 0.209955 0.024072
Si Si5 0.804576 0.815880 0.479158
Si Si6 0.837817 0.682986 0.369167
O O1 0.798867 0.114021 0.746051
O O2 0.044960 0.199250 0.923094
O O3 0.022467 0.000000 0.909930
O O4 0.000000 0.106594 0.000000
O O5 0.440050 0.186045 0.257241
O O6 0.446709 0.130545 0.132723
O O7 0.675207 0.108818 0.377883
O O8 0.450636 0.000000 0.234519
O O9 0.469132 0.345253 0.622200
O O10 0.655435 0.245995 0.694920
O O11 0.753184 0.321622 0.882892
O O12 0.250000 0.250000 0.000000
O O13 0.750000 0.750000 0.500000
O O14 0.811739 0.750792 0.415709
O O15 0.000000 0.639049 0.500000
#
# Coordination Sequence:
#
# PCOD9187427 Si02
#       6
#     8   8   8   8   8   8
#     4  11  22  36  58  90 121 151 188 237 297 353
#     4  10  20  35  59  84 114 154 197 238 286 341
#     4   9  19  34  58  81 114 153 190 233 294 343
#     4  10  20  36  57  80 116 157 192 237 282 343
#     4   9  18  35  58  79 109 150 198 230 284 337
#     4  10  19  35  59  84 115 153 185 237 290 351
#
# _framework density 19.239588000000001
#
# number of rings (size 3 to 8) (size 9 to 14) (size 15 to 20)
#    0.000    2.167    3.333    0.000    0.000    3.667 
#    0.000    7.500    0.000    9.000    0.000    0.000 
#    0.000    0.000    0.000    0.000    0.000    0.000 
#
# Total GULP energy -133641.839902 kJ/mol
# GULP energy per Si atom -5568.409996 kJ/mol
# Density = 1.919580 g / cm^3
# Si number density = 19.239588 Si / 1000 Ang^3
#
#
#
# Elastic Constant Matrix: (Units=GPa)
#
#
# Indices 1 2 3 4 5 6 
#
# 1 84.4606 11.2087 25.5735 0.0001 -12.4041 -0.0001
# 2 11.2087 34.1428 14.6395 0.0000 -0.0504 -0.0017
# 3 25.5735 14.6395 130.8141 0.0002 -9.3414 -0.0024
# 4 0.0001 0.0000 0.0002 4.7812 0.0001 2.2951
# 5 -12.4041 -0.0504 -9.3414 0.0001 29.8010 -0.0006
# 6 -0.0001 -0.0017 -0.0024 2.2951 -0.0006 105.8057
#
#
#
# Elastic Compliance Matrix: (Units=1/GPa)
#
#
# Indices 1 2 3 4 5 6 
#
# 1 0.013645 -0.003659 -0.001895 0.000000 0.005079 0.000000
# 2 -0.003659 0.031779 -0.003013 0.000000 -0.002414 0.000000
# 3 -0.001895 -0.003013 0.008485 0.000000 0.001866 0.000000
# 4 0.000000 0.000000 0.000000 0.211353 -0.000001 -0.004585
# 5 0.005079 -0.002414 0.001866 -0.000001 0.036251 0.000000
# 6 0.000000 0.000000 0.000000 -0.004585 0.000000 0.009551
#
#
# Mechanical properties :
#
#
# Convention : Reuss Voigt Hill
#
# Bulk Modulus (GPa) = 27.19382 39.14009 33.16696
# Shear Modulus (GPa) = 14.68610 41.27732 27.98171
#
# Velocity S-wave (km/s) = 2.76584 4.63691 3.81777
# Velocity P-wave (km/s) = 4.93607 7.00397 6.05889
#
# Compressibility (1/GPa) = 0.03677306
#
# Stress axis : x y z
#
# Youngs Moduli (GPa) = 73.28512 31.46778 117.84906
#
# Poissons Ratio (x) = 0.11515 0.22337
# Poissons Ratio (y) = 0.26818 0.35512
# Poissons Ratio (z) = 0.13890 0.09482
#
# Static dielectric constant tensor:
#      x y z
#    x 1.651940 0.000000 0.011190 
#    y 0.000000 1.837610 0.000000 
#    z 0.011190 0.000000 1.765840 
# 
# From -- ./inp_files/316352.got.cif
#   From: 2010.05.17/outbox.cif.g08.bks.cpg/sg12_159_cif.got.tgz:316352.got - 2010.06.03 13:09:07.
