data_PCOD9187690
_publ_section_title
;
Structure prediction by ZEFSAII (Michael W. Deem and Ramdas Pophale) SiO2 
 PCOD9187690
Probable space group: C 2/M
;
_chemical_formula_sum "Si O2"
_cell_formula_units_Z 36
_cell_length_a 10.524273
_cell_length_b 16.302445
_cell_length_c 17.781204
_cell_angle_alpha 90.000000
_cell_angle_beta 145.781415
_cell_angle_gamma 90.000000
_cell_volume 1715.591833
_symmetry_space_group_name_H-M "C 2/M"
_symmetry_group_IT_number 12
_symmetry_cell_setting 'monoclinic'
loop_
_space_group_symop_operation_xyz
x,y,z
-x,y,-z
-x,-y,-z
x,-y,z
1/2+x,1/2+y,z
1/2-x,1/2+y,-z
1/2-x,1/2-y,-z
1/2+x,1/2-y,z
loop_
_atom_site_type_symbol
_atom_site_label
_atom_site_fract_x
_atom_site_fract_y
_atom_site_fract_z
Si Si1 0.743393 0.126009 0.146458
Si Si2 0.488401 0.646545 0.580681
Si Si3 0.500000 0.286127 0.000000
Si Si4 0.026168 0.092314 0.138804
Si Si5 0.997996 0.655181 0.586068
O O1 0.832598 0.107625 0.273301
O O2 0.925067 0.103521 0.172459
O O3 0.500000 0.092307 0.000000
O O4 0.698641 0.224109 0.120806
O O5 0.500000 0.619086 0.500000
O O6 0.238597 0.633465 0.491476
O O7 0.524875 0.745664 0.599476
O O8 0.578267 0.342499 0.969786
O O9 0.290876 0.112825 0.270814
O O10 0.984359 0.000000 0.093245
O O11 0.000000 0.629317 0.500000
#
# Coordination Sequence:
#
# PCOD9187690 Si02
#       5
#     8   8   4   8   8
#     4  10  22  40  66  90 127 172 223 263 315 389
#     4  10  20  35  64  97 124 163 220 270 311 377
#     4  10  23  40  65  90 124 166 228 266 315 382
#     4  12  24  40  63  96 132 167 212 272 337 385
#     4  10  19  35  60  89 125 162 210 262 320 378
#
# _framework density 20.984010999999999
#
# number of rings (size 3 to 8) (size 9 to 14) (size 15 to 20)
#    0.667    0.889    4.444    1.000    0.000    2.667 
#    0.000    0.000    0.000    2.667    0.000    0.000 
#    0.000    0.000    0.000    0.000    0.000    0.000 
#
# Total GULP energy -100490.397219 kJ/mol
# GULP energy per Si atom -5582.799846 kJ/mol
# Density = 2.093625 g / cm^3
# Si number density = 20.984011 Si / 1000 Ang^3
#
#
#
# Elastic Constant Matrix: (Units=GPa)
#
#
# Indices 1 2 3 4 5 6 
#
# 1 111.6381 23.8086 52.5642 -0.0003 -20.6657 0.0032
# 2 23.8086 75.4292 13.3658 0.0015 -0.9105 -0.0065
# 3 52.5642 13.3658 130.4785 0.0034 -16.6551 -0.0149
# 4 -0.0003 0.0015 0.0034 11.8132 0.0008 -83.1496
# 5 -20.6657 -0.9105 -16.6551 0.0008 37.4971 -0.0017
# 6 0.0032 -0.0065 -0.0149 -83.1496 -0.0017 303.2262
#
#
#
# Elastic Compliance Matrix: (Units=1/GPa)
#
#
# Indices 1 2 3 4 5 6 
#
# 1 0.012467 -0.003155 -0.004062 0.000001 0.004990 0.000000
# 2 -0.003155 0.014304 -0.000394 -0.000001 -0.001567 0.000000
# 3 -0.004062 -0.000394 0.009598 -0.000001 0.002015 0.000000
# 4 0.000001 -0.000001 -0.000001 -0.091010 0.000001 -0.024956
# 5 0.004990 -0.001567 0.002015 0.000001 0.030276 0.000000
# 6 0.000000 0.000000 0.000000 -0.024956 0.000000 -0.003546
#
#
# Mechanical properties :
#
#
# Convention : Reuss Voigt Hill
#
# Bulk Modulus (GPa) = 47.28956 55.22478 51.25717
# Shear Modulus (GPa) = -886.61393 85.69446 -400.45973
#
# Velocity S-wave (km/s) = -20.57756 6.39739 -13.82949
# Velocity P-wave (km/s) = 23.28082 8.99686 15.18310
#
# Compressibility (1/GPa) = 0.02114632
#
# Stress axis : x y z
#
# Youngs Moduli (GPa) = 80.21373 69.90931 104.18674
#
# Poissons Ratio (x) = 0.22056 0.42323
# Poissons Ratio (y) = 0.25307 0.04107
# Poissons Ratio (z) = 0.32584 0.02756
#
# Static dielectric constant tensor:
#      x y z
#    x 1.708620 0.000000 -0.015350 
#    y 0.000000 1.753810 0.000000 
#    z -0.015350 0.000000 1.768160 
# 
# From -- ./inp_files/197609.got.cif
#   From: 2010.05.17/outbox.cif.g08.bks.cpg/sg12_99_cif.got.tgz:197609.got - 2010.06.03 13:09:07.
