data_PCOD9187725
_publ_section_title
;
Structure prediction by ZEFSAII (Michael W. Deem and Ramdas Pophale) SiO2 
 PCOD9187725
Probable space group: C 2/M
;
_chemical_formula_sum "Si O2"
_cell_formula_units_Z 64
_cell_length_a 12.178007
_cell_length_b 29.757305
_cell_length_c 18.574692
_cell_angle_alpha 90.000000
_cell_angle_beta 27.043467
_cell_angle_gamma 90.000000
_cell_volume 3060.442507
_symmetry_space_group_name_H-M "C 2/M"
_symmetry_group_IT_number 12
_symmetry_cell_setting 'monoclinic'
loop_
_space_group_symop_operation_xyz
x,y,z
-x,y,-z
-x,-y,-z
x,-y,z
1/2+x,1/2+y,z
1/2-x,1/2+y,-z
1/2-x,1/2-y,-z
1/2+x,1/2-y,z
loop_
_atom_site_type_symbol
_atom_site_label
_atom_site_fract_x
_atom_site_fract_y
_atom_site_fract_z
Si Si1 0.955233 0.401233 0.722678
Si Si2 0.786313 0.299793 0.848526
Si Si3 0.633386 0.291894 0.250032
Si Si4 0.859587 0.688020 0.970309
Si Si5 0.514223 0.912092 0.845416
Si Si6 0.671539 0.550038 0.149843
Si Si7 0.005051 0.113419 0.372897
Si Si8 0.204097 0.447651 0.324530
O O1 0.885334 0.349070 0.773331
O O2 0.806759 0.421539 0.743777
O O3 0.927114 0.424518 0.816745
O O4 0.238169 0.404819 0.538853
O O5 0.923057 0.260991 0.723137
O O6 0.813911 0.291941 0.918224
O O7 0.500000 0.297933 0.000000
O O8 0.489054 0.332604 0.371286
O O9 0.889717 0.294788 0.141951
O O10 0.668798 0.305031 0.145387
O O11 0.890627 0.635037 0.939012
O O12 0.798934 0.900426 0.681148
O O13 0.422336 0.945426 0.960506
O O14 0.645791 0.500000 0.196834
O O15 0.624180 0.589594 0.233882
O O16 0.460814 0.554927 0.213372
O O17 0.147048 0.500000 0.343523
O O18 0.000000 0.430777 0.500000
#
# Coordination Sequence:
#
# PCOD9187725 Si02
#       8
#     8   8   8   8   8   8   8   8
#     4  11  25  40  61  93 127 165 205 256 315 377
#     4  11  23  35  58  91 126 158 206 267 307 362
#     4  10  19  35  61  82 118 166 208 247 313 365
#     4   9  18  35  54  86 114 155 201 246 308 364
#     4  10  22  39  63  90 122 160 201 258 312 361
#     4  11  23  40  66  97 122 156 213 267 301 360
#     4  11  22  41  64  88 126 169 209 251 316 381
#     4  10  22  43  66  88 125 170 204 246 319 383
#
# _framework density 20.912009000000001
#
# number of rings (size 3 to 8) (size 9 to 14) (size 15 to 20)
#    0.000    1.625    3.750    1.125    3.500    2.000 
#    0.000    1.250    0.000    2.250    0.000    0.000 
#    0.000    0.000    0.000    0.000    0.000    0.000 
#
# Total GULP energy -178607.876903 kJ/mol
# GULP energy per Si atom -5581.496153 kJ/mol
# Density = 2.086441 g / cm^3
# Si number density = 20.912009 Si / 1000 Ang^3
#
#
#
# Elastic Constant Matrix: (Units=GPa)
#
#
# Indices 1 2 3 4 5 6 
#
# 1 101.4981 22.1291 2.5604 -0.0310 16.7283 0.0182
# 2 22.1291 57.4809 0.3885 -0.0275 7.3687 0.0004
# 3 2.5604 0.3885 43.3125 0.0286 -2.2410 0.0477
# 4 -0.0310 -0.0275 0.0286 21.1672 0.0518 3.8616
# 5 16.7283 7.3687 -2.2410 0.0518 25.8007 -0.0291
# 6 0.0182 0.0004 0.0477 3.8616 -0.0291 24.2155
#
#
#
# Elastic Compliance Matrix: (Units=1/GPa)
#
#
# Indices 1 2 3 4 5 6 
#
# 1 0.011779 -0.003672 -0.001009 0.000034 -0.006676 -0.000020
# 2 -0.003672 0.019211 -0.000116 0.000028 -0.003116 -0.000006
# 3 -0.001009 -0.000116 0.023289 -0.000033 0.002710 -0.000037
# 4 0.000034 0.000028 -0.000033 0.048659 -0.000139 -0.007760
# 5 -0.006676 -0.003116 0.002710 -0.000139 0.044213 0.000075
# 6 -0.000020 -0.000006 -0.000037 -0.007760 0.000075 0.042533
#
#
# Mechanical properties :
#
#
# Convention : Reuss Voigt Hill
#
# Bulk Modulus (GPa) = 22.37924 28.04971 25.21448
# Shear Modulus (GPa) = 23.34561 26.05093 24.69827
#
# Velocity S-wave (km/s) = 3.34484 3.53333 3.44038
# Velocity P-wave (km/s) = 5.06381 5.48528 5.27875
#
# Compressibility (1/GPa) = 0.04468426
#
# Stress axis : x y z
#
# Youngs Moduli (GPa) = 84.89884 52.05363 42.93875
#
# Poissons Ratio (x) = 0.19114 0.04332
# Poissons Ratio (y) = 0.31174 0.00500
# Poissons Ratio (z) = 0.08564 0.00606
#
# Static dielectric constant tensor:
#      x y z
#    x 1.753190 -0.000020 0.000340 
#    y -0.000020 1.765270 0.000030 
#    z 0.000340 0.000030 1.750730 
# 
# From -- ./inp_files/266282.got.cif
#   From: 2010.05.17/outbox.cif.g08.bks.cpg/sg12_134_cif.got.tgz:266282.got - 2010.06.03 13:09:07.
