data_PCOD9187606
_publ_section_title
;
Structure prediction by ZEFSAII (Michael W. Deem and Ramdas Pophale) SiO2 
 PCOD9187606
Probable space group: C 2/M
;
_chemical_formula_sum "Si O2"
_cell_formula_units_Z 48
_cell_length_a 30.610103
_cell_length_b 8.494298
_cell_length_c 10.443396
_cell_angle_alpha 90.000000
_cell_angle_beta 80.182217
_cell_angle_gamma 90.000000
_cell_volume 2675.634363
_symmetry_space_group_name_H-M "C 2/M"
_symmetry_group_IT_number 12
_symmetry_cell_setting 'monoclinic'
loop_
_space_group_symop_operation_xyz
x,y,z
-x,y,-z
-x,-y,-z
x,-y,z
1/2+x,1/2+y,z
1/2-x,1/2+y,-z
1/2-x,1/2-y,-z
1/2+x,1/2-y,z
loop_
_atom_site_type_symbol
_atom_site_label
_atom_site_fract_x
_atom_site_fract_y
_atom_site_fract_z
Si Si1 0.284346 0.187824 0.588161
Si Si2 0.783752 0.189461 0.876401
Si Si3 0.975661 0.190342 0.885005
Si Si4 0.972749 0.311505 0.387186
Si Si5 0.383975 0.690886 0.827902
Si Si6 0.117327 0.188900 0.467594
O O1 0.250000 0.250000 0.500000
O O2 0.274355 0.251181 0.736717
O O3 0.333878 0.245832 0.528352
O O4 0.283282 0.000000 0.591779
O O5 0.834131 0.242593 0.884716
O O6 0.783002 0.000000 0.874155
O O7 0.750000 0.250000 0.000000
O O8 0.924958 0.246775 0.892696
O O9 0.003404 0.240685 0.747759
O O10 0.974496 0.000000 0.890034
O O11 0.000000 0.248190 0.000000
O O12 0.973916 0.500000 0.380287
O O13 0.922306 0.254525 0.427254
O O14 0.000000 0.260355 0.500000
O O15 0.383649 0.500000 0.833151
O O16 0.392591 0.734289 0.675466
O O17 0.118396 0.000000 0.474540
#
# Coordination Sequence:
#
# PCOD9187606 Si02
#       6
#     8   8   8   8   8   8
#     4  11  22  39  61  87 119 151 187 237 293 349
#     4  10  20  37  59  84 113 152 197 240 287 344
#     4  10  20  36  57  81 110 148 189 233 285 339
#     4  11  22  35  55  84 115 149 190 236 281 336
#     4   8  16  32  55  80 107 142 186 233 280 334
#     4  10  19  35  60  85 111 149 192 236 285 338
#
# _framework density 17.93967
#
# number of rings (size 3 to 8) (size 9 to 14) (size 15 to 20)
#    0.000    2.000    1.667    4.000    0.000    1.000 
#    3.000    0.833    0.000    0.000    0.000    0.000 
#    0.000    0.000    0.000    0.000    0.000    0.000 
#
# Total GULP energy -133949.863348 kJ/mol
# GULP energy per Si atom -5581.244306 kJ/mol
# Density = 1.789884 g / cm^3
# Si number density = 17.939670 Si / 1000 Ang^3
#
#
#
# Elastic Constant Matrix: (Units=GPa)
#
#
# Indices 1 2 3 4 5 6 
#
# 1 161.4421 17.7644 93.4659 0.0000 13.5100 0.0000
# 2 17.7644 34.5485 16.2207 0.0000 10.8716 0.0000
# 3 93.4659 16.2207 116.1355 0.0000 8.8451 0.0000
# 4 0.0000 0.0000 0.0000 24.9801 0.0000 -2.5238
# 5 13.5100 10.8716 8.8451 0.0000 35.8672 0.0000
# 6 0.0000 0.0000 0.0000 -2.5238 0.0000 21.9771
#
#
#
# Elastic Compliance Matrix: (Units=1/GPa)
#
#
# Indices 1 2 3 4 5 6 
#
# 1 0.011797 -0.001178 -0.009191 0.000000 -0.001820 0.000000
# 2 -0.001178 0.033851 -0.003090 0.000000 -0.009055 0.000000
# 3 -0.009191 -0.003090 0.016413 0.000000 0.000351 0.000000
# 4 0.000000 0.000000 0.000000 0.040502 0.000000 0.004651
# 5 -0.001820 -0.009055 0.000351 0.000000 0.031224 0.000000
# 6 0.000000 0.000000 0.000000 0.004651 0.000000 0.046036
#
#
# Mechanical properties :
#
#
# Convention : Reuss Voigt Hill
#
# Bulk Modulus (GPa) = 28.45642 63.00313 45.72978
# Shear Modulus (GPa) = 22.88793 28.87656 25.88224
#
# Velocity S-wave (km/s) = 3.57575 4.01639 3.80246
# Velocity P-wave (km/s) = 5.73975 7.53022 6.69511
#
# Compressibility (1/GPa) = 0.03514146
#
# Stress axis : x y z
#
# Youngs Moduli (GPa) = 84.76439 29.54154 60.92824
#
# Poissons Ratio (x) = 0.03480 0.56002
# Poissons Ratio (y) = 0.09985 0.18828
# Poissons Ratio (z) = 0.77910 0.09129
#
# Static dielectric constant tensor:
#      x y z
#    x 1.623110 0.000000 0.012960 
#    y 0.000000 1.610990 0.000000 
#    z 0.012960 0.000000 1.583120 
# 
# From -- ./inp_files/108689.got.cif
#   From: 2010.05.17/outbox.cif.g08.bks.cpg/sg12_55_cif.got.tgz:108689.got - 2010.06.03 13:09:07.
