data_PCOD9187509
_publ_section_title
;
Structure prediction by ZEFSAII (Michael W. Deem and Ramdas Pophale) SiO2 
 PCOD9187509
Probable space group: C 2/M
;
_chemical_formula_sum "Si O2"
_cell_formula_units_Z 64
_cell_length_a 20.426011
_cell_length_b 8.643010
_cell_length_c 23.671814
_cell_angle_alpha 90.000000
_cell_angle_beta 43.723640
_cell_angle_gamma 90.000000
_cell_volume 2888.495433
_symmetry_space_group_name_H-M "C 2/M"
_symmetry_group_IT_number 12
_symmetry_cell_setting 'monoclinic'
loop_
_space_group_symop_operation_xyz
x,y,z
-x,y,-z
-x,-y,-z
x,-y,z
1/2+x,1/2+y,z
1/2-x,1/2+y,-z
1/2-x,1/2-y,-z
1/2+x,1/2-y,z
loop_
_atom_site_type_symbol
_atom_site_label
_atom_site_fract_x
_atom_site_fract_y
_atom_site_fract_z
Si Si1 0.553870 0.683859 0.690861
Si Si2 0.976105 0.178712 0.854178
Si Si3 0.754593 0.815526 0.559920
Si Si4 0.305325 0.181580 0.018582
Si Si5 0.633399 0.318871 0.407026
Si Si6 0.952933 0.320058 0.648068
Si Si7 0.742336 0.320791 0.832437
Si Si8 0.159771 0.675254 0.779794
O O1 0.570613 0.500000 0.682722
O O2 0.475613 0.721036 0.787756
O O3 0.650169 0.771659 0.647101
O O4 0.521344 0.729535 0.648281
O O5 0.913393 0.282807 0.934146
O O6 0.084549 0.202637 0.804313
O O7 0.946998 0.000000 0.877986
O O8 0.750000 0.750000 0.500000
O O9 0.839360 0.755392 0.547626
O O10 0.764266 0.000000 0.552405
O O11 0.288634 0.000000 0.035645
O O12 0.250000 0.250000 0.000000
O O13 0.271390 0.270414 0.095076
O O14 0.608362 0.500000 0.427208
O O15 0.562501 0.241280 0.406293
O O16 0.737268 0.310314 0.313045
O O17 0.979934 0.500000 0.629801
O O18 0.849921 0.306689 0.742768
O O19 0.714970 0.500000 0.841654
O O20 0.678482 0.210728 0.833526
O O21 0.126093 0.500000 0.790960
#
# Coordination Sequence:
#
# PCOD9187509 Si02
#       8
#     8   8   8   8   8   8   8   8
#     4  11  23  39  62  91 123 158 201 249 297 356
#     4  11  23  38  59  86 116 153 198 249 299 353
#     4  11  23  41  65  94 126 160 196 241 296 356
#     4  12  25  40  57  79 111 153 198 247 304 360
#     4   9  19  37  61  88 122 160 197 240 294 355
#     4  10  21  36  61  91 121 159 202 250 299 352
#     4  10  21  38  58  84 118 156 199 248 301 356
#     4  10  19  35  59  87 116 152 196 244 297 355
#
# _framework density 22.156863999999999
#
# number of rings (size 3 to 8) (size 9 to 14) (size 15 to 20)
#    0.000    1.500    1.250    4.125    0.000    7.000 
#    0.000    3.125    0.000    3.750    0.000    0.000 
#    0.000    0.000    0.000    0.000    0.000    0.000 
#
# Total GULP energy -178895.027320 kJ/mol
# GULP energy per Si atom -5590.469604 kJ/mol
# Density = 2.210643 g / cm^3
# Si number density = 22.156864 Si / 1000 Ang^3
#
#
#
# Elastic Constant Matrix: (Units=GPa)
#
#
# Indices 1 2 3 4 5 6 
#
# 1 116.8502 18.7944 21.8300 0.0000 24.6769 -0.0001
# 2 18.7944 57.0989 7.3366 0.0000 1.8780 0.0002
# 3 21.8300 7.3366 71.8987 0.0000 21.3451 0.0000
# 4 0.0000 0.0000 0.0000 25.9442 0.0000 3.9752
# 5 24.6769 1.8780 21.3451 0.0000 42.2224 0.0000
# 6 -0.0001 0.0002 0.0000 3.9752 0.0000 33.6969
#
#
#
# Elastic Compliance Matrix: (Units=1/GPa)
#
#
# Indices 1 2 3 4 5 6 
#
# 1 0.010413 -0.003090 -0.001271 0.000000 -0.005306 0.000000
# 2 -0.003090 0.018664 -0.001478 0.000000 0.001723 0.000000
# 3 -0.001271 -0.001478 0.016714 0.000000 -0.007641 0.000000
# 4 0.000000 0.000000 0.000000 0.039254 0.000000 -0.004631
# 5 -0.005306 0.001723 -0.007641 0.000000 0.030571 0.000000
# 6 0.000000 0.000000 0.000000 -0.004631 0.000000 0.030223
#
#
# Mechanical properties :
#
#
# Convention : Reuss Voigt Hill
#
# Bulk Modulus (GPa) = 29.31435 37.97442 33.64439
# Shear Modulus (GPa) = 29.60581 33.56515 31.58548
#
# Velocity S-wave (km/s) = 3.65936 3.89638 3.77973
# Velocity P-wave (km/s) = 5.57796 6.11706 5.85372
#
# Compressibility (1/GPa) = 0.03411298
#
# Stress axis : x y z
#
# Youngs Moduli (GPa) = 96.03496 53.58002 59.83170
#
# Poissons Ratio (x) = 0.16554 0.07605
# Poissons Ratio (y) = 0.29671 0.08842
# Poissons Ratio (z) = 0.12207 0.07918
#
# Static dielectric constant tensor:
#      x y z
#    x 1.961180 0.000000 -0.108810 
#    y 0.000000 1.740300 0.000000 
#    z -0.108810 0.000000 1.970120 
# 
# From -- ./inp_files/345954.got.cif
#   From: 2010.05.17/outbox.cif.g08.bks.cpg/sg12_173_cif.got.tgz:345954.got - 2010.06.03 13:09:07.
