data_PCOD9187267
_publ_section_title
;
Structure prediction by ZEFSAII (Michael W. Deem and Ramdas Pophale) SiO2 
 PCOD9187267
Probable space group: C 2/M
;
_chemical_formula_sum "Si O2"
_cell_formula_units_Z 64
_cell_length_a 18.976368
_cell_length_b 23.916669
_cell_length_c 21.980920
_cell_angle_alpha 90.000000
_cell_angle_beta 17.493182
_cell_angle_gamma 90.000000
_cell_volume 2998.731047
_symmetry_space_group_name_H-M "C 2/M"
_symmetry_group_IT_number 12
_symmetry_cell_setting 'monoclinic'
loop_
_space_group_symop_operation_xyz
x,y,z
-x,y,-z
-x,-y,-z
x,-y,z
1/2+x,1/2+y,z
1/2-x,1/2+y,-z
1/2-x,1/2-y,-z
1/2+x,1/2-y,z
loop_
_atom_site_type_symbol
_atom_site_label
_atom_site_fract_x
_atom_site_fract_y
_atom_site_fract_z
Si Si1 0.728972 0.675622 0.211890
Si Si2 0.752783 0.437217 0.262916
Si Si3 0.491253 0.658202 0.732564
Si Si4 0.943501 0.604877 0.481625
Si Si5 0.016167 0.825326 0.133092
Si Si6 0.735591 0.715023 0.767274
Si Si7 0.880470 0.434437 0.930631
Si Si8 0.989898 0.614086 0.708921
O O1 0.717260 0.611605 0.243110
O O2 0.638353 0.681416 0.219006
O O3 0.624806 0.728393 0.333151
O O4 0.000000 0.687655 0.000000
O O5 0.500000 0.440902 0.500000
O O6 0.806343 0.500000 0.196248
O O7 0.935549 0.421546 0.166073
O O8 0.457952 0.695463 0.819642
O O9 0.763412 0.647080 0.494644
O O10 0.350620 0.601523 0.865686
O O11 0.669569 0.622512 0.709263
O O12 0.000000 0.574657 0.500000
O O13 0.096959 0.661956 0.360434
O O14 0.005359 0.583786 0.362003
O O15 0.877118 0.782233 0.206467
O O16 0.260372 0.846409 0.903616
O O17 0.500000 0.702959 0.000000
O O18 0.832324 0.500000 0.973349
O O19 0.976654 0.420332 0.783522
#
# Coordination Sequence:
#
# PCOD9187267 Si02
#       8
#     8   8   8   8   8   8   8   8
#     4  11  22  37  57  82 119 153 196 249 292 336
#     4  10  21  37  57  81 111 154 202 244 292 344
#     4  10  21  38  58  83 115 157 199 237 295 346
#     4   9  18  33  59  88 114 152 197 235 287 351
#     4   9  19  36  60  82 115 155 196 236 291 349
#     4  10  19  35  58  85 116 151 194 238 285 345
#     4  10  21  37  57  84 116 151 196 243 293 349
#     4  10  19  36  59  86 117 151 193 245 287 348
#
# _framework density 21.342361
#
# number of rings (size 3 to 8) (size 9 to 14) (size 15 to 20)
#    0.000    2.125    2.500    0.750    0.000    2.750 
#    0.000    6.250    0.000    0.375    0.000   32.375 
#    0.000    0.000    0.000    0.000    0.000    0.000 
#
# Total GULP energy -178195.146144 kJ/mol
# GULP energy per Si atom -5568.598317 kJ/mol
# Density = 2.129379 g / cm^3
# Si number density = 21.342361 Si / 1000 Ang^3
#
#
#
# Elastic Constant Matrix: (Units=GPa)
#
#
# Indices 1 2 3 4 5 6 
#
# 1 157.4114 25.8239 27.0643 0.1053 -0.2642 0.0246
# 2 25.8239 37.1502 0.8232 0.0264 -0.0828 0.1934
# 3 27.0643 0.8232 145.1930 -0.0660 0.9602 0.4339
# 4 0.1053 0.0264 -0.0660 15.5578 0.0197 -0.2834
# 5 -0.2642 -0.0828 0.9602 0.0197 34.7165 -0.0796
# 6 0.0246 0.1934 0.4339 -0.2834 -0.0796 15.1723
#
#
#
# Elastic Compliance Matrix: (Units=1/GPa)
#
#
# Indices 1 2 3 4 5 6 
#
# 1 0.007428 -0.005134 -0.001356 -0.000046 0.000082 0.000092
# 2 -0.005134 0.030471 0.000785 -0.000021 0.000011 -0.000403
# 3 -0.001356 0.000785 0.007138 0.000035 -0.000206 -0.000212
# 4 -0.000046 -0.000021 0.000035 0.064299 -0.000035 0.001200
# 5 0.000082 0.000011 -0.000206 -0.000035 0.028812 0.000156
# 6 0.000092 -0.000403 -0.000212 0.001200 0.000156 0.065944
#
#
# Mechanical properties :
#
#
# Convention : Reuss Voigt Hill
#
# Bulk Modulus (GPa) = 29.73760 49.68638 39.71199
# Shear Modulus (GPa) = 22.05456 32.15886 27.10671
#
# Velocity S-wave (km/s) = 3.21809 3.88597 3.56770
# Velocity P-wave (km/s) = 5.26992 6.59284 5.96815
#
# Compressibility (1/GPa) = 0.03362746
#
# Stress axis : x y z
#
# Youngs Moduli (GPa) = 134.61908 32.81798 140.09955
#
# Poissons Ratio (x) = 0.16848 0.19003
# Poissons Ratio (y) = 0.69111 -0.11002
# Poissons Ratio (z) = 0.18260 -0.02577
#
# Static dielectric constant tensor:
#      x y z
#    x 1.922540 -0.001150 0.165990 
#    y -0.001150 1.828480 -0.002860 
#    z 0.165990 -0.002860 2.118360 
# 
# From -- ./inp_files/318574.got.cif
#   From: 2010.05.17/outbox.cif.g08.bks.cpg/sg12_160_cif.got.tgz:318574.got - 2010.06.03 13:09:07.
