data_PCOD9187646
_publ_section_title
;
Structure prediction by ZEFSAII (Michael W. Deem and Ramdas Pophale) SiO2 
 PCOD9187646
Probable space group: C 2/M
;
_chemical_formula_sum "Si O2"
_cell_formula_units_Z 56
_cell_length_a 9.197320
_cell_length_b 25.474950
_cell_length_c 14.542871
_cell_angle_alpha 90.000000
_cell_angle_beta 58.318115
_cell_angle_gamma 90.000000
_cell_volume 2899.630873
_symmetry_space_group_name_H-M "C 2/M"
_symmetry_group_IT_number 12
_symmetry_cell_setting 'monoclinic'
loop_
_space_group_symop_operation_xyz
x,y,z
-x,y,-z
-x,-y,-z
x,-y,z
1/2+x,1/2+y,z
1/2-x,1/2+y,-z
1/2-x,1/2-y,-z
1/2+x,1/2-y,z
loop_
_atom_site_type_symbol
_atom_site_label
_atom_site_fract_x
_atom_site_fract_y
_atom_site_fract_z
Si Si1 0.953967 0.938273 0.724398
Si Si2 0.513181 0.159748 0.141940
Si Si3 0.042894 0.774926 0.768933
Si Si4 0.190095 0.562598 0.470262
Si Si5 0.254359 0.123832 0.361516
Si Si6 0.102355 0.238154 0.380210
Si Si7 0.215269 0.138045 0.091231
O O1 0.868759 0.907924 0.666646
O O2 0.861702 0.915963 0.845380
O O3 0.157070 0.927938 0.653038
O O4 0.925705 0.000000 0.723553
O O5 0.526227 0.220190 0.167005
O O6 0.440382 0.127438 0.252131
O O7 0.358268 0.156174 0.118787
O O8 0.683665 0.138677 0.037730
O O9 0.246631 0.774279 0.709197
O O10 0.010261 0.776285 0.670309
O O11 0.939079 0.820899 0.851511
O O12 0.193369 0.500000 0.490707
O O13 0.235874 0.595926 0.544756
O O14 0.000000 0.575653 0.500000
O O15 0.187550 0.183803 0.387840
O O16 0.000000 0.261446 0.500000
#
# Coordination Sequence:
#
# PCOD9187646 Si02
#       7
#     8   8   8   8   8   8   8
#     4  10  19  35  60  87 113 146 185 228 282 334
#     4   9  20  36  57  79 111 147 190 235 276 324
#     4  11  19  38  55  79 111 153 186 229 279 331
#     4  10  21  37  58  84 115 147 183 230 279 337
#     4  10  19  37  58  84 112 148 187 230 278 332
#     4  11  22  36  54  82 121 149 184 231 282 335
#     4  10  19  38  57  81 114 146 189 239 276 327
#
# _framework density 19.312804
#
# number of rings (size 3 to 8) (size 9 to 14) (size 15 to 20)
#    0.000    1.857    4.286    2.571    0.000    1.143 
#    5.143    6.429    0.000    0.000    0.000    3.000 
#    0.000    0.000    0.000    0.000    0.000    0.000 
#
# Total GULP energy -156305.842968 kJ/mol
# GULP energy per Si atom -5582.351535 kJ/mol
# Density = 1.926885 g / cm^3
# Si number density = 19.312804 Si / 1000 Ang^3
#
#
#
# Elastic Constant Matrix: (Units=GPa)
#
#
# Indices 1 2 3 4 5 6 
#
# 1 30.2429 16.5198 4.4662 0.0000 -16.1256 0.0000
# 2 16.5198 46.9312 19.8182 0.0000 -20.1071 0.0000
# 3 4.4662 19.8182 101.5491 0.0000 -26.4127 0.0000
# 4 0.0000 0.0000 0.0000 24.4895 0.0000 3.8325
# 5 -16.1256 -20.1071 -26.4127 0.0000 26.2600 0.0000
# 6 0.0000 0.0000 0.0000 3.8325 0.0000 25.9820
#
#
#
# Elastic Compliance Matrix: (Units=1/GPa)
#
#
# Indices 1 2 3 4 5 6 
#
# 1 0.055670 -0.007254 0.008687 0.000000 0.037369 0.000000
# 2 -0.007254 0.032658 -0.000960 0.000000 0.019586 0.000000
# 3 0.008687 -0.000960 0.014693 0.000000 0.019377 0.000000
# 4 0.000000 0.000000 0.000000 0.041799 0.000000 -0.006166
# 5 0.037369 0.019586 0.019377 0.000000 0.095515 0.000000
# 6 0.000000 0.000000 0.000000 -0.006166 0.000000 0.039398
#
#
# Mechanical properties :
#
#
# Convention : Reuss Voigt Hill
#
# Bulk Modulus (GPa) = 9.61852 28.92572 19.27212
# Shear Modulus (GPa) = 15.95190 24.54090 20.24640
#
# Velocity S-wave (km/s) = 2.87710 3.56856 3.24132
# Velocity P-wave (km/s) = 4.00351 5.65593 4.89988
#
# Compressibility (1/GPa) = 0.10396606
#
# Stress axis : x y z
#
# Youngs Moduli (GPa) = 17.96290 30.62048 68.06039
#
# Poissons Ratio (x) = 0.22212 -0.59123
# Poissons Ratio (y) = 0.13030 0.06536
# Poissons Ratio (z) = -0.15604 0.02940
#
# Static dielectric constant tensor:
#      x y z
#    x 1.686700 0.000000 -0.030180 
#    y 0.000000 1.654050 0.000000 
#    z -0.030180 0.000000 1.693970 
# 
# From -- ./inp_files/185162.got.cif
#   From: 2010.05.17/outbox.cif.g08.bks.cpg/sg12_93_cif.got.tgz:185162.got - 2010.06.03 13:09:07.
