data_PCOD9187294
_publ_section_title
;
Structure prediction by ZEFSAII (Michael W. Deem and Ramdas Pophale) SiO2 
 PCOD9187294
Probable space group: C 2/M
;
_chemical_formula_sum "Si O2"
_cell_formula_units_Z 56
_cell_length_a 15.461843
_cell_length_b 17.611740
_cell_length_c 21.425204
_cell_angle_alpha 90.000000
_cell_angle_beta 153.101933
_cell_angle_gamma 90.000000
_cell_volume 2639.462668
_symmetry_space_group_name_H-M "C 2/M"
_symmetry_group_IT_number 12
_symmetry_cell_setting 'monoclinic'
loop_
_space_group_symop_operation_xyz
x,y,z
-x,y,-z
-x,-y,-z
x,-y,z
1/2+x,1/2+y,z
1/2-x,1/2+y,-z
1/2-x,1/2-y,-z
1/2+x,1/2-y,z
loop_
_atom_site_type_symbol
_atom_site_label
_atom_site_fract_x
_atom_site_fract_y
_atom_site_fract_z
Si Si1 0.222455 0.917315 0.003848
Si Si2 0.816914 0.781673 0.621114
Si Si3 0.534054 0.128951 0.949819
Si Si4 0.769409 0.725806 0.118734
Si Si5 0.195145 0.832400 0.646563
Si Si6 0.777831 0.084678 0.695103
Si Si7 0.413426 0.811523 0.336339
O O1 0.298793 0.911470 0.981871
O O2 0.290744 0.841114 0.082453
O O3 0.287440 0.000000 0.070603
O O4 0.993603 0.915286 0.860746
O O5 0.781289 0.705794 0.639603
O O6 0.786348 0.852684 0.647428
O O7 0.634764 0.798078 0.458497
O O8 0.041992 0.778808 0.752666
O O9 0.346252 0.122440 0.785586
O O10 0.500000 0.105858 0.000000
O O11 0.597023 0.217894 0.992257
O O12 0.767800 0.687667 0.185287
O O13 0.133194 0.760537 0.649743
O O14 0.000000 0.873126 0.500000
O O15 0.627919 0.114358 0.649631
O O16 0.735880 0.000000 0.646484
#
# Coordination Sequence:
#
# PCOD9187294 Si02
#       7
#     8   8   8   8   8   8   8
#     4  11  25  41  60  86 121 164 203 252 312 368
#     4  10  19  35  58  86 122 164 201 248 299 357
#     4  12  22  38  67  91 115 154 207 261 305 362
#     4  12  21  36  62  90 126 151 208 255 305 361
#     4   9  18  34  54  87 118 147 192 249 303 352
#     4  10  21  38  58  85 125 165 203 244 297 372
#     4  10  21  33  55  94 125 155 202 244 307 360
#
# _framework density 21.216439000000001
#
# number of rings (size 3 to 8) (size 9 to 14) (size 15 to 20)
#    0.000    1.429    4.286    3.857    0.000    2.000 
#    0.000    1.429    0.000    0.429    0.000    0.000 
#    0.000    0.000    0.000    0.000    0.000    0.000 
#
# Total GULP energy -156114.340975 kJ/mol
# GULP energy per Si atom -5575.512178 kJ/mol
# Density = 2.116815 g / cm^3
# Si number density = 21.216439 Si / 1000 Ang^3
#
#
#
# Elastic Constant Matrix: (Units=GPa)
#
#
# Indices 1 2 3 4 5 6 
#
# 1 43.0756 -0.7613 10.6217 -0.0077 4.4052 -0.0011
# 2 -0.7613 54.2959 12.2969 -0.0378 8.4197 -0.0072
# 3 10.6217 12.2969 116.1027 -0.0206 3.6130 0.0012
# 4 -0.0077 -0.0378 -0.0206 6.8867 0.0024 -0.2413
# 5 4.4052 8.4197 3.6130 0.0024 33.1985 0.0036
# 6 -0.0011 -0.0072 0.0012 -0.2413 0.0036 10.3874
#
#
#
# Elastic Compliance Matrix: (Units=1/GPa)
#
#
# Indices 1 2 3 4 5 6 
#
# 1 0.024131 0.001360 -0.002249 0.000029 -0.003302 0.000006
# 2 0.001360 0.019669 -0.002054 0.000106 -0.004945 0.000018
# 3 -0.002249 -0.002054 0.009041 0.000013 -0.000165 -0.000002
# 4 0.000029 0.000106 0.000013 0.145327 -0.000043 0.003376
# 5 -0.003302 -0.004945 -0.000165 -0.000043 0.031832 -0.000016
# 6 0.000006 0.000018 -0.000002 0.003376 -0.000016 0.096349
#
#
# Mechanical properties :
#
#
# Convention : Reuss Voigt Hill
#
# Bulk Modulus (GPa) = 21.29662 28.64319 24.96990
# Shear Modulus (GPa) = 14.37249 22.84899 18.61074
#
# Velocity S-wave (km/s) = 2.60556 3.28525 2.96494
# Velocity P-wave (km/s) = 4.37167 5.28396 4.84932
#
# Compressibility (1/GPa) = 0.04695581
#
# Stress axis : x y z
#
# Youngs Moduli (GPa) = 41.44003 50.84220 110.60177
#
# Poissons Ratio (x) = -0.06913 0.24873
# Poissons Ratio (y) = -0.05635 0.22714
# Poissons Ratio (z) = 0.09319 0.10441
#
# Static dielectric constant tensor:
#      x y z
#    x 1.814040 0.000000 0.007160 
#    y 0.000000 1.736110 -0.000010 
#    z 0.007160 -0.000010 1.859040 
# 
# From -- ./inp_files/311732.got.cif
#   From: 2010.05.17/outbox.cif.g08.bks.cpg/sg12_156_cif.got.tgz:311732.got - 2010.06.03 13:09:07.
