data_PCOD9187648
_publ_section_title
;
Structure prediction by ZEFSAII (Michael W. Deem and Ramdas Pophale) SiO2 
 PCOD9187648
Probable space group: C 2/M
;
_chemical_formula_sum "Si O2"
_cell_formula_units_Z 60
_cell_length_a 21.903190
_cell_length_b 18.181582
_cell_length_c 11.063437
_cell_angle_alpha 90.000000
_cell_angle_beta 135.834589
_cell_angle_gamma 90.000000
_cell_volume 3069.693242
_symmetry_space_group_name_H-M "C 2/M"
_symmetry_group_IT_number 12
_symmetry_cell_setting 'monoclinic'
loop_
_space_group_symop_operation_xyz
x,y,z
-x,y,-z
-x,-y,-z
x,-y,z
1/2+x,1/2+y,z
1/2-x,1/2+y,-z
1/2-x,1/2-y,-z
1/2+x,1/2-y,z
loop_
_atom_site_type_symbol
_atom_site_label
_atom_site_fract_x
_atom_site_fract_y
_atom_site_fract_z
Si Si1 0.497827 0.188627 0.199202
Si Si2 0.362353 0.084874 0.877399
Si Si3 0.853198 0.084447 0.773343
Si Si4 0.000000 0.195810 0.000000
Si Si5 0.437958 0.301165 0.293998
Si Si6 0.656404 0.087259 0.433928
Si Si7 0.440514 0.579065 0.637123
Si Si8 0.185477 0.083120 0.774327
O O1 0.529552 0.251918 0.151680
O O2 0.438920 0.226123 0.219623
O O3 0.579257 0.141631 0.365437
O O4 0.439296 0.135439 0.034359
O O5 0.336322 0.099382 0.701171
O O6 0.280410 0.094191 0.850657
O O7 0.390595 0.000000 0.922440
O O8 0.919330 0.143222 0.923974
O O9 0.750205 0.102104 0.629286
O O10 0.882282 0.085815 0.673630
O O11 0.866893 0.000000 0.834882
O O12 0.500000 0.290522 0.500000
O O13 0.490758 0.358024 0.285707
O O14 0.350058 0.346411 0.202385
O O15 0.636875 0.000000 0.423523
O O16 0.485971 0.500000 0.707361
O O17 0.379456 0.579516 0.432817
O O18 0.182609 0.000000 0.826598
#
# Coordination Sequence:
#
# PCOD9187648 Si02
#       8
#     8   8   8   4   8   8   8   8
#     4  12  23  37  55  88 122 152 188 239 303 351
#     4  10  19  35  60  87 114 146 193 250 297 336
#     4  10  20  36  57  82 116 158 196 229 279 353
#     4  12  23  36  51  90 126 156 180 230 309 360
#     4  10  21  36  53  79 113 150 194 233 286 342
#     4  10  20  38  63  87 112 153 203 244 283 341
#     4   9  15  29  53  78 105 139 184 229 272 330
#     4   9  17  32  56  82 106 143 193 239 281 330
#
# _framework density 19.545926999999999
#
# number of rings (size 3 to 8) (size 9 to 14) (size 15 to 20)
#    0.000    1.867    4.000    1.000    0.000    3.733 
#    4.800    0.000    0.000    1.600    0.000    0.000 
#    0.000    0.000    0.000    0.000    0.000    0.000 
#
# Total GULP energy -167284.574299 kJ/mol
# GULP energy per Si atom -5576.152477 kJ/mol
# Density = 1.950144 g / cm^3
# Si number density = 19.545927 Si / 1000 Ang^3
#
#
#
# Elastic Constant Matrix: (Units=GPa)
#
#
# Indices 1 2 3 4 5 6 
#
# 1 53.3693 35.2622 6.4956 0.0000 6.7493 0.0000
# 2 35.2622 91.2879 42.8296 0.0000 16.3859 0.0000
# 3 6.4956 42.8296 56.8174 0.0000 12.2062 0.0000
# 4 0.0000 0.0000 0.0000 2.0320 0.0000 23.5934
# 5 6.7493 16.3859 12.2062 0.0000 23.9253 0.0000
# 6 0.0000 0.0000 0.0000 23.5934 0.0000 -3.5060
#
#
#
# Elastic Compliance Matrix: (Units=1/GPa)
#
#
# Indices 1 2 3 4 5 6 
#
# 1 0.027126 -0.013693 0.007693 0.000000 -0.002199 0.000000
# 2 -0.013693 0.024586 -0.015926 0.000000 -0.004851 0.000000
# 3 0.007693 -0.015926 0.030154 0.000000 -0.006647 0.000000
# 4 0.000000 0.000000 0.000000 0.006219 0.000000 0.041849
# 5 -0.002199 -0.004851 -0.006647 0.000000 0.049130 0.000000
# 6 0.000000 0.000000 0.000000 0.041849 0.000000 -0.003604
#
#
# Mechanical properties :
#
#
# Convention : Reuss Voigt Hill
#
# Bulk Modulus (GPa) = 26.30538 41.18327 33.74433
# Shear Modulus (GPa) = 26.29729 12.28273 19.29001
#
# Velocity S-wave (km/s) = 3.67196 2.50952 3.14492
# Velocity P-wave (km/s) = 5.60939 5.43255 5.52168
#
# Compressibility (1/GPa) = 0.03801504
#
# Stress axis : x y z
#
# Youngs Moduli (GPa) = 36.86465 40.67339 33.16348
#
# Poissons Ratio (x) = 0.55693 -0.25513
# Poissons Ratio (y) = 0.50478 0.52815
# Poissons Ratio (z) = -0.28360 0.64775
#
# Static dielectric constant tensor:
#      x y z
#    x 1.697280 0.000000 -0.012450 
#    y 0.000000 1.721690 0.000000 
#    z -0.012450 0.000000 1.679030 
# 
# From -- ./inp_files/177385.got.cif
#   From: 2010.05.17/outbox.cif.g08.bks.cpg/sg12_89_cif.got.tgz:177385.got - 2010.06.03 13:09:07.
