data_PCOD9187090
_publ_section_title
;
Structure prediction by ZEFSAII (Michael W. Deem and Ramdas Pophale) SiO2 
 PCOD9187090
Probable space group: C 2/M
;
_chemical_formula_sum "Si O2"
_cell_formula_units_Z 56
_cell_length_a 16.317108
_cell_length_b 19.054100
_cell_length_c 14.231800
_cell_angle_alpha 90.000000
_cell_angle_beta 136.607890
_cell_angle_gamma 90.000000
_cell_volume 3039.766774
_symmetry_space_group_name_H-M "C 2/M"
_symmetry_group_IT_number 12
_symmetry_cell_setting 'monoclinic'
loop_
_space_group_symop_operation_xyz
x,y,z
-x,y,-z
-x,-y,-z
x,-y,z
1/2+x,1/2+y,z
1/2-x,1/2+y,-z
1/2-x,1/2-y,-z
1/2+x,1/2-y,z
loop_
_atom_site_type_symbol
_atom_site_label
_atom_site_fract_x
_atom_site_fract_y
_atom_site_fract_z
Si Si1 0.055602 0.675702 0.447971
Si Si2 0.757946 0.914802 0.089240
Si Si3 0.490892 0.315087 0.282611
Si Si4 0.412296 0.422684 0.508383
Si Si5 0.020754 0.417844 0.790654
Si Si6 0.325331 0.120987 0.773192
Si Si7 0.800372 0.234237 0.647892
O O1 0.196317 0.681400 0.589186
O O2 0.000000 0.653963 0.500000
O O3 0.997039 0.750255 0.362325
O O4 0.031642 0.625372 0.339876
O O5 0.868658 0.859819 0.171809
O O6 0.692201 0.894161 0.132000
O O7 0.786397 0.000000 0.115406
O O8 0.660032 0.903290 0.926518
O O9 0.580683 0.372893 0.398254
O O10 0.561362 0.287353 0.249812
O O11 0.500000 0.394420 0.500000
O O12 0.456997 0.500000 0.568134
O O13 0.280069 0.423945 0.360870
O O14 0.006792 0.500000 0.761433
O O15 0.947395 0.399465 0.824146
O O16 0.297090 0.200136 0.715625
O O17 0.750000 0.250000 0.500000
#
# Coordination Sequence:
#
# PCOD9187090 Si02
#       7
#     8   8   8   8   8   8   8
#     4  11  21  39  63  85 112 153 196 246 292 337
#     4  11  24  38  59  88 122 158 192 235 292 359
#     4  11  19  36  56  82 125 152 189 235 291 350
#     4  11  19  27  50  87 117 147 186 231 289 351
#     4  11  24  40  57  83 117 155 198 243 289 347
#     4  12  19  37  57  85 121 154 187 235 291 355
#     4  10  19  35  57  85 118 151 189 242 289 339
#
# _framework density 18.422464999999999
#
# number of rings (size 3 to 8) (size 9 to 14) (size 15 to 20)
#    0.000    1.000    7.143    3.429    0.000    2.000 
#    0.000    0.714    0.000    0.000    0.000    2.000 
#    0.000    0.000    0.000    0.000    0.000    0.000 
#
# Total GULP energy -155902.757075 kJ/mol
# GULP energy per Si atom -5567.955610 kJ/mol
# Density = 1.838053 g / cm^3
# Si number density = 18.422465 Si / 1000 Ang^3
#
#
#
# Elastic Constant Matrix: (Units=GPa)
#
#
# Indices 1 2 3 4 5 6 
#
# 1 86.5909 23.2331 16.3606 0.0000 16.7847 0.0000
# 2 23.2331 89.0143 41.5316 0.0000 3.1371 0.0000
# 3 16.3606 41.5316 61.6664 0.0000 20.4898 0.0000
# 4 0.0000 0.0000 0.0000 24.1940 0.0000 6.1140
# 5 16.7847 3.1371 20.4898 0.0000 23.7711 0.0000
# 6 0.0000 0.0000 0.0000 6.1140 0.0000 32.4665
#
#
#
# Elastic Compliance Matrix: (Units=1/GPa)
#
#
# Indices 1 2 3 4 5 6 
#
# 1 0.014756 -0.005254 0.004001 0.000000 -0.013175 0.000000
# 2 -0.005254 0.020273 -0.017662 0.000000 0.016258 0.000000
# 3 0.004001 -0.017662 0.038136 0.000000 -0.033366 0.000000
# 4 0.000000 0.000000 0.000000 0.043398 0.000000 -0.008173
# 5 -0.013175 0.016258 -0.033366 0.000000 0.077985 0.000000
# 6 0.000000 0.000000 0.000000 -0.008173 0.000000 0.032340
#
#
# Mechanical properties :
#
#
# Convention : Reuss Voigt Hill
#
# Bulk Modulus (GPa) = 28.29962 44.39133 36.34547
# Shear Modulus (GPa) = 18.08343 26.49608 22.28975
#
# Velocity S-wave (km/s) = 3.13644 3.79654 3.48217
# Velocity P-wave (km/s) = 5.33959 6.58535 5.99492
#
# Compressibility (1/GPa) = 0.03533617
#
# Stress axis : x y z
#
# Youngs Moduli (GPa) = 67.76907 49.32693 26.22174
#
# Poissons Ratio (x) = 0.25915 -0.10491
# Poissons Ratio (y) = 0.35605 0.46312
# Poissons Ratio (z) = -0.27114 0.87120
#
# Static dielectric constant tensor:
#      x y z
#    x 1.725800 0.000000 0.040480 
#    y 0.000000 1.664850 0.000000 
#    z 0.040480 0.000000 1.642860 
# 
# From -- ./inp_files/216433.got.cif
#   From: 2010.05.17/outbox.cif.g08.bks.cpg/sg12_109_cif.got.tgz:216433.got - 2010.06.03 13:09:07.
