data_PCOD9187019
_publ_section_title
;
Structure prediction by ZEFSAII (Michael W. Deem and Ramdas Pophale) SiO2 
 PCOD9187019
Probable space group: C 2/M
;
_chemical_formula_sum "Si O2"
_cell_formula_units_Z 40
_cell_length_a 17.164506
_cell_length_b 7.575924
_cell_length_c 19.812151
_cell_angle_alpha 90.000000
_cell_angle_beta 39.153132
_cell_angle_gamma 90.000000
_cell_volume 1626.671335
_symmetry_space_group_name_H-M "C 2/M"
_symmetry_group_IT_number 12
_symmetry_cell_setting 'monoclinic'
loop_
_space_group_symop_operation_xyz
x,y,z
-x,y,-z
-x,-y,-z
x,-y,z
1/2+x,1/2+y,z
1/2-x,1/2+y,-z
1/2-x,1/2-y,-z
1/2+x,1/2-y,z
loop_
_atom_site_type_symbol
_atom_site_label
_atom_site_fract_x
_atom_site_fract_y
_atom_site_fract_z
Si Si1 0.189860 0.789492 0.970821
Si Si2 0.172057 0.711495 0.618934
Si Si3 0.063505 0.793727 0.884330
Si Si4 0.085764 0.710989 0.271339
Si Si5 0.310674 0.305522 0.658971
O O1 0.286643 0.724503 0.849469
O O2 0.173534 0.000000 0.969111
O O3 0.250000 0.750000 0.000000
O O4 0.052245 0.720025 0.077586
O O5 0.160905 0.500000 0.637514
O O6 0.250000 0.750000 0.500000
O O7 0.253581 0.780526 0.628383
O O8 0.033967 0.777301 0.690375
O O9 0.185320 0.691368 0.786815
O O10 0.093126 0.000000 0.851882
O O11 0.000000 0.783109 0.000000
O O12 0.085840 0.500000 0.263482
O O13 0.092175 0.740260 0.348758
O O14 0.353182 0.500000 0.610898
#
# Coordination Sequence:
#
# PCOD9187019 Si02
#       5
#     8   8   8   8   8
#     4  10  20  34  55  82 117 157 198 240 286 344
#     4  10  24  44  65  88 119 156 199 254 311 363
#     4  10  19  35  57  82 117 161 197 230 281 350
#     4  10  21  41  63  85 119 162 201 241 298 369
#     4  11  23  39  62  93 124 156 199 255 302 346
#
# _framework density 24.590091999999999
#
# number of rings (size 3 to 8) (size 9 to 14) (size 15 to 20)
#    0.000    1.800    2.000    1.800    0.000    6.800 
#    0.000    4.000    0.000    0.000    0.000    0.000 
#    0.000    0.000    0.000    0.000    0.000    0.000 
#
# Total GULP energy -111337.589078 kJ/mol
# GULP energy per Si atom -5566.879454 kJ/mol
# Density = 2.453412 g / cm^3
# Si number density = 24.590092 Si / 1000 Ang^3
#
#
#
# Elastic Constant Matrix: (Units=GPa)
#
#
# Indices 1 2 3 4 5 6 
#
# 1 171.0390 -1.8923 29.0586 0.0000 25.5444 0.0000
# 2 -1.8923 53.5746 0.3945 0.0002 -3.3889 0.0004
# 3 29.0586 0.3945 69.0680 -0.0001 6.7564 0.0000
# 4 0.0000 0.0002 -0.0001 22.6352 0.0000 2.1089
# 5 25.5444 -3.3889 6.7564 0.0000 48.0729 0.0000
# 6 0.0000 0.0004 0.0000 2.1089 0.0000 25.1059
#
#
#
# Elastic Compliance Matrix: (Units=1/GPa)
#
#
# Indices 1 2 3 4 5 6 
#
# 1 0.006759 0.000053 -0.002528 0.000000 -0.003233 0.000000
# 2 0.000053 0.018754 -0.000260 0.000000 0.001330 0.000000
# 3 -0.002528 -0.000260 0.015629 0.000000 -0.000872 0.000000
# 4 0.000000 0.000000 0.000000 0.044527 0.000000 -0.003740
# 5 -0.003233 0.001330 -0.000872 0.000000 0.022736 0.000000
# 6 0.000000 0.000000 0.000000 -0.003740 0.000000 0.040145
#
#
# Mechanical properties :
#
#
# Convention : Reuss Voigt Hill
#
# Bulk Modulus (GPa) = 28.03270 38.75592 33.39431
# Shear Modulus (GPa) = 30.13672 36.90418 33.52045
#
# Velocity S-wave (km/s) = 3.50460 3.87819 3.69612
# Velocity P-wave (km/s) = 5.27267 5.98738 5.64136
#
# Compressibility (1/GPa) = 0.03567262
#
# Stress axis : x y z
#
# Youngs Moduli (GPa) = 147.93996 53.32334 63.98441
#
# Poissons Ratio (x) = -0.00282 0.16175
# Poissons Ratio (y) = -0.00782 0.01661
# Poissons Ratio (z) = 0.37399 0.01384
#
# Static dielectric constant tensor:
#      x y z
#    x 2.431020 0.000000 -0.003540 
#    y 0.000000 1.916830 0.000000 
#    z -0.003540 0.000000 1.930870 
# 
# From -- ./inp_files/249501.got.cif
#   From: 2010.05.17/outbox.cif.g08.bks.cpg/sg12_125_cif.got.tgz:249501.got - 2010.06.03 13:09:07.
