data_PCOD9187110
_publ_section_title
;
Structure prediction by ZEFSAII (Michael W. Deem and Ramdas Pophale) SiO2 
 PCOD9187110
Probable space group: C 2/M
;
_chemical_formula_sum "Si O2"
_cell_formula_units_Z 56
_cell_length_a 15.816643
_cell_length_b 15.984047
_cell_length_c 24.677200
_cell_angle_alpha 90.000000
_cell_angle_beta 23.350706
_cell_angle_gamma 90.000000
_cell_volume 2472.775818
_symmetry_space_group_name_H-M "C 2/M"
_symmetry_group_IT_number 12
_symmetry_cell_setting 'monoclinic'
loop_
_space_group_symop_operation_xyz
x,y,z
-x,y,-z
-x,-y,-z
x,-y,z
1/2+x,1/2+y,z
1/2-x,1/2+y,-z
1/2-x,1/2-y,-z
1/2+x,1/2-y,z
loop_
_atom_site_type_symbol
_atom_site_label
_atom_site_fract_x
_atom_site_fract_y
_atom_site_fract_z
Si Si1 0.369069 0.410882 0.521027
Si Si2 0.479553 0.591790 0.769426
Si Si3 0.747701 0.406066 0.871475
Si Si4 0.661188 0.230622 0.456069
Si Si5 0.252729 0.591629 0.789534
Si Si6 0.270836 0.220396 0.764404
Si Si7 0.149527 0.160511 0.043896
O O1 0.500000 0.410735 0.500000
O O2 0.256387 0.500000 0.584839
O O3 0.244280 0.324373 0.596227
O O4 0.537522 0.409170 0.372603
O O5 0.582750 0.500000 0.710254
O O6 0.656800 0.662376 0.655735
O O7 0.321748 0.592802 0.811374
O O8 0.357439 0.607824 0.897138
O O9 0.829196 0.500000 0.811817
O O10 0.811183 0.327991 0.796494
O O11 0.500000 0.411121 0.000000
O O12 0.764084 0.382593 0.925264
O O13 0.500000 0.225627 0.500000
O O14 0.500274 0.221764 0.600818
O O15 0.145506 0.500000 0.842232
O O16 0.170283 0.685866 0.828331
O O17 0.096021 0.172359 0.831093
O O18 0.250000 0.250000 0.000000
#
# Coordination Sequence:
#
# PCOD9187110 Si02
#       7
#     8   8   8   8   8   8   8
#     4   8  15  29  53  79 112 154 192 230 280 347
#     4  11  23  38  59  90 126 160 195 245 306 366
#     4   9  19  36  58  82 110 150 199 245 293 347
#     4  10  19  35  57  91 123 154 199 239 305 371
#     4   9  19  36  57  84 116 152 193 241 298 354
#     4  10  20  37  62  89 116 155 202 249 300 359
#     4  11  22  39  61  83 116 159 205 254 302 354
#
# _framework density 22.646614
#
# number of rings (size 3 to 8) (size 9 to 14) (size 15 to 20)
#    0.000    2.286    1.429    1.286    0.000    3.714 
#    0.000    1.429    0.000   11.571    0.000    0.000 
#    0.000    0.000    0.000    0.000    0.000    0.000 
#
# Total GULP energy -156250.127247 kJ/mol
# GULP energy per Si atom -5580.361687 kJ/mol
# Density = 2.259507 g / cm^3
# Si number density = 22.646614 Si / 1000 Ang^3
#
#
#
# Elastic Constant Matrix: (Units=GPa)
#
#
# Indices 1 2 3 4 5 6 
#
# 1 87.9009 1.8607 26.9153 -0.0042 30.9393 0.0020
# 2 1.8607 157.8121 21.0630 0.0044 23.6208 0.0036
# 3 26.9153 21.0630 49.7415 -0.0582 13.2517 0.0477
# 4 -0.0042 0.0044 -0.0582 9.0480 0.0050 17.4644
# 5 30.9393 23.6208 13.2517 0.0050 36.9089 0.0098
# 6 0.0020 0.0036 0.0477 17.4644 0.0098 25.7476
#
#
#
# Elastic Compliance Matrix: (Units=1/GPa)
#
#
# Indices 1 2 3 4 5 6 
#
# 1 0.018933 0.003042 -0.007503 0.000216 -0.015123 -0.000129
# 2 0.003042 0.007674 -0.003215 0.000107 -0.006307 -0.000065
# 3 -0.007503 -0.003215 0.025765 -0.000821 -0.000903 0.000511
# 4 0.000216 0.000107 -0.000821 -0.357364 0.000030 0.242400
# 5 -0.015123 -0.006307 -0.000903 0.000030 0.044131 -0.000033
# 6 -0.000129 -0.000065 0.000511 0.242400 -0.000033 -0.125581
#
#
# Mechanical properties :
#
#
# Convention : Reuss Voigt Hill
#
# Bulk Modulus (GPa) = 27.01379 43.90360 35.45869
# Shear Modulus (GPa) = -13.93728 30.71526 8.38899
#
# Velocity S-wave (km/s) = -2.48347 3.68677 1.92674
# Velocity P-wave (km/s) = 1.93153 6.12793 4.54326
#
# Compressibility (1/GPa) = 0.03701814
#
# Stress axis : x y z
#
# Youngs Moduli (GPa) = 52.81887 130.31266 38.81306
#
# Poissons Ratio (x) = -0.39639 0.29122
# Poissons Ratio (y) = -0.16067 0.12479
# Poissons Ratio (z) = 0.39631 0.41897
#
# Static dielectric constant tensor:
#      x y z
#    x 1.834830 0.000010 -0.037510 
#    y 0.000010 1.894970 0.000000 
#    z -0.037510 0.000000 1.977870 
# 
# From -- ./inp_files/340302.got.cif
#   From: 2010.05.17/outbox.cif.g08.bks.cpg/sg12_171_cif.got.tgz:340302.got - 2010.06.03 13:09:07.
