data_PCOD9187180
_publ_section_title
;
Structure prediction by ZEFSAII (Michael W. Deem and Ramdas Pophale) SiO2 
 PCOD9187180
Probable space group: C 2/M
;
_chemical_formula_sum "Si O2"
_cell_formula_units_Z 56
_cell_length_a 20.432975
_cell_length_b 33.500871
_cell_length_c 8.949474
_cell_angle_alpha 90.000000
_cell_angle_beta 29.608723
_cell_angle_gamma 90.000000
_cell_volume 3026.756067
_symmetry_space_group_name_H-M "C 2/M"
_symmetry_group_IT_number 12
_symmetry_cell_setting 'monoclinic'
loop_
_space_group_symop_operation_xyz
x,y,z
-x,y,-z
-x,-y,-z
x,-y,z
1/2+x,1/2+y,z
1/2-x,1/2+y,-z
1/2-x,1/2-y,-z
1/2+x,1/2-y,z
loop_
_atom_site_type_symbol
_atom_site_label
_atom_site_fract_x
_atom_site_fract_y
_atom_site_fract_z
Si Si1 0.219356 0.000000 0.613507
Si Si2 0.512512 0.139548 0.154242
Si Si3 0.693471 0.633352 0.484066
Si Si4 0.482553 0.775826 0.712081
Si Si5 0.771341 0.584747 0.619891
Si Si6 0.008390 0.086117 0.318543
Si Si7 0.054784 0.000000 0.650510
Si Si8 0.208776 0.227464 0.429828
O O1 0.291949 0.040596 0.513311
O O2 0.174683 0.000000 0.530332
O O3 0.080888 0.000000 0.981854
O O4 0.482367 0.179009 0.307872
O O5 0.407250 0.105343 0.396286
O O6 0.500000 0.149031 0.000000
O O7 0.663986 0.126754 0.878211
O O8 0.708274 0.611916 0.613826
O O9 0.575309 0.613013 0.628920
O O10 0.680933 0.681024 0.520805
O O11 0.500000 0.770546 0.500000
O O12 0.581343 0.747179 0.606594
O O13 0.332890 0.769736 0.069049
O O14 0.660389 0.583185 0.966750
O O15 0.000000 0.103167 0.500000
O O16 0.948131 0.041304 0.432931
O O17 0.250000 0.250000 0.500000
#
# Coordination Sequence:
#
# PCOD9187180 Si02
#       8
#     4   8   8   8   8   8   4   8
#     4   9  16  30  58  84 106 140 185 231 274 316
#     4   9  20  39  59  80 112 147 186 226 281 342
#     4  10  21  37  56  82 111 141 183 233 276 325
#     4  11  23  39  60  86 115 150 187 234 289 338
#     4  10  19  35  58  82 110 143 185 229 274 328
#     4  11  22  34  54  83 112 147 186 224 274 331
#     4   9  17  34  53  77 114 146 178 225 279 325
#     4  11  23  40  61  83 113 151 193 235 282 340
#
# _framework density 18.501656000000001
#
# number of rings (size 3 to 8) (size 9 to 14) (size 15 to 20)
#    0.000    1.857    1.429    4.071    0.000    6.286 
#    0.000    3.929    0.000    0.000    0.000    4.500 
#    0.000    0.000    0.000    0.000    0.000    0.000 
#
# Total GULP energy -156327.934377 kJ/mol
# GULP energy per Si atom -5583.140513 kJ/mol
# Density = 1.845955 g / cm^3
# Si number density = 18.501656 Si / 1000 Ang^3
#
#
#
# Elastic Constant Matrix: (Units=GPa)
#
#
# Indices 1 2 3 4 5 6 
#
# 1 27.4884 12.0892 9.2844 0.0000 1.1335 0.0000
# 2 12.0892 98.2851 33.7038 0.0000 -10.3611 0.0000
# 3 9.2844 33.7038 44.8907 0.0000 2.1065 0.0000
# 4 0.0000 0.0000 0.0000 24.5379 0.0000 -4.0791
# 5 1.1335 -10.3611 2.1065 0.0000 29.8501 0.0000
# 6 0.0000 0.0000 0.0000 -4.0791 0.0000 18.1959
#
#
#
# Elastic Compliance Matrix: (Units=1/GPa)
#
#
# Indices 1 2 3 4 5 6 
#
# 1 0.039802 -0.003151 -0.005763 0.000000 -0.002199 0.000000
# 2 -0.003151 0.014915 -0.010831 0.000000 0.006061 0.000000
# 3 -0.005763 -0.010831 0.031872 0.000000 -0.005790 0.000000
# 4 0.000000 0.000000 0.000000 0.042331 0.000000 0.009490
# 5 -0.002199 0.006061 -0.005790 0.000000 0.036097 0.000000
# 6 0.000000 0.000000 0.000000 0.009490 0.000000 0.057085
#
#
# Mechanical properties :
#
#
# Convention : Reuss Voigt Hill
#
# Bulk Modulus (GPa) = 21.23192 31.20210 26.21701
# Shear Modulus (GPa) = 18.03161 22.22257 20.12709
#
# Velocity S-wave (km/s) = 3.12524 3.46947 3.30184
# Velocity P-wave (km/s) = 4.95211 5.74027 5.36069
#
# Compressibility (1/GPa) = 0.04709890
#
# Stress axis : x y z
#
# Youngs Moduli (GPa) = 25.12439 67.04571 31.37575
#
# Poissons Ratio (x) = 0.21128 0.18081
# Poissons Ratio (y) = 0.07917 0.33983
# Poissons Ratio (z) = 0.14479 0.72617
#
# Static dielectric constant tensor:
#      x y z
#    x 1.616090 0.000000 -0.000300 
#    y 0.000000 1.632880 0.000000 
#    z -0.000300 0.000000 1.639910 
# 
# From -- ./inp_files/91585.got.cif
#   From: 2010.05.17/outbox.cif.g08.bks.cpg/sg12_46_cif.got.tgz:91585.got - 2010.06.03 13:09:07.
