data_PCOD9187258
_publ_section_title
;
Structure prediction by ZEFSAII (Michael W. Deem and Ramdas Pophale) SiO2 
 PCOD9187258
Probable space group: C 2/M
;
_chemical_formula_sum "Si O2"
_cell_formula_units_Z 64
_cell_length_a 16.658237
_cell_length_b 15.102898
_cell_length_c 19.219585
_cell_angle_alpha 90.000000
_cell_angle_beta 36.610212
_cell_angle_gamma 90.000000
_cell_volume 2883.683751
_symmetry_space_group_name_H-M "C 2/M"
_symmetry_group_IT_number 12
_symmetry_cell_setting 'monoclinic'
loop_
_space_group_symop_operation_xyz
x,y,z
-x,y,-z
-x,-y,-z
x,-y,z
1/2+x,1/2+y,z
1/2-x,1/2+y,-z
1/2-x,1/2-y,-z
1/2+x,1/2-y,z
loop_
_atom_site_type_symbol
_atom_site_label
_atom_site_fract_x
_atom_site_fract_y
_atom_site_fract_z
Si Si1 0.823744 0.604866 0.013879
Si Si2 0.570494 0.234435 0.805354
Si Si3 0.131210 0.896067 0.699503
Si Si4 0.593860 0.782512 0.500110
Si Si5 0.335968 0.235872 0.117829
Si Si6 0.245180 0.402783 0.090812
Si Si7 0.359689 0.595572 0.466169
Si Si8 0.055715 0.359487 0.672972
O O1 0.848815 0.500000 0.006185
O O2 0.736955 0.615400 0.004247
O O3 0.956217 0.664029 0.906291
O O4 0.774081 0.653334 0.118291
O O5 0.544842 0.339449 0.815198
O O6 0.685710 0.227037 0.784225
O O7 0.588240 0.208122 0.712668
O O8 0.274625 0.844483 0.601902
O O9 0.084072 0.891110 0.651517
O O10 0.141601 0.000000 0.709297
O O11 0.500000 0.794535 0.500000
O O12 0.616765 0.678674 0.500491
O O13 0.530112 0.815468 0.616693
O O14 0.290911 0.324329 0.109449
O O15 0.500000 0.236877 0.000000
O O16 0.300688 0.500000 0.069277
O O17 0.082088 0.406893 0.211439
O O18 0.406475 0.500000 0.460172
O O19 0.197567 0.591066 0.568298
#
# Coordination Sequence:
#
# PCOD9187258 Si02
#       8
#     8   8   8   8   8   8   8   8
#     4   9  20  40  64  87 114 147 189 238 293 351
#     4  10  19  35  58  85 114 147 189 241 292 330
#     4  10  20  37  57  81 115 159 200 234 286 342
#     4  11  22  36  57  84 122 160 194 246 289 339
#     4  10  22  37  59  88 119 151 186 235 298 354
#     4  10  21  36  60  90 119 151 190 239 287 341
#     4  10  19  36  61  82 114 159 200 240 289 342
#     4  10  19  37  58  82 117 150 205 245 280 336
#
# _framework density 22.193835
#
# number of rings (size 3 to 8) (size 9 to 14) (size 15 to 20)
#    0.000    2.000    2.500    1.500    1.750    4.500 
#    0.000    1.875    0.000    3.750    0.000    0.000 
#    0.000    0.000    0.000    0.000    0.000    0.000 
#
# Total GULP energy -178254.991638 kJ/mol
# GULP energy per Si atom -5570.468489 kJ/mol
# Density = 2.214332 g / cm^3
# Si number density = 22.193835 Si / 1000 Ang^3
#
#
#
# Elastic Constant Matrix: (Units=GPa)
#
#
# Indices 1 2 3 4 5 6 
#
# 1 127.9421 80.1030 38.2285 0.0001 34.9757 0.0001
# 2 80.1030 193.7559 29.3411 0.0001 23.4018 0.0000
# 3 38.2285 29.3411 35.8773 0.0002 18.1712 0.0000
# 4 0.0001 0.0001 0.0002 8.6189 0.0000 1.6523
# 5 34.9757 23.4018 18.1712 0.0000 34.2241 0.0000
# 6 0.0001 0.0000 0.0000 1.6523 0.0000 13.4645
#
#
#
# Elastic Compliance Matrix: (Units=1/GPa)
#
#
# Indices 1 2 3 4 5 6 
#
# 1 0.015124 -0.003944 -0.008792 0.000000 -0.008092 0.000000
# 2 -0.003944 0.007022 -0.001573 0.000000 0.000064 0.000000
# 3 -0.008792 -0.001573 0.045729 -0.000001 -0.014219 0.000000
# 4 0.000000 0.000000 -0.000001 0.118820 0.000001 -0.014581
# 5 -0.008092 0.000064 -0.014219 0.000001 0.044994 0.000000
# 6 0.000000 0.000000 0.000000 -0.014581 0.000000 0.076058
#
#
# Mechanical properties :
#
#
# Convention : Reuss Voigt Hill
#
# Bulk Modulus (GPa) = 25.47242 72.54672 49.00957
# Shear Modulus (GPa) = 14.30817 25.25502 19.78160
#
# Velocity S-wave (km/s) = 2.54183 3.37698 2.98872
# Velocity P-wave (km/s) = 4.48517 6.92561 5.83441
#
# Compressibility (1/GPa) = 0.03925815
#
# Stress axis : x y z
#
# Youngs Moduli (GPa) = 66.11872 142.40714 21.86811
#
# Poissons Ratio (x) = 0.56166 0.19226
# Poissons Ratio (y) = 0.26078 0.03439
# Poissons Ratio (z) = 0.58129 0.22397
#
# Static dielectric constant tensor:
#      x y z
#    x 1.787280 0.000000 0.018030 
#    y 0.000000 1.826130 0.000000 
#    z 0.018030 0.000000 2.040800 
# 
# From -- ./inp_files/270636.got.cif
#   From: 2010.05.17/outbox.cif.g08.bks.cpg/sg12_136_cif.got.tgz:270636.got - 2010.06.03 13:09:07.
