data_PCOD9187588
_publ_section_title
;
Structure prediction by ZEFSAII (Michael W. Deem and Ramdas Pophale) SiO2 
 PCOD9187588
Probable space group: C 2/M
;
_chemical_formula_sum "Si O2"
_cell_formula_units_Z 56
_cell_length_a 19.752384
_cell_length_b 15.460860
_cell_length_c 8.601258
_cell_angle_alpha 90.000000
_cell_angle_beta 73.884598
_cell_angle_gamma 90.000000
_cell_volume 2523.509827
_symmetry_space_group_name_H-M "C 2/M"
_symmetry_group_IT_number 12
_symmetry_cell_setting 'monoclinic'
loop_
_space_group_symop_operation_xyz
x,y,z
-x,y,-z
-x,-y,-z
x,-y,z
1/2+x,1/2+y,z
1/2-x,1/2+y,-z
1/2-x,1/2-y,-z
1/2+x,1/2-y,z
loop_
_atom_site_type_symbol
_atom_site_label
_atom_site_fract_x
_atom_site_fract_y
_atom_site_fract_z
Si Si1 0.769062 0.902754 0.780737
Si Si2 0.178882 0.600247 0.303564
Si Si3 0.405994 0.594375 0.532606
Si Si4 0.166274 0.103396 0.935864
Si Si5 0.937727 0.189067 0.222582
Si Si6 0.947954 0.272059 0.670514
Si Si7 0.688044 0.808979 0.607121
O O1 0.821259 0.905038 0.598900
O O2 0.707089 0.842066 0.766205
O O3 0.744765 0.000000 0.830301
O O4 0.814259 0.873864 0.899378
O O5 0.165209 0.500000 0.271833
O O6 0.259554 0.620604 0.200814
O O7 0.120070 0.666009 0.271706
O O8 0.175956 0.615262 0.490795
O O9 0.425228 0.500000 0.585504
O O10 0.436820 0.607486 0.341658
O O11 0.427865 0.678033 0.614815
O O12 0.099228 0.153372 0.908992
O O13 0.153002 0.000000 0.936135
O O14 0.879977 0.250970 0.337316
O O15 0.008042 0.246032 0.202747
O O16 0.000000 0.308790 0.500000
O O17 0.750000 0.750000 0.500000
#
# Coordination Sequence:
#
# PCOD9187588 Si02
#       7
#     8   8   8   8   8   8   8
#     4  10  21  37  57  87 120 151 196 246 303 360
#     4  11  21  38  63  89 122 161 200 250 302 354
#     4  10  19  35  60  83 115 155 190 244 303 352
#     4  10  22  38  60  89 117 154 203 251 302 359
#     4  11  21  35  58  85 122 149 201 245 292 355
#     4  10  21  38  55  87 124 154 202 244 294 366
#     4  12  19  35  58  88 119 150 195 255 299 352
#
# _framework density 22.191313999999998
#
# number of rings (size 3 to 8) (size 9 to 14) (size 15 to 20)
#    0.000    1.429    5.714    0.857    0.000    6.286 
#    0.000    0.714    0.000    2.571    0.000    3.000 
#    0.000    0.000    0.000    0.000    0.000    0.000 
#
# Total GULP energy -156208.540554 kJ/mol
# GULP energy per Si atom -5578.876448 kJ/mol
# Density = 2.214081 g / cm^3
# Si number density = 22.191314 Si / 1000 Ang^3
#
#
#
# Elastic Constant Matrix: (Units=GPa)
#
#
# Indices 1 2 3 4 5 6 
#
# 1 101.0621 47.6160 29.1623 0.0000 38.3739 0.0000
# 2 47.6160 99.1559 28.1064 0.0000 24.5331 0.0000
# 3 29.1623 28.1064 73.6731 0.0000 25.2869 0.0000
# 4 0.0000 0.0000 0.0000 23.3862 0.0000 7.6263
# 5 38.3739 24.5331 25.2869 0.0000 41.8116 0.0000
# 6 0.0000 0.0000 0.0000 7.6263 0.0000 29.1058
#
#
#
# Elastic Compliance Matrix: (Units=1/GPa)
#
#
# Indices 1 2 3 4 5 6 
#
# 1 0.017142 -0.004980 -0.000617 0.000000 -0.012438 0.000000
# 2 -0.004980 0.013680 -0.002601 0.000000 -0.001883 0.000000
# 3 -0.000617 -0.002601 0.017783 0.000000 -0.008663 0.000000
# 4 0.000000 0.000000 0.000000 0.046755 0.000000 -0.012251
# 5 -0.012438 -0.001883 -0.008663 0.000000 0.041676 0.000000
# 6 0.000000 0.000000 0.000000 -0.012251 0.000000 0.037567
#
#
# Mechanical properties :
#
#
# Convention : Reuss Voigt Hill
#
# Bulk Modulus (GPa) = 31.04657 53.74007 42.39332
# Shear Modulus (GPa) = 24.78502 30.12780 27.45641
#
# Velocity S-wave (km/s) = 3.34560 3.68861 3.52129
# Velocity P-wave (km/s) = 5.38004 6.51233 5.97308
#
# Compressibility (1/GPa) = 0.03220968
#
# Stress axis : x y z
#
# Youngs Moduli (GPa) = 58.33753 73.10104 56.23252
#
# Poissons Ratio (x) = 0.36401 0.03467
# Poissons Ratio (y) = 0.29050 0.14628
# Poissons Ratio (z) = 0.03597 0.19016
#
# Static dielectric constant tensor:
#      x y z
#    x 1.885850 0.000000 0.004420 
#    y 0.000000 1.796270 0.000000 
#    z 0.004420 0.000000 1.899600 
# 
# From -- ./inp_files/86365.got.cif
#   From: 2010.05.17/outbox.cif.g08.bks.cpg/sg12_44_cif.got.tgz:86365.got - 2010.06.03 13:09:07.
