data_PCOD9187541
_publ_section_title
;
Structure prediction by ZEFSAII (Michael W. Deem and Ramdas Pophale) SiO2 
 PCOD9187541
Probable space group: C 2/M
;
_chemical_formula_sum "Si O2"
_cell_formula_units_Z 56
_cell_length_a 30.040496
_cell_length_b 7.932983
_cell_length_c 12.985754
_cell_angle_alpha 90.000000
_cell_angle_beta 58.985153
_cell_angle_gamma 90.000000
_cell_volume 2652.215138
_symmetry_space_group_name_H-M "C 2/M"
_symmetry_group_IT_number 12
_symmetry_cell_setting 'monoclinic'
loop_
_space_group_symop_operation_xyz
x,y,z
-x,y,-z
-x,-y,-z
x,-y,z
1/2+x,1/2+y,z
1/2-x,1/2+y,-z
1/2-x,1/2-y,-z
1/2+x,1/2-y,z
loop_
_atom_site_type_symbol
_atom_site_label
_atom_site_fract_x
_atom_site_fract_y
_atom_site_fract_z
Si Si1 0.385912 0.296597 0.003617
Si Si2 0.036739 0.704082 0.552095
Si Si3 0.110206 0.206467 0.771948
Si Si4 0.001339 0.198845 0.819517
Si Si5 0.196772 0.798881 0.508472
Si Si6 0.348869 0.798884 0.645177
Si Si7 0.690661 0.799717 0.088797
O O1 0.387696 0.500000 0.002022
O O2 0.444237 0.231611 0.910927
O O3 0.345899 0.248173 0.962809
O O4 0.371239 0.242469 0.136713
O O5 0.037237 0.500000 0.562249
O O6 0.015000 0.777685 0.683629
O O7 0.094905 0.765842 0.458483
O O8 0.000000 0.746097 0.500000
O O9 0.051254 0.265540 0.822102
O O10 0.148690 0.264455 0.635947
O O11 0.109822 0.000000 0.769019
O O12 0.998819 0.000000 0.846836
O O13 0.250000 0.750000 0.500000
O O14 0.191147 0.732992 0.399357
O O15 0.193374 0.000000 0.508276
O O16 0.330833 0.729430 0.776854
O O17 0.354940 0.000000 0.649102
O O18 0.689411 0.000000 0.098671
O O19 0.750000 0.750000 0.000000
#
# Coordination Sequence:
#
# PCOD9187541 Si02
#       7
#     8   8   8   8   8   8   8
#     4  10  21  38  62  89 121 160 200 241 294 355
#     4  10  20  35  57  84 118 158 195 236 292 350
#     4   9  19  37  60  88 121 157 193 240 295 348
#     4  10  19  35  59  89 120 154 198 242 288 348
#     4  11  23  39  62  90 122 155 198 249 300 357
#     4  10  22  41  62  85 118 158 198 244 297 354
#     4  11  25  44  64  87 118 155 201 250 300 356
#
# _framework density 21.114426999999999
#
# number of rings (size 3 to 8) (size 9 to 14) (size 15 to 20)
#    0.000    1.857    1.429    2.143    2.000    4.857 
#    0.000    1.429    0.000    1.714    0.000    0.000 
#    0.000    0.000    0.000    0.000    0.000    0.000 
#
# Total GULP energy -156467.919287 kJ/mol
# GULP energy per Si atom -5588.139975 kJ/mol
# Density = 2.106637 g / cm^3
# Si number density = 21.114427 Si / 1000 Ang^3
#
#
#
# Elastic Constant Matrix: (Units=GPa)
#
#
# Indices 1 2 3 4 5 6 
#
# 1 126.4666 -5.3705 36.9644 0.0000 16.1164 0.0000
# 2 -5.3705 19.7068 0.9966 0.0000 -3.9512 0.0000
# 3 36.9644 0.9966 102.3420 0.0000 19.9273 0.0000
# 4 0.0000 0.0000 0.0000 13.4144 0.0000 -0.0182
# 5 16.1164 -3.9512 19.9273 0.0000 36.4831 0.0000
# 6 0.0000 0.0000 0.0000 -0.0182 0.0000 25.0260
#
#
#
# Elastic Compliance Matrix: (Units=1/GPa)
#
#
# Indices 1 2 3 4 5 6 
#
# 1 0.009126 0.002188 -0.002886 0.000000 -0.002218 0.000000
# 2 0.002188 0.052689 -0.002491 0.000000 0.006100 0.000000
# 3 -0.002886 -0.002491 0.011909 0.000000 -0.005500 0.000000
# 4 0.000000 0.000000 0.000000 0.074547 0.000000 0.000054
# 5 -0.002218 0.006100 -0.005500 0.000000 0.032055 0.000000
# 6 0.000000 0.000000 0.000000 0.000054 0.000000 0.039958
#
#
# Mechanical properties :
#
#
# Convention : Reuss Voigt Hill
#
# Bulk Modulus (GPa) = 14.84853 34.85515 24.85184
# Shear Modulus (GPa) = 20.07143 29.37969 24.72556
#
# Velocity S-wave (km/s) = 3.08653 3.73426 3.42574
# Velocity P-wave (km/s) = 4.44409 5.92761 5.23863
#
# Compressibility (1/GPa) = 0.06734672
#
# Stress axis : x y z
#
# Youngs Moduli (GPa) = 109.57365 18.97919 83.97353
#
# Poissons Ratio (x) = -0.04153 0.24232
# Poissons Ratio (y) = -0.23977 0.20920
# Poissons Ratio (z) = 0.31619 0.04728
#
# Static dielectric constant tensor:
#      x y z
#    x 1.753050 0.000000 -0.009940 
#    y 0.000000 1.771290 0.000000 
#    z -0.009940 0.000000 1.753570 
# 
# From -- ./inp_files/180780.got.cif
#   From: 2010.05.17/outbox.cif.g08.bks.cpg/sg12_91_cif.got.tgz:180780.got - 2010.06.03 13:09:07.
