data_PCOD9187233
_publ_section_title
;
Structure prediction by ZEFSAII (Michael W. Deem and Ramdas Pophale) SiO2 
 PCOD9187233
Probable space group: C 2/M
;
_chemical_formula_sum "Si O2"
_cell_formula_units_Z 48
_cell_length_a 13.005331
_cell_length_b 25.378165
_cell_length_c 7.940311
_cell_angle_alpha 90.000000
_cell_angle_beta 60.844885
_cell_angle_gamma 90.000000
_cell_volume 2288.677426
_symmetry_space_group_name_H-M "C 2/M"
_symmetry_group_IT_number 12
_symmetry_cell_setting 'monoclinic'
loop_
_space_group_symop_operation_xyz
x,y,z
-x,y,-z
-x,-y,-z
x,-y,z
1/2+x,1/2+y,z
1/2-x,1/2+y,-z
1/2-x,1/2-y,-z
1/2+x,1/2-y,z
loop_
_atom_site_type_symbol
_atom_site_label
_atom_site_fract_x
_atom_site_fract_y
_atom_site_fract_z
Si Si1 0.050910 0.000000 0.731663
Si Si2 0.705487 0.186040 0.918518
Si Si3 0.788317 0.089097 0.279321
Si Si4 0.344818 0.089340 0.263845
Si Si5 0.569502 0.886961 0.267434
Si Si6 0.865303 0.196675 0.069953
Si Si7 0.310121 0.500000 0.741416
O O1 0.101319 0.949613 0.792646
O O2 0.116300 0.000000 0.495430
O O3 0.911984 0.000000 0.801255
O O4 0.677528 0.147259 0.789959
O O5 0.694572 0.246188 0.870835
O O6 0.614642 0.166520 0.138738
O O7 0.831673 0.178177 0.907416
O O8 0.721832 0.082876 0.507570
O O9 0.686370 0.080065 0.221592
O O10 0.823611 0.149673 0.222952
O O11 0.481372 0.084620 0.207724
O O12 0.278203 0.049506 0.193503
O O13 0.500000 0.876994 0.500000
O O14 0.000000 0.205242 0.000000
#
# Coordination Sequence:
#
# PCOD9187233 Si02
#       7
#     4   8   8   8   8   8   4
#     4   9  18  37  55  78 120 151 189 238 273 330
#     4  10  21  37  57  83 114 148 184 238 288 326
#     4   9  20  35  57  83 111 152 191 231 281 336
#     4  10  19  35  58  84 112 148 191 232 284 333
#     4   9  18  35  58  82 112 147 187 230 284 340
#     4  10  21  37  55  79 114 149 187 233 282 339
#     4   9  20  33  55  85 115 152 188 233 284 328
#
# _framework density 20.972812999999999
#
# number of rings (size 3 to 8) (size 9 to 14) (size 15 to 20)
#    0.000    2.500    0.000    1.500    2.333    1.333 
#    0.000   12.083    0.000    0.000    0.000    0.000 
#    0.000    0.000    0.000    0.000    0.000    0.000 
#
# Total GULP energy -133750.126380 kJ/mol
# GULP energy per Si atom -5572.921933 kJ/mol
# Density = 2.092508 g / cm^3
# Si number density = 20.972813 Si / 1000 Ang^3
#
#
#
# Elastic Constant Matrix: (Units=GPa)
#
#
# Indices 1 2 3 4 5 6 
#
# 1 200.1729 85.7801 22.0882 0.0000 16.9629 0.0000
# 2 85.7801 101.0069 13.7271 0.0000 5.4678 0.0000
# 3 22.0882 13.7271 45.2577 0.0000 10.7841 0.0000
# 4 0.0000 0.0000 0.0000 20.7867 0.0000 3.9142
# 5 16.9629 5.4678 10.7841 0.0000 17.3656 0.0000
# 6 0.0000 0.0000 0.0000 3.9142 0.0000 25.7827
#
#
#
# Elastic Compliance Matrix: (Units=1/GPa)
#
#
# Indices 1 2 3 4 5 6 
#
# 1 0.008463 -0.006782 -0.000719 0.000000 -0.005685 0.000000
# 2 -0.006782 0.015795 -0.002200 0.000000 0.003017 0.000000
# 3 -0.000719 -0.002200 0.026738 0.000000 -0.015210 0.000000
# 4 0.000000 0.000000 0.000000 0.049523 0.000000 -0.007518
# 5 -0.005685 0.003017 -0.015210 0.000000 0.071634 0.000000
# 6 0.000000 0.000000 0.000000 -0.007518 0.000000 0.039927
#
#
# Mechanical properties :
#
#
# Convention : Reuss Voigt Hill
#
# Bulk Modulus (GPa) = 31.65037 65.51427 48.58232
# Shear Modulus (GPa) = 20.66006 27.77647 24.21826
#
# Velocity S-wave (km/s) = 3.14202 3.64318 3.40184
# Velocity P-wave (km/s) = 5.31854 7.00018 6.21649
#
# Compressibility (1/GPa) = 0.03159521
#
# Stress axis : x y z
#
# Youngs Moduli (GPa) = 118.16257 63.30981 37.40003
#
# Poissons Ratio (x) = 0.42935 0.02688
# Poissons Ratio (y) = 0.80134 0.08228
# Poissons Ratio (z) = 0.08493 0.13928
#
# Static dielectric constant tensor:
#      x y z
#    x 1.793280 0.000000 -0.000420 
#    y 0.000000 1.761390 0.000000 
#    z -0.000420 0.000000 1.764060 
# 
# From -- ./inp_files/51365.got.cif
#   From: 2010.05.17/outbox.cif.g08.bks.cpg/sg12_26_cif.got.tgz:51365.got - 2010.06.03 13:09:07.
