data_PCOD9187053
_publ_section_title
;
Structure prediction by ZEFSAII (Michael W. Deem and Ramdas Pophale) SiO2 
 PCOD9187053
Probable space group: C 2/M
;
_chemical_formula_sum "Si O2"
_cell_formula_units_Z 56
_cell_length_a 21.302631
_cell_length_b 8.080260
_cell_length_c 15.527778
_cell_angle_alpha 90.000000
_cell_angle_beta 62.789298
_cell_angle_gamma 90.000000
_cell_volume 2377.011671
_symmetry_space_group_name_H-M "C 2/M"
_symmetry_group_IT_number 12
_symmetry_cell_setting 'monoclinic'
loop_
_space_group_symop_operation_xyz
x,y,z
-x,y,-z
-x,-y,-z
x,-y,z
1/2+x,1/2+y,z
1/2-x,1/2+y,-z
1/2-x,1/2-y,-z
1/2+x,1/2-y,z
loop_
_atom_site_type_symbol
_atom_site_label
_atom_site_fract_x
_atom_site_fract_y
_atom_site_fract_z
Si Si1 0.727840 0.695351 0.780987
Si Si2 0.355666 0.299152 0.806765
Si Si3 0.169224 0.810833 0.994739
Si Si4 0.016845 0.690223 0.712500
Si Si5 0.501022 0.311662 0.092820
Si Si6 0.225230 0.803828 0.421534
Si Si7 0.430931 0.308738 0.494262
O O1 0.715376 0.500000 0.784948
O O2 0.807313 0.739470 0.759836
O O3 0.720701 0.761957 0.689246
O O4 0.684882 0.765098 0.890989
O O5 0.360154 0.500000 0.804651
O O6 0.315079 0.240676 0.919753
O O7 0.433113 0.223411 0.753604
O O8 0.084408 0.821348 0.057206
O O9 0.195244 0.000000 0.976129
O O10 0.033433 0.500000 0.684322
O O11 0.032987 0.731278 0.801990
O O12 0.053513 0.800848 0.617463
O O13 0.472380 0.500000 0.102353
O O14 0.500000 0.228273 0.000000
O O15 0.250000 0.750000 0.500000
O O16 0.147071 0.732329 0.448668
O O17 0.217533 0.000000 0.428689
O O18 0.500000 0.235894 0.500000
O O19 0.426799 0.500000 0.527315
#
# Coordination Sequence:
#
# PCOD9187053 Si02
#       7
#     8   8   8   8   8   8   8
#     4  11  21  35  57  85 117 152 194 244 297 350
#     4  10  19  35  57  83 118 156 195 235 284 353
#     4   8  17  32  52  81 114 149 188 230 279 342
#     4  11  22  35  56  87 119 148 185 243 306 354
#     4   9  18  35  57  79 109 151 194 231 275 344
#     4  11  25  44  64  88 121 162 206 253 305 362
#     4  10  22  42  67  90 115 155 206 254 302 363
#
# _framework density 23.558990999999999
#
# number of rings (size 3 to 8) (size 9 to 14) (size 15 to 20)
#    0.000    2.000    0.000    4.714    0.000    4.000 
#    0.000    9.286    0.000    0.000    0.000    0.000 
#    0.000    0.000    0.000    0.000    0.000    0.000 
#
# Total GULP energy -156252.671115 kJ/mol
# GULP energy per Si atom -5580.452540 kJ/mol
# Density = 2.350537 g / cm^3
# Si number density = 23.558991 Si / 1000 Ang^3
#
#
#
# Elastic Constant Matrix: (Units=GPa)
#
#
# Indices 1 2 3 4 5 6 
#
# 1 48.7891 10.3762 31.2818 0.0000 12.3984 0.0000
# 2 10.3762 42.0137 -3.4950 -0.0001 1.5064 0.0000
# 3 31.2818 -3.4950 162.5413 0.0000 24.9538 0.0000
# 4 0.0000 -0.0001 0.0000 24.5389 0.0000 8.6556
# 5 12.3984 1.5064 24.9538 0.0000 36.5762 0.0000
# 6 0.0000 0.0000 0.0000 8.6556 0.0000 18.0132
#
#
#
# Elastic Compliance Matrix: (Units=1/GPa)
#
#
# Indices 1 2 3 4 5 6 
#
# 1 0.026088 -0.006598 -0.004297 0.000000 -0.005640 0.000000
# 2 -0.006598 0.025586 0.001830 0.000000 -0.000066 0.000000
# 3 -0.004297 0.001830 0.007603 0.000000 -0.003806 0.000000
# 4 0.000000 0.000000 0.000000 0.049068 0.000000 -0.023578
# 5 -0.005640 -0.000066 -0.003806 0.000000 0.031851 0.000000
# 6 0.000000 0.000000 0.000000 -0.023578 0.000000 0.066844
#
#
# Mechanical properties :
#
#
# Convention : Reuss Voigt Hill
#
# Bulk Modulus (GPa) = 24.30312 36.63001 30.46656
# Shear Modulus (GPa) = 20.93051 30.17108 25.55079
#
# Velocity S-wave (km/s) = 2.98389 3.58251 3.29682
# Velocity P-wave (km/s) = 4.71272 5.71791 5.23948
#
# Compressibility (1/GPa) = 0.04114698
#
# Stress axis : x y z
#
# Youngs Moduli (GPa) = 38.33208 39.08403 131.52966
#
# Poissons Ratio (x) = 0.25788 0.56515
# Poissons Ratio (y) = 0.25292 -0.24071
# Poissons Ratio (z) = 0.16470 -0.07153
#
# Static dielectric constant tensor:
#      x y z
#    x 2.001920 0.000000 0.005230 
#    y 0.000000 1.866350 0.000000 
#    z 0.005230 0.000000 1.960530 
# 
# From -- ./inp_files/238252.got.cif
#   From: 2010.05.17/outbox.cif.g08.bks.cpg/sg12_120_cif.got.tgz:238252.got - 2010.06.03 13:09:07.
