data_PCOD9187959
_publ_section_title
;
Structure prediction by ZEFSAII (Michael W. Deem and Ramdas Pophale) SiO2 
 PCOD9187959
Probable space group: C 2/M
;
_chemical_formula_sum "Si O2"
_cell_formula_units_Z 40
_cell_length_a 15.147072
_cell_length_b 26.535556
_cell_length_c 8.526449
_cell_angle_alpha 90.000000
_cell_angle_beta 37.405916
_cell_angle_gamma 90.000000
_cell_volume 2081.810708
_symmetry_space_group_name_H-M "C 2/M"
_symmetry_group_IT_number 12
_symmetry_cell_setting 'monoclinic'
loop_
_space_group_symop_operation_xyz
x,y,z
-x,y,-z
-x,-y,-z
x,-y,z
1/2+x,1/2+y,z
1/2-x,1/2+y,-z
1/2-x,1/2-y,-z
1/2+x,1/2-y,z
loop_
_atom_site_type_symbol
_atom_site_label
_atom_site_fract_x
_atom_site_fract_y
_atom_site_fract_z
Si Si1 0.363202 0.000000 0.309762
Si Si2 0.570688 0.299461 0.726010
Si Si3 0.928799 0.102443 0.928067
Si Si4 0.394717 0.909038 0.510808
Si Si5 0.956632 0.000000 0.381654
Si Si6 0.083931 0.687823 0.716422
O O1 0.369075 0.048615 0.414997
O O2 0.213887 0.000000 0.421737
O O3 0.500000 0.000000 0.000000
O O4 0.491073 0.346948 0.760064
O O5 0.741913 0.311738 0.497645
O O6 0.551851 0.242973 0.688068
O O7 0.500000 0.295916 0.000000
O O8 0.757783 0.104661 0.193907
O O9 0.974801 0.050660 0.784807
O O10 0.000000 0.100965 0.000000
O O11 0.500000 0.927129 0.500000
O O12 0.452387 0.858724 0.344246
O O13 0.000000 0.000000 0.500000
O O14 0.000000 0.682652 0.000000
#
# Coordination Sequence:
#
# PCOD9187959 Si02
#       6
#     4   8   8   8   4   8
#     4  12  26  44  64  92 131 162 203 267 326 371
#     4   9  17  35  66  89 118 170 210 258 318 372
#     4  11  20  43  67  87 123 170 216 254 310 384
#     4  12  25  41  64  93 129 172 212 253 316 388
#     4  12  26  41  68  98 119 159 216 268 316 375
#     4  10  19  35  63  94 124 159 216 264 315 366
#
# _framework density 19.214043
#
# number of rings (size 3 to 8) (size 9 to 14) (size 15 to 20)
#    0.000    1.200    6.000    1.800    2.800    0.000 
#    0.000    2.000    0.000    0.000    0.000    0.000 
#    0.000    0.000    0.000    0.000    0.000    0.000 
#
# Total GULP energy -111629.780394 kJ/mol
# GULP energy per Si atom -5581.489020 kJ/mol
# Density = 1.917031 g / cm^3
# Si number density = 19.214043 Si / 1000 Ang^3
#
#
#
# Elastic Constant Matrix: (Units=GPa)
#
#
# Indices 1 2 3 4 5 6 
#
# 1 92.9791 30.1555 28.8129 0.0000 -2.5038 0.0000
# 2 30.1555 175.2898 37.4285 0.0000 9.9480 0.0000
# 3 28.8129 37.4285 116.5264 0.0000 -18.3561 0.0000
# 4 0.0000 0.0000 0.0000 27.8217 0.0000 -10.0274
# 5 -2.5038 9.9480 -18.3561 0.0000 19.0766 0.0000
# 6 0.0000 0.0000 0.0000 -10.0274 0.0000 -6.4430
#
#
#
# Elastic Compliance Matrix: (Units=1/GPa)
#
#
# Indices 1 2 3 4 5 6 
#
# 1 0.012022 -0.001538 -0.002479 0.000000 -0.000006 0.000000
# 2 -0.001538 0.006965 -0.002900 0.000000 -0.006625 0.000000
# 3 -0.002479 -0.002900 0.012156 0.000000 0.012884 0.000000
# 4 0.000000 0.000000 0.000000 0.023027 0.000000 -0.035837
# 5 -0.000006 -0.006625 0.012884 0.000000 0.068271 0.000000
# 6 0.000000 0.000000 0.000000 -0.035837 0.000000 -0.099434
#
#
# Mechanical properties :
#
#
# Convention : Reuss Voigt Hill
#
# Bulk Modulus (GPa) = 57.78109 64.17657 60.97883
# Shear Modulus (GPa) = 117.33586 27.31763 72.32674
#
# Velocity S-wave (km/s) = 7.82306 3.77470 6.14202
# Velocity P-wave (km/s) = 10.57062 7.24370 9.06116
#
# Compressibility (1/GPa) = 0.01730670
#
# Stress axis : x y z
#
# Youngs Moduli (GPa) = 83.17907 143.58065 82.26441
#
# Poissons Ratio (x) = 0.22090 0.20397
# Poissons Ratio (y) = 0.12797 0.23858
# Poissons Ratio (z) = 0.20623 0.41642
#
# Static dielectric constant tensor:
#      x y z
#    x 1.636070 0.000000 -0.009070 
#    y 0.000000 1.751810 0.000000 
#    z -0.009070 0.000000 1.649290 
# 
# From -- ./inp_files/65108.got.cif
#   From: 2010.05.17/outbox.cif.g08.bks.cpg/sg12_33_cif.got.tgz:65108.got - 2010.06.03 13:09:07.
