data_PCOD9187903
_publ_section_title
;
Structure prediction by ZEFSAII (Michael W. Deem and Ramdas Pophale) SiO2 
 PCOD9187903
Probable space group: C 2/M
;
_chemical_formula_sum "Si O2"
_cell_formula_units_Z 48
_cell_length_a 9.301288
_cell_length_b 18.330023
_cell_length_c 14.686544
_cell_angle_alpha 90.000000
_cell_angle_beta 68.535348
_cell_angle_gamma 90.000000
_cell_volume 2330.285114
_symmetry_space_group_name_H-M "C 2/M"
_symmetry_group_IT_number 12
_symmetry_cell_setting 'monoclinic'
loop_
_space_group_symop_operation_xyz
x,y,z
-x,y,-z
-x,-y,-z
x,-y,z
1/2+x,1/2+y,z
1/2-x,1/2+y,-z
1/2-x,1/2-y,-z
1/2+x,1/2-y,z
loop_
_atom_site_type_symbol
_atom_site_label
_atom_site_fract_x
_atom_site_fract_y
_atom_site_fract_z
Si Si1 0.612047 0.297015 0.886889
Si Si2 0.364008 0.412932 0.605944
Si Si3 0.466330 0.088556 0.406904
Si Si4 0.132929 0.828291 0.207214
Si Si5 0.600649 0.914036 0.896129
Si Si6 0.857303 0.412648 0.805775
O O1 0.738535 0.234766 0.836207
O O2 0.512939 0.306620 0.818204
O O3 0.713243 0.369768 0.878923
O O4 0.500000 0.284460 0.000000
O O5 0.500000 0.407779 0.500000
O O6 0.354129 0.500000 0.636302
O O7 0.201216 0.392984 0.595518
O O8 0.392916 0.359204 0.684961
O O9 0.500000 0.116453 0.500000
O O10 0.603393 0.109511 0.306452
O O11 0.467238 0.000000 0.409737
O O12 0.222338 0.894693 0.138265
O O13 0.513392 0.892253 0.824227
O O14 0.587009 0.000000 0.902320
O O15 0.500000 0.881260 0.000000
O O16 0.836407 0.500000 0.815751
#
# Coordination Sequence:
#
# PCOD9187903 Si02
#       6
#     8   8   8   8   8   8
#     4  12  27  44  64  90 127 174 220 270 320 380
#     4  10  22  41  68 101 130 162 210 264 321 381
#     4   9  18  35  63  94 127 163 198 251 317 381
#     4  12  24  42  64  89 126 172 216 263 320 381
#     4  10  19  35  62  91 121 160 205 257 316 379
#     4  10  21  39  63  94 127 163 211 264 321 384
#
# _framework density 20.598337000000001
#
# number of rings (size 3 to 8) (size 9 to 14) (size 15 to 20)
#    0.000    1.500    1.667    3.500    2.333    1.667 
#    0.000    1.667    0.000    0.000    0.000    0.000 
#    0.000    0.000    0.000    0.000    0.000    0.000 
#
# Total GULP energy -133897.956343 kJ/mol
# GULP energy per Si atom -5579.081514 kJ/mol
# Density = 2.055145 g / cm^3
# Si number density = 20.598337 Si / 1000 Ang^3
#
#
#
# Elastic Constant Matrix: (Units=GPa)
#
#
# Indices 1 2 3 4 5 6 
#
# 1 81.6541 31.8611 5.4882 0.0000 1.5149 0.0000
# 2 31.8611 56.2018 38.8481 0.0000 1.7553 0.0000
# 3 5.4882 38.8481 89.5438 0.0000 -1.3223 0.0000
# 4 0.0000 0.0000 0.0000 21.6970 0.0000 -15.8466
# 5 1.5149 1.7553 -1.3223 0.0000 33.5145 0.0000
# 6 0.0000 0.0000 0.0000 -15.8466 0.0000 2.8627
#
#
#
# Elastic Compliance Matrix: (Units=1/GPa)
#
#
# Indices 1 2 3 4 5 6 
#
# 1 0.016883 -0.012654 0.004456 0.000000 0.000075 0.000000
# 2 -0.012654 0.035003 -0.014437 0.000000 -0.001831 0.000000
# 3 0.004456 -0.014437 0.017176 0.000000 0.001232 0.000000
# 4 0.000000 0.000000 0.000000 -0.015146 0.000000 -0.083843
# 5 0.000075 -0.001831 0.001232 0.000000 0.029979 0.000000
# 6 0.000000 0.000000 0.000000 -0.083843 0.000000 -0.114798
#
#
# Mechanical properties :
#
#
# Convention : Reuss Voigt Hill
#
# Bulk Modulus (GPa) = 42.02965 42.19939 42.11452
# Shear Modulus (GPa) = 224.22183 21.69498 122.95840
#
# Velocity S-wave (km/s) = 10.44465 3.24889 7.73453
# Velocity P-wave (km/s) = 12.88033 5.88260 10.01269
#
# Compressibility (1/GPa) = 0.02379273
#
# Stress axis : x y z
#
# Youngs Moduli (GPa) = 59.23004 28.56881 58.21932
#
# Poissons Ratio (x) = 0.36150 -0.25943
# Poissons Ratio (y) = 0.74948 0.84054
# Poissons Ratio (z) = -0.26393 0.41246
#
# Static dielectric constant tensor:
#      x y z
#    x 1.718120 0.000000 0.008730 
#    y 0.000000 1.801010 0.000000 
#    z 0.008730 0.000000 1.818540 
# 
# From -- ./inp_files/196913.got.cif
#   From: 2010.05.17/outbox.cif.g08.bks.cpg/sg12_99_cif.got.tgz:196913.got - 2010.06.03 13:09:07.
