data_PCOD9187388
_publ_section_title
;
Structure prediction by ZEFSAII (Michael W. Deem and Ramdas Pophale) SiO2 
 PCOD9187388
Probable space group: C 2/M
;
_chemical_formula_sum "Si O2"
_cell_formula_units_Z 52
_cell_length_a 11.173297
_cell_length_b 22.405383
_cell_length_c 18.404645
_cell_angle_alpha 90.000000
_cell_angle_beta 143.593727
_cell_angle_gamma 90.000000
_cell_volume 2734.557189
_symmetry_space_group_name_H-M "C 2/M"
_symmetry_group_IT_number 12
_symmetry_cell_setting 'monoclinic'
loop_
_space_group_symop_operation_xyz
x,y,z
-x,y,-z
-x,-y,-z
x,-y,z
1/2+x,1/2+y,z
1/2-x,1/2+y,-z
1/2-x,1/2-y,-z
1/2+x,1/2-y,z
loop_
_atom_site_type_symbol
_atom_site_label
_atom_site_fract_x
_atom_site_fract_y
_atom_site_fract_z
Si Si1 0.672682 0.206317 0.186320
Si Si2 0.681279 0.500000 0.827522
Si Si3 0.032142 0.500000 0.888437
Si Si4 0.418628 0.309283 0.532203
Si Si5 0.895436 0.129819 0.176320
Si Si6 0.715371 0.180632 0.574277
Si Si7 0.839260 0.372665 0.089828
Si Si8 0.000000 0.193707 0.000000
O O1 0.734661 0.161020 0.151508
O O2 0.523640 0.172224 0.167451
O O3 0.560463 0.262390 0.095812
O O4 0.886101 0.216844 0.329757
O O5 0.566909 0.562358 0.778394
O O6 0.812256 0.500000 0.817867
O O7 0.826895 0.500000 0.970066
O O8 0.079404 0.440084 0.867069
O O9 0.500000 0.342633 0.500000
O O10 0.299094 0.251934 0.444124
O O11 0.285873 0.341987 0.528588
O O12 0.103939 0.164944 0.283547
O O13 0.796741 0.129755 0.049492
O O14 0.500000 0.160488 0.500000
O O15 0.692718 0.347620 0.079427
#
# Coordination Sequence:
#
# PCOD9187388 Si02
#       8
#     8   4   4   8   8   8   8   4
#     4  11  21  36  56  84 118 149 192 230 291 345
#     4   9  16  32  61  86 100 140 201 244 279 319
#     4   9  18  35  60  80 110 149 197 236 277 338
#     4   9  20  35  55  78 106 155 198 229 267 347
#     4  10  19  35  59  83 111 147 193 242 281 334
#     4   9  19  33  51  78 108 148 185 231 282 332
#     4  11  22  37  54  87 118 153 190 238 289 345
#     4  12  26  31  50  89 126 160 168 230 300 366
#
# _framework density 19.015875000000001
#
# number of rings (size 3 to 8) (size 9 to 14) (size 15 to 20)
#    0.000    2.000    3.077    0.462    4.308    4.000 
#    0.000    0.385    0.000    0.000    0.000   15.615 
#    0.000    0.000    0.000    0.000    0.000    0.000 
#
# Total GULP energy -145008.464423 kJ/mol
# GULP energy per Si atom -5577.248632 kJ/mol
# Density = 1.897259 g / cm^3
# Si number density = 19.015875 Si / 1000 Ang^3
#
#
#
# Elastic Constant Matrix: (Units=GPa)
#
#
# Indices 1 2 3 4 5 6 
#
# 1 87.1350 14.6111 4.9753 0.0043 21.8847 0.0069
# 2 14.6111 87.8949 21.0981 -0.0009 9.2808 -0.0008
# 3 4.9753 21.0981 69.4201 -0.0074 18.6222 -0.0130
# 4 0.0043 -0.0009 -0.0074 9.7862 -0.0003 7.3380
# 5 21.8847 9.2808 18.6222 -0.0003 33.5525 -0.0013
# 6 0.0069 -0.0008 -0.0130 7.3380 -0.0013 -4.3153
#
#
#
# Elastic Compliance Matrix: (Units=1/GPa)
#
#
# Indices 1 2 3 4 5 6 
#
# 1 0.014158 -0.001834 0.002213 -0.000009 -0.009956 0.000005
# 2 -0.001834 0.012580 -0.003618 -0.000002 -0.000276 0.000002
# 3 0.002213 -0.003618 0.018170 0.000021 -0.010528 -0.000012
# 4 -0.000009 -0.000002 0.000021 0.044915 -0.000002 0.076376
# 5 -0.009956 -0.000276 -0.010528 -0.000002 0.042217 0.000000
# 6 0.000005 0.000002 -0.000012 0.076376 0.000000 -0.101858
#
#
# Mechanical properties :
#
#
# Convention : Reuss Voigt Hill
#
# Bulk Modulus (GPa) = 26.02046 36.20212 31.11129
# Shear Modulus (GPa) = 101.07447 21.38904 61.23176
#
# Velocity S-wave (km/s) = 7.29850 3.35744 5.68069
# Velocity P-wave (km/s) = 9.20529 5.84030 7.70864
#
# Compressibility (1/GPa) = 0.03843130
#
# Stress axis : x y z
#
# Youngs Moduli (GPa) = 70.63131 79.49411 55.03586
#
# Poissons Ratio (x) = 0.14576 -0.12181
# Poissons Ratio (y) = 0.12951 0.19911
# Poissons Ratio (z) = -0.15632 0.28759
#
# Static dielectric constant tensor:
#      x y z
#    x 1.736550 0.000000 -0.009330 
#    y 0.000000 1.656760 0.000000 
#    z -0.009330 0.000000 1.664020 
# 
# From -- ./inp_files/306953.got.cif
#   From: 2010.05.17/outbox.cif.g08.bks.cpg/sg12_154_cif.got.tgz:306953.got - 2010.06.03 13:09:07.
