data_PCOD9187289
_publ_section_title
;
Structure prediction by ZEFSAII (Michael W. Deem and Ramdas Pophale) SiO2 
 PCOD9187289
Probable space group: C 2/M
;
_chemical_formula_sum "Si O2"
_cell_formula_units_Z 64
_cell_length_a 31.350430
_cell_length_b 8.364802
_cell_length_c 12.817489
_cell_angle_alpha 90.000000
_cell_angle_beta 77.250027
_cell_angle_gamma 90.000000
_cell_volume 3278.379579
_symmetry_space_group_name_H-M "C 2/M"
_symmetry_group_IT_number 12
_symmetry_cell_setting 'monoclinic'
loop_
_space_group_symop_operation_xyz
x,y,z
-x,y,-z
-x,-y,-z
x,-y,z
1/2+x,1/2+y,z
1/2-x,1/2+y,-z
1/2-x,1/2-y,-z
1/2+x,1/2-y,z
loop_
_atom_site_type_symbol
_atom_site_label
_atom_site_fract_x
_atom_site_fract_y
_atom_site_fract_z
Si Si1 0.155857 0.306681 0.884196
Si Si2 0.397703 0.192831 0.886021
Si Si3 0.615560 0.807768 0.494953
Si Si4 0.538752 0.818727 0.398310
Si Si5 0.994050 0.306613 0.803659
Si Si6 0.251723 0.307023 0.880138
Si Si7 0.341400 0.308019 0.722773
Si Si8 0.591770 0.310782 0.739226
O O1 0.155053 0.500000 0.885609
O O2 0.206293 0.254779 0.851530
O O3 0.126198 0.249112 0.805780
O O4 0.134344 0.250781 0.004954
O O5 0.448371 0.236098 0.885875
O O6 0.379473 0.252783 0.783997
O O7 0.396135 0.000000 0.883612
O O8 0.576571 0.738266 0.443624
O O9 0.655129 0.758991 0.397275
O O10 0.607389 0.749908 0.616596
O O11 0.612642 0.000000 0.500857
O O12 0.500000 0.834869 0.500000
O O13 0.518672 0.747441 0.305503
O O14 0.553545 0.000000 0.361272
O O15 0.997565 0.500000 0.804038
O O16 0.042739 0.245321 0.797962
O O17 0.252485 0.500000 0.879703
O O18 0.295820 0.252710 0.799409
O O19 0.250000 0.250000 0.000000
O O20 0.342449 0.500000 0.717802
O O21 0.591340 0.500000 0.736226
#
# Coordination Sequence:
#
# PCOD9187289 Si02
#       8
#     8   8   8   8   8   8   8   8
#     4  10  22  42  64  86 115 160 211 247 285 357
#     4  10  20  36  62  91 119 157 206 248 286 351
#     4  11  21  38  62  86 117 161 207 247 289 354
#     4   9  15  27  52  82 108 142 194 246 281 326
#     4  10  19  35  58  86 118 157 204 246 288 349
#     4  10  21  38  65  95 124 154 194 245 300 358
#     4  11  22  35  57  97 134 153 181 246 317 357
#     4  12  26  41  57  84 121 162 203 250 308 359
#
# _framework density 19.521840000000001
#
# number of rings (size 3 to 8) (size 9 to 14) (size 15 to 20)
#    0.000    1.625    3.750    1.875    0.000    2.500 
#    0.000    3.750    0.000    0.000    0.000    0.000 
#    0.000    0.000    0.000    0.000    0.000    0.000 
#
# Total GULP energy -178364.176552 kJ/mol
# GULP energy per Si atom -5573.880517 kJ/mol
# Density = 1.947741 g / cm^3
# Si number density = 19.521840 Si / 1000 Ang^3
#
#
#
# Elastic Constant Matrix: (Units=GPa)
#
#
# Indices 1 2 3 4 5 6 
#
# 1 144.8196 24.0498 47.4712 0.0000 -3.7398 0.0000
# 2 24.0498 29.7257 10.5383 0.0000 -0.5741 0.0000
# 3 47.4712 10.5383 64.0851 0.0000 -3.2588 0.0000
# 4 0.0000 0.0000 0.0000 25.2165 0.0000 3.2625
# 5 -3.7398 -0.5741 -3.2588 0.0000 35.4942 0.0000
# 6 0.0000 0.0000 0.0000 3.2625 0.0000 26.5049
#
#
#
# Elastic Compliance Matrix: (Units=1/GPa)
#
#
# Indices 1 2 3 4 5 6 
#
# 1 0.009982 -0.005792 -0.006423 0.000000 0.000368 0.000000
# 2 -0.005792 0.039084 -0.002146 0.000000 -0.000175 0.000000
# 3 -0.006423 -0.002146 0.020776 0.000000 0.001196 0.000000
# 4 0.000000 0.000000 0.000000 0.040298 0.000000 -0.004960
# 5 0.000368 -0.000175 0.001196 0.000000 0.028319 0.000000
# 6 0.000000 0.000000 0.000000 -0.004960 0.000000 0.038339
#
#
# Mechanical properties :
#
#
# Convention : Reuss Voigt Hill
#
# Bulk Modulus (GPa) = 24.31852 44.74987 34.53420
# Shear Modulus (GPa) = 22.80742 27.88120 25.34431
#
# Velocity S-wave (km/s) = 3.42175 3.78326 3.60704
# Velocity P-wave (km/s) = 5.30050 6.48512 5.92251
#
# Compressibility (1/GPa) = 0.04112092
#
# Stress axis : x y z
#
# Youngs Moduli (GPa) = 100.18135 25.58582 48.13299
#
# Poissons Ratio (x) = 0.14819 0.30916
# Poissons Ratio (y) = 0.58023 0.10328
# Poissons Ratio (z) = 0.64346 0.05490
#
# Static dielectric constant tensor:
#      x y z
#    x 1.739400 0.000000 -0.042940 
#    y 0.000000 1.684910 0.000000 
#    z -0.042940 0.000000 1.705130 
# 
# From -- ./inp_files/187523.got.cif
#   From: 2010.05.17/outbox.cif.g08.bks.cpg/sg12_94_cif.got.tgz:187523.got - 2010.06.03 13:09:07.
