data_PCOD9187708
_publ_section_title
;
Structure prediction by ZEFSAII (Michael W. Deem and Ramdas Pophale) SiO2 
 PCOD9187708
Probable space group: C 2/M
;
_chemical_formula_sum "Si O2"
_cell_formula_units_Z 64
_cell_length_a 15.930784
_cell_length_b 16.090833
_cell_length_c 24.288360
_cell_angle_alpha 90.000000
_cell_angle_beta 151.974525
_cell_angle_gamma 90.000000
_cell_volume 2925.405862
_symmetry_space_group_name_H-M "C 2/M"
_symmetry_group_IT_number 12
_symmetry_cell_setting 'monoclinic'
loop_
_space_group_symop_operation_xyz
x,y,z
-x,y,-z
-x,-y,-z
x,-y,z
1/2+x,1/2+y,z
1/2-x,1/2+y,-z
1/2-x,1/2-y,-z
1/2+x,1/2-y,z
loop_
_atom_site_type_symbol
_atom_site_label
_atom_site_fract_x
_atom_site_fract_y
_atom_site_fract_z
Si Si1 0.909179 0.329526 0.313731
Si Si2 0.318447 0.312649 0.425756
Si Si3 0.240335 0.135280 0.422590
Si Si4 0.528923 0.632643 0.644812
Si Si5 0.697146 0.599104 0.093820
Si Si6 0.264121 0.400745 0.013840
Si Si7 0.877699 0.595906 0.785968
Si Si8 0.151893 0.904653 0.253318
O O1 0.944800 0.231810 0.335423
O O2 0.846137 0.358627 0.217657
O O3 0.752910 0.351323 0.266445
O O4 0.085005 0.374988 0.438762
O O5 0.500000 0.281742 0.500000
O O6 0.229578 0.234556 0.404315
O O7 0.393604 0.376925 0.514613
O O8 0.194145 0.352779 0.307776
O O9 0.252553 0.096672 0.369517
O O10 0.069655 0.104152 0.357455
O O11 0.720680 0.597476 0.740010
O O12 0.708745 0.500000 0.109187
O O13 0.720800 0.614372 0.042904
O O14 0.500000 0.625682 0.000000
O O15 0.264358 0.500000 0.024578
O O16 0.068090 0.370269 0.917474
O O17 0.451146 0.370594 0.147058
O O18 0.903827 0.500000 0.783552
O O19 0.140974 0.000000 0.226264
#
# Coordination Sequence:
#
# PCOD9187708 Si02
#       8
#     8   8   8   8   8   8   8   8
#     4  11  21  38  62  86 117 158 190 235 299 355
#     4   9  18  36  60  83 115 151 191 242 302 347
#     4  11  23  38  58  84 121 163 194 229 284 354
#     4  10  23  39  56  84 121 157 195 240 286 341
#     4  10  19  35  60  91 122 149 187 249 304 341
#     4   9  20  37  59  85 115 154 190 235 301 346
#     4  10  21  39  63  85 111 153 203 248 290 340
#     4  11  22  39  60  86 120 155 192 236 289 352
#
# _framework density 21.877306000000001
#
# number of rings (size 3 to 8) (size 9 to 14) (size 15 to 20)
#    0.000    1.875    1.250    4.500    3.500    4.250 
#    0.000    4.375    0.000    2.250    0.000    0.000 
#    0.000    0.000    0.000    0.000    0.000    0.000 
#
# Total GULP energy -178825.719212 kJ/mol
# GULP energy per Si atom -5588.303725 kJ/mol
# Density = 2.182751 g / cm^3
# Si number density = 21.877306 Si / 1000 Ang^3
#
#
#
# Elastic Constant Matrix: (Units=GPa)
#
#
# Indices 1 2 3 4 5 6 
#
# 1 44.5679 -3.1569 -4.2786 -0.0003 17.9292 -0.0004
# 2 -3.1569 31.5044 16.5486 0.0024 2.6954 0.0014
# 3 -4.2786 16.5486 95.6270 0.0066 9.2051 0.0040
# 4 -0.0003 0.0024 0.0066 20.5578 0.0006 10.2925
# 5 17.9292 2.6954 9.2051 0.0006 38.2482 0.0001
# 6 -0.0004 0.0014 0.0040 10.2925 0.0001 -0.2264
#
#
#
# Elastic Compliance Matrix: (Units=1/GPa)
#
#
# Indices 1 2 3 4 5 6 
#
# 1 0.028517 0.002948 0.002122 0.000000 -0.014086 -0.000001
# 2 0.002948 0.035260 -0.005730 -0.000003 -0.002488 0.000001
# 3 0.002122 -0.005730 0.011876 -0.000004 -0.003449 0.000001
# 4 0.000000 -0.000003 -0.000004 0.002047 0.000001 0.093069
# 5 -0.014086 -0.002488 -0.003449 0.000001 0.033753 -0.000001
# 6 -0.000001 0.000001 0.000001 0.093069 -0.000001 -0.185892
#
#
# Mechanical properties :
#
#
# Convention : Reuss Voigt Hill
#
# Bulk Modulus (GPa) = 13.45329 21.10283 17.27806
# Shear Modulus (GPa) = -103.43202 22.55499 -40.43852
#
# Velocity S-wave (km/s) = -6.88338 3.21437 -4.30399
# Velocity P-wave (km/s) = 7.55061 4.84181 4.09686
#
# Compressibility (1/GPa) = 0.07433125
#
# Stress axis : x y z
#
# Youngs Moduli (GPa) = 35.06712 28.36080 84.20412
#
# Poissons Ratio (x) = -0.08361 -0.17865
# Poissons Ratio (y) = -0.10338 0.48253
# Poissons Ratio (z) = -0.07440 0.16252
#
# Static dielectric constant tensor:
#      x y z
#    x 1.801270 0.000000 0.029000 
#    y 0.000000 1.804350 0.000000 
#    z 0.029000 0.000000 1.817720 
# 
# From -- ./inp_files/340877.got.cif
#   From: 2010.05.17/outbox.cif.g08.bks.cpg/sg12_171_cif.got.tgz:340877.got - 2010.06.03 13:09:07.
