data_PCOD9187306
_publ_section_title
;
Structure prediction by ZEFSAII (Michael W. Deem and Ramdas Pophale) SiO2 
 PCOD9187306
Probable space group: C 2/M
;
_chemical_formula_sum "Si O2"
_cell_formula_units_Z 34
_cell_length_a 8.960514
_cell_length_b 25.274270
_cell_length_c 5.065260
_cell_angle_alpha 90.000000
_cell_angle_beta 89.849396
_cell_angle_gamma 90.000000
_cell_volume 1147.127750
_symmetry_space_group_name_H-M "C 2/M"
_symmetry_group_IT_number 12
_symmetry_cell_setting 'monoclinic'
loop_
_space_group_symop_operation_xyz
x,y,z
-x,y,-z
-x,-y,-z
x,-y,z
1/2+x,1/2+y,z
1/2-x,1/2+y,-z
1/2-x,1/2-y,-z
1/2+x,1/2-y,z
loop_
_atom_site_type_symbol
_atom_site_label
_atom_site_fract_x
_atom_site_fract_y
_atom_site_fract_z
Si Si1 0.108954 0.102907 0.754036
Si Si2 0.500000 0.000000 0.000000
Si Si3 0.607079 0.278917 0.749710
Si Si4 0.713788 0.056210 0.641272
Si Si5 0.609604 0.163846 0.752043
O O1 0.175236 0.162526 0.762613
O O2 0.240963 0.062829 0.667860
O O3 0.000000 0.098059 0.500000
O O4 0.000000 0.091080 0.000000
O O5 0.445221 0.955742 0.221229
O O6 0.500000 0.278975 0.500000
O O7 0.687626 0.221951 0.743504
O O8 0.500000 0.276797 0.000000
O O9 0.727544 0.116179 0.745962
O O10 0.791913 0.000000 0.721290
O O11 0.500000 0.159031 0.500000
O O12 0.500000 0.162492 0.000000
#
# Coordination Sequence:
#
# PCOD9187306 Si02
#       5
#     8   2   8   8   8
#     4  10  22  41  62  90 121 157 199 243 298 355
#     4   8  20  44  58  96 114 156 206 246 294 354
#     4   8  16  32  56  84 118 150 192 241 288 354
#     4  10  21  40  64  87 124 157 201 252 290 356
#     4  10  19  35  58  87 120 156 195 242 299 351
#
# _framework density 29.639247000000001
#
# number of rings (size 3 to 8) (size 9 to 14) (size 15 to 20)
#    0.706    1.882    1.176    0.000    0.000    4.235 
#    0.000    2.353    0.000   16.941    0.000    0.000 
#    0.000    0.000    0.000    0.000    0.000    0.000 
#
# Total GULP energy -94781.821176 kJ/mol
# GULP energy per Si atom -5575.401246 kJ/mol
# Density = 2.957179 g / cm^3
# Si number density = 29.639247 Si / 1000 Ang^3
#
#
#
# Elastic Constant Matrix: (Units=GPa)
#
#
# Indices 1 2 3 4 5 6 
#
# 1 130.0985 36.4502 70.7569 0.0000 -20.6197 0.0000
# 2 36.4502 263.0612 77.9761 0.0000 -22.0233 0.0000
# 3 70.7569 77.9761 287.1469 0.0000 -36.3733 0.0000
# 4 0.0000 0.0000 0.0000 56.7339 0.0000 -27.5656
# 5 -20.6197 -22.0233 -36.3733 0.0000 56.3945 0.0000
# 6 0.0000 0.0000 0.0000 -27.5656 0.0000 -5.0844
#
#
#
# Elastic Compliance Matrix: (Units=1/GPa)
#
#
# Indices 1 2 3 4 5 6 
#
# 1 0.009161 -0.000556 -0.001862 0.000000 0.001932 0.000000
# 2 -0.000556 0.004217 -0.000899 0.000000 0.000864 0.000000
# 3 -0.001862 -0.000899 0.004415 0.000000 0.001816 0.000000
# 4 0.000000 0.000000 0.000000 0.004850 0.000000 -0.026295
# 5 0.001932 0.000864 0.001816 0.000000 0.019947 0.000000
# 6 0.000000 0.000000 0.000000 -0.026295 0.000000 -0.054119
#
#
# Mechanical properties :
#
#
# Convention : Reuss Voigt Hill
#
# Bulk Modulus (GPa) = 89.59899 116.74144 103.17022
# Shear Modulus (GPa) = -4254.85130 54.61702 -2100.11714
#
# Velocity S-wave (km/s) = -37.92971 4.29736 -26.64766
# Velocity P-wave (km/s) = 43.45022 8.00600 30.19789
#
# Compressibility (1/GPa) = 0.01116084
#
# Stress axis : x y z
#
# Youngs Moduli (GPa) = 109.15939 237.12659 226.47858
#
# Poissons Ratio (x) = 0.13179 0.42165
# Poissons Ratio (y) = 0.06067 0.20356
# Poissons Ratio (z) = 0.20323 0.21313
#
# Static dielectric constant tensor:
#      x y z
#    x 2.441570 0.000000 0.103480 
#    y 0.000000 2.315530 0.000000 
#    z 0.103480 0.000000 2.481970 
# 
# From -- ./inp_files/11844.got.cif
#   From: 2010.05.17/outbox.cif.g08.bks.cpg/sg12_6_cif.got.tgz:11844.got - 2010.06.03 13:09:07.
