data_PCOD9187889
_publ_section_title
;
Structure prediction by ZEFSAII (Michael W. Deem and Ramdas Pophale) SiO2 
 PCOD9187889
Probable space group: C 2/M
;
_chemical_formula_sum "Si O2"
_cell_formula_units_Z 52
_cell_length_a 7.532906
_cell_length_b 29.549862
_cell_length_c 14.329505
_cell_angle_alpha 90.000000
_cell_angle_beta 135.013884
_cell_angle_gamma 90.000000
_cell_volume 2254.908539
_symmetry_space_group_name_H-M "C 2/M"
_symmetry_group_IT_number 12
_symmetry_cell_setting 'monoclinic'
loop_
_space_group_symop_operation_xyz
x,y,z
-x,y,-z
-x,-y,-z
x,-y,z
1/2+x,1/2+y,z
1/2-x,1/2+y,-z
1/2-x,1/2-y,-z
1/2+x,1/2-y,z
loop_
_atom_site_type_symbol
_atom_site_label
_atom_site_fract_x
_atom_site_fract_y
_atom_site_fract_z
Si Si1 0.008283 0.623731 0.660918
Si Si2 0.081614 0.126277 0.353533
Si Si3 0.528350 0.791045 0.808480
Si Si4 0.000000 0.724824 0.000000
Si Si5 0.223964 0.780367 0.399976
Si Si6 0.670738 0.551182 0.142814
Si Si7 0.242712 0.051242 0.847963
O O1 0.234181 0.624011 0.668366
O O2 0.017326 0.667840 0.730871
O O3 0.082237 0.579748 0.747319
O O4 0.749071 0.618257 0.508189
O O5 0.021753 0.179769 0.333582
O O6 0.854953 0.091356 0.255732
O O7 0.775216 0.759511 0.894716
O O8 0.322664 0.753481 0.701946
O O9 0.532967 0.804393 0.918949
O O10 0.500000 0.802598 0.500000
O O11 0.250000 0.750000 0.500000
O O12 0.733540 0.500000 0.137186
O O13 0.485193 0.548462 0.162057
O O14 0.500000 0.573638 0.000000
O O15 0.732753 0.000000 0.182946
O O16 0.500000 0.061186 0.000000
#
# Coordination Sequence:
#
# PCOD9187889 Si02
#       7
#     8   8   8   4   8   8   8
#     4  10  19  35  62  90 126 161 214 267 315 368
#     4  10  19  36  60  95 123 166 213 255 319 382
#     4  11  22  41  61  88 124 169 214 272 322 379
#     4  10  24  40  60  88 122 162 222 266 330 380
#     4  12  21  38  63  83 119 169 209 259 312 372
#     4   9  19  36  61  89 118 161 208 253 312 382
#     4   9  19  38  65  95 130 164 199 257 329 395
#
# _framework density 23.060801999999999
#
# number of rings (size 3 to 8) (size 9 to 14) (size 15 to 20)
#    0.000    1.846    3.077    1.846    1.077    0.615 
#    4.154    4.615    0.000    0.000    0.000    4.308 
#    0.000    0.000    0.000    0.000    0.000    7.231 
#
# Total GULP energy -145159.881617 kJ/mol
# GULP energy per Si atom -5583.072370 kJ/mol
# Density = 2.300831 g / cm^3
# Si number density = 23.060802 Si / 1000 Ang^3
#
#
#
# Elastic Constant Matrix: (Units=GPa)
#
#
# Indices 1 2 3 4 5 6 
#
# 1 58.9020 23.1518 42.9071 0.0000 -3.5013 0.0000
# 2 23.1518 157.9723 108.1532 0.0000 12.9853 0.0000
# 3 42.9071 108.1532 167.8113 0.0000 -5.8556 0.0000
# 4 0.0000 0.0000 0.0000 47.4381 0.0000 -3.9921
# 5 -3.5013 12.9853 -5.8556 0.0000 38.7784 0.0000
# 6 0.0000 0.0000 0.0000 -3.9921 0.0000 3.6697
#
#
#
# Elastic Compliance Matrix: (Units=1/GPa)
#
#
# Indices 1 2 3 4 5 6 
#
# 1 0.020980 0.000941 -0.005947 0.000000 0.000681 0.000000
# 2 0.000941 0.012390 -0.008412 0.000000 -0.005334 0.000000
# 3 -0.005947 -0.008412 0.013049 0.000000 0.004250 0.000000
# 4 0.000000 0.000000 0.000000 0.023204 0.000000 0.025243
# 5 0.000681 -0.005334 0.004250 0.000000 0.028277 0.000000
# 6 0.000000 0.000000 0.000000 0.025243 0.000000 0.299960
#
#
# Mechanical properties :
#
#
# Convention : Reuss Voigt Hill
#
# Bulk Modulus (GPa) = 51.06416 81.45666 66.26041
# Shear Modulus (GPa) = 11.59491 32.00880 21.80185
#
# Velocity S-wave (km/s) = 2.24475 3.72965 3.07808
# Velocity P-wave (km/s) = 5.37679 7.34482 6.43647
#
# Compressibility (1/GPa) = 0.01958321
#
# Stress axis : x y z
#
# Youngs Moduli (GPa) = 47.66435 80.71136 76.63292
#
# Poissons Ratio (x) = -0.07592 0.45572
# Poissons Ratio (y) = -0.04483 0.64462
# Poissons Ratio (z) = 0.28345 0.67893
#
# Static dielectric constant tensor:
#      x y z
#    x 2.136500 0.000000 -0.074610 
#    y 0.000000 1.873020 0.000000 
#    z -0.074610 0.000000 1.915570 
# 
# From -- ./inp_files/201358.got.cif
#   From: 2010.05.17/outbox.cif.g08.bks.cpg/sg12_101_cif.got.tgz:201358.got - 2010.06.03 13:09:07.
