data_PCOD9187091
_publ_section_title
;
Structure prediction by ZEFSAII (Michael W. Deem and Ramdas Pophale) SiO2 
 PCOD9187091
Probable space group: C 2/M
;
_chemical_formula_sum "Si O2"
_cell_formula_units_Z 44
_cell_length_a 13.144306
_cell_length_b 12.817524
_cell_length_c 12.312576
_cell_angle_alpha 90.000000
_cell_angle_beta 65.153037
_cell_angle_gamma 90.000000
_cell_volume 1882.372062
_symmetry_space_group_name_H-M "C 2/M"
_symmetry_group_IT_number 12
_symmetry_cell_setting 'monoclinic'
loop_
_space_group_symop_operation_xyz
x,y,z
-x,y,-z
-x,-y,-z
x,-y,z
1/2+x,1/2+y,z
1/2-x,1/2+y,-z
1/2-x,1/2-y,-z
1/2+x,1/2-y,z
loop_
_atom_site_type_symbol
_atom_site_label
_atom_site_fract_x
_atom_site_fract_y
_atom_site_fract_z
Si Si1 0.129870 0.838569 0.932997
Si Si2 0.847768 0.164190 0.322987
Si Si3 0.000000 0.706682 0.500000
Si Si4 0.912709 0.116886 0.676845
Si Si5 0.288125 0.886067 0.062286
Si Si6 0.664441 0.113221 0.586123
O O1 0.168962 0.866115 0.793744
O O2 0.134221 0.714079 0.956090
O O3 0.218369 0.880993 0.980773
O O4 0.000000 0.872830 0.000000
O O5 0.762220 0.121216 0.451597
O O6 0.834855 0.289304 0.334665
O O7 0.972170 0.133227 0.307294
O O8 0.912310 0.789170 0.590598
O O9 0.947533 0.634781 0.432505
O O10 0.809123 0.123370 0.803738
O O11 0.913490 0.000000 0.628302
O O12 0.342360 0.000000 0.046782
O O13 0.666685 0.000000 0.637048
#
# Coordination Sequence:
#
# PCOD9187091 Si02
#       6
#     8   8   4   8   8   8
#     4  11  22  41  64  86 125 161 195 252 302 353
#     4  10  21  37  60  87 114 155 202 244 299 356
#     4  10  20  34  56  84 118 156 194 242 302 354
#     4  10  19  35  57  85 118 153 199 250 295 349
#     4  10  23  39  60  90 120 158 205 245 298 360
#     4  10  21  37  57  84 117 154 197 244 297 357
#
# _framework density 23.374763000000002
#
# number of rings (size 3 to 8) (size 9 to 14) (size 15 to 20)
#    0.000    1.818    1.818    2.182    0.000    2.909 
#    0.000    4.545    0.000    0.000    0.000    0.000 
#    0.000    0.000    0.000    0.000    0.000    0.000 
#
# Total GULP energy -123078.306377 kJ/mol
# GULP energy per Si atom -5594.468472 kJ/mol
# Density = 2.332156 g / cm^3
# Si number density = 23.374763 Si / 1000 Ang^3
#
#
#
# Elastic Constant Matrix: (Units=GPa)
#
#
# Indices 1 2 3 4 5 6 
#
# 1 82.4586 1.8097 3.8463 0.0000 3.2669 0.0000
# 2 1.8097 145.6712 -5.8366 0.0000 -8.0586 0.0000
# 3 3.8463 -5.8366 71.3247 0.0000 13.8011 0.0000
# 4 0.0000 0.0000 0.0000 7.3213 0.0000 -14.8029
# 5 3.2669 -8.0586 13.8011 0.0000 22.1060 0.0000
# 6 0.0000 0.0000 0.0000 -14.8029 0.0000 -22.0899
#
#
#
# Elastic Compliance Matrix: (Units=1/GPa)
#
#
# Indices 1 2 3 4 5 6 
#
# 1 0.012216 -0.000259 -0.000355 0.000000 -0.001678 0.000000
# 2 -0.000259 0.007012 0.000098 0.000000 0.002534 0.000000
# 3 -0.000355 0.000098 0.015958 0.000000 -0.009875 0.000000
# 4 0.000000 0.000000 0.000000 0.058001 0.000000 -0.038868
# 5 -0.001678 0.002534 -0.009875 0.000000 0.052573 0.000000
# 6 0.000000 0.000000 0.000000 -0.038868 0.000000 -0.019223
#
#
# Mechanical properties :
#
#
# Convention : Reuss Voigt Hill
#
# Bulk Modulus (GPa) = 29.27981 33.23258 31.25620
# Shear Modulus (GPa) = 35.98289 21.44314 28.71301
#
# Velocity S-wave (km/s) = 3.92776 3.03209 3.50862
# Velocity P-wave (km/s) = 5.75528 5.14842 5.46028
#
# Compressibility (1/GPa) = 0.03415323
#
# Stress axis : x y z
#
# Youngs Moduli (GPa) = 81.85971 142.61149 62.66333
#
# Poissons Ratio (x) = 0.03691 0.02226
# Poissons Ratio (y) = 0.02119 -0.00611
# Poissons Ratio (z) = 0.02908 -0.01391
#
# Static dielectric constant tensor:
#      x y z
#    x 1.870100 0.000000 0.012410 
#    y 0.000000 1.888120 0.000000 
#    z 0.012410 0.000000 1.845010 
# 
# From -- ./inp_files/142610.got.cif
#   From: 2010.05.17/outbox.cif.g08.bks.cpg/sg12_72_cif.got.tgz:142610.got - 2010.06.03 13:09:07.
