data_PCOD9187499
_publ_section_title
;
Structure prediction by ZEFSAII (Michael W. Deem and Ramdas Pophale) SiO2 
 PCOD9187499
Probable space group: C 2/M
;
_chemical_formula_sum "Si O2"
_cell_formula_units_Z 64
_cell_length_a 21.471693
_cell_length_b 13.692136
_cell_length_c 9.596859
_cell_angle_alpha 90.000000
_cell_angle_beta 94.348223
_cell_angle_gamma 90.000000
_cell_volume 2813.291694
_symmetry_space_group_name_H-M "C 2/M"
_symmetry_group_IT_number 12
_symmetry_cell_setting 'monoclinic'
loop_
_space_group_symop_operation_xyz
x,y,z
-x,y,-z
-x,-y,-z
x,-y,z
1/2+x,1/2+y,z
1/2-x,1/2+y,-z
1/2-x,1/2-y,-z
1/2+x,1/2-y,z
loop_
_atom_site_type_symbol
_atom_site_label
_atom_site_fract_x
_atom_site_fract_y
_atom_site_fract_z
Si Si1 0.520405 0.296310 0.680031
Si Si2 0.599410 0.612293 0.220289
Si Si3 0.737729 0.294882 0.692885
Si Si4 0.124279 0.884584 0.521929
Si Si5 0.427466 0.759983 0.029722
Si Si6 0.838934 0.611601 0.877682
Si Si7 0.687891 0.115176 0.557147
Si Si8 0.567137 0.110524 0.372889
O O1 0.470540 0.374678 0.730036
O O2 0.560967 0.333712 0.559190
O O3 0.483919 0.194351 0.651037
O O4 0.567872 0.280712 0.815773
O O5 0.612469 0.500000 0.187862
O O6 0.639707 0.643933 0.363446
O O7 0.599681 0.682593 0.087547
O O8 0.676116 0.355665 0.642105
O O9 0.778167 0.324361 0.832783
O O10 0.715118 0.182810 0.683311
O O11 0.781051 0.333026 0.571993
O O12 0.116027 0.000000 0.517755
O O13 0.381136 0.850719 0.010810
O O14 0.500000 0.782181 0.000000
O O15 0.819354 0.500000 0.888042
O O16 0.887785 0.616838 0.755238
O O17 0.613821 0.123157 0.512695
O O18 0.703484 0.000000 0.566412
O O19 0.541677 0.000000 0.371607
#
# Coordination Sequence:
#
# PCOD9187499 Si02
#       8
#     8   8   8   8   8   8   8   8
#     4  11  21  36  56  83 119 154 195 238 289 347
#     4  10  21  36  55  81 114 150 193 242 288 341
#     4  10  20  34  56  83 118 152 198 242 284 350
#     4  11  23  38  58  85 118 160 199 234 288 357
#     4  10  21  36  56  86 115 147 193 245 296 338
#     4  10  19  35  59  87 114 146 195 251 295 340
#     4   9  18  32  56  85 116 152 192 247 301 341
#     4   9  17  32  56  86 116 147 192 246 298 343
#
# _framework density 22.749151000000001
#
# number of rings (size 3 to 8) (size 9 to 14) (size 15 to 20)
#    0.000    2.000    2.500    3.375    3.500    4.500 
#    0.000    1.250    0.000    3.750    0.000    0.000 
#    0.000    0.000    0.000    0.000    0.000    0.000 
#
# Total GULP energy -178790.930837 kJ/mol
# GULP energy per Si atom -5587.216589 kJ/mol
# Density = 2.269737 g / cm^3
# Si number density = 22.749151 Si / 1000 Ang^3
#
#
#
# Elastic Constant Matrix: (Units=GPa)
#
#
# Indices 1 2 3 4 5 6 
#
# 1 58.1892 36.0174 17.1643 0.0000 21.8172 0.0000
# 2 36.0174 155.5739 27.3020 0.0000 16.6837 0.0000
# 3 17.1643 27.3020 68.6454 0.0000 17.8565 0.0000
# 4 0.0000 0.0000 0.0000 15.0843 0.0000 7.4962
# 5 21.8172 16.6837 17.8565 0.0000 27.3170 0.0000
# 6 0.0000 0.0000 0.0000 7.4962 0.0000 22.5549
#
#
#
# Elastic Compliance Matrix: (Units=1/GPa)
#
#
# Indices 1 2 3 4 5 6 
#
# 1 0.026867 -0.004175 -0.000167 0.000000 -0.018799 0.000000
# 2 -0.004175 0.007758 -0.002020 0.000000 -0.000083 0.000000
# 3 -0.000167 -0.002020 0.018142 0.000000 -0.010492 0.000000
# 4 0.000000 0.000000 0.000000 0.079410 0.000000 -0.026392
# 5 -0.018799 -0.000083 -0.010492 0.000000 0.058530 0.000000
# 6 0.000000 0.000000 0.000000 -0.026392 0.000000 0.053108
#
#
# Mechanical properties :
#
#
# Convention : Reuss Voigt Hill
#
# Bulk Modulus (GPa) = 24.97340 49.26402 37.11871
# Shear Modulus (GPa) = 18.52633 26.45289 22.48961
#
# Velocity S-wave (km/s) = 2.85682 3.41370 3.14760
# Velocity P-wave (km/s) = 4.67798 6.10247 5.43707
#
# Compressibility (1/GPa) = 0.04004261
#
# Stress axis : x y z
#
# Youngs Moduli (GPa) = 37.22027 128.90354 55.12071
#
# Poissons Ratio (x) = 0.53814 0.00923
# Poissons Ratio (y) = 0.15538 0.11134
# Poissons Ratio (z) = 0.00623 0.26037
#
# Static dielectric constant tensor:
#      x y z
#    x 1.872300 0.000000 0.014280 
#    y 0.000000 1.838040 0.000000 
#    z 0.014280 0.000000 1.927290 
# 
# From -- ./inp_files/176148.got.cif
#   From: 2010.05.17/outbox.cif.g08.bks.cpg/sg12_89_cif.got.tgz:176148.got - 2010.06.03 13:09:07.
