data_PCOD9187598
_publ_section_title
;
Structure prediction by ZEFSAII (Michael W. Deem and Ramdas Pophale) SiO2 
 PCOD9187598
Probable space group: C 2/M
;
_chemical_formula_sum "Si O2"
_cell_formula_units_Z 64
_cell_length_a 15.049147
_cell_length_b 7.759509
_cell_length_c 29.456561
_cell_angle_alpha 90.000000
_cell_angle_beta 131.857888
_cell_angle_gamma 90.000000
_cell_volume 2561.940960
_symmetry_space_group_name_H-M "C 2/M"
_symmetry_group_IT_number 12
_symmetry_cell_setting 'monoclinic'
loop_
_space_group_symop_operation_xyz
x,y,z
-x,y,-z
-x,-y,-z
x,-y,z
1/2+x,1/2+y,z
1/2-x,1/2+y,-z
1/2-x,1/2-y,-z
1/2+x,1/2-y,z
loop_
_atom_site_type_symbol
_atom_site_label
_atom_site_fract_x
_atom_site_fract_y
_atom_site_fract_z
Si Si1 0.504402 0.788727 0.053691
Si Si2 0.877790 0.790944 0.774536
Si Si3 0.006017 0.294686 0.553077
Si Si4 0.267337 0.288814 0.646408
Si Si5 0.618597 0.306079 0.402374
Si Si6 0.118943 0.698038 0.726011
Si Si7 0.877460 0.697696 0.095603
Si Si8 0.268518 0.700175 0.149547
O O1 0.401261 0.730245 0.053090
O O2 0.635966 0.731859 0.114320
O O3 0.502342 0.000000 0.053967
O O4 0.500000 0.735094 0.000000
O O5 0.861721 0.738178 0.716618
O O6 0.749623 0.747973 0.752780
O O7 0.990012 0.707348 0.837121
O O8 0.893458 0.000000 0.782237
O O9 0.010990 0.500000 0.550836
O O10 0.134716 0.237107 0.615661
O O11 0.000000 0.224360 0.500000
O O12 0.904665 0.259454 0.555173
O O13 0.270935 0.500000 0.646556
O O14 0.295343 0.221908 0.605598
O O15 0.661083 0.500000 0.422355
O O16 0.491246 0.299986 0.332471
O O17 0.100185 0.500000 0.705178
O O18 0.134974 0.709417 0.785742
O O19 0.839300 0.500000 0.079266
O O20 0.794792 0.786367 0.104852
O O21 0.273384 0.500000 0.163432
#
# Coordination Sequence:
#
# PCOD9187598 Si02
#       8
#     8   8   8   8   8   8   8   8
#     4   9  20  39  60  82 114 156 199 244 290 341
#     4  10  19  35  60  84 116 153 187 233 292 351
#     4  10  21  40  62  81 110 155 201 242 289 344
#     4   9  19  37  57  82 113 150 186 226 286 344
#     4  11  22  36  59  87 119 152 188 236 291 349
#     4  11  21  36  61  89 118 151 192 238 288 349
#     4  11  22  37  59  88 118 150 195 240 286 349
#     4  11  22  38  60  87 119 155 193 236 295 349
#
# _framework density 24.981058999999998
#
# number of rings (size 3 to 8) (size 9 to 14) (size 15 to 20)
#    0.000    1.750    2.500    2.250    0.000    2.750 
#    0.000    1.875    0.000    5.250    0.000    0.000 
#    0.000    0.000    0.000    0.000    0.000    0.000 
#
# Total GULP energy -178926.724345 kJ/mol
# GULP energy per Si atom -5591.460136 kJ/mol
# Density = 2.492420 g / cm^3
# Si number density = 24.981059 Si / 1000 Ang^3
#
#
#
# Elastic Constant Matrix: (Units=GPa)
#
#
# Indices 1 2 3 4 5 6 
#
# 1 134.1260 0.0175 9.8447 0.0000 -26.7873 0.0000
# 2 0.0175 43.0079 -2.4578 0.0000 -0.0534 0.0000
# 3 9.8447 -2.4578 64.8759 0.0000 -29.1507 0.0000
# 4 0.0000 0.0000 0.0000 16.4082 0.0000 -4.5357
# 5 -26.7873 -0.0534 -29.1507 0.0000 47.6283 0.0000
# 6 0.0000 0.0000 0.0000 -4.5357 0.0000 17.4605
#
#
#
# Elastic Compliance Matrix: (Units=1/GPa)
#
#
# Indices 1 2 3 4 5 6 
#
# 1 0.008464 0.000071 0.001183 0.000000 0.005484 0.000000
# 2 0.000071 0.023324 0.001245 0.000000 0.000828 0.000000
# 3 0.001183 0.001245 0.021492 0.000000 0.013820 0.000000
# 4 0.000000 0.000000 0.000000 0.065660 0.000000 0.017057
# 5 0.005484 0.000828 0.013820 0.000000 0.032540 0.000000
# 6 0.000000 0.000000 0.000000 0.017057 0.000000 0.061703
#
#
# Mechanical properties :
#
#
# Convention : Reuss Voigt Hill
#
# Bulk Modulus (GPa) = 17.15968 28.53542 22.84755
# Shear Modulus (GPa) = 21.96727 31.93975 26.95351
#
# Velocity S-wave (km/s) = 2.96861 3.57957 3.28831
# Velocity P-wave (km/s) = 4.31674 5.34154 4.85625
#
# Compressibility (1/GPa) = 0.05827615
#
# Stress axis : x y z
#
# Youngs Moduli (GPa) = 118.14489 42.87487 46.52972
#
# Poissons Ratio (x) = -0.00304 -0.05502
# Poissons Ratio (y) = -0.00838 -0.05792
# Poissons Ratio (z) = -0.13971 -0.05337
#
# Static dielectric constant tensor:
#      x y z
#    x 2.005340 0.000000 -0.049240 
#    y 0.000000 1.899420 0.000000 
#    z -0.049240 0.000000 2.003820 
# 
# From -- ./inp_files/375622.got.cif
#   From: 2010.05.17/outbox.cif.g08.bks.cpg/sg12_188_cif.got.tgz:375622.got - 2010.06.03 13:09:07.
