data_PCOD9187564
_publ_section_title
;
Structure prediction by ZEFSAII (Michael W. Deem and Ramdas Pophale) SiO2 
 PCOD9187564
Probable space group: C 2/M
;
_chemical_formula_sum "Si O2"
_cell_formula_units_Z 64
_cell_length_a 20.345480
_cell_length_b 8.894272
_cell_length_c 34.122898
_cell_angle_alpha 90.000000
_cell_angle_beta 32.725827
_cell_angle_gamma 90.000000
_cell_volume 3338.228296
_symmetry_space_group_name_H-M "C 2/M"
_symmetry_group_IT_number 12
_symmetry_cell_setting 'monoclinic'
loop_
_space_group_symop_operation_xyz
x,y,z
-x,y,-z
-x,-y,-z
x,-y,z
1/2+x,1/2+y,z
1/2-x,1/2+y,-z
1/2-x,1/2-y,-z
1/2+x,1/2-y,z
loop_
_atom_site_type_symbol
_atom_site_label
_atom_site_fract_x
_atom_site_fract_y
_atom_site_fract_z
Si Si1 0.884876 0.321471 0.031573
Si Si2 0.818674 0.178536 0.742177
Si Si3 0.349526 0.179947 0.812532
Si Si4 0.745082 0.677544 0.441276
Si Si5 0.945214 0.323977 0.409215
Si Si6 0.380689 0.822049 0.941852
Si Si7 0.120521 0.319222 0.705718
Si Si8 0.383749 0.321255 0.209954
O O1 0.865843 0.500000 0.048203
O O2 0.762569 0.235881 0.105007
O O3 0.911568 0.301593 0.972296
O O4 0.000000 0.273077 0.000000
O O5 0.836166 0.245282 0.776704
O O6 0.702047 0.250225 0.780020
O O7 0.935900 0.226438 0.658085
O O8 0.806134 0.000000 0.750442
O O9 0.481057 0.219343 0.764530
O O10 0.345829 0.000000 0.810163
O O11 0.714492 0.500000 0.456727
O O12 0.855949 0.696506 0.416514
O O13 0.632659 0.771037 0.514451
O O14 0.794356 0.719544 0.373877
O O15 0.976906 0.500000 0.395680
O O16 0.481308 0.740688 0.865417
O O17 0.379125 0.000000 0.934054
O O18 0.250000 0.750000 0.000000
O O19 0.126019 0.500000 0.708521
O O20 0.156616 0.236566 0.727227
O O21 0.380857 0.500000 0.209304
#
# Coordination Sequence:
#
# PCOD9187564 Si02
#       8
#     8   8   8   8   8   8   8   8
#     4  10  22  39  58  83 115 152 196 245 296 354
#     4  12  24  40  62  88 122 164 205 247 304 364
#     4  11  22  38  62  91 120 152 196 250 301 355
#     4   9  18  35  59  89 124 160 197 242 298 356
#     4  10  19  35  59  91 125 157 199 248 297 352
#     4  11  23  41  64  89 119 158 203 248 300 361
#     4  10  21  40  62  88 123 159 198 246 300 358
#     4  12  26  42  62  89 123 160 204 254 306 361
#
# _framework density 19.171845000000001
#
# number of rings (size 3 to 8) (size 9 to 14) (size 15 to 20)
#    0.000    1.375    1.250    4.875    0.000    6.250 
#    0.000    0.625    0.000    3.750    0.000    0.000 
#    0.000    0.000    0.000    0.000    0.000    0.000 
#
# Total GULP energy -178970.346433 kJ/mol
# GULP energy per Si atom -5592.823326 kJ/mol
# Density = 1.912821 g / cm^3
# Si number density = 19.171845 Si / 1000 Ang^3
#
#
#
# Elastic Constant Matrix: (Units=GPa)
#
#
# Indices 1 2 3 4 5 6 
#
# 1 43.9280 21.9091 -11.0724 0.0008 8.5905 0.0057
# 2 21.9091 71.6313 22.8597 -0.0002 11.8950 0.0019
# 3 -11.0724 22.8597 67.3106 0.0008 11.0950 -0.0006
# 4 0.0008 -0.0002 0.0008 37.9444 -0.0003 1.1806
# 5 8.5905 11.8950 11.0950 -0.0003 13.5676 0.0008
# 6 0.0057 0.0019 -0.0006 1.1806 0.0008 28.7937
#
#
#
# Elastic Compliance Matrix: (Units=1/GPa)
#
#
# Indices 1 2 3 4 5 6 
#
# 1 0.037017 -0.011732 0.014149 -0.000001 -0.024722 -0.000006
# 2 -0.011732 0.020888 -0.008356 0.000000 -0.004052 0.000001
# 3 0.014149 -0.008356 0.023452 -0.000001 -0.020811 -0.000001
# 4 -0.000001 0.000000 -0.000001 0.026388 0.000002 -0.001082
# 5 -0.024722 -0.004052 -0.020811 0.000002 0.109929 0.000002
# 6 -0.000006 0.000001 -0.000001 -0.001082 0.000002 0.034774
#
#
# Mechanical properties :
#
#
# Convention : Reuss Voigt Hill
#
# Bulk Modulus (GPa) = 14.39295 27.80697 21.09996
# Shear Modulus (GPa) = 17.39218 26.00603 21.69911
#
# Velocity S-wave (km/s) = 3.01520 3.68702 3.36791
# Velocity P-wave (km/s) = 4.43233 5.71499 5.11403
#
# Compressibility (1/GPa) = 0.06947844
#
# Stress axis : x y z
#
# Youngs Moduli (GPa) = 27.01480 47.87419 42.64035
#
# Poissons Ratio (x) = 0.56165 -0.60330
# Poissons Ratio (y) = 0.31693 0.35630
# Poissons Ratio (z) = -0.38222 0.40003
#
# Static dielectric constant tensor:
#      x y z
#    x 1.659850 0.000000 -0.004030 
#    y 0.000000 1.638530 0.000000 
#    z -0.004030 0.000000 1.672310 
# 
# From -- ./inp_files/378026.got.cif
#   From: 2010.05.17/outbox.cif.g08.bks.cpg/sg12_190_cif.got.tgz:378026.got - 2010.06.03 13:09:07.
