data_PCOD9187006
_publ_section_title
;
Structure prediction by ZEFSAII (Michael W. Deem and Ramdas Pophale) SiO2 
 PCOD9187006
Probable space group: C 2/M
;
_chemical_formula_sum "Si O2"
_cell_formula_units_Z 56
_cell_length_a 25.570033
_cell_length_b 12.970686
_cell_length_c 10.679853
_cell_angle_alpha 90.000000
_cell_angle_beta 53.529610
_cell_angle_gamma 90.000000
_cell_volume 2848.421263
_symmetry_space_group_name_H-M "C 2/M"
_symmetry_group_IT_number 12
_symmetry_cell_setting 'monoclinic'
loop_
_space_group_symop_operation_xyz
x,y,z
-x,y,-z
-x,-y,-z
x,-y,z
1/2+x,1/2+y,z
1/2-x,1/2+y,-z
1/2-x,1/2-y,-z
1/2+x,1/2-y,z
loop_
_atom_site_type_symbol
_atom_site_label
_atom_site_fract_x
_atom_site_fract_y
_atom_site_fract_z
Si Si1 0.374303 0.883580 0.532530
Si Si2 0.723285 0.285490 0.384969
Si Si3 0.717877 0.613200 0.133922
Si Si4 0.037826 0.879004 0.821532
Si Si5 0.496822 0.233239 0.651762
Si Si6 0.849869 0.683636 0.850515
Si Si7 0.688961 0.382696 0.681444
O O1 0.335170 0.796295 0.513999
O O2 0.450327 0.857934 0.417023
O O3 0.352417 0.864307 0.707196
O O4 0.360112 0.000000 0.514758
O O5 0.706295 0.358153 0.294187
O O6 0.729068 0.356706 0.497866
O O7 0.784790 0.210372 0.269264
O O8 0.694617 0.500000 0.134285
O O9 0.679839 0.701178 0.113453
O O10 0.795280 0.621499 0.002272
O O11 0.018580 0.816856 0.724088
O O12 0.114003 0.872960 0.748658
O O13 0.022016 0.000000 0.824857
O O14 0.000000 0.842505 0.000000
O O15 0.500000 0.269636 0.500000
O O16 0.424436 0.193519 0.784762
O O17 0.700127 0.500000 0.710484
#
# Coordination Sequence:
#
# PCOD9187006 Si02
#       7
#     8   8   8   8   8   8   8
#     4  10  19  35  57  82 113 148 190 237 285 341
#     4  10  20  34  55  84 108 146 190 235 282 337
#     4  10  20  36  55  80 114 149 185 234 289 339
#     4  10  22  39  60  85 115 153 190 233 292 348
#     4  10  21  38  59  87 114 147 192 239 285 339
#     4   9  21  35  54  83 114 147 188 235 284 341
#     4  10  20  36  57  79 109 148 190 235 283 339
#
# _framework density 19.660012999999999
#
# number of rings (size 3 to 8) (size 9 to 14) (size 15 to 20)
#    0.000    2.143    1.429    1.286    2.000    4.000 
#    0.000    0.714    0.000    0.429    0.000    0.000 
#    0.000    0.000    0.000    0.000    0.000    0.000 
#
# Total GULP energy -156091.109985 kJ/mol
# GULP energy per Si atom -5574.682499 kJ/mol
# Density = 1.961527 g / cm^3
# Si number density = 19.660013 Si / 1000 Ang^3
#
#
#
# Elastic Constant Matrix: (Units=GPa)
#
#
# Indices 1 2 3 4 5 6 
#
# 1 57.1557 -6.4786 15.3650 0.0000 -17.2827 0.0000
# 2 -6.4786 78.1594 19.5552 0.0000 -0.3709 0.0000
# 3 15.3650 19.5552 56.1504 0.0000 -16.2149 0.0000
# 4 0.0000 0.0000 0.0000 11.9454 0.0000 -0.3885
# 5 -17.2827 -0.3709 -16.2149 0.0000 28.7298 0.0000
# 6 0.0000 0.0000 0.0000 -0.3885 0.0000 19.5575
#
#
#
# Elastic Compliance Matrix: (Units=1/GPa)
#
#
# Indices 1 2 3 4 5 6 
#
# 1 0.022256 0.002857 -0.003833 0.000000 0.011262 0.000000
# 2 0.002857 0.014614 -0.006356 0.000000 -0.001680 0.000000
# 3 -0.003833 -0.006356 0.024351 0.000000 0.011356 0.000000
# 4 0.000000 0.000000 0.000000 0.083768 0.000000 0.001664
# 5 0.011262 -0.001680 0.011356 0.000000 0.047969 0.000000
# 6 0.000000 0.000000 0.000000 0.001664 0.000000 0.051164
#
#
# Mechanical properties :
#
#
# Convention : Reuss Voigt Hill
#
# Bulk Modulus (GPa) = 21.47950 27.59428 24.53689
# Shear Modulus (GPa) = 18.22787 22.91479 20.57133
#
# Velocity S-wave (km/s) = 3.04822 3.41772 3.23825
# Velocity P-wave (km/s) = 4.83095 5.44432 5.14678
#
# Compressibility (1/GPa) = 0.04655602
#
# Stress axis : x y z
#
# Youngs Moduli (GPa) = 44.93245 68.42954 41.06584
#
# Poissons Ratio (x) = -0.19552 0.15740
# Poissons Ratio (y) = -0.12838 0.26103
# Poissons Ratio (z) = 0.17223 0.43496
#
# Static dielectric constant tensor:
#      x y z
#    x 1.720820 0.000000 -0.011340 
#    y 0.000000 1.682270 0.000000 
#    z -0.011340 0.000000 1.698810 
# 
# From -- ./inp_files/182436.got.cif
#   From: 2010.05.17/outbox.cif.g08.bks.cpg/sg12_92_cif.got.tgz:182436.got - 2010.06.03 13:09:07.
