data_PCOD9187105
_publ_section_title
;
Structure prediction by ZEFSAII (Michael W. Deem and Ramdas Pophale) SiO2 
 PCOD9187105
Probable space group: C 2/M
;
_chemical_formula_sum "Si O2"
_cell_formula_units_Z 52
_cell_length_a 8.561004
_cell_length_b 20.685765
_cell_length_c 20.318436
_cell_angle_alpha 90.000000
_cell_angle_beta 130.996860
_cell_angle_gamma 90.000000
_cell_volume 2715.733274
_symmetry_space_group_name_H-M "C 2/M"
_symmetry_group_IT_number 12
_symmetry_cell_setting 'monoclinic'
loop_
_space_group_symop_operation_xyz
x,y,z
-x,y,-z
-x,-y,-z
x,-y,z
1/2+x,1/2+y,z
1/2-x,1/2+y,-z
1/2-x,1/2-y,-z
1/2+x,1/2-y,z
loop_
_atom_site_type_symbol
_atom_site_label
_atom_site_fract_x
_atom_site_fract_y
_atom_site_fract_z
Si Si1 0.000000 0.379173 0.000000
Si Si2 0.999637 0.429157 0.144786
Si Si3 0.614002 0.333086 0.424797
Si Si4 0.935662 0.820778 0.153166
Si Si5 0.990151 0.074315 0.279611
Si Si6 0.345691 0.184073 0.192439
Si Si7 0.193747 0.692859 0.388788
O O1 0.792386 0.337375 0.935585
O O2 0.018445 0.420349 0.938612
O O3 0.921766 0.500000 0.142935
O O4 0.890273 0.370842 0.151600
O O5 0.244299 0.425360 0.227881
O O6 0.604620 0.392568 0.372469
O O7 0.759583 0.341245 0.528660
O O8 0.385990 0.319443 0.392756
O O9 0.680917 0.268798 0.403760
O O10 0.005964 0.878644 0.221107
O O11 0.921869 0.753526 0.188087
O O12 0.106147 0.813522 0.144306
O O13 0.050344 0.000000 0.283788
O O14 0.484275 0.171279 0.295555
#
# Coordination Sequence:
#
# PCOD9187105 Si02
#       7
#     4   8   8   8   8   8   8
#     4  10  23  44  62  90 117 154 204 248 299 366
#     4  10  22  40  64  87 121 159 197 247 302 362
#     4  10  19  35  57  89 116 159 198 246 290 343
#     4  11  24  38  64  88 119 155 201 250 305 353
#     4  10  20  38  59  85 120 162 203 243 299 357
#     4  12  22  39  62  91 122 155 197 250 300 359
#     4  10  20  33  58  89 120 149 202 243 290 344
#
# _framework density 19.147683000000001
#
# number of rings (size 3 to 8) (size 9 to 14) (size 15 to 20)
#    0.000    1.538    3.077    3.000    0.000    4.308 
#    0.000    3.077    0.000    0.923    0.000    0.000 
#    0.000    0.000    0.000    0.000    0.000    0.000 
#
# Total GULP energy -145237.166639 kJ/mol
# GULP energy per Si atom -5586.044871 kJ/mol
# Density = 1.910410 g / cm^3
# Si number density = 19.147683 Si / 1000 Ang^3
#
#
#
# Elastic Constant Matrix: (Units=GPa)
#
#
# Indices 1 2 3 4 5 6 
#
# 1 53.5490 37.6404 6.9001 0.0000 -4.0308 0.0000
# 2 37.6404 133.6172 41.6022 0.0000 -18.8506 0.0000
# 3 6.9001 41.6022 101.0563 0.0000 -3.4788 0.0000
# 4 0.0000 0.0000 0.0000 2.1924 0.0000 -1.0209
# 5 -4.0308 -18.8506 -3.4788 0.0000 20.1959 0.0000
# 6 0.0000 0.0000 0.0000 -1.0209 0.0000 19.7329
#
#
#
# Elastic Compliance Matrix: (Units=1/GPa)
#
#
# Indices 1 2 3 4 5 6 
#
# 1 0.023492 -0.007301 0.001336 0.000000 -0.001896 0.000000
# 2 -0.007301 0.012133 -0.004182 0.000000 0.009148 0.000000
# 3 0.001336 -0.004182 0.011468 0.000000 -0.001661 0.000000
# 4 0.000000 0.000000 0.000000 0.467387 0.000000 0.024181
# 5 -0.001896 0.009148 -0.001661 0.000000 0.057389 0.000000
# 6 0.000000 0.000000 0.000000 0.024181 0.000000 0.051928
#
#
# Mechanical properties :
#
#
# Convention : Reuss Voigt Hill
#
# Bulk Modulus (GPa) = 37.31233 51.16754 44.23993
# Shear Modulus (GPa) = 7.65670 21.89622 14.77646
#
# Velocity S-wave (km/s) = 2.00186 3.38530 2.78098
# Velocity P-wave (km/s) = 4.98720 6.48544 5.78503
#
# Compressibility (1/GPa) = 0.02680079
#
# Stress axis : x y z
#
# Youngs Moduli (GPa) = 42.56811 82.41742 87.19553
#
# Poissons Ratio (x) = 0.60176 -0.11653
# Poissons Ratio (y) = 0.31080 0.36461
# Poissons Ratio (z) = -0.05689 0.34463
#
# Static dielectric constant tensor:
#      x y z
#    x 1.655910 0.000000 0.002470 
#    y 0.000000 1.651540 0.000000 
#    z 0.002470 0.000000 1.689230 
# 
# From -- ./inp_files/301172.got.cif
#   From: 2010.05.17/outbox.cif.g08.bks.cpg/sg12_151_cif.got.tgz:301172.got - 2010.06.03 13:09:07.
