data_PCOD9187371
_publ_section_title
;
Structure prediction by ZEFSAII (Michael W. Deem and Ramdas Pophale) SiO2 
 PCOD9187371
Probable space group: C 2/M
;
_chemical_formula_sum "Si O2"
_cell_formula_units_Z 48
_cell_length_a 21.100043
_cell_length_b 13.328727
_cell_length_c 10.067444
_cell_angle_alpha 90.000000
_cell_angle_beta 66.519039
_cell_angle_gamma 90.000000
_cell_volume 2596.879168
_symmetry_space_group_name_H-M "C 2/M"
_symmetry_group_IT_number 12
_symmetry_cell_setting 'monoclinic'
loop_
_space_group_symop_operation_xyz
x,y,z
-x,y,-z
-x,-y,-z
x,-y,z
1/2+x,1/2+y,z
1/2-x,1/2+y,-z
1/2-x,1/2-y,-z
1/2+x,1/2-y,z
loop_
_atom_site_type_symbol
_atom_site_label
_atom_site_fract_x
_atom_site_fract_y
_atom_site_fract_z
Si Si1 0.403612 0.117004 0.342595
Si Si2 0.335496 0.202594 0.153531
Si Si3 0.104827 0.885537 0.009024
Si Si4 0.421200 0.746467 0.584247
Si Si5 0.449755 0.194069 0.851603
Si Si6 0.807917 0.885515 0.792531
O O1 0.346312 0.153702 0.287007
O O2 0.403749 0.181612 0.476632
O O3 0.477454 0.139485 0.209787
O O4 0.397676 0.000000 0.376306
O O5 0.259528 0.182804 0.162640
O O6 0.357328 0.319910 0.135330
O O7 0.391400 0.156664 0.002128
O O8 0.043157 0.811908 0.110344
O O9 0.157795 0.884099 0.089781
O O10 0.087056 0.000000 0.993313
O O11 0.500000 0.709877 0.500000
O O12 0.421746 0.805475 0.724482
O O13 0.366580 0.658004 0.646747
O O14 0.789321 0.000000 0.776721
#
# Coordination Sequence:
#
# PCOD9187371 Si02
#       6
#     8   8   8   8   8   8
#     4  11  22  37  53  79 117 148 178 224 279 323
#     4  10  20  34  57  86 112 141 178 230 271 324
#     4   8  17  34  55  80 110 141 176 222 271 314
#     4   9  20  38  56  78 109 145 187 225 266 323
#     4   8  19  35  58  81 109 143 182 226 262 322
#     4  10  19  35  59  82 110 143 182 228 273 321
#
# _framework density 18.483725
#
# number of rings (size 3 to 8) (size 9 to 14) (size 15 to 20)
#    1.000    1.667    0.000    1.500    0.000    6.000 
#    0.000    5.833    0.000    0.000    0.000    0.000 
#    0.000    0.000    0.000    0.000    0.000    0.000 
#
# Total GULP energy -133622.519619 kJ/mol
# GULP energy per Si atom -5567.604984 kJ/mol
# Density = 1.844166 g / cm^3
# Si number density = 18.483725 Si / 1000 Ang^3
#
#
#
# Elastic Constant Matrix: (Units=GPa)
#
#
# Indices 1 2 3 4 5 6 
#
# 1 24.4629 -9.1294 8.5139 0.0000 3.2520 0.0000
# 2 -9.1294 64.2740 8.2842 0.0000 -4.5809 0.0000
# 3 8.5139 8.2842 48.3778 0.0000 3.6907 0.0000
# 4 0.0000 0.0000 0.0000 16.6961 0.0000 -3.1782
# 5 3.2520 -4.5809 3.6907 0.0000 9.5689 0.0000
# 6 0.0000 0.0000 0.0000 -3.1782 0.0000 18.8292
#
#
#
# Elastic Compliance Matrix: (Units=1/GPa)
#
#
# Indices 1 2 3 4 5 6 
#
# 1 0.047972 0.007306 -0.008981 0.000000 -0.009342 0.000000
# 2 0.007306 0.017799 -0.004940 0.000000 0.007943 0.000000
# 3 -0.008981 -0.004940 0.023743 0.000000 -0.008470 0.000000
# 4 0.000000 0.000000 0.000000 0.061882 0.000000 0.010445
# 5 -0.009342 0.007943 -0.008470 0.000000 0.114749 0.000000
# 6 0.000000 0.000000 0.000000 0.010445 0.000000 0.054872
#
#
# Mechanical properties :
#
#
# Convention : Reuss Voigt Hill
#
# Bulk Modulus (GPa) = 13.10877 16.93911 15.02394
# Shear Modulus (GPa) = 13.90142 17.64859 15.77500
#
# Velocity S-wave (km/s) = 2.74540 3.09336 2.92456
# Velocity P-wave (km/s) = 4.14211 4.68431 4.42153
#
# Compressibility (1/GPa) = 0.07628482
#
# Stress axis : x y z
#
# Youngs Moduli (GPa) = 20.84540 56.18341 42.11734
#
# Poissons Ratio (x) = -0.41046 0.37825
# Poissons Ratio (y) = -0.15229 0.20804
# Poissons Ratio (z) = 0.18721 0.27752
#
# Static dielectric constant tensor:
#      x y z
#    x 1.662470 0.000000 0.014190 
#    y 0.000000 1.643420 0.000000 
#    z 0.014190 0.000000 1.631880 
# 
# From -- ./inp_files/164699.got.cif
#   From: 2010.05.17/outbox.cif.g08.bks.cpg/sg12_83_cif.got.tgz:164699.got - 2010.06.03 13:09:07.
