data_PCOD9187679
_publ_section_title
;
Structure prediction by ZEFSAII (Michael W. Deem and Ramdas Pophale) SiO2 
 PCOD9187679
Probable space group: C 2/M
;
_chemical_formula_sum "Si O2"
_cell_formula_units_Z 48
_cell_length_a 18.861470
_cell_length_b 29.965721
_cell_length_c 8.720461
_cell_angle_alpha 90.000000
_cell_angle_beta 31.592039
_cell_angle_gamma 90.000000
_cell_volume 2582.029600
_symmetry_space_group_name_H-M "C 2/M"
_symmetry_group_IT_number 12
_symmetry_cell_setting 'monoclinic'
loop_
_space_group_symop_operation_xyz
x,y,z
-x,y,-z
-x,-y,-z
x,-y,z
1/2+x,1/2+y,z
1/2-x,1/2+y,-z
1/2-x,1/2-y,-z
1/2+x,1/2-y,z
loop_
_atom_site_type_symbol
_atom_site_label
_atom_site_fract_x
_atom_site_fract_y
_atom_site_fract_z
Si Si1 0.711475 0.882401 0.223434
Si Si2 0.263019 0.776753 0.813505
Si Si3 0.909890 0.378815 0.884159
Si Si4 0.033986 0.719059 0.116087
Si Si5 0.152527 0.547212 0.777511
Si Si6 0.620128 0.550982 0.895063
O O1 0.750713 0.830161 0.147696
O O2 0.572407 0.887544 0.578874
O O3 0.657740 0.891529 0.151865
O O4 0.830689 0.914179 0.066206
O O5 0.405422 0.770056 0.461951
O O6 0.250000 0.750000 0.000000
O O7 0.143162 0.757765 0.930736
O O8 0.901387 0.326504 0.936320
O O9 0.835927 0.408821 0.144384
O O10 0.000000 0.711898 0.000000
O O11 0.177008 0.500000 0.818122
O O12 0.251555 0.548018 0.452783
O O13 0.000000 0.546513 0.000000
O O14 0.589729 0.500000 0.006452
O O15 0.500000 0.565049 0.000000
#
# Coordination Sequence:
#
# PCOD9187679 Si02
#       6
#     8   8   8   8   8   8
#     4  10  21  37  61  88 118 162 201 246 311 367
#     4  11  22  42  60  87 126 162 205 256 312 367
#     4  10  20  36  60  90 120 150 199 258 304 351
#     4  11  23  39  62  89 121 162 204 258 309 368
#     4  10  19  35  60  89 118 153 197 244 295 358
#     4  10  22  41  61  87 126 162 196 250 312 367
#
# _framework density 18.590026000000002
#
# number of rings (size 3 to 8) (size 9 to 14) (size 15 to 20)
#    0.000    1.667    3.333    1.500    2.333    1.333 
#    3.000    2.500    0.000    3.000    0.000    0.000 
#    0.000    0.000    0.000    0.000    0.000    0.000 
#
# Total GULP energy -133734.062840 kJ/mol
# GULP energy per Si atom -5572.252618 kJ/mol
# Density = 1.854771 g / cm^3
# Si number density = 18.590026 Si / 1000 Ang^3
#
#
#
# Elastic Constant Matrix: (Units=GPa)
#
#
# Indices 1 2 3 4 5 6 
#
# 1 90.7001 49.9890 16.5186 0.0001 -12.9455 -0.0002
# 2 49.9890 100.3446 31.3635 0.0000 -7.1223 0.0000
# 3 16.5186 31.3635 52.2326 0.0003 0.7256 -0.0005
# 4 0.0001 0.0000 0.0003 39.0503 -0.0001 -25.7777
# 5 -12.9455 -7.1223 0.7256 -0.0001 32.3542 0.0002
# 6 -0.0002 0.0000 -0.0005 -25.7777 0.0002 90.7140
#
#
#
# Elastic Compliance Matrix: (Units=1/GPa)
#
#
# Indices 1 2 3 4 5 6 
#
# 1 0.015886 -0.007369 -0.000665 0.000000 0.004749 0.000000
# 2 -0.007369 0.015958 -0.007262 0.000000 0.000727 0.000000
# 3 -0.000665 -0.007262 0.023749 0.000000 -0.002397 0.000000
# 4 0.000000 0.000000 0.000000 0.031521 0.000000 0.008957
# 5 0.004749 0.000727 -0.002397 0.000000 0.033022 0.000000
# 6 0.000000 0.000000 0.000000 0.008957 0.000000 0.013569
#
#
# Mechanical properties :
#
#
# Convention : Reuss Voigt Hill
#
# Bulk Modulus (GPa) = 39.99802 48.77994 44.38898
# Shear Modulus (GPa) = 28.96376 42.11743 35.54059
#
# Velocity S-wave (km/s) = 3.95147 4.76499 4.37717
# Velocity P-wave (km/s) = 6.51010 7.52132 7.03390
#
# Compressibility (1/GPa) = 0.02500124
#
# Stress axis : x y z
#
# Youngs Moduli (GPa) = 62.95017 62.66460 42.10670
#
# Poissons Ratio (x) = 0.46176 0.02801
# Poissons Ratio (y) = 0.46387 0.30577
# Poissons Ratio (z) = 0.04187 0.45506
#
# Static dielectric constant tensor:
#      x y z
#    x 1.660690 0.000000 0.003500 
#    y 0.000000 1.669370 0.000000 
#    z 0.003500 0.000000 1.646270 
# 
# From -- ./inp_files/80618.got.cif
#   From: 2010.05.17/outbox.cif.g08.bks.cpg/sg12_41_cif.got.tgz:80618.got - 2010.06.03 13:09:07.
