data_PCOD9187783
_publ_section_title
;
Structure prediction by ZEFSAII (Michael W. Deem and Ramdas Pophale) SiO2 
 PCOD9187783
Probable space group: C 2/M
;
_chemical_formula_sum "Si O2"
_cell_formula_units_Z 56
_cell_length_a 19.020555
_cell_length_b 14.897808
_cell_length_c 9.658224
_cell_angle_alpha 90.000000
_cell_angle_beta 119.236487
_cell_angle_gamma 90.000000
_cell_volume 2388.161131
_symmetry_space_group_name_H-M "C 2/M"
_symmetry_group_IT_number 12
_symmetry_cell_setting 'monoclinic'
loop_
_space_group_symop_operation_xyz
x,y,z
-x,y,-z
-x,-y,-z
x,-y,z
1/2+x,1/2+y,z
1/2-x,1/2+y,-z
1/2-x,1/2-y,-z
1/2+x,1/2-y,z
loop_
_atom_site_type_symbol
_atom_site_label
_atom_site_fract_x
_atom_site_fract_y
_atom_site_fract_z
Si Si1 0.923803 0.100980 0.849879
Si Si2 0.362882 0.106603 0.707548
Si Si3 0.014046 0.390725 0.673777
Si Si4 0.686768 0.610294 0.495427
Si Si5 0.917509 0.108137 0.352488
Si Si6 0.675777 0.643051 0.995440
Si Si7 0.667041 0.849212 0.004210
O O1 0.880452 0.143400 0.676668
O O2 0.951221 0.000000 0.835109
O O3 0.852962 0.094863 0.894633
O O4 0.000000 0.145443 0.000000
O O5 0.440576 0.141007 0.700976
O O6 0.277985 0.141923 0.566044
O O7 0.362375 0.000000 0.681512
O O8 0.361289 0.117106 0.872598
O O9 0.017226 0.500000 0.679562
O O10 0.096230 0.358031 0.823739
O O11 0.000000 0.364448 0.500000
O O12 0.686502 0.500000 0.484646
O O13 0.655692 0.633723 0.617748
O O14 0.898849 0.140521 0.182196
O O15 0.000000 0.139778 0.500000
O O16 0.920843 0.000000 0.350142
O O17 0.690058 0.745707 0.049346
O O18 0.753390 0.606989 0.987997
#
# Coordination Sequence:
#
# PCOD9187783 Si02
#       7
#     8   8   8   8   8   8   8
#     4  10  21  37  58  86 118 153 199 252 302 352
#     4  10  20  39  65  91 118 154 200 248 306 366
#     4  10  23  41  66  96 119 147 198 257 309 363
#     4   9  18  33  57  88 118 149 193 248 301 355
#     4  10  19  35  61  89 118 156 201 248 297 352
#     4  11  24  39  58  86 122 164 204 239 289 358
#     4  11  24  41  58  86 124 162 202 243 291 357
#
# _framework density 23.449005
#
# number of rings (size 3 to 8) (size 9 to 14) (size 15 to 20)
#    0.000    1.857    1.429    2.143    2.000    6.857 
#    0.000    2.143    0.000    0.000    0.000    0.000 
#    0.000    0.000    0.000    0.000    0.000    0.000 
#
# Total GULP energy -156491.807622 kJ/mol
# GULP energy per Si atom -5588.993129 kJ/mol
# Density = 2.339563 g / cm^3
# Si number density = 23.449005 Si / 1000 Ang^3
#
#
#
# Elastic Constant Matrix: (Units=GPa)
#
#
# Indices 1 2 3 4 5 6 
#
# 1 109.4104 3.6365 25.4261 0.0000 -2.0869 0.0000
# 2 3.6365 49.0611 -8.5786 0.0000 -1.1440 0.0000
# 3 25.4261 -8.5786 115.6095 0.0000 5.2068 0.0000
# 4 0.0000 0.0000 0.0000 20.8302 0.0000 5.2568
# 5 -2.0869 -1.1440 5.2068 0.0000 43.3814 0.0000
# 6 0.0000 0.0000 0.0000 5.2568 0.0000 11.6077
#
#
#
# Elastic Compliance Matrix: (Units=1/GPa)
#
#
# Indices 1 2 3 4 5 6 
#
# 1 0.009713 -0.001097 -0.002249 0.000000 0.000708 0.000000
# 2 -0.001097 0.020780 0.001770 0.000000 0.000283 0.000000
# 3 -0.002249 0.001770 0.009329 0.000000 -0.001181 0.000000
# 4 0.000000 0.000000 0.000000 0.054202 0.000000 -0.024547
# 5 0.000708 0.000283 -0.001181 0.000000 0.023235 0.000000
# 6 0.000000 0.000000 0.000000 -0.024547 0.000000 0.097266
#
#
# Mechanical properties :
#
#
# Convention : Reuss Voigt Hill
#
# Bulk Modulus (GPa) = 27.26985 35.00546 31.13765
# Shear Modulus (GPa) = 21.74863 32.07032 26.90948
#
# Velocity S-wave (km/s) = 3.04877 3.70220 3.39126
# Velocity P-wave (km/s) = 4.90388 5.76505 5.35181
#
# Compressibility (1/GPa) = 0.03667053
#
# Stress axis : x y z
#
# Youngs Moduli (GPa) = 102.95910 48.12275 107.19165
#
# Poissons Ratio (x) = 0.05278 0.24111
# Poissons Ratio (y) = 0.11292 -0.18977
# Poissons Ratio (z) = 0.23159 -0.08520
#
# Static dielectric constant tensor:
#      x y z
#    x 1.904950 0.000000 0.014490 
#    y 0.000000 1.921670 0.000000 
#    z 0.014490 0.000000 1.831270 
# 
# From -- ./inp_files/75986.got.cif
#   From: 2010.05.17/outbox.cif.g08.bks.cpg/sg12_38_cif.got.tgz:75986.got - 2010.06.03 13:09:07.
