data_PCOD9187048
_publ_section_title
;
Structure prediction by ZEFSAII (Michael W. Deem and Ramdas Pophale) SiO2 
 PCOD9187048
Probable space group: C 2/M
;
_chemical_formula_sum "Si O2"
_cell_formula_units_Z 48
_cell_length_a 13.402071
_cell_length_b 11.555556
_cell_length_c 25.230882
_cell_angle_alpha 90.000000
_cell_angle_beta 143.620455
_cell_angle_gamma 90.000000
_cell_volume 2317.641077
_symmetry_space_group_name_H-M "C 2/M"
_symmetry_group_IT_number 12
_symmetry_cell_setting 'monoclinic'
loop_
_space_group_symop_operation_xyz
x,y,z
-x,y,-z
-x,-y,-z
x,-y,z
1/2+x,1/2+y,z
1/2-x,1/2+y,-z
1/2-x,1/2-y,-z
1/2+x,1/2-y,z
loop_
_atom_site_type_symbol
_atom_site_label
_atom_site_fract_x
_atom_site_fract_y
_atom_site_fract_z
Si Si1 0.140497 0.785606 0.023590
Si Si2 0.708835 0.370308 0.452780
Si Si3 0.966721 0.374451 0.114893
Si Si4 0.649496 0.635105 0.812767
Si Si5 0.668869 0.310732 0.705957
Si Si6 0.739673 0.368219 0.340598
O O1 0.302398 0.862985 0.081053
O O2 0.215005 0.675564 0.087187
O O3 0.057175 0.733164 0.935148
O O4 0.000000 0.842275 0.000000
O O5 0.774506 0.500000 0.496385
O O6 0.750000 0.250000 0.500000
O O7 0.506244 0.378264 0.372436
O O8 0.758051 0.351488 0.411845
O O9 0.960675 0.500000 0.085101
O O10 0.146296 0.367053 0.220796
O O11 0.670698 0.500000 0.806463
O O12 0.667015 0.715693 0.768367
O O13 0.461185 0.645762 0.754663
O O14 0.664364 0.213280 0.659045
O O15 0.786515 0.500000 0.349584
#
# Coordination Sequence:
#
# PCOD9187048 Si02
#       6
#     8   8   8   8   8   8
#     4  11  22  36  56  82 118 160 204 250 298 354
#     4  10  23  44  69  95 127 161 201 252 310 379
#     4  11  23  37  56  85 118 157 206 256 302 350
#     4  10  19  35  57  83 116 157 204 247 296 350
#     4  11  20  37  64  91 117 156 207 253 297 357
#     4   9  20  39  63  88 121 161 196 243 306 375
#
# _framework density 20.710715
#
# number of rings (size 3 to 8) (size 9 to 14) (size 15 to 20)
#    0.000    1.667    3.333    3.000    0.000    2.333 
#    0.000    5.833    0.000    0.000    0.000    0.000 
#    0.000    0.000    0.000    0.000    0.000    0.000 
#
# Total GULP energy -133677.099527 kJ/mol
# GULP energy per Si atom -5569.879147 kJ/mol
# Density = 2.066358 g / cm^3
# Si number density = 20.710715 Si / 1000 Ang^3
#
#
#
# Elastic Constant Matrix: (Units=GPa)
#
#
# Indices 1 2 3 4 5 6 
#
# 1 107.0066 42.4734 7.7632 0.0000 5.4107 0.0000
# 2 42.4734 100.5627 32.5464 0.0000 -14.3863 0.0000
# 3 7.7632 32.5464 62.1508 0.0000 3.6649 0.0000
# 4 0.0000 0.0000 0.0000 14.7164 0.0000 -16.5054
# 5 5.4107 -14.3863 3.6649 0.0000 27.0101 0.0000
# 6 0.0000 0.0000 0.0000 -16.5054 0.0000 0.3428
#
#
#
# Elastic Compliance Matrix: (Units=1/GPa)
#
#
# Indices 1 2 3 4 5 6 
#
# 1 0.012224 -0.006880 0.002456 0.000000 -0.006446 0.000000
# 2 -0.006880 0.017460 -0.008985 0.000000 0.011897 0.000000
# 3 0.002456 -0.008985 0.020967 0.000000 -0.008123 0.000000
# 4 0.000000 0.000000 0.000000 -0.001282 0.000000 -0.061729
# 5 -0.006446 0.011897 -0.008123 0.000000 0.045753 0.000000
# 6 0.000000 0.000000 0.000000 -0.061729 0.000000 -0.055038
#
#
# Mechanical properties :
#
#
# Convention : Reuss Voigt Hill
#
# Bulk Modulus (GPa) = 41.95916 48.36510 45.16213
# Shear Modulus (GPa) = 66.80313 20.87631 43.83972
#
# Velocity S-wave (km/s) = 5.68554 3.17834 4.60582
# Velocity P-wave (km/s) = 7.96267 6.07227 7.08084
#
# Compressibility (1/GPa) = 0.02383270
#
# Stress axis : x y z
#
# Youngs Moduli (GPa) = 81.80778 57.27438 47.69297
#
# Poissons Ratio (x) = 0.39404 -0.11714
# Poissons Ratio (y) = 0.56283 0.42854
# Poissons Ratio (z) = -0.20092 0.51463
#
# Static dielectric constant tensor:
#      x y z
#    x 1.769360 0.000000 0.021120 
#    y 0.000000 1.731560 0.000000 
#    z 0.021120 0.000000 1.771870 
# 
# From -- ./inp_files/361074.got.cif
#   From: 2010.05.17/outbox.cif.g08.bks.cpg/sg12_181_cif.got.tgz:361074.got - 2010.06.03 13:09:07.
