data_PCOD9187211
_publ_section_title
;
Structure prediction by ZEFSAII (Michael W. Deem and Ramdas Pophale) SiO2 
 PCOD9187211
Probable space group: C 2/M
;
_chemical_formula_sum "Si O2"
_cell_formula_units_Z 56
_cell_length_a 16.915947
_cell_length_b 11.638672
_cell_length_c 17.822207
_cell_angle_alpha 90.000000
_cell_angle_beta 127.286905
_cell_angle_gamma 90.000000
_cell_volume 2791.660046
_symmetry_space_group_name_H-M "C 2/M"
_symmetry_group_IT_number 12
_symmetry_cell_setting 'monoclinic'
loop_
_space_group_symop_operation_xyz
x,y,z
-x,y,-z
-x,-y,-z
x,-y,z
1/2+x,1/2+y,z
1/2-x,1/2+y,-z
1/2-x,1/2-y,-z
1/2+x,1/2-y,z
loop_
_atom_site_type_symbol
_atom_site_label
_atom_site_fract_x
_atom_site_fract_y
_atom_site_fract_z
Si Si1 0.434608 0.289681 0.239469
Si Si2 0.618486 0.373811 0.438547
Si Si3 0.215995 0.632068 0.756867
Si Si4 0.608471 0.786885 0.088417
Si Si5 0.748307 0.627644 0.954253
Si Si6 0.263347 0.785446 0.398146
Si Si7 0.085463 0.630707 0.240632
O O1 0.516230 0.355597 0.335378
O O2 0.369598 0.208995 0.255947
O O3 0.356368 0.367339 0.149957
O O4 0.495656 0.210538 0.216633
O O5 0.621237 0.500000 0.474740
O O6 0.640337 0.273452 0.510399
O O7 0.706872 0.360895 0.427956
O O8 0.202832 0.500000 0.768390
O O9 0.319234 0.681502 0.849032
O O10 0.217727 0.649630 0.668263
O O11 0.663321 0.858548 0.055230
O O12 0.596999 0.858868 0.158046
O O13 0.500000 0.749255 0.000000
O O14 0.757350 0.500000 0.996541
O O15 0.750000 0.750000 0.000000
O O16 0.185245 0.683377 0.334181
O O17 0.070150 0.500000 0.254901
#
# Coordination Sequence:
#
# PCOD9187211 Si02
#       7
#     8   8   8   8   8   8   8
#     4  10  22  37  57  86 114 147 191 232 282 342
#     4  10  19  36  59  80 110 147 187 235 282 332
#     4  10  21  39  58  80 116 151 183 231 290 345
#     4  10  22  38  58  86 111 143 192 238 280 335
#     4  11  24  41  61  86 119 155 192 237 289 344
#     4   9  20  35  55  85 111 144 191 232 279 339
#     4  10  19  35  58  83 115 150 189 235 282 336
#
# _framework density 20.059749
#
# number of rings (size 3 to 8) (size 9 to 14) (size 15 to 20)
#    0.000    2.000    0.000    3.000    0.000    6.000 
#    0.000   10.714    0.000    0.000    0.000    0.000 
#    0.000    0.000    0.000    0.000    0.000    0.000 
#
# Total GULP energy -156349.830862 kJ/mol
# GULP energy per Si atom -5583.922531 kJ/mol
# Density = 2.001409 g / cm^3
# Si number density = 20.059749 Si / 1000 Ang^3
#
#
#
# Elastic Constant Matrix: (Units=GPa)
#
#
# Indices 1 2 3 4 5 6 
#
# 1 62.2374 7.3648 12.8512 0.0000 7.1094 0.0000
# 2 7.3648 104.9428 14.5226 0.0000 3.1528 0.0000
# 3 12.8512 14.5226 73.5243 0.0000 14.4420 0.0000
# 4 0.0000 0.0000 0.0000 1.7545 0.0000 -5.9113
# 5 7.1094 3.1528 14.4420 0.0000 30.0894 0.0000
# 6 0.0000 0.0000 0.0000 -5.9113 0.0000 2.7746
#
#
#
# Elastic Compliance Matrix: (Units=1/GPa)
#
#
# Indices 1 2 3 4 5 6 
#
# 1 0.016950 -0.000793 -0.002248 0.000000 -0.002843 0.000000
# 2 -0.000793 0.009834 -0.001809 0.000000 0.000025 0.000000
# 3 -0.002248 -0.001809 0.015689 0.000000 -0.006809 0.000000
# 4 0.000000 0.000000 0.000000 -0.092258 0.000000 -0.196552
# 5 -0.002843 0.000025 -0.006809 0.000000 0.037172 0.000000
# 6 0.000000 0.000000 0.000000 -0.196552 0.000000 -0.058339
#
#
# Mechanical properties :
#
#
# Convention : Reuss Voigt Hill
#
# Bulk Modulus (GPa) = 30.51188 34.46462 32.48825
# Shear Modulus (GPa) = -99.34591 20.65477 -39.34557
#
# Velocity S-wave (km/s) = -7.04503 3.21232 -4.43360
# Velocity P-wave (km/s) = 7.13675 5.56569 3.15882
#
# Compressibility (1/GPa) = 0.03277412
#
# Stress axis : x y z
#
# Youngs Moduli (GPa) = 58.99626 101.68576 63.74043
#
# Poissons Ratio (x) = 0.08065 0.14326
# Poissons Ratio (y) = 0.04679 0.11529
# Poissons Ratio (z) = 0.13260 0.18393
#
# Static dielectric constant tensor:
#      x y z
#    x 1.684050 0.000000 -0.009320 
#    y 0.000000 1.690570 0.000000 
#    z -0.009320 0.000000 1.723040 
# 
# From -- ./inp_files/277080.got.cif
#   From: 2010.05.17/outbox.cif.g08.bks.cpg/sg12_139_cif.got.tgz:277080.got - 2010.06.03 13:09:07.
