data_PCOD9187015
_publ_section_title
;
Structure prediction by ZEFSAII (Michael W. Deem and Ramdas Pophale) SiO2 
 PCOD9187015
Probable space group: C 2/M
;
_chemical_formula_sum "Si O2"
_cell_formula_units_Z 64
_cell_length_a 30.567447
_cell_length_b 7.623948
_cell_length_c 16.237822
_cell_angle_alpha 90.000000
_cell_angle_beta 130.748050
_cell_angle_gamma 90.000000
_cell_volume 2866.813877
_symmetry_space_group_name_H-M "C 2/M"
_symmetry_group_IT_number 12
_symmetry_cell_setting 'monoclinic'
loop_
_space_group_symop_operation_xyz
x,y,z
-x,y,-z
-x,-y,-z
x,-y,z
1/2+x,1/2+y,z
1/2-x,1/2+y,-z
1/2-x,1/2-y,-z
1/2+x,1/2-y,z
loop_
_atom_site_type_symbol
_atom_site_label
_atom_site_fract_x
_atom_site_fract_y
_atom_site_fract_z
Si Si1 0.252869 0.305351 0.598744
Si Si2 0.700137 0.710292 0.004596
Si Si3 0.486534 0.285737 0.743561
Si Si4 0.127260 0.200454 0.471820
Si Si5 0.408562 0.287650 0.233944
Si Si6 0.044459 0.786021 0.984584
Si Si7 0.436188 0.204413 0.443530
Si Si8 0.821764 0.784432 0.839573
O O1 0.277171 0.500000 0.624283
O O2 0.250000 0.250000 0.500000
O O3 0.186777 0.301713 0.547392
O O4 0.289825 0.218220 0.717769
O O5 0.696342 0.500000 0.005235
O O6 0.705382 0.773156 0.105637
O O7 0.750000 0.750000 0.000000
O O8 0.640207 0.771870 0.889793
O O9 0.484571 0.500000 0.740126
O O10 0.420974 0.227639 0.650232
O O11 0.528670 0.230741 0.721468
O O12 0.517581 0.230445 0.864845
O O13 0.095097 0.203137 0.519775
O O14 0.141622 0.000000 0.467022
O O15 0.407775 0.500000 0.234564
O O16 0.399721 0.221651 0.315066
O O17 0.045193 0.000000 0.985237
O O18 0.110771 0.733033 0.077627
O O19 0.000000 0.729209 0.000000
O O20 0.500000 0.275508 0.500000
O O21 0.442031 0.000000 0.472509
O O22 0.819123 0.000000 0.836515
#
# Coordination Sequence:
#
# PCOD9187015 Si02
#       8
#     8   8   8   8   8   8   8   8
#     4  11  25  44  64  88 121 163 208 253 299 355
#     4  10  21  37  58  85 117 155 196 245 302 357
#     4   9  17  31  54  86 117 145 185 242 302 353
#     4  11  23  39  62  89 120 158 202 248 300 359
#     4  10  19  35  57  82 116 154 196 246 301 356
#     4   9  16  28  54  88 115 139 177 235 298 356
#     4  11  23  37  55  84 122 160 198 241 296 357
#     4   9  19  37  58  85 121 152 188 244 303 352
#
# _framework density 22.324435000000001
#
# number of rings (size 3 to 8) (size 9 to 14) (size 15 to 20)
#    0.000    2.000    2.500    1.125    3.500    1.000 
#    0.000    0.625    0.000    0.000    0.000    0.875 
#    0.000    0.000    0.000    0.000    0.000    0.000 
#
# Total GULP energy -178689.758920 kJ/mol
# GULP energy per Si atom -5584.054966 kJ/mol
# Density = 2.227362 g / cm^3
# Si number density = 22.324435 Si / 1000 Ang^3
#
#
#
# Elastic Constant Matrix: (Units=GPa)
#
#
# Indices 1 2 3 4 5 6 
#
# 1 113.5050 -3.6496 62.8479 0.0000 -18.4344 0.0000
# 2 -3.6496 46.1257 4.4645 0.0000 -3.5005 0.0000
# 3 62.8479 4.4645 192.3137 0.0000 -16.5787 0.0000
# 4 0.0000 0.0000 0.0000 -4.6837 0.0000 12.3476
# 5 -18.4344 -3.5005 -16.5787 0.0000 28.4716 0.0000
# 6 0.0000 0.0000 0.0000 12.3476 0.0000 8.1380
#
#
#
# Elastic Compliance Matrix: (Units=1/GPa)
#
#
# Indices 1 2 3 4 5 6 
#
# 1 0.011663 0.001688 -0.003350 0.000000 0.005808 0.000000
# 2 0.001688 0.022144 -0.000776 0.000000 0.003364 0.000000
# 3 -0.003350 -0.000776 0.006441 0.000000 0.001486 0.000000
# 4 0.000000 0.000000 0.000000 -0.042702 0.000000 0.064790
# 5 0.005808 0.003364 0.001486 0.000000 0.040162 0.000000
# 6 0.000000 0.000000 0.000000 0.064790 0.000000 0.024576
#
#
# Mechanical properties :
#
#
# Convention : Reuss Voigt Hill
#
# Bulk Modulus (GPa) = 28.27125 53.25221 40.76173
# Shear Modulus (GPa) = 63.33193 25.60398 44.46795
#
# Velocity S-wave (km/s) = 5.33202 3.39027 4.46791
# Velocity P-wave (km/s) = 7.11327 6.26345 6.70184
#
# Compressibility (1/GPa) = 0.03537162
#
# Stress axis : x y z
#
# Youngs Moduli (GPa) = 85.74472 45.15942 155.26350
#
# Poissons Ratio (x) = -0.07622 0.52010
# Poissons Ratio (y) = -0.14472 0.12043
# Poissons Ratio (z) = 0.28723 0.03503
#
# Static dielectric constant tensor:
#      x y z
#    x 1.795020 0.000000 -0.017550 
#    y 0.000000 1.873310 0.000000 
#    z -0.017550 0.000000 1.844180 
# 
# From -- ./inp_files/249991.got.cif
#   From: 2010.05.17/outbox.cif.g08.bks.cpg/sg12_125_cif.got.tgz:249991.got - 2010.06.03 13:09:07.
