data_PCOD9187238
_publ_section_title
;
Structure prediction by ZEFSAII (Michael W. Deem and Ramdas Pophale) SiO2 
 PCOD9187238
Probable space group: C 2/M
;
_chemical_formula_sum "Si O2"
_cell_formula_units_Z 56
_cell_length_a 25.113819
_cell_length_b 9.333488
_cell_length_c 16.677404
_cell_angle_alpha 90.000000
_cell_angle_beta 135.972526
_cell_angle_gamma 90.000000
_cell_volume 2716.889660
_symmetry_space_group_name_H-M "C 2/M"
_symmetry_group_IT_number 12
_symmetry_cell_setting 'monoclinic'
loop_
_space_group_symop_operation_xyz
x,y,z
-x,y,-z
-x,-y,-z
x,-y,z
1/2+x,1/2+y,z
1/2-x,1/2+y,-z
1/2-x,1/2-y,-z
1/2+x,1/2-y,z
loop_
_atom_site_type_symbol
_atom_site_label
_atom_site_fract_x
_atom_site_fract_y
_atom_site_fract_z
Si Si1 0.147555 0.664436 0.519779
Si Si2 0.267352 0.168476 0.870878
Si Si3 0.094774 0.163199 0.910874
Si Si4 0.297041 0.167744 0.712542
Si Si5 0.998686 0.836289 0.646957
Si Si6 0.972985 0.663771 0.878475
Si Si7 0.115534 0.665124 0.676314
O O1 0.146515 0.500000 0.491136
O O2 0.230840 0.735907 0.602290
O O3 0.129219 0.667017 0.595576
O O4 0.078896 0.757909 0.409220
O O5 0.293766 0.184350 0.806076
O O6 0.188496 0.254181 0.792465
O O7 0.256620 0.000000 0.874813
O O8 0.332094 0.236939 0.996446
O O9 0.060268 0.163033 0.784921
O O10 0.026764 0.226580 0.891192
O O11 0.114165 0.000000 0.954949
O O12 0.383108 0.200166 0.777866
O O13 0.281268 0.000000 0.679313
O O14 0.040188 0.747829 0.622344
O O15 0.981563 0.000000 0.604597
O O16 0.983629 0.500000 0.859489
O O17 0.000000 0.662595 0.000000
O O18 0.110781 0.500000 0.696931
#
# Coordination Sequence:
#
# PCOD9187238 Si02
#       7
#     8   8   8   8   8   8   8
#     4  10  21  37  59  86 113 142 185 236 281 327
#     4  10  19  35  58  84 114 149 186 227 279 336
#     4  11  24  38  54  82 117 150 188 233 279 330
#     4   9  18  34  58  86 114 143 181 228 275 331
#     4  11  24  40  56  78 112 154 194 229 275 335
#     4  10  19  36  60  87 114 145 186 227 275 338
#     4  10  21  37  59  87 114 142 185 237 284 330
#
# _framework density 20.611805
#
# number of rings (size 3 to 8) (size 9 to 14) (size 15 to 20)
#    0.000    1.857    1.429    2.571    0.000    7.714 
#    0.000    0.714    0.000    0.000    0.000    0.000 
#    0.000    0.000    0.000    0.000    0.000    0.000 
#
# Total GULP energy -156519.230808 kJ/mol
# GULP energy per Si atom -5589.972529 kJ/mol
# Density = 2.056489 g / cm^3
# Si number density = 20.611805 Si / 1000 Ang^3
#
#
#
# Elastic Constant Matrix: (Units=GPa)
#
#
# Indices 1 2 3 4 5 6 
#
# 1 30.3347 18.5640 7.2672 0.0000 13.9855 0.0000
# 2 18.5640 131.0397 49.9987 0.0000 18.1102 0.0000
# 3 7.2672 49.9987 82.6730 0.0000 31.1394 0.0000
# 4 0.0000 0.0000 0.0000 28.9293 0.0000 8.0255
# 5 13.9855 18.1102 31.1394 0.0000 30.9026 0.0000
# 6 0.0000 0.0000 0.0000 8.0255 0.0000 22.4015
#
#
#
# Elastic Compliance Matrix: (Units=1/GPa)
#
#
# Indices 1 2 3 4 5 6 
#
# 1 0.047655 -0.006901 0.010612 0.000000 -0.028217 0.000000
# 2 -0.006901 0.010922 -0.007679 0.000000 0.004460 0.000000
# 3 0.010612 -0.007679 0.025660 0.000000 -0.026159 0.000000
# 4 0.000000 0.000000 0.000000 0.038382 0.000000 -0.013750
# 5 -0.028217 0.004460 -0.026159 0.000000 0.068876 0.000000
# 6 0.000000 0.000000 0.000000 -0.013750 0.000000 0.049566
#
#
# Mechanical properties :
#
#
# Convention : Reuss Voigt Hill
#
# Bulk Modulus (GPa) = 13.10554 43.96749 28.53651
# Shear Modulus (GPa) = 18.21957 27.66119 22.94038
#
# Velocity S-wave (km/s) = 2.97634 3.66732 3.33974
# Velocity P-wave (km/s) = 4.26421 6.26975 5.36159
#
# Compressibility (1/GPa) = 0.07630359
#
# Stress axis : x y z
#
# Youngs Moduli (GPa) = 20.98404 91.55498 38.97108
#
# Poissons Ratio (x) = 0.63179 -0.41358
# Poissons Ratio (y) = 0.14480 0.29925
# Poissons Ratio (z) = -0.22269 0.70303
#
# Static dielectric constant tensor:
#      x y z
#    x 1.730180 0.000000 -0.023840 
#    y 0.000000 1.708100 0.000000 
#    z -0.023840 0.000000 1.741120 
# 
# From -- ./inp_files/280869.got.cif
#   From: 2010.05.17/outbox.cif.g08.bks.cpg/sg12_141_cif.got.tgz:280869.got - 2010.06.03 13:09:07.
