data_PCOD9187952
_publ_section_title
;
Structure prediction by ZEFSAII (Michael W. Deem and Ramdas Pophale) SiO2 
 PCOD9187952
Probable space group: C 2/M
;
_chemical_formula_sum "Si O2"
_cell_formula_units_Z 48
_cell_length_a 13.371868
_cell_length_b 15.121904
_cell_length_c 11.877840
_cell_angle_alpha 90.000000
_cell_angle_beta 72.569668
_cell_angle_gamma 90.000000
_cell_volume 2291.509585
_symmetry_space_group_name_H-M "C 2/M"
_symmetry_group_IT_number 12
_symmetry_cell_setting 'monoclinic'
loop_
_space_group_symop_operation_xyz
x,y,z
-x,y,-z
-x,-y,-z
x,-y,z
1/2+x,1/2+y,z
1/2-x,1/2+y,-z
1/2-x,1/2-y,-z
1/2+x,1/2-y,z
loop_
_atom_site_type_symbol
_atom_site_label
_atom_site_fract_x
_atom_site_fract_y
_atom_site_fract_z
Si Si1 0.719587 0.600643 0.297452
Si Si2 0.945476 0.304148 0.842796
Si Si3 0.999988 0.824940 0.622525
Si Si4 0.266627 0.605735 0.462277
Si Si5 0.280648 0.102266 0.765693
Si Si6 0.339092 0.229186 0.108046
O O1 0.754752 0.500000 0.268703
O O2 0.593765 0.603818 0.353655
O O3 0.763506 0.639068 0.402387
O O4 0.751771 0.662058 0.183315
O O5 0.967361 0.237788 0.733957
O O6 0.885344 0.385204 0.804280
O O7 0.057236 0.309859 0.865704
O O8 0.867073 0.271371 0.967329
O O9 0.000000 0.779584 0.500000
O O10 0.114915 0.863855 0.602590
O O11 0.265957 0.500000 0.475120
O O12 0.201571 0.626933 0.372063
O O13 0.195981 0.173113 0.840423
O O14 0.245621 0.000000 0.781847
#
# Coordination Sequence:
#
# PCOD9187952 Si02
#       6
#     8   8   8   8   8   8
#     4  10  21  37  63  95 127 166 211 259 317 380
#     4  11  24  42  61  92 127 163 212 266 306 376
#     4  10  19  35  63  93 123 162 206 261 318 370
#     4   9  19  37  61  96 128 157 209 270 318 372
#     4  11  23  41  65  92 126 167 210 262 318 369
#     4  11  24  43  64  87 130 170 214 258 311 382
#
# _framework density 20.946891000000001
#
# number of rings (size 3 to 8) (size 9 to 14) (size 15 to 20)
#    0.000    1.667    3.333    1.000    0.000    5.333 
#    0.000    4.167    0.000    3.500    0.000    0.000 
#    0.000    0.000    0.000    0.000    0.000    0.000 
#
# Total GULP energy -133837.183584 kJ/mol
# GULP energy per Si atom -5576.549316 kJ/mol
# Density = 2.089921 g / cm^3
# Si number density = 20.946891 Si / 1000 Ang^3
#
#
#
# Elastic Constant Matrix: (Units=GPa)
#
#
# Indices 1 2 3 4 5 6 
#
# 1 70.7828 8.8423 15.4230 0.0000 6.4908 0.0000
# 2 8.8423 63.6807 44.0427 0.0000 -3.1523 0.0000
# 3 15.4230 44.0427 151.1429 0.0000 6.1434 0.0000
# 4 0.0000 0.0000 0.0000 14.5833 0.0000 13.4817
# 5 6.4908 -3.1523 6.1434 0.0000 35.9817 0.0000
# 6 0.0000 0.0000 0.0000 13.4817 0.0000 12.6209
#
#
#
# Elastic Compliance Matrix: (Units=1/GPa)
#
#
# Indices 1 2 3 4 5 6 
#
# 1 0.014768 -0.001519 -0.000957 0.000000 -0.002634 0.000000
# 2 -0.001519 0.020091 -0.005823 0.000000 0.003028 0.000000
# 3 -0.000957 -0.005823 0.008483 0.000000 -0.001786 0.000000
# 4 0.000000 0.000000 0.000000 5.489750 0.000000 -5.864150
# 5 -0.002634 0.003028 -0.001786 0.000000 0.028837 0.000000
# 6 0.000000 0.000000 0.000000 -5.864150 0.000000 6.343318
#
#
# Mechanical properties :
#
#
# Convention : Reuss Voigt Hill
#
# Bulk Modulus (GPa) = 37.39089 46.91359 42.15224
# Shear Modulus (GPa) = 0.41908 27.12374 13.77141
#
# Velocity S-wave (km/s) = 0.44778 3.60235 2.56685
# Velocity P-wave (km/s) = 4.26104 6.30457 5.38071
#
# Compressibility (1/GPa) = 0.02674448
#
# Stress axis : x y z
#
# Youngs Moduli (GPa) = 67.71603 49.77313 117.87969
#
# Poissons Ratio (x) = 0.07560 0.11285
# Poissons Ratio (y) = 0.10285 0.68637
# Poissons Ratio (z) = 0.06482 0.28981
#
# Static dielectric constant tensor:
#      x y z
#    x 1.848830 0.000000 0.043560 
#    y 0.000000 1.716920 0.000000 
#    z 0.043560 0.000000 1.782120 
# 
# From -- ./inp_files/142871.got.cif
#   From: 2010.05.17/outbox.cif.g08.bks.cpg/sg12_72_cif.got.tgz:142871.got - 2010.06.03 13:09:07.
