data_PCOD9187065
_publ_section_title
;
Structure prediction by ZEFSAII (Michael W. Deem and Ramdas Pophale) SiO2 
 PCOD9187065
Probable space group: C 2/M
;
_chemical_formula_sum "Si O2"
_cell_formula_units_Z 56
_cell_length_a 15.595573
_cell_length_b 7.742112
_cell_length_c 24.553419
_cell_angle_alpha 90.000000
_cell_angle_beta 63.882945
_cell_angle_gamma 90.000000
_cell_volume 2661.945003
_symmetry_space_group_name_H-M "C 2/M"
_symmetry_group_IT_number 12
_symmetry_cell_setting 'monoclinic'
loop_
_space_group_symop_operation_xyz
x,y,z
-x,y,-z
-x,-y,-z
x,-y,z
1/2+x,1/2+y,z
1/2-x,1/2+y,-z
1/2-x,1/2-y,-z
1/2+x,1/2-y,z
loop_
_atom_site_type_symbol
_atom_site_label
_atom_site_fract_x
_atom_site_fract_y
_atom_site_fract_z
Si Si1 0.430222 0.294462 0.066625
Si Si2 0.399513 0.712497 0.291671
Si Si3 0.480532 0.298552 0.383426
Si Si4 0.314533 0.800682 0.643941
Si Si5 0.767197 0.205629 0.931891
Si Si6 0.979999 0.788218 0.846060
Si Si7 0.659457 0.706861 0.487517
O O1 0.446858 0.500000 0.063800
O O2 0.321665 0.267238 0.079130
O O3 0.460780 0.229778 0.117393
O O4 0.500000 0.222976 0.000000
O O5 0.398650 0.500000 0.292807
O O6 0.436909 0.774119 0.340003
O O7 0.290434 0.769653 0.313454
O O8 0.468730 0.766675 0.223652
O O9 0.453681 0.500000 0.390917
O O10 0.593939 0.285032 0.354403
O O11 0.431739 0.229384 0.452199
O O12 0.327787 0.788140 0.575098
O O13 0.316617 0.000000 0.659949
O O14 0.870675 0.270403 0.883608
O O15 0.769475 0.000000 0.927424
O O16 0.750000 0.250000 0.000000
O O17 0.979433 0.000000 0.845684
O O18 0.652843 0.500000 0.480442
O O19 0.750000 0.750000 0.500000
#
# Coordination Sequence:
#
# PCOD9187065 Si02
#       7
#     8   8   8   8   8   8   8
#     4  10  19  35  57  84 113 146 184 225 279 336
#     4   9  19  38  58  78 111 154 192 226 275 338
#     4  10  21  38  58  82 113 150 188 230 281 334
#     4  11  22  37  58  86 114 147 190 235 280 330
#     4  11  21  35  57  86 113 145 185 229 281 332
#     4   9  19  36  58  80 111 153 189 224 277 341
#     4  11  21  36  59  86 114 148 188 233 286 334
#
# _framework density 21.037248000000002
#
# number of rings (size 3 to 8) (size 9 to 14) (size 15 to 20)
#    0.000    1.857    2.857    1.714    0.000    4.286 
#    0.000    0.000    0.000    6.000    0.000    0.000 
#    0.000    0.000    0.000    0.000    0.000    0.000 
#
# Total GULP energy -156418.978940 kJ/mol
# GULP energy per Si atom -5586.392105 kJ/mol
# Density = 2.098937 g / cm^3
# Si number density = 21.037248 Si / 1000 Ang^3
#
#
#
# Elastic Constant Matrix: (Units=GPa)
#
#
# Indices 1 2 3 4 5 6 
#
# 1 109.9106 -19.7141 40.9361 0.0000 -27.5859 0.0000
# 2 -19.7141 26.4815 -2.9525 0.0000 1.5277 0.0000
# 3 40.9361 -2.9525 126.0898 0.0000 -33.6217 0.0000
# 4 0.0000 0.0000 0.0000 10.5111 0.0000 -2.9929
# 5 -27.5859 1.5277 -33.6217 0.0000 29.8301 0.0000
# 6 0.0000 0.0000 0.0000 -2.9929 0.0000 29.3263
#
#
#
# Elastic Compliance Matrix: (Units=1/GPa)
#
#
# Indices 1 2 3 4 5 6 
#
# 1 0.014125 0.009723 -0.001441 0.000000 0.010940 0.000000
# 2 0.009723 0.044592 -0.000463 0.000000 0.006186 0.000000
# 3 -0.001441 -0.000463 0.011493 0.000000 0.011645 0.000000
# 4 0.000000 0.000000 0.000000 0.097985 0.000000 0.010000
# 5 0.010940 0.006186 0.011645 0.000000 0.056449 0.000000
# 6 0.000000 0.000000 0.000000 0.010000 0.000000 0.035120
#
#
# Mechanical properties :
#
#
# Convention : Reuss Voigt Hill
#
# Bulk Modulus (GPa) = 11.64837 33.22454 22.43646
# Shear Modulus (GPa) = 18.33246 30.21434 24.27340
#
# Velocity S-wave (km/s) = 2.95520 3.79387 3.40049
# Velocity P-wave (km/s) = 4.14648 5.91767 5.10941
#
# Compressibility (1/GPa) = 0.08584889
#
# Stress axis : x y z
#
# Youngs Moduli (GPa) = 70.79752 22.42541 87.00997
#
# Poissons Ratio (x) = -0.21805 0.12537
# Poissons Ratio (y) = -0.68839 0.04029
# Poissons Ratio (z) = 0.10201 0.01038
#
# Static dielectric constant tensor:
#      x y z
#    x 1.725420 0.000000 -0.013490 
#    y 0.000000 1.799900 0.000000 
#    z -0.013490 0.000000 1.743050 
# 
# From -- ./inp_files/338522.got.cif
#   From: 2010.05.17/outbox.cif.g08.bks.cpg/sg12_170_cif.got.tgz:338522.got - 2010.06.03 13:09:07.
