data_PCOD9187114
_publ_section_title
;
Structure prediction by ZEFSAII (Michael W. Deem and Ramdas Pophale) SiO2 
 PCOD9187114
Probable space group: C 2/M
;
_chemical_formula_sum "Si O2"
_cell_formula_units_Z 36
_cell_length_a 20.546178
_cell_length_b 13.344896
_cell_length_c 19.724709
_cell_angle_alpha 90.000000
_cell_angle_beta 20.678488
_cell_angle_gamma 90.000000
_cell_volume 1909.781095
_symmetry_space_group_name_H-M "C 2/M"
_symmetry_group_IT_number 12
_symmetry_cell_setting 'monoclinic'
loop_
_space_group_symop_operation_xyz
x,y,z
-x,y,-z
-x,-y,-z
x,-y,z
1/2+x,1/2+y,z
1/2-x,1/2+y,-z
1/2-x,1/2-y,-z
1/2+x,1/2-y,z
loop_
_atom_site_type_symbol
_atom_site_label
_atom_site_fract_x
_atom_site_fract_y
_atom_site_fract_z
Si Si1 0.408004 0.000000 0.470332
Si Si2 0.500000 0.675321 0.000000
Si Si3 0.681908 0.665644 0.513706
Si Si4 0.347376 0.213046 0.590408
Si Si5 0.094433 0.000000 0.159399
Si Si6 0.842950 0.000000 0.060917
Si Si7 0.034641 0.500000 0.746775
O O1 0.325553 0.900226 0.583144
O O2 0.404147 0.000000 0.392685
O O3 0.623179 0.000000 0.278145
O O4 0.654509 0.739575 0.812778
O O5 0.408208 0.599647 0.035474
O O6 0.750000 0.750000 0.500000
O O7 0.612238 0.718112 0.513247
O O8 0.519936 0.595933 0.702109
O O9 0.861000 0.596483 0.325180
O O10 0.500000 0.214873 0.500000
O O11 0.092224 0.000000 0.079875
O O12 0.312364 0.000000 0.967183
#
# Coordination Sequence:
#
# PCOD9187114 Si02
#       7
#     4   4   8   8   4   4   4
#     4  11  19  39  61  90 134 158 195 263 324 377
#     4  11  22  32  58  89 126 166 194 247 320 389
#     4  11  23  41  66  93 129 170 213 262 313 378
#     4  12  24  39  60  95 131 163 209 256 322 380
#     4  10  24  42  65  92 127 168 211 267 314 367
#     4  10  19  35  57  92 126 158 198 248 325 383
#     4  10  23  42  63  93 124 169 212 258 314 371
#
# _framework density 18.850327
#
# number of rings (size 3 to 8) (size 9 to 14) (size 15 to 20)
#    0.000    1.111    4.444    3.000    3.111    2.667 
#    0.000    2.222    0.000    4.000    0.000    0.000 
#    0.000    0.000    0.000    0.000    0.000    0.000 
#
# Total GULP energy -100580.260901 kJ/mol
# GULP energy per Si atom -5587.792272 kJ/mol
# Density = 1.880742 g / cm^3
# Si number density = 18.850327 Si / 1000 Ang^3
#
#
#
# Elastic Constant Matrix: (Units=GPa)
#
#
# Indices 1 2 3 4 5 6 
#
# 1 85.0499 33.1830 17.4051 -0.0004 5.0910 0.0003
# 2 33.1830 93.1793 25.8409 -0.0070 5.8790 0.0026
# 3 17.4051 25.8409 99.7160 -0.0068 15.5912 0.0048
# 4 -0.0004 -0.0070 -0.0068 18.7276 0.0023 3.1517
# 5 5.0910 5.8790 15.5912 0.0023 29.3377 -0.0018
# 6 0.0003 0.0026 0.0048 3.1517 -0.0018 5.9893
#
#
#
# Elastic Compliance Matrix: (Units=1/GPa)
#
#
# Indices 1 2 3 4 5 6 
#
# 1 0.013814 -0.004561 -0.001088 -0.000002 -0.000905 0.000003
# 2 -0.004561 0.013086 -0.002518 0.000005 -0.000493 -0.000006
# 3 -0.001088 -0.002518 0.011738 0.000006 -0.005545 -0.000013
# 4 -0.000002 0.000005 0.000006 0.058585 -0.000010 -0.030828
# 5 -0.000905 -0.000493 -0.005545 -0.000010 0.037288 0.000021
# 6 0.000003 -0.000006 -0.000013 -0.030828 0.000021 0.183188
#
#
# Mechanical properties :
#
#
# Convention : Reuss Voigt Hill
#
# Bulk Modulus (GPa) = 44.83404 47.86701 46.35052
# Shear Modulus (GPa) = 14.64274 24.24533 19.44403
#
# Velocity S-wave (km/s) = 2.79012 3.59026 3.21518
# Velocity P-wave (km/s) = 5.84940 6.52954 6.19881
#
# Compressibility (1/GPa) = 0.02230448
#
# Stress axis : x y z
#
# Youngs Moduli (GPa) = 72.39046 76.42043 85.19482
#
# Poissons Ratio (x) = 0.34853 0.09267
# Poissons Ratio (y) = 0.33015 0.21452
# Poissons Ratio (z) = 0.07875 0.19242
#
# Static dielectric constant tensor:
#      x y z
#    x 1.654580 0.000000 -0.008520 
#    y 0.000000 1.636090 0.000000 
#    z -0.008520 0.000000 1.664930 
# 
# From -- ./inp_files/316457.got.cif
#   From: 2010.05.17/outbox.cif.g08.bks.cpg/sg12_159_cif.got.tgz:316457.got - 2010.06.03 13:09:07.
