data_PCOD9187387
_publ_section_title
;
Structure prediction by ZEFSAII (Michael W. Deem and Ramdas Pophale) SiO2 
 PCOD9187387
Probable space group: C 2/M
;
_chemical_formula_sum "Si O2"
_cell_formula_units_Z 28
_cell_length_a 34.343893
_cell_length_b 5.377152
_cell_length_c 9.398265
_cell_angle_alpha 90.000000
_cell_angle_beta 125.761359
_cell_angle_gamma 90.000000
_cell_volume 1408.366356
_symmetry_space_group_name_H-M "C 2/M"
_symmetry_group_IT_number 12
_symmetry_cell_setting 'monoclinic'
loop_
_space_group_symop_operation_xyz
x,y,z
-x,y,-z
-x,-y,-z
x,-y,z
1/2+x,1/2+y,z
1/2-x,1/2+y,-z
1/2-x,1/2-y,-z
1/2+x,1/2-y,z
loop_
_atom_site_type_symbol
_atom_site_label
_atom_site_fract_x
_atom_site_fract_y
_atom_site_fract_z
Si Si1 0.111238 0.000000 0.656495
Si Si2 0.950397 0.500000 0.811668
Si Si3 0.730585 0.000000 0.293441
Si Si4 0.606730 0.500000 0.304301
Si Si5 0.051927 0.500000 0.536272
Si Si6 0.722321 0.500000 0.893512
Si Si7 0.301594 0.500000 0.698915
O O1 0.082367 0.250333 0.637024
O O2 0.113747 0.000000 0.489316
O O3 0.166881 0.000000 0.821012
O O4 0.921867 0.748916 0.790858
O O5 0.955947 0.500000 0.651864
O O6 0.000000 0.500000 0.000000
O O7 0.772309 0.000000 0.266445
O O8 0.700060 0.750394 0.214289
O O9 0.752971 0.000000 0.499666
O O10 0.655000 0.500000 0.317258
O O11 0.000000 0.500000 0.500000
O O12 0.750000 0.750000 0.000000
#
# Coordination Sequence:
#
# PCOD9187387 Si02
#       7
#     4   4   4   4   4   4   4
#     4  10  21  39  60  85 112 155 208 234 286 361
#     4  10  21  36  57  86 116 145 186 240 302 351
#     4  10  21  35  55  84 115 145 189 237 288 321
#     4  10  19  36  60  82 111 150 192 233 282 356
#     4  10  21  39  64  86 113 152 200 249 296 359
#     4  12  24  40  59  84 125 165 201 244 290 354
#     4  10  19  35  59  83 110 144 191 243 271 336
#
# _framework density 19.881191000000001
#
# number of rings (size 3 to 8) (size 9 to 14) (size 15 to 20)
#    0.000    1.714    1.429    3.429    0.000    0.000 
#    0.000    8.571    0.000    0.000    0.000    0.000 
#    0.000    0.000    0.000    0.000    0.000    0.000 
#
# Total GULP energy -78146.406340 kJ/mol
# GULP energy per Si atom -5581.886167 kJ/mol
# Density = 1.983594 g / cm^3
# Si number density = 19.881191 Si / 1000 Ang^3
#
#
#
# Elastic Constant Matrix: (Units=GPa)
#
#
# Indices 1 2 3 4 5 6 
#
# 1 141.9479 88.9478 8.6727 0.0000 25.6244 0.0000
# 2 88.9478 237.6371 44.1486 0.0000 32.3532 0.0000
# 3 8.6727 44.1486 49.2833 0.0000 24.6325 0.0000
# 4 0.0000 0.0000 0.0000 20.2330 0.0000 -2.8979
# 5 25.6244 32.3532 24.6325 0.0000 34.4023 0.0000
# 6 0.0000 0.0000 0.0000 -2.8979 0.0000 34.3609
#
#
#
# Elastic Compliance Matrix: (Units=1/GPa)
#
#
# Indices 1 2 3 4 5 6 
#
# 1 0.010680 -0.003938 0.005876 0.000000 -0.008459 0.000000
# 2 -0.003938 0.006625 -0.005597 0.000000 0.000710 0.000000
# 3 0.005876 -0.005597 0.037107 0.000000 -0.025682 0.000000
# 4 0.000000 0.000000 0.000000 0.050029 0.000000 0.004219
# 5 -0.008459 0.000710 -0.025682 0.000000 0.053090 0.000000
# 6 0.000000 0.000000 0.000000 0.004219 0.000000 0.029459
#
#
# Mechanical properties :
#
#
# Convention : Reuss Voigt Hill
#
# Bulk Modulus (GPa) = 21.23335 79.15627 50.19481
# Shear Modulus (GPa) = 23.80899 36.93918 30.37409
#
# Velocity S-wave (km/s) = 3.46434 4.31512 3.91292
# Velocity P-wave (km/s) = 5.16773 8.04538 6.76142
#
# Compressibility (1/GPa) = 0.04709573
#
# Stress axis : x y z
#
# Youngs Moduli (GPa) = 93.63024 150.94184 26.94928
#
# Poissons Ratio (x) = 0.59435 -0.15835
# Poissons Ratio (y) = 0.36868 0.15082
# Poissons Ratio (z) = -0.55017 0.84476
#
# Static dielectric constant tensor:
#      x y z
#    x 1.662880 0.000000 -0.015710 
#    y 0.000000 1.709640 0.000000 
#    z -0.015710 0.000000 1.701180 
# 
# From -- ./inp_files/107153.got.cif
#   From: 2010.05.17/outbox.cif.g08.bks.cpg/sg12_54_cif.got.tgz:107153.got - 2010.06.03 13:09:07.
