data_PCOD9187032
_publ_section_title
;
Structure prediction by ZEFSAII (Michael W. Deem and Ramdas Pophale) SiO2 
 PCOD9187032
Probable space group: C 2/M
;
_chemical_formula_sum "Si O2"
_cell_formula_units_Z 56
_cell_length_a 21.062793
_cell_length_b 7.642194
_cell_length_c 18.124973
_cell_angle_alpha 90.000000
_cell_angle_beta 61.735000
_cell_angle_gamma 90.000000
_cell_volume 2569.640204
_symmetry_space_group_name_H-M "C 2/M"
_symmetry_group_IT_number 12
_symmetry_cell_setting 'monoclinic'
loop_
_space_group_symop_operation_xyz
x,y,z
-x,y,-z
-x,-y,-z
x,-y,z
1/2+x,1/2+y,z
1/2-x,1/2+y,-z
1/2-x,1/2-y,-z
1/2+x,1/2-y,z
loop_
_atom_site_type_symbol
_atom_site_label
_atom_site_fract_x
_atom_site_fract_y
_atom_site_fract_z
Si Si1 0.817831 0.788077 0.657820
Si Si2 0.170467 0.209736 0.514454
Si Si3 0.564355 0.714734 0.702112
Si Si4 0.407640 0.295999 0.744502
Si Si5 0.154080 0.208038 0.794110
Si Si6 0.830949 0.290938 0.931814
Si Si7 0.076456 0.704228 0.983789
O O1 0.835490 0.723611 0.565847
O O2 0.873001 0.720709 0.689367
O O3 0.736044 0.743838 0.725348
O O4 0.821709 0.000000 0.654851
O O5 0.250000 0.250000 0.500000
O O6 0.113119 0.272452 0.606181
O O7 0.162409 0.000000 0.515819
O O8 0.565391 0.500000 0.704009
O O9 0.483057 0.776549 0.733249
O O10 0.600901 0.772797 0.758411
O O11 0.422112 0.500000 0.720908
O O12 0.350191 0.283071 0.841594
O O13 0.131402 0.284677 0.885184
O O14 0.145274 0.000000 0.805370
O O15 0.838123 0.500000 0.923544
O O16 0.750000 0.250000 0.000000
O O17 0.886391 0.221122 0.963416
O O18 0.062889 0.500000 0.007732
O O19 0.000000 0.782405 0.000000
#
# Coordination Sequence:
#
# PCOD9187032 Si02
#       7
#     8   8   8   8   8   8   8
#     4  10  21  35  56  83 110 145 185 225 270 325
#     4  10  19  35  57  83 113 145 184 226 272 325
#     4   9  19  35  56  82 113 146 182 228 276 323
#     4  10  21  38  57  81 113 146 184 229 277 327
#     4  11  21  34  56  83 110 143 183 228 276 326
#     4  11  23  39  59  82 110 147 187 227 276 331
#     4  10  22  39  57  79 109 143 183 230 276 327
#
# _framework density 21.792936000000001
#
# number of rings (size 3 to 8) (size 9 to 14) (size 15 to 20)
#    0.000    1.857    1.429    2.571    0.000    6.000 
#    0.000    4.286    0.000    0.000    0.000    3.000 
#    0.000    0.000    0.000    0.000    0.000    0.000 
#
# Total GULP energy -156505.541857 kJ/mol
# GULP energy per Si atom -5589.483638 kJ/mol
# Density = 2.174333 g / cm^3
# Si number density = 21.792936 Si / 1000 Ang^3
#
#
#
# Elastic Constant Matrix: (Units=GPa)
#
#
# Indices 1 2 3 4 5 6 
#
# 1 91.0100 2.0744 -0.2276 0.0001 23.9108 0.0001
# 2 2.0744 43.8590 -16.6622 0.0000 6.1150 0.0009
# 3 -0.2276 -16.6622 71.8351 0.0001 22.9729 -0.0001
# 4 0.0001 0.0000 0.0001 3.5994 0.0000 -5.1778
# 5 23.9108 6.1150 22.9729 0.0000 46.4809 0.0001
# 6 0.0001 0.0009 -0.0001 -5.1778 0.0001 17.7490
#
#
#
# Elastic Compliance Matrix: (Units=1/GPa)
#
#
# Indices 1 2 3 4 5 6 
#
# 1 0.013222 0.001801 0.003219 -0.000001 -0.008630 0.000000
# 2 0.001801 0.027532 0.009319 -0.000004 -0.009155 -0.000002
# 3 0.003219 0.009319 0.020209 -0.000002 -0.012870 -0.000001
# 4 -0.000001 -0.000004 -0.000002 0.478716 0.000002 0.139652
# 5 -0.008630 -0.009155 -0.012870 0.000002 0.033519 0.000001
# 6 0.000000 -0.000002 -0.000001 0.139652 0.000001 0.097081
#
#
# Mechanical properties :
#
#
# Convention : Reuss Voigt Hill
#
# Bulk Modulus (GPa) = 11.15544 19.67481 15.41512
# Shear Modulus (GPa) = 7.44624 28.33383 17.89003
#
# Velocity S-wave (km/s) = 1.85047 3.60965 2.86826
# Velocity P-wave (km/s) = 3.11377 5.14009 4.24947
#
# Compressibility (1/GPa) = 0.08964238
#
# Stress axis : x y z
#
# Youngs Moduli (GPa) = 75.63093 36.32132 49.48409
#
# Poissons Ratio (x) = -0.06541 -0.15931
# Poissons Ratio (y) = -0.13621 -0.46116
# Poissons Ratio (z) = -0.24349 -0.33850
#
# Static dielectric constant tensor:
#      x y z
#    x 1.784910 0.000000 0.025390 
#    y 0.000000 1.828060 0.000000 
#    z 0.025390 0.000000 1.740020 
# 
# From -- ./inp_files/275256.got.cif
#   From: 2010.05.17/outbox.cif.g08.bks.cpg/sg12_138_cif.got.tgz:275256.got - 2010.06.03 13:09:07.
