data_PCOD9187802
_publ_section_title
;
Structure prediction by ZEFSAII (Michael W. Deem and Ramdas Pophale) SiO2 
 PCOD9187802
Probable space group: C 2/M
;
_chemical_formula_sum "Si O2"
_cell_formula_units_Z 56
_cell_length_a 27.454674
_cell_length_b 8.725300
_cell_length_c 12.958550
_cell_angle_alpha 90.000000
_cell_angle_beta 112.392203
_cell_angle_gamma 90.000000
_cell_volume 2870.159041
_symmetry_space_group_name_H-M "C 2/M"
_symmetry_group_IT_number 12
_symmetry_cell_setting 'monoclinic'
loop_
_space_group_symop_operation_xyz
x,y,z
-x,y,-z
-x,-y,-z
x,-y,z
1/2+x,1/2+y,z
1/2-x,1/2+y,-z
1/2-x,1/2-y,-z
1/2+x,1/2-y,z
loop_
_atom_site_type_symbol
_atom_site_label
_atom_site_fract_x
_atom_site_fract_y
_atom_site_fract_z
Si Si1 0.154755 0.817019 0.665823
Si Si2 0.614148 0.686744 0.221991
Si Si3 0.997233 0.184267 0.191329
Si Si4 0.386090 0.315799 0.008903
Si Si5 0.458464 0.819471 0.374713
Si Si6 0.698471 0.817993 0.904430
Si Si7 0.191805 0.814557 0.467728
O O1 0.095302 0.767949 0.643484
O O2 0.191384 0.742964 0.782706
O O3 0.169652 0.768587 0.561933
O O4 0.159237 0.000000 0.676284
O O5 0.614090 0.500000 0.221529
O O6 0.554203 0.735048 0.197176
O O7 0.629881 0.733794 0.119108
O O8 0.653427 0.736952 0.344030
O O9 0.983323 0.259045 0.289100
O O10 0.999363 0.000000 0.206147
O O11 0.948015 0.215833 0.076449
O O12 0.378782 0.500000 0.012335
O O13 0.351692 0.236545 0.069035
O O14 0.500000 0.796507 0.500000
O O15 0.446752 0.000000 0.356192
O O16 0.701318 0.000000 0.905765
O O17 0.750000 0.750000 0.000000
O O18 0.250000 0.750000 0.500000
O O19 0.193388 0.000000 0.466510
#
# Coordination Sequence:
#
# PCOD9187802 Si02
#       7
#     8   8   8   8   8   8   8
#     4  11  23  42  65  92 124 161 210 257 307 370
#     4   9  19  37  61  91 123 161 204 248 303 367
#     4  10  19  35  61  90 122 159 201 249 305 370
#     4  10  20  37  63  95 126 158 201 249 307 375
#     4  11  23  37  57  88 126 166 207 254 310 365
#     4  12  26  43  65  92 126 163 207 258 313 370
#     4  10  23  41  62  88 121 160 207 255 303 364
#
# _framework density 19.511113999999999
#
# number of rings (size 3 to 8) (size 9 to 14) (size 15 to 20)
#    0.000    1.571    1.429    3.429    2.000    5.143 
#    0.000    1.429    0.000    1.714    0.000    0.000 
#    0.000    0.000    0.000    0.000    0.000    0.000 
#
# Total GULP energy -156521.565815 kJ/mol
# GULP energy per Si atom -5590.055922 kJ/mol
# Density = 1.946671 g / cm^3
# Si number density = 19.511114 Si / 1000 Ang^3
#
#
#
# Elastic Constant Matrix: (Units=GPa)
#
#
# Indices 1 2 3 4 5 6 
#
# 1 44.3468 17.2599 25.1301 0.0000 4.6208 0.0000
# 2 17.2599 40.4006 45.4114 0.0000 7.9168 0.0000
# 3 25.1301 45.4114 153.2192 0.0000 -6.0038 0.0000
# 4 0.0000 0.0000 0.0000 23.1243 0.0000 7.4774
# 5 4.6208 7.9168 -6.0038 0.0000 33.9260 0.0000
# 6 0.0000 0.0000 0.0000 7.4774 0.0000 23.3678
#
#
#
# Elastic Compliance Matrix: (Units=1/GPa)
#
#
# Indices 1 2 3 4 5 6 
#
# 1 0.027390 -0.009298 -0.001810 0.000000 -0.001881 0.000000
# 2 -0.009298 0.044563 -0.012124 0.000000 -0.011278 0.000000
# 3 -0.001810 -0.012124 0.010611 0.000000 0.004954 0.000000
# 4 0.000000 0.000000 0.000000 0.048235 0.000000 -0.015435
# 5 -0.001881 -0.011278 0.004954 0.000000 0.033241 0.000000
# 6 0.000000 0.000000 0.000000 -0.015435 0.000000 0.047733
#
#
# Mechanical properties :
#
#
# Convention : Reuss Voigt Hill
#
# Bulk Modulus (GPa) = 27.70223 45.95216 36.82719
# Shear Modulus (GPa) = 18.49990 26.09464 22.29727
#
# Velocity S-wave (km/s) = 3.08258 3.66105 3.38420
# Velocity P-wave (km/s) = 5.18640 6.44003 5.84691
#
# Compressibility (1/GPa) = 0.03609818
#
# Stress axis : x y z
#
# Youngs Moduli (GPa) = 36.50927 22.44027 94.24097
#
# Poissons Ratio (x) = 0.20865 0.17060
# Poissons Ratio (y) = 0.33947 1.14262
# Poissons Ratio (z) = 0.06609 0.27208
#
# Static dielectric constant tensor:
#      x y z
#    x 1.652520 0.000000 0.006610 
#    y 0.000000 1.660730 0.000000 
#    z 0.006610 0.000000 1.679550 
# 
# From -- ./inp_files/181144.got.cif
#   From: 2010.05.17/outbox.cif.g08.bks.cpg/sg12_91_cif.got.tgz:181144.got - 2010.06.03 13:09:07.
