data_PCOD9187349
_publ_section_title
;
Structure prediction by ZEFSAII (Michael W. Deem and Ramdas Pophale) SiO2 
 PCOD9187349
Probable space group: C 2/M
;
_chemical_formula_sum "Si O2"
_cell_formula_units_Z 52
_cell_length_a 16.839067
_cell_length_b 7.783339
_cell_length_c 22.401406
_cell_angle_alpha 90.000000
_cell_angle_beta 48.513136
_cell_angle_gamma 90.000000
_cell_volume 2199.396157
_symmetry_space_group_name_H-M "C 2/M"
_symmetry_group_IT_number 12
_symmetry_cell_setting 'monoclinic'
loop_
_space_group_symop_operation_xyz
x,y,z
-x,y,-z
-x,-y,-z
x,-y,z
1/2+x,1/2+y,z
1/2-x,1/2+y,-z
1/2-x,1/2-y,-z
1/2+x,1/2-y,z
loop_
_atom_site_type_symbol
_atom_site_label
_atom_site_fract_x
_atom_site_fract_y
_atom_site_fract_z
Si Si1 0.109160 0.198810 0.836229
Si Si2 0.386284 0.700476 0.543164
Si Si3 0.836734 0.706973 0.313385
Si Si4 0.340606 0.207600 0.767545
Si Si5 0.000000 0.262119 0.000000
Si Si6 0.262406 0.302693 0.063118
Si Si7 0.436988 0.793128 0.390383
O O1 0.091942 0.221606 0.775181
O O2 0.232580 0.235807 0.785385
O O3 0.044439 0.316624 0.913511
O O4 0.085937 0.000000 0.865931
O O5 0.500000 0.782250 0.500000
O O6 0.390391 0.500000 0.558742
O O7 0.283677 0.775450 0.626181
O O8 0.378678 0.711407 0.475579
O O9 0.835663 0.500000 0.307388
O O10 0.881206 0.746228 0.356000
O O11 0.314875 0.277083 0.847282
O O12 0.442410 0.269726 0.680462
O O13 0.355099 0.000000 0.765061
O O14 0.117689 0.203894 0.968488
O O15 0.232494 0.500000 0.076797
O O16 0.250000 0.250000 0.000000
O O17 0.436045 0.000000 0.399587
#
# Coordination Sequence:
#
# PCOD9187349 Si02
#       7
#     8   8   8   8   4   8   8
#     4  10  19  35  59  80 103 143 190 226 268 331
#     4  10  21  37  55  77 108 143 176 219 274 324
#     4  10  22  36  52  79 113 142 172 223 282 326
#     4   8  17  34  53  75 104 140 177 220 273 325
#     4  10  21  40  61  84 119 158 195 244 297 346
#     4  10  20  36  58  82 113 151 192 237 289 345
#     4  10  20  35  55  78 107 141 179 222 268 324
#
# _framework density 23.642852999999999
#
# number of rings (size 3 to 8) (size 9 to 14) (size 15 to 20)
#    0.000    2.308    0.000    3.692    2.154    1.538 
#    0.000    4.615    0.000    0.000    0.000    0.000 
#    0.000    0.000    0.000    0.000    0.000    0.000 
#
# Total GULP energy -144807.990051 kJ/mol
# GULP energy per Si atom -5569.538079 kJ/mol
# Density = 2.358904 g / cm^3
# Si number density = 23.642853 Si / 1000 Ang^3
#
#
#
# Elastic Constant Matrix: (Units=GPa)
#
#
# Indices 1 2 3 4 5 6 
#
# 1 38.9718 9.5577 14.4388 0.0002 14.8633 0.0002
# 2 9.5577 27.5939 0.3894 0.0004 -0.6081 0.0006
# 3 14.4388 0.3894 146.5528 0.0000 14.6235 0.0000
# 4 0.0002 0.0004 0.0000 111.0979 0.0000 40.0269
# 5 14.8633 -0.6081 14.6235 0.0000 47.4887 0.0000
# 6 0.0002 0.0006 0.0000 40.0269 0.0000 8.1203
#
#
#
# Elastic Compliance Matrix: (Units=1/GPa)
#
#
# Indices 1 2 3 4 5 6 
#
# 1 0.033092 -0.011647 -0.002250 0.000000 -0.009814 0.000000
# 2 -0.011647 0.040352 0.000645 -0.000001 0.003963 0.000003
# 3 -0.002250 0.000645 0.007193 0.000000 -0.001503 0.000000
# 4 0.000000 -0.000001 0.000000 -0.011600 0.000000 0.057181
# 5 -0.009814 0.003963 -0.001503 0.000000 0.024643 0.000000
# 6 0.000000 0.000003 0.000000 0.057181 0.000000 -0.158711
#
#
# Mechanical properties :
#
#
# Convention : Reuss Voigt Hill
#
# Bulk Modulus (GPa) = 18.47279 29.09893 23.78586
# Shear Modulus (GPa) = -244.11931 45.92355 -99.09788
#
# Velocity S-wave (km/s) = -10.17237 4.41203 -6.48117
# Velocity P-wave (km/s) = 11.40786 6.18782 6.77680
#
# Compressibility (1/GPa) = 0.05413368
#
# Stress axis : x y z
#
# Youngs Moduli (GPa) = 30.21841 24.78182 139.01649
#
# Poissons Ratio (x) = 0.28863 0.31281
# Poissons Ratio (y) = 0.35195 -0.08963
# Poissons Ratio (z) = 0.06800 -0.01598
#
# Static dielectric constant tensor:
#      x y z
#    x 1.949310 0.000000 0.014540 
#    y 0.000000 1.848170 0.000000 
#    z 0.014540 0.000000 1.900590 
# 
# From -- ./inp_files/314656.got.cif
#   From: 2010.05.17/outbox.cif.g08.bks.cpg/sg12_158_cif.got.tgz:314656.got - 2010.06.03 13:09:07.
