data_PCOD9187494
_publ_section_title
;
Structure prediction by ZEFSAII (Michael W. Deem and Ramdas Pophale) SiO2 
 PCOD9187494
Probable space group: C 2/M
;
_chemical_formula_sum "Si O2"
_cell_formula_units_Z 56
_cell_length_a 11.231591
_cell_length_b 15.926916
_cell_length_c 15.725590
_cell_angle_alpha 90.000000
_cell_angle_beta 105.281275
_cell_angle_gamma 90.000000
_cell_volume 2713.606103
_symmetry_space_group_name_H-M "C 2/M"
_symmetry_group_IT_number 12
_symmetry_cell_setting 'monoclinic'
loop_
_space_group_symop_operation_xyz
x,y,z
-x,y,-z
-x,-y,-z
x,-y,z
1/2+x,1/2+y,z
1/2-x,1/2+y,-z
1/2-x,1/2-y,-z
1/2+x,1/2-y,z
loop_
_atom_site_type_symbol
_atom_site_label
_atom_site_fract_x
_atom_site_fract_y
_atom_site_fract_z
Si Si1 0.513521 0.221486 0.597137
Si Si2 0.264887 0.349176 0.711798
Si Si3 0.816966 0.095553 0.199476
Si Si4 0.909333 0.690747 0.758479
Si Si5 0.042989 0.091273 0.373191
Si Si6 0.353017 0.903832 0.140071
Si Si7 0.125785 0.897326 0.977778
O O1 0.500000 0.184570 0.500000
O O2 0.654168 0.207530 0.653525
O O3 0.434366 0.183079 0.661020
O O4 0.475312 0.319501 0.584681
O O5 0.372667 0.287361 0.764459
O O6 0.325992 0.402966 0.649446
O O7 0.212055 0.400966 0.779951
O O8 0.707323 0.141167 0.227555
O O9 0.854377 0.132309 0.115048
O O10 0.936076 0.093223 0.281811
O O11 0.775899 0.000000 0.176480
O O12 0.030105 0.657052 0.829044
O O13 0.033991 0.000000 0.414604
O O14 0.391093 0.000000 0.128386
O O15 0.248420 0.876465 0.054096
O O16 0.117502 0.000000 0.974455
O O17 0.000000 0.867905 0.000000
#
# Coordination Sequence:
#
# PCOD9187494 Si02
#       7
#     8   8   8   8   8   8   8
#     4  10  22  40  64  83 112 154 197 237 293 362
#     4  10  20  38  60  83 118 155 193 232 296 358
#     4  10  19  35  59  86 120 157 194 240 292 343
#     4  10  21  36  58  85 118 151 191 237 298 352
#     4  10  20  35  60  87 113 150 196 243 288 342
#     4  10  20  36  60  85 114 155 203 242 278 339
#     4   9  18  33  57  89 118 154 203 244 281 336
#
# _framework density 20.636747
#
# number of rings (size 3 to 8) (size 9 to 14) (size 15 to 20)
#    0.000    2.143    1.429    1.714    0.000    5.429 
#    0.000    2.857    6.286   14.571    0.000    0.000 
#    0.000    0.000    0.000    0.000    0.000    0.000 
#
# Total GULP energy -156169.733902 kJ/mol
# GULP energy per Si atom -5577.490497 kJ/mol
# Density = 2.058978 g / cm^3
# Si number density = 20.636747 Si / 1000 Ang^3
#
#
#
# Elastic Constant Matrix: (Units=GPa)
#
#
# Indices 1 2 3 4 5 6 
#
# 1 135.4287 33.2727 35.4675 0.0000 -18.6932 0.0000
# 2 33.2727 50.3496 -17.0016 0.0000 -11.4992 0.0000
# 3 35.4675 -17.0016 8.4196 0.0000 -39.9444 0.0000
# 4 0.0000 0.0000 0.0000 1.2856 0.0000 8.6364
# 5 -18.6932 -11.4992 -39.9444 0.0000 16.0834 0.0000
# 6 0.0000 0.0000 0.0000 8.6364 0.0000 18.9553
#
#
#
# Elastic Compliance Matrix: (Units=1/GPa)
#
#
# Indices 1 2 3 4 5 6 
#
# 1 0.009515 -0.003720 0.000718 0.000000 0.010184 0.000000
# 2 -0.003720 0.016841 -0.008002 0.000000 -0.012157 0.000000
# 3 0.000718 -0.008002 -0.007086 0.000000 -0.022485 0.000000
# 4 0.000000 0.000000 0.000000 -0.377455 0.000000 0.171975
# 5 0.010184 -0.012157 -0.022485 0.000000 0.009477 0.000000
# 6 0.000000 0.000000 0.000000 0.171975 0.000000 -0.025599
#
#
# Mechanical properties :
#
#
# Convention : Reuss Voigt Hill
#
# Bulk Modulus (GPa) = -365.26021 33.07500 -166.09261
# Shear Modulus (GPa) = -14.15586 16.76214 1.30314
#
# Velocity S-wave (km/s) = -2.62191 2.85309 0.79551
# Velocity P-wave (km/s) = 13.65816 5.18802 8.93392
#
# Compressibility (1/GPa) = -0.00273777
#
# Stress axis : x y z
#
# Youngs Moduli (GPa) = 105.09285 59.38062 -141.12962
#
# Poissons Ratio (x) = 0.22088 0.10136
# Poissons Ratio (y) = 0.39092 -1.12938
# Poissons Ratio (z) = -0.07548 0.47519
#
# Static dielectric constant tensor:
#      x y z
#    x 1.727160 0.000000 -0.018450 
#    y 0.000000 1.740670 0.000000 
#    z -0.018450 0.000000 1.726020 
# 
# From -- ./inp_files/206780.got.cif
#   From: 2010.05.17/outbox.cif.g08.bks.cpg/sg12_104_cif.got.tgz:206780.got - 2010.06.03 13:09:07.
