data_PCOD9187242
_publ_section_title
;
Structure prediction by ZEFSAII (Michael W. Deem and Ramdas Pophale) SiO2 
 PCOD9187242
Probable space group: C 2/M
;
_chemical_formula_sum "Si O2"
_cell_formula_units_Z 56
_cell_length_a 18.917064
_cell_length_b 19.977053
_cell_length_c 8.376238
_cell_angle_alpha 90.000000
_cell_angle_beta 50.346092
_cell_angle_gamma 90.000000
_cell_volume 2437.114373
_symmetry_space_group_name_H-M "C 2/M"
_symmetry_group_IT_number 12
_symmetry_cell_setting 'monoclinic'
loop_
_space_group_symop_operation_xyz
x,y,z
-x,y,-z
-x,-y,-z
x,-y,z
1/2+x,1/2+y,z
1/2-x,1/2+y,-z
1/2-x,1/2-y,-z
1/2+x,1/2-y,z
loop_
_atom_site_type_symbol
_atom_site_label
_atom_site_fract_x
_atom_site_fract_y
_atom_site_fract_z
Si Si1 0.635700 0.192179 0.927795
Si Si2 0.102705 0.571984 0.421060
Si Si3 0.151026 0.833509 0.993980
Si Si4 0.427219 0.801546 0.340137
Si Si5 0.393771 0.575574 0.219148
Si Si6 0.258291 0.077263 0.075744
Si Si7 0.454108 0.337921 0.402157
O O1 0.685622 0.257620 0.929795
O O2 0.614005 0.209319 0.775695
O O3 0.536451 0.183505 0.158044
O O4 0.693324 0.124239 0.863130
O O5 0.113183 0.500000 0.488964
O O6 0.116598 0.634643 0.513762
O O7 0.169092 0.573474 0.174279
O O8 0.000000 0.576080 0.500000
O O9 0.163500 0.878043 0.818208
O O10 0.180666 0.876955 0.103917
O O11 0.041242 0.824476 0.161795
O O12 0.410842 0.735720 0.471611
O O13 0.359170 0.500000 0.268479
O O14 0.395714 0.607504 0.392515
O O15 0.500000 0.572352 0.000000
O O16 0.233991 0.000000 0.152178
O O17 0.500000 0.359597 0.500000
#
# Coordination Sequence:
#
# PCOD9187242 Si02
#       7
#     8   8   8   8   8   8   8
#     4  10  20  35  58  85 112 148 192 236 283 342
#     4  10  20  36  56  81 112 151 194 233 280 338
#     4  10  20  38  57  84 117 152 191 232 282 347
#     4  10  19  35  58  84 115 145 188 243 286 331
#     4   9  17  33  56  80 110 150 192 230 273 335
#     4  11  23  38  58  84 115 154 194 237 289 337
#     4  10  20  34  59  89 116 148 189 235 286 336
#
# _framework density 22.977993000000001
#
# number of rings (size 3 to 8) (size 9 to 14) (size 15 to 20)
#    0.000    2.000    2.857    1.286    2.000    1.429 
#    0.000    3.571    0.000    0.000    0.000    0.000 
#    0.000    0.000    0.000    0.000    0.000    0.000 
#
# Total GULP energy -156385.291812 kJ/mol
# GULP energy per Si atom -5585.188993 kJ/mol
# Density = 2.292569 g / cm^3
# Si number density = 22.977993 Si / 1000 Ang^3
#
#
#
# Elastic Constant Matrix: (Units=GPa)
#
#
# Indices 1 2 3 4 5 6 
#
# 1 77.6935 38.8689 5.6343 0.0000 9.6310 0.0000
# 2 38.8689 148.1800 6.0544 0.0000 -3.2932 0.0000
# 3 5.6343 6.0544 30.8337 0.0000 -5.8452 0.0000
# 4 0.0000 0.0000 0.0000 33.2819 0.0000 -3.7029
# 5 9.6310 -3.2932 -5.8452 0.0000 31.4711 0.0000
# 6 0.0000 0.0000 0.0000 -3.7029 0.0000 63.4468
#
#
#
# Elastic Compliance Matrix: (Units=1/GPa)
#
#
# Indices 1 2 3 4 5 6 
#
# 1 0.015926 -0.004178 -0.003210 0.000000 -0.005907 0.000000
# 2 -0.004178 0.007906 -0.000404 0.000000 0.002031 0.000000
# 3 -0.003210 -0.000404 0.034491 0.000000 0.007346 0.000000
# 4 0.000000 0.000000 0.000000 0.030243 0.000000 0.001765
# 5 -0.005907 0.002031 0.007346 0.000000 0.035160 0.000000
# 6 0.000000 0.000000 0.000000 0.001765 0.000000 0.015864
#
#
# Mechanical properties :
#
#
# Convention : Reuss Voigt Hill
#
# Bulk Modulus (GPa) = 23.39739 39.75804 31.57772
# Shear Modulus (GPa) = 29.51263 39.38328 34.44796
#
# Velocity S-wave (km/s) = 3.58772 4.14449 3.87611
# Velocity P-wave (km/s) = 5.23134 6.34370 5.81419
#
# Compressibility (1/GPa) = 0.04273980
#
# Stress axis : x y z
#
# Youngs Moduli (GPa) = 62.78982 126.48556 28.99349
#
# Poissons Ratio (x) = 0.52842 0.09306
# Poissons Ratio (y) = 0.26232 0.01171
# Poissons Ratio (z) = 0.20154 0.05110
#
# Static dielectric constant tensor:
#      x y z
#    x 1.846020 0.000000 -0.045480 
#    y 0.000000 1.878380 0.000000 
#    z -0.045480 0.000000 1.879260 
# 
# From -- ./inp_files/77395.got.cif
#   From: 2010.05.17/outbox.cif.g08.bks.cpg/sg12_39_cif.got.tgz:77395.got - 2010.06.03 13:09:07.
