data_PCOD9187625
_publ_section_title
;
Structure prediction by ZEFSAII (Michael W. Deem and Ramdas Pophale) SiO2 
 PCOD9187625
Probable space group: C 2/M
;
_chemical_formula_sum "Si O2"
_cell_formula_units_Z 64
_cell_length_a 17.389421
_cell_length_b 16.801356
_cell_length_c 14.725085
_cell_angle_alpha 90.000000
_cell_angle_beta 126.791109
_cell_angle_gamma 90.000000
_cell_volume 3445.279960
_symmetry_space_group_name_H-M "C 2/M"
_symmetry_group_IT_number 12
_symmetry_cell_setting 'monoclinic'
loop_
_space_group_symop_operation_xyz
x,y,z
-x,y,-z
-x,-y,-z
x,-y,z
1/2+x,1/2+y,z
1/2-x,1/2+y,-z
1/2-x,1/2-y,-z
1/2+x,1/2-y,z
loop_
_atom_site_type_symbol
_atom_site_label
_atom_site_fract_x
_atom_site_fract_y
_atom_site_fract_z
Si Si1 0.678217 0.405392 0.850440
Si Si2 0.107600 0.345706 0.670338
Si Si3 0.958791 0.094764 0.736011
Si Si4 0.283713 0.404808 0.477088
Si Si5 0.231897 0.194158 0.717738
Si Si6 0.728629 0.405030 0.089009
Si Si7 0.090305 0.195009 0.121000
Si Si8 0.401935 0.907768 0.532687
O O1 0.691589 0.500000 0.851870
O O2 0.564036 0.389446 0.770256
O O3 0.727548 0.361904 0.802248
O O4 0.717451 0.379953 0.976621
O O5 0.148131 0.259497 0.672890
O O6 0.170286 0.379163 0.797000
O O7 0.125705 0.398256 0.592638
O O8 0.995106 0.352859 0.611929
O O9 0.875427 0.113368 0.604949
O O10 0.944377 0.144343 0.817303
O O11 0.953099 0.000000 0.752651
O O12 0.285125 0.500000 0.459123
O O13 0.283245 0.354835 0.384791
O O14 0.187954 0.387566 0.467868
O O15 0.333210 0.240216 0.790676
O O16 0.716789 0.500000 0.085242
O O17 0.648772 0.362717 0.094279
O O18 0.000000 0.227335 0.000000
O O19 0.428985 0.000000 0.568158
#
# Coordination Sequence:
#
# PCOD9187625 Si02
#       8
#     8   8   8   8   8   8   8   8
#     4  10  22  40  61  82 112 155 199 242 280 339
#     4  10  21  34  58  89 119 151 184 240 300 345
#     4  10  21  38  63  92 114 146 195 242 292 345
#     4  10  22  41  63  84 116 158 198 243 283 336
#     4  11  25  40  56  83 122 156 198 234 286 348
#     4  10  19  35  60  86 114 150 192 238 292 348
#     4  11  22  37  58  90 121 152 183 237 305 352
#     4  10  20  38  60  87 119 152 195 237 283 344
#
# _framework density 18.576139999999999
#
# number of rings (size 3 to 8) (size 9 to 14) (size 15 to 20)
#    0.000    1.750    1.250    3.750    0.000    9.000 
#    2.250    1.875    0.000    0.750    0.000    0.000 
#    0.000    0.000    0.000    0.000    0.000    0.000 
#
# Total GULP energy -178780.210102 kJ/mol
# GULP energy per Si atom -5586.881566 kJ/mol
# Density = 1.853386 g / cm^3
# Si number density = 18.576140 Si / 1000 Ang^3
#
#
#
# Elastic Constant Matrix: (Units=GPa)
#
#
# Indices 1 2 3 4 5 6 
#
# 1 42.5436 23.3671 36.2792 0.0000 2.7917 0.0000
# 2 23.3671 37.0347 38.2816 0.0000 1.5282 0.0000
# 3 36.2792 38.2816 117.4460 0.0000 13.1432 0.0000
# 4 0.0000 0.0000 0.0000 -2.0209 0.0000 3.9475
# 5 2.7917 1.5282 13.1432 0.0000 25.6250 0.0000
# 6 0.0000 0.0000 0.0000 3.9475 0.0000 21.5358
#
#
#
# Elastic Compliance Matrix: (Units=1/GPa)
#
#
# Indices 1 2 3 4 5 6 
#
# 1 0.038592 -0.018143 -0.006002 0.000000 -0.000044 0.000000
# 2 -0.018143 0.049780 -0.011150 0.000000 0.004727 0.000000
# 3 -0.006002 -0.011150 0.014699 0.000000 -0.006220 0.000000
# 4 0.000000 0.000000 0.000000 -0.364373 0.000000 0.066790
# 5 -0.000044 0.004727 -0.006220 0.000000 0.041938 0.000000
# 6 0.000000 0.000000 0.000000 0.066790 0.000000 0.034192
#
#
# Mechanical properties :
#
#
# Convention : Reuss Voigt Hill
#
# Bulk Modulus (GPa) = 30.78903 43.65334 37.22119
# Shear Modulus (GPa) = -48.19085 15.63441 -16.27822
#
# Velocity S-wave (km/s) = -5.09889 2.90425 -2.96344
# Velocity P-wave (km/s) = 4.24905 5.89889 2.89331
#
# Compressibility (1/GPa) = 0.03247910
#
# Stress axis : x y z
#
# Youngs Moduli (GPa) = 25.91211 20.08843 68.03076
#
# Poissons Ratio (x) = 0.36447 0.40835
# Poissons Ratio (y) = 0.47013 0.75856
# Poissons Ratio (z) = 0.15553 0.22399
#
# Static dielectric constant tensor:
#      x y z
#    x 1.612060 0.000000 0.017090 
#    y 0.000000 1.644800 0.000000 
#    z 0.017090 0.000000 1.637100 
# 
# From -- ./inp_files/225759.got.cif
#   From: 2010.05.17/outbox.cif.g08.bks.cpg/sg12_113_cif.got.tgz:225759.got - 2010.06.03 13:09:07.
