data_PCOD9187941
_publ_section_title
;
Structure prediction by ZEFSAII (Michael W. Deem and Ramdas Pophale) SiO2 
 PCOD9187941
Probable space group: C 2/M
;
_chemical_formula_sum "Si O2"
_cell_formula_units_Z 56
_cell_length_a 12.676374
_cell_length_b 24.141136
_cell_length_c 10.189889
_cell_angle_alpha 90.000000
_cell_angle_beta 118.791111
_cell_angle_gamma 90.000000
_cell_volume 2732.847241
_symmetry_space_group_name_H-M "C 2/M"
_symmetry_group_IT_number 12
_symmetry_cell_setting 'monoclinic'
loop_
_space_group_symop_operation_xyz
x,y,z
-x,y,-z
-x,-y,-z
x,-y,z
1/2+x,1/2+y,z
1/2-x,1/2+y,-z
1/2-x,1/2-y,-z
1/2+x,1/2-y,z
loop_
_atom_site_type_symbol
_atom_site_label
_atom_site_fract_x
_atom_site_fract_y
_atom_site_fract_z
Si Si1 0.199645 0.832202 0.818123
Si Si2 0.032454 0.218856 0.367665
Si Si3 0.854638 0.325071 0.664882
Si Si4 0.112446 0.436050 0.665153
Si Si5 0.429598 0.112921 0.084195
Si Si6 0.304815 0.618078 0.621718
Si Si7 0.034673 0.939551 0.673271
O O1 0.262949 0.808961 0.724726
O O2 0.124701 0.888856 0.747975
O O3 0.094326 0.787828 0.786533
O O4 0.307590 0.854365 0.973781
O O5 0.103112 0.276601 0.406189
O O6 0.122691 0.175230 0.353550
O O7 0.000000 0.204514 0.500000
O O8 0.791268 0.376618 0.554388
O O9 0.975922 0.342445 0.807584
O O10 0.144874 0.500000 0.657265
O O11 0.085612 0.428091 0.802468
O O12 0.222308 0.395251 0.695655
O O13 0.000000 0.423037 0.500000
O O14 0.500000 0.087894 0.000000
O O15 0.408702 0.572644 0.669996
O O16 0.000000 0.939724 0.500000
O O17 0.084001 0.000000 0.739152
#
# Coordination Sequence:
#
# PCOD9187941 Si02
#       7
#     8   8   8   8   8   8   8
#     4  10  21  42  58  89 129 162 216 262 309 381
#     4  11  23  36  65  95 127 173 218 263 318 379
#     4  11  21  37  60  93 125 167 211 266 314 370
#     4  11  24  41  65  96 128 166 210 263 324 383
#     4  10  24  43  65  89 131 176 209 261 320 384
#     4  11  20  39  60  95 127 154 209 274 313 365
#     4  10  19  35  63  90 119 162 207 260 313 366
#
# _framework density 20.491447999999998
#
# number of rings (size 3 to 8) (size 9 to 14) (size 15 to 20)
#    0.000    1.429    4.286    1.714    2.000    1.429 
#    0.000    7.857    0.000    4.286    0.000    0.000 
#    0.000    0.000    0.000    0.000    0.000    0.000 
#
# Total GULP energy -155978.919939 kJ/mol
# GULP energy per Si atom -5570.675712 kJ/mol
# Density = 2.044481 g / cm^3
# Si number density = 20.491448 Si / 1000 Ang^3
#
#
#
# Elastic Constant Matrix: (Units=GPa)
#
#
# Indices 1 2 3 4 5 6 
#
# 1 123.5798 34.6359 39.5894 0.0000 10.3691 0.0000
# 2 34.6359 46.1243 -1.7829 0.0000 -4.8560 0.0000
# 3 39.5894 -1.7829 65.8677 0.0000 8.2918 0.0000
# 4 0.0000 0.0000 0.0000 11.7386 0.0000 -5.7831
# 5 10.3691 -4.8560 8.2918 0.0000 43.4642 0.0000
# 6 0.0000 0.0000 0.0000 -5.7831 0.0000 24.5262
#
#
#
# Elastic Compliance Matrix: (Units=1/GPa)
#
#
# Indices 1 2 3 4 5 6 
#
# 1 0.014246 -0.011347 -0.008486 0.000000 -0.003048 0.000000
# 2 -0.011347 0.030982 0.007051 0.000000 0.004823 0.000000
# 3 -0.008486 0.007051 0.020614 0.000000 -0.001120 0.000000
# 4 0.000000 0.000000 0.000000 0.096385 0.000000 0.022727
# 5 -0.003048 0.004823 -0.001120 0.000000 0.024487 0.000000
# 6 0.000000 0.000000 0.000000 0.022727 0.000000 0.046132
#
#
# Mechanical properties :
#
#
# Convention : Reuss Voigt Hill
#
# Bulk Modulus (GPa) = 24.82681 42.27297 33.54989
# Shear Modulus (GPa) = 18.39341 26.82109 22.60725
#
# Velocity S-wave (km/s) = 2.99927 3.62179 3.32513
# Velocity P-wave (km/s) = 4.91286 6.17771 5.58123
#
# Compressibility (1/GPa) = 0.04027903
#
# Stress axis : x y z
#
# Youngs Moduli (GPa) = 70.19281 32.27724 48.50966
#
# Poissons Ratio (x) = 0.36625 0.41167
# Poissons Ratio (y) = 0.79647 -0.34206
# Poissons Ratio (z) = 0.59567 -0.22760
#
# Static dielectric constant tensor:
#      x y z
#    x 1.778610 0.000000 0.002220 
#    y 0.000000 1.737580 0.000000 
#    z 0.002220 0.000000 1.748350 
# 
# From -- ./inp_files/53283.got.cif
#   From: 2010.05.17/outbox.cif.g08.bks.cpg/sg12_27_cif.got.tgz:53283.got - 2010.06.03 13:09:07.
