data_PCOD9187067
_publ_section_title
;
Structure prediction by ZEFSAII (Michael W. Deem and Ramdas Pophale) SiO2 
 PCOD9187067
Probable space group: C 2/M
;
_chemical_formula_sum "Si O2"
_cell_formula_units_Z 56
_cell_length_a 17.364568
_cell_length_b 14.580165
_cell_length_c 18.574871
_cell_angle_alpha 90.000000
_cell_angle_beta 34.010428
_cell_angle_gamma 90.000000
_cell_volume 2630.456005
_symmetry_space_group_name_H-M "C 2/M"
_symmetry_group_IT_number 12
_symmetry_cell_setting 'monoclinic'
loop_
_space_group_symop_operation_xyz
x,y,z
-x,y,-z
-x,-y,-z
x,-y,z
1/2+x,1/2+y,z
1/2-x,1/2+y,-z
1/2-x,1/2-y,-z
1/2+x,1/2-y,z
loop_
_atom_site_type_symbol
_atom_site_label
_atom_site_fract_x
_atom_site_fract_y
_atom_site_fract_z
Si Si1 0.411630 0.361729 0.869671
Si Si2 0.835384 0.169175 0.253874
Si Si3 0.122035 0.648340 0.130421
Si Si4 0.388619 0.103431 0.474329
Si Si5 0.506327 0.397436 0.635552
Si Si6 0.647987 0.209862 0.273886
Si Si7 0.179014 0.344793 0.628456
O O1 0.516259 0.377762 0.853662
O O2 0.393311 0.251751 0.886912
O O3 0.488609 0.388691 0.736142
O O4 0.256332 0.397910 0.992687
O O5 0.726638 0.103417 0.376299
O O6 0.783351 0.198779 0.216277
O O7 0.822965 0.258225 0.316509
O O8 0.159832 0.668508 0.184533
O O9 0.969225 0.606878 0.238923
O O10 0.525693 0.147435 0.399345
O O11 0.345715 0.166688 0.438759
O O12 0.409347 0.000000 0.431514
O O13 0.461598 0.500000 0.648828
O O14 0.411678 0.313759 0.680783
O O15 0.666980 0.386269 0.488355
#
# Coordination Sequence:
#
# PCOD9187067 Si02
#       7
#     8   8   8   8   8   8   8
#     4   9  18  34  58  85 108 146 201 239 287 344
#     4  11  20  33  57  84 119 154 186 240 293 352
#     4   8  18  35  56  82 114 148 190 241 292 347
#     4  11  21  35  56  82 113 151 192 234 285 346
#     4  11  21  37  60  85 116 158 202 245 291 348
#     4  10  22  36  55  84 123 155 187 237 297 357
#     4  10  19  35  57  84 114 150 194 242 286 338
#
# _framework density 21.289085
#
# number of rings (size 3 to 8) (size 9 to 14) (size 15 to 20)
#    0.000    2.000    2.857    2.143    0.000    1.714 
#    0.000    5.714    0.000    0.000    0.000   26.000 
#    0.000    0.000    0.000    0.000    0.000    0.000 
#
# Total GULP energy -155882.042448 kJ/mol
# GULP energy per Si atom -5567.215802 kJ/mol
# Density = 2.124063 g / cm^3
# Si number density = 21.289085 Si / 1000 Ang^3
#
#
#
# Elastic Constant Matrix: (Units=GPa)
#
#
# Indices 1 2 3 4 5 6 
#
# 1 68.0384 11.8064 2.9020 -0.0001 -15.7862 0.0001
# 2 11.8064 95.9688 13.3294 -0.0001 -3.2065 0.0001
# 3 2.9020 13.3294 104.3999 -0.0006 -19.3054 0.0005
# 4 -0.0001 -0.0001 -0.0006 -28.2798 0.0003 28.6372
# 5 -15.7862 -3.2065 -19.3054 0.0003 17.3605 -0.0002
# 6 0.0001 0.0001 0.0005 28.6372 -0.0002 -22.2732
#
#
#
# Elastic Compliance Matrix: (Units=1/GPa)
#
#
# Indices 1 2 3 4 5 6 
#
# 1 0.020041 -0.002258 0.003807 0.000000 0.022039 0.000000
# 2 -0.002258 0.010867 -0.001678 0.000000 -0.001912 0.000000
# 3 0.003807 -0.001678 0.012928 0.000000 0.017528 0.000000
# 4 0.000000 0.000000 0.000000 0.117098 0.000000 0.150556
# 5 0.022039 -0.001912 0.017528 0.000000 0.096782 0.000000
# 6 0.000000 0.000000 0.000000 0.150556 0.000000 0.148677
#
#
# Mechanical properties :
#
#
# Convention : Reuss Voigt Hill
#
# Bulk Modulus (GPa) = 22.94785 36.05363 29.50074
# Shear Modulus (GPa) = 11.87151 9.38612 10.62881
#
# Velocity S-wave (km/s) = 2.36399 2.10201 2.23684
# Velocity P-wave (km/s) = 4.27245 4.78156 4.53415
#
# Compressibility (1/GPa) = 0.04357708
#
# Stress axis : x y z
#
# Youngs Moduli (GPa) = 49.89870 92.02146 77.34970
#
# Poissons Ratio (x) = 0.20777 -0.29445
# Poissons Ratio (y) = 0.11266 0.12982
# Poissons Ratio (z) = -0.18995 0.15444
#
# Static dielectric constant tensor:
#      x y z
#    x 1.776150 0.000000 -0.014200 
#    y 0.000000 1.812060 0.000000 
#    z -0.014200 0.000000 1.873400 
# 
# From -- ./inp_files/316687.got.cif
#   From: 2010.05.17/outbox.cif.g08.bks.cpg/sg12_159_cif.got.tgz:316687.got - 2010.06.03 13:09:07.
