data_PCOD9187710
_publ_section_title
;
Structure prediction by ZEFSAII (Michael W. Deem and Ramdas Pophale) SiO2 
 PCOD9187710
Probable space group: C 2/M
;
_chemical_formula_sum "Si O2"
_cell_formula_units_Z 58
_cell_length_a 23.967127
_cell_length_b 7.657498
_cell_length_c 21.180621
_cell_angle_alpha 90.000000
_cell_angle_beta 135.841243
_cell_angle_gamma 90.000000
_cell_volume 2708.042627
_symmetry_space_group_name_H-M "C 2/M"
_symmetry_group_IT_number 12
_symmetry_cell_setting 'monoclinic'
loop_
_space_group_symop_operation_xyz
x,y,z
-x,y,-z
-x,-y,-z
x,-y,z
1/2+x,1/2+y,z
1/2-x,1/2+y,-z
1/2-x,1/2-y,-z
1/2+x,1/2-y,z
loop_
_atom_site_type_symbol
_atom_site_label
_atom_site_fract_x
_atom_site_fract_y
_atom_site_fract_z
Si Si1 0.513362 0.699617 0.324683
Si Si2 0.810564 0.299568 0.494604
Si Si3 0.631695 0.712092 0.870043
Si Si4 0.500000 0.500000 0.000000
Si Si5 0.621982 0.795157 0.123869
Si Si6 0.937152 0.288746 0.393678
Si Si7 0.207715 0.293449 0.064674
Si Si8 0.273709 0.787059 0.326056
O O1 0.529686 0.500000 0.320329
O O2 0.598974 0.780324 0.408286
O O3 0.453732 0.776709 0.223975
O O4 0.464264 0.708432 0.350028
O O5 0.796338 0.500000 0.470587
O O6 0.750000 0.250000 0.500000
O O7 0.794487 0.217834 0.412988
O O8 0.631417 0.500000 0.866535
O O9 0.704563 0.776258 0.884107
O O10 0.653399 0.761893 0.958903
O O11 0.448138 0.656753 0.922005
O O12 0.664823 0.729997 0.093132
O O13 0.690419 0.782444 0.232286
O O14 0.597986 0.000000 0.097871
O O15 0.940486 0.500000 0.390022
O O16 0.848218 0.236784 0.341905
O O17 0.000000 0.242126 0.500000
O O18 0.217381 0.500000 0.081786
O O19 0.270806 0.000000 0.321743
#
# Coordination Sequence:
#
# PCOD9187710 Si02
#       8
#     8   8   8   2   8   8   8   8
#     4  11  22  37  57  91 128 164 210 258 315 376
#     4  11  24  44  64  86 123 166 215 266 315 380
#     4   9  19  35  58  89 127 166 202 248 312 386
#     4  12  26  48  68  94 130 160 222 272 330 384
#     4  11  24  44  70  97 129 169 215 275 328 388
#     4  10  19  35  60  91 128 167 205 258 316 376
#     4   9  19  37  60  91 125 160 207 257 314 381
#     4  10  21  41  67  94 128 170 215 261 328 390
#
# _framework density 21.417683
#
# number of rings (size 3 to 8) (size 9 to 14) (size 15 to 20)
#    0.000    1.793    2.069    1.862    0.966    4.138 
#    2.483    0.000    0.000    0.000    0.000    0.000 
#    0.000    0.000    0.000    0.000    0.000    0.000 
#
# Total GULP energy -161714.925396 kJ/mol
# GULP energy per Si atom -5576.376738 kJ/mol
# Density = 2.136894 g / cm^3
# Si number density = 21.417683 Si / 1000 Ang^3
#
#
#
# Elastic Constant Matrix: (Units=GPa)
#
#
# Indices 1 2 3 4 5 6 
#
# 1 55.5707 2.6193 25.1907 0.0000 1.1211 0.0000
# 2 2.6193 67.4962 -5.6187 0.0000 9.3002 0.0000
# 3 25.1907 -5.6187 108.4227 0.0000 16.1262 0.0000
# 4 0.0000 0.0000 0.0000 18.5173 0.0000 -3.5384
# 5 1.1211 9.3002 16.1262 0.0000 22.3523 0.0000
# 6 0.0000 0.0000 0.0000 -3.5384 0.0000 14.2424
#
#
#
# Elastic Compliance Matrix: (Units=1/GPa)
#
#
# Indices 1 2 3 4 5 6 
#
# 1 0.020439 -0.001732 -0.005369 0.000000 0.003569 0.000000
# 2 -0.001732 0.016261 0.002508 0.000000 -0.008488 0.000000
# 3 -0.005369 0.002508 0.012004 0.000000 -0.009434 0.000000
# 4 0.000000 0.000000 0.000000 0.056695 0.000000 0.014085
# 5 0.003569 -0.008488 -0.009434 0.000000 0.054897 0.000000
# 6 0.000000 0.000000 0.000000 0.014085 0.000000 0.073712
#
#
# Mechanical properties :
#
#
# Convention : Reuss Voigt Hill
#
# Bulk Modulus (GPa) = 25.30603 30.65248 27.97926
# Shear Modulus (GPa) = 19.50325 24.97562 22.23944
#
# Velocity S-wave (km/s) = 3.02091 3.41856 3.22587
# Velocity P-wave (km/s) = 4.89990 5.47036 5.19297
#
# Compressibility (1/GPa) = 0.03951627
#
# Stress axis : x y z
#
# Youngs Moduli (GPa) = 48.92688 61.49623 83.30699
#
# Poissons Ratio (x) = 0.10651 0.44730
# Poissons Ratio (y) = 0.08474 -0.20890
# Poissons Ratio (z) = 0.26270 -0.15420
#
# Static dielectric constant tensor:
#      x y z
#    x 1.753190 0.000000 0.010230 
#    y 0.000000 1.783740 0.000000 
#    z 0.010230 0.000000 1.771880 
# 
# From -- ./inp_files/324655.got.cif
#   From: 2010.05.17/outbox.cif.g08.bks.cpg/sg12_163_cif.got.tgz:324655.got - 2010.06.03 13:09:07.
