data_PCOD9187311
_publ_section_title
;
Structure prediction by ZEFSAII (Michael W. Deem and Ramdas Pophale) SiO2 
 PCOD9187311
Probable space group: C 2/M
;
_chemical_formula_sum "Si O2"
_cell_formula_units_Z 60
_cell_length_a 9.372319
_cell_length_b 27.789751
_cell_length_c 13.536542
_cell_angle_alpha 90.000000
_cell_angle_beta 53.363698
_cell_angle_gamma 90.000000
_cell_volume 2829.122675
_symmetry_space_group_name_H-M "C 2/M"
_symmetry_group_IT_number 12
_symmetry_cell_setting 'monoclinic'
loop_
_space_group_symop_operation_xyz
x,y,z
-x,y,-z
-x,-y,-z
x,-y,z
1/2+x,1/2+y,z
1/2-x,1/2+y,-z
1/2-x,1/2-y,-z
1/2+x,1/2-y,z
loop_
_atom_site_type_symbol
_atom_site_label
_atom_site_fract_x
_atom_site_fract_y
_atom_site_fract_z
Si Si1 0.228780 0.816522 0.300026
Si Si2 0.345830 0.943882 0.492386
Si Si3 0.500000 0.234899 0.500000
Si Si4 0.839192 0.226846 0.867954
Si Si5 0.546711 0.821686 0.294748
Si Si6 0.472069 0.553950 0.763664
Si Si7 0.834639 0.083473 0.626629
Si Si8 0.934328 0.857575 0.140365
O O1 0.150619 0.771033 0.393764
O O2 0.265630 0.803643 0.171286
O O3 0.404968 0.838289 0.274116
O O4 0.102507 0.862441 0.367014
O O5 0.500000 0.923142 0.500000
O O6 0.161839 0.941439 0.628911
O O7 0.314603 0.921429 0.396985
O O8 0.389277 0.000000 0.457406
O O9 0.549356 0.197943 0.566943
O O10 0.894348 0.272156 0.781192
O O11 0.995491 0.191681 0.838415
O O12 0.750000 0.250000 0.000000
O O13 0.720034 0.854340 0.236849
O O14 0.461121 0.500000 0.810689
O O15 0.322608 0.559468 0.739398
O O16 0.479368 0.596915 0.839738
O O17 0.000000 0.060035 0.500000
O O18 0.000000 0.856996 0.000000
#
# Coordination Sequence:
#
# PCOD9187311 Si02
#       8
#     8   8   4   8   8   8   8   8
#     4  11  22  37  60  93 125 172 210 259 322 384
#     4   9  19  34  58  92 126 160 200 257 321 381
#     4  10  22  40  58  90 138 172 210 250 320 390
#     4  11  22  43  63  86 122 168 213 265 310 379
#     4  11  25  37  63  92 131 169 210 263 321 378
#     4  10  22  41  64  89 122 168 218 267 319 379
#     4  10  19  35  58  87 127 166 207 249 308 388
#     4  12  25  44  64  94 124 170 223 269 320 381
#
# _framework density 21.207988
#
# number of rings (size 3 to 8) (size 9 to 14) (size 15 to 20)
#    0.000    1.467    3.333    2.400    1.867    5.067 
#    0.000    0.000    0.000    0.000    0.000    0.933 
#    0.000    0.000    0.000    0.000    0.000    0.000 
#
# Total GULP energy -167100.119325 kJ/mol
# GULP energy per Si atom -5570.003978 kJ/mol
# Density = 2.115972 g / cm^3
# Si number density = 21.207988 Si / 1000 Ang^3
#
#
#
# Elastic Constant Matrix: (Units=GPa)
#
#
# Indices 1 2 3 4 5 6 
#
# 1 97.6938 1.4917 35.8247 0.0000 27.2659 0.0000
# 2 1.4917 69.6784 29.3750 0.0000 14.7521 0.0000
# 3 35.8247 29.3750 85.0974 0.0000 32.7112 0.0000
# 4 0.0000 0.0000 0.0000 15.7031 0.0000 2.6519
# 5 27.2659 14.7521 32.7112 0.0000 29.5768 0.0000
# 6 0.0000 0.0000 0.0000 2.6519 0.0000 1.3029
#
#
#
# Elastic Compliance Matrix: (Units=1/GPa)
#
#
# Indices 1 2 3 4 5 6 
#
# 1 0.014546 0.003368 -0.002585 0.000000 -0.012231 0.000000
# 2 0.003368 0.017777 -0.005136 0.000000 -0.006291 0.000000
# 3 -0.002585 -0.005136 0.022112 0.000000 -0.019511 0.000000
# 4 0.000000 0.000000 0.000000 0.097035 0.000000 -0.197502
# 5 -0.012231 -0.006291 -0.019511 0.000000 0.069802 0.000000
# 6 0.000000 0.000000 0.000000 -0.197502 0.000000 1.169495
#
#
# Mechanical properties :
#
#
# Convention : Reuss Voigt Hill
#
# Bulk Modulus (GPa) = 21.86792 42.87248 32.37020
# Shear Modulus (GPa) = 3.53428 21.70178 12.61803
#
# Velocity S-wave (km/s) = 1.29232 3.20235 2.44184
# Velocity P-wave (km/s) = 3.54406 5.82516 4.82146
#
# Compressibility (1/GPa) = 0.04572909
#
# Stress axis : x y z
#
# Youngs Moduli (GPa) = 68.74755 56.25361 45.22356
#
# Poissons Ratio (x) = -0.18945 0.11689
# Poissons Ratio (y) = -0.23152 0.23226
# Poissons Ratio (z) = 0.17769 0.28891
#
# Static dielectric constant tensor:
#      x y z
#    x 1.871990 0.000000 0.006200 
#    y 0.000000 1.974700 0.000000 
#    z 0.006200 0.000000 1.753770 
# 
# From -- ./inp_files/125710.got.cif
#   From: 2010.05.17/outbox.cif.g08.bks.cpg/sg12_63_cif.got.tgz:125710.got - 2010.06.03 13:09:07.
