data_PCOD9187345
_publ_section_title
;
Structure prediction by ZEFSAII (Michael W. Deem and Ramdas Pophale) SiO2 
 PCOD9187345
Probable space group: C 2/M
;
_chemical_formula_sum "Si O2"
_cell_formula_units_Z 56
_cell_length_a 9.664211
_cell_length_b 25.543527
_cell_length_c 15.589777
_cell_angle_alpha 90.000000
_cell_angle_beta 116.922614
_cell_angle_gamma 90.000000
_cell_volume 3431.361155
_symmetry_space_group_name_H-M "C 2/M"
_symmetry_group_IT_number 12
_symmetry_cell_setting 'monoclinic'
loop_
_space_group_symop_operation_xyz
x,y,z
-x,y,-z
-x,-y,-z
x,-y,z
1/2+x,1/2+y,z
1/2-x,1/2+y,-z
1/2-x,1/2-y,-z
1/2+x,1/2-y,z
loop_
_atom_site_type_symbol
_atom_site_label
_atom_site_fract_x
_atom_site_fract_y
_atom_site_fract_z
Si Si1 0.167636 0.939965 0.066724
Si Si2 0.131799 0.646911 0.798337
Si Si3 0.484303 0.807573 0.591565
Si Si4 0.323699 0.257518 0.928003
Si Si5 0.150031 0.802363 0.593277
Si Si6 0.824455 0.440741 0.925586
Si Si7 0.192254 0.345364 0.195394
O O1 0.270348 0.905255 0.158273
O O2 0.150751 0.000000 0.092875
O O3 0.241991 0.941150 0.993680
O O4 0.000000 0.916278 0.000000
O O5 0.067329 0.656722 0.685388
O O6 0.238571 0.695832 0.854766
O O7 0.982296 0.646944 0.818440
O O8 0.500000 0.830415 0.500000
O O9 0.306626 0.797949 0.577168
O O10 0.582219 0.753343 0.608715
O O11 0.309025 0.204845 0.867504
O O12 0.500000 0.270043 0.000000
O O13 0.250000 0.250000 0.000000
O O14 0.202216 0.834047 0.691969
O O15 0.000000 0.824528 0.500000
O O16 0.821429 0.500000 0.888753
O O17 0.761449 0.396950 0.844107
O O18 0.000000 0.426894 0.000000
#
# Coordination Sequence:
#
# PCOD9187345 Si02
#       7
#     8   8   8   8   8   8   8
#     4  10  21  38  55  80 111 141 180 222 260 310
#     4  11  21  35  54  79 105 144 177 214 268 316
#     4  10  20  36  54  75 105 135 181 221 262 320
#     4  12  22  33  47  72 113 141 167 210 260 313
#     4  10  20  36  54  74 105 139 175 224 265 314
#     4  10  19  35  59  79 104 142 182 218 255 309
#     4  11  21  35  53  79 109 137 180 221 257 320
#
# _framework density 16.320053999999999
#
# number of rings (size 3 to 8) (size 9 to 14) (size 15 to 20)
#    0.000    1.429    4.286    3.429    0.000    0.000 
#    7.714    0.000    0.000    0.857    0.000    0.000 
#    0.000    0.000    0.000    0.000    0.000    0.000 
#
# Total GULP energy -156078.467321 kJ/mol
# GULP energy per Si atom -5574.230976 kJ/mol
# Density = 1.628291 g / cm^3
# Si number density = 16.320054 Si / 1000 Ang^3
#
#
#
# Elastic Constant Matrix: (Units=GPa)
#
#
# Indices 1 2 3 4 5 6 
#
# 1 88.4446 4.1567 39.3307 0.0000 11.3324 0.0000
# 2 4.1567 70.8817 51.9462 0.0000 9.5102 0.0000
# 3 39.3307 51.9462 116.1184 0.0000 11.2155 0.0000
# 4 0.0000 0.0000 0.0000 21.7153 0.0000 0.4660
# 5 11.3324 9.5102 11.2155 0.0000 27.5395 0.0000
# 6 0.0000 0.0000 0.0000 0.4660 0.0000 20.4776
#
#
#
# Elastic Compliance Matrix: (Units=1/GPa)
#
#
# Indices 1 2 3 4 5 6 
#
# 1 0.014629 0.004593 -0.006532 0.000000 -0.004946 0.000000
# 2 0.004593 0.022773 -0.011243 0.000000 -0.005175 0.000000
# 3 -0.006532 -0.011243 0.015843 0.000000 0.000119 0.000000
# 4 0.000000 0.000000 0.000000 0.046073 0.000000 -0.001048
# 5 -0.004946 -0.005175 0.000119 0.000000 0.040085 0.000000
# 6 0.000000 0.000000 0.000000 -0.001048 0.000000 0.048858
#
#
# Mechanical properties :
#
#
# Convention : Reuss Voigt Hill
#
# Bulk Modulus (GPa) = 37.20325 51.81241 44.50783
# Shear Modulus (GPa) = 22.36285 25.94723 24.15504
#
# Velocity S-wave (km/s) = 3.70573 3.99168 3.85136
# Velocity P-wave (km/s) = 6.41525 7.28432 6.86355
#
# Compressibility (1/GPa) = 0.02687937
#
# Stress axis : x y z
#
# Youngs Moduli (GPa) = 68.35720 43.91221 63.12104
#
# Poissons Ratio (x) = -0.20167 0.41230
# Poissons Ratio (y) = -0.31394 0.70968
# Poissons Ratio (z) = 0.44650 0.49371
#
# Static dielectric constant tensor:
#      x y z
#    x 1.538210 0.000000 0.008700 
#    y 0.000000 1.550110 0.000000 
#    z 0.008700 0.000000 1.538870 
# 
# From -- ./inp_files/198506.got.cif
#   From: 2010.05.17/outbox.cif.g08.bks.cpg/sg12_100_cif.got.tgz:198506.got - 2010.06.03 13:09:07.
