data_PCOD9187782
_publ_section_title
;
Structure prediction by ZEFSAII (Michael W. Deem and Ramdas Pophale) SiO2 
 PCOD9187782
Probable space group: C 2/M
;
_chemical_formula_sum "Si O2"
_cell_formula_units_Z 64
_cell_length_a 15.856443
_cell_length_b 8.810878
_cell_length_c 24.382864
_cell_angle_alpha 90.000000
_cell_angle_beta 89.964533
_cell_angle_gamma 90.000000
_cell_volume 3406.509400
_symmetry_space_group_name_H-M "C 2/M"
_symmetry_group_IT_number 12
_symmetry_cell_setting 'monoclinic'
loop_
_space_group_symop_operation_xyz
x,y,z
-x,y,-z
-x,-y,-z
x,-y,z
1/2+x,1/2+y,z
1/2-x,1/2+y,-z
1/2-x,1/2-y,-z
1/2+x,1/2-y,z
loop_
_atom_site_type_symbol
_atom_site_label
_atom_site_fract_x
_atom_site_fract_y
_atom_site_fract_z
Si Si1 0.910207 0.683092 0.366455
Si Si2 0.350210 0.681928 0.754306
Si Si3 0.411163 0.818526 0.867435
Si Si4 0.350227 0.818065 0.245580
Si Si5 0.089547 0.816907 0.366584
Si Si6 0.749840 0.683261 0.939414
Si Si7 0.749855 0.683564 0.439371
Si Si8 0.411448 0.318521 0.132431
O O1 0.913888 0.500000 0.367321
O O2 0.888985 0.729062 0.303880
O O3 0.833139 0.730168 0.405539
O O4 0.999834 0.749995 0.383301
O O5 0.361014 0.500000 0.759920
O O6 0.392123 0.762825 0.805856
O O7 0.249992 0.712981 0.753864
O O8 0.388954 0.729038 0.695972
O O9 0.332963 0.769749 0.905553
O O10 0.499809 0.750009 0.886087
O O11 0.415771 0.000000 0.868001
O O12 0.392118 0.737149 0.193994
O O13 0.361034 0.000000 0.239954
O O14 0.166455 0.769801 0.405734
O O15 0.085858 0.000000 0.367458
O O16 0.749842 0.500000 0.942188
O O17 0.666589 0.730273 0.905762
O O18 0.750000 0.750000 0.000000
O O19 0.749852 0.500000 0.441798
O O20 0.750000 0.750000 0.500000
O O21 0.416059 0.500000 0.131859
#
# Coordination Sequence:
#
# PCOD9187782 Si02
#       8
#     8   8   8   8   8   8   8   8
#     4  10  21  38  59  85 117 151 189 235 285 341
#     4  10  19  35  61  89 118 155 191 231 289 349
#     4  11  23  40  60  89 122 154 192 239 289 344
#     4  10  19  35  61  89 118 155 191 231 289 349
#     4  10  21  38  59  85 117 151 189 235 285 341
#     4  10  24  43  62  84 116 153 197 244 289 338
#     4  10  22  41  60  80 112 151 193 240 287 338
#     4  11  23  40  60  89 122 154 192 239 289 344
#
# _framework density 18.787559999999999
#
# number of rings (size 3 to 8) (size 9 to 14) (size 15 to 20)
#    0.000    1.750    2.500    1.500    0.000    7.000 
#    0.000    5.000    0.000    0.000    0.000    0.000 
#    0.000    0.000    0.000    0.000    0.000    0.000 
#
# Total GULP energy -178825.258522 kJ/mol
# GULP energy per Si atom -5588.289329 kJ/mol
# Density = 1.874480 g / cm^3
# Si number density = 18.787560 Si / 1000 Ang^3
#
#
#
# Elastic Constant Matrix: (Units=GPa)
#
#
# Indices 1 2 3 4 5 6 
#
# 1 198.7505 46.2153 95.6812 0.0000 0.8813 0.0000
# 2 46.2153 17.8410 32.3963 0.0000 0.2191 0.0000
# 3 95.6812 32.3963 155.2241 0.0000 0.7818 0.0000
# 4 0.0000 0.0000 0.0000 34.8652 0.0000 0.0067
# 5 0.8813 0.2191 0.7818 0.0000 1.0802 0.0000
# 6 0.0000 0.0000 0.0000 0.0067 0.0000 31.5585
#
#
#
# Elastic Compliance Matrix: (Units=1/GPa)
#
#
# Indices 1 2 3 4 5 6 
#
# 1 0.012898 -0.030537 -0.001561 0.000000 -0.003201 0.000000
# 2 -0.030537 0.162577 -0.015122 0.000000 0.002889 0.000000
# 3 -0.001561 -0.015122 0.010577 0.000000 -0.003315 0.000000
# 4 0.000000 0.000000 0.000000 0.028682 0.000000 -0.000006
# 5 -0.003201 0.002889 -0.003315 0.000000 0.930219 0.000000
# 6 0.000000 0.000000 0.000000 -0.000006 0.000000 0.031687
#
#
# Mechanical properties :
#
#
# Convention : Reuss Voigt Hill
#
# Bulk Modulus (GPa) = 10.91556 80.04457 45.48007
# Shear Modulus (GPa) = 3.84137 26.66895 15.25516
#
# Velocity S-wave (km/s) = 1.43146 3.77171 2.85262
# Velocity P-wave (km/s) = 2.92484 7.85273 5.92537
#
# Compressibility (1/GPa) = 0.09161233
#
# Stress axis : x y z
#
# Youngs Moduli (GPa) = 77.53280 6.15091 94.54176
#
# Poissons Ratio (x) = 0.18783 0.14758
# Poissons Ratio (y) = 2.36759 1.42971
# Poissons Ratio (z) = 0.12102 0.09302
#
# Static dielectric constant tensor:
#      x y z
#    x 1.648970 0.000000 0.000000 
#    y 0.000000 1.632320 0.000000 
#    z 0.000000 0.000000 1.616280 
# 
# From -- ./inp_files/338669.got.cif
#   From: 2010.05.17/outbox.cif.g08.bks.cpg/sg12_170_cif.got.tgz:338669.got - 2010.06.03 13:09:07.
