data_PCOD9187721
_publ_section_title
;
Structure prediction by ZEFSAII (Michael W. Deem and Ramdas Pophale) SiO2 
 PCOD9187721
Probable space group: C 2/M
;
_chemical_formula_sum "Si O2"
_cell_formula_units_Z 40
_cell_length_a 9.781797
_cell_length_b 27.707246
_cell_length_c 12.114712
_cell_angle_alpha 90.000000
_cell_angle_beta 144.881692
_cell_angle_gamma 90.000000
_cell_volume 1888.836202
_symmetry_space_group_name_H-M "C 2/M"
_symmetry_group_IT_number 12
_symmetry_cell_setting 'monoclinic'
loop_
_space_group_symop_operation_xyz
x,y,z
-x,y,-z
-x,-y,-z
x,-y,z
1/2+x,1/2+y,z
1/2-x,1/2+y,-z
1/2-x,1/2-y,-z
1/2+x,1/2-y,z
loop_
_atom_site_type_symbol
_atom_site_label
_atom_site_fract_x
_atom_site_fract_y
_atom_site_fract_z
Si Si1 0.050743 0.887868 0.789524
Si Si2 0.202029 0.554617 0.873686
Si Si3 0.756162 0.053526 0.270494
Si Si4 0.201821 0.202043 0.037480
Si Si5 0.472738 0.860090 0.606421
O O1 0.224693 0.904939 0.807151
O O2 0.793785 0.880201 0.565629
O O3 0.083447 0.928855 0.905318
O O4 0.119160 0.839050 0.897236
O O5 0.225864 0.500000 0.849650
O O6 0.967166 0.557321 0.796341
O O7 0.148677 0.595059 0.747139
O O8 0.000000 0.054971 0.500000
O O9 0.748728 0.000000 0.211869
O O10 0.440333 0.181125 0.252880
O O11 0.250000 0.250000 0.000000
O O12 0.000000 0.207434 0.000000
O O13 0.500000 0.842016 0.500000
#
# Coordination Sequence:
#
# PCOD9187721 Si02
#       5
#     8   8   8   8   8
#     4  11  22  40  66  90 130 171 211 262 326 383
#     4  10  22  37  61  97 135 177 222 265 311 372
#     4  10  19  35  60  94 134 174 218 266 315 370
#     4  11  26  48  70  97 128 163 213 273 337 403
#     4  11  23  43  66  89 130 173 212 262 323 385
#
# _framework density 21.177061999999999
#
# number of rings (size 3 to 8) (size 9 to 14) (size 15 to 20)
#    0.000    1.400    4.000    1.200    0.000    6.800 
#    0.000    1.000    0.000    0.000    0.000    0.000 
#    0.000    0.000    0.000    0.000    0.000    0.000 
#
# Total GULP energy -111740.857551 kJ/mol
# GULP energy per Si atom -5587.042878 kJ/mol
# Density = 2.112886 g / cm^3
# Si number density = 21.177062 Si / 1000 Ang^3
#
#
#
# Elastic Constant Matrix: (Units=GPa)
#
#
# Indices 1 2 3 4 5 6 
#
# 1 92.3586 41.1799 37.1939 0.0000 9.9716 0.0000
# 2 41.1799 134.4515 47.4760 0.0000 -24.3754 0.0000
# 3 37.1939 47.4760 153.2238 0.0000 -0.6954 0.0000
# 4 0.0000 0.0000 0.0000 15.7204 0.0000 -8.3793
# 5 9.9716 -24.3754 -0.6954 0.0000 37.0529 0.0000
# 6 0.0000 0.0000 0.0000 -8.3793 0.0000 33.3781
#
#
#
# Elastic Compliance Matrix: (Units=1/GPa)
#
#
# Indices 1 2 3 4 5 6 
#
# 1 0.014726 -0.005136 -0.002017 0.000000 -0.007380 0.000000
# 2 -0.005136 0.011408 -0.002248 0.000000 0.008845 0.000000
# 3 -0.002017 -0.002248 0.007709 0.000000 -0.000791 0.000000
# 4 0.000000 0.000000 0.000000 0.073439 0.000000 0.018436
# 5 -0.007380 0.008845 -0.000791 0.000000 0.034778 0.000000
# 6 0.000000 0.000000 0.000000 0.018436 0.000000 0.034588
#
#
# Mechanical properties :
#
#
# Convention : Reuss Voigt Hill
#
# Bulk Modulus (GPa) = 66.48211 70.19263 68.33737
# Shear Modulus (GPa) = 24.94219 34.17588 29.55903
#
# Velocity S-wave (km/s) = 3.43562 4.02159 3.74010
# Velocity P-wave (km/s) = 6.87020 7.40147 7.14078
#
# Compressibility (1/GPa) = 0.01504164
#
# Stress axis : x y z
#
# Youngs Moduli (GPa) = 67.90534 87.65780 129.72108
#
# Poissons Ratio (x) = 0.45023 0.26162
# Poissons Ratio (y) = 0.34878 0.29159
# Poissons Ratio (z) = 0.13695 0.19704
#
# Static dielectric constant tensor:
#      x y z
#    x 1.806400 0.000000 0.020260 
#    y 0.000000 1.729710 0.000000 
#    z 0.020260 0.000000 1.791740 
# 
# From -- ./inp_files/125490.got.cif
#   From: 2010.05.17/outbox.cif.g08.bks.cpg/sg12_63_cif.got.tgz:125490.got - 2010.06.03 13:09:07.
