data_PCOD9187748
_publ_section_title
;
Structure prediction by ZEFSAII (Michael W. Deem and Ramdas Pophale) SiO2 
 PCOD9187748
Probable space group: C 2/M
;
_chemical_formula_sum "Si O2"
_cell_formula_units_Z 40
_cell_length_a 19.585744
_cell_length_b 14.533329
_cell_length_c 14.321986
_cell_angle_alpha 90.000000
_cell_angle_beta 155.362109
_cell_angle_gamma 90.000000
_cell_volume 1699.501558
_symmetry_space_group_name_H-M "C 2/M"
_symmetry_group_IT_number 12
_symmetry_cell_setting 'monoclinic'
loop_
_space_group_symop_operation_xyz
x,y,z
-x,y,-z
-x,-y,-z
x,-y,z
1/2+x,1/2+y,z
1/2-x,1/2+y,-z
1/2-x,1/2-y,-z
1/2+x,1/2-y,z
loop_
_atom_site_type_symbol
_atom_site_label
_atom_site_fract_x
_atom_site_fract_y
_atom_site_fract_z
Si Si1 0.098107 0.363244 0.742860
Si Si2 0.432600 0.774505 0.029015
Si Si3 0.427051 0.672967 0.222565
Si Si4 0.720777 0.106290 0.300231
Si Si5 0.754068 0.400988 0.272380
O O1 0.161274 0.402649 0.724205
O O2 0.083197 0.253057 0.713811
O O3 0.913441 0.392007 0.537411
O O4 0.253801 0.379288 0.003152
O O5 0.441046 0.732247 0.143010
O O6 0.605051 0.824570 0.217179
O O7 0.308916 0.855114 0.841554
O O8 0.363542 0.686225 0.883861
O O9 0.590536 0.616318 0.437589
O O10 0.672671 0.000000 0.250546
O O11 0.676068 0.500000 0.193064
#
# Coordination Sequence:
#
# PCOD9187748 Si02
#       5
#     8   8   8   8   8
#     4   9  18  34  57  88 121 150 192 237 301 353
#     4  10  21  39  62  86 123 155 199 251 297 347
#     4  10  20  36  63  88 117 161 194 246 296 357
#     4  11  23  42  64  87 117 164 205 244 299 358
#     4  10  19  35  61  86 117 158 192 236 302 362
#
# _framework density 23.536313
#
# number of rings (size 3 to 8) (size 9 to 14) (size 15 to 20)
#    0.000    2.000    2.000    3.000    0.000    4.000 
#    0.000    6.000    0.000   25.200    0.000    0.000 
#    0.000    0.000    0.000    0.000    0.000    0.000 
#
# Total GULP energy -111351.118220 kJ/mol
# GULP energy per Si atom -5567.555911 kJ/mol
# Density = 2.348274 g / cm^3
# Si number density = 23.536313 Si / 1000 Ang^3
#
#
#
# Elastic Constant Matrix: (Units=GPa)
#
#
# Indices 1 2 3 4 5 6 
#
# 1 49.6141 28.2065 31.3488 0.0000 6.7033 0.0000
# 2 28.2065 162.0895 51.1457 0.0000 19.5934 0.0000
# 3 31.3488 51.1457 148.5194 0.0000 26.3515 0.0000
# 4 0.0000 0.0000 0.0000 6.2925 0.0000 -20.1490
# 5 6.7033 19.5934 26.3515 0.0000 34.9974 0.0000
# 6 0.0000 0.0000 0.0000 -20.1490 0.0000 28.9589
#
#
#
# Elastic Compliance Matrix: (Units=1/GPa)
#
#
# Indices 1 2 3 4 5 6 
#
# 1 0.024451 -0.002954 -0.004162 0.000000 0.000105 0.000000
# 2 -0.002954 0.007458 -0.001505 0.000000 -0.002476 0.000000
# 3 -0.004162 -0.001505 0.009048 0.000000 -0.005173 0.000000
# 4 0.000000 0.000000 0.000000 -0.129420 0.000000 -0.090048
# 5 0.000105 -0.002476 -0.005173 0.000000 0.033834 0.000000
# 6 0.000000 0.000000 0.000000 -0.090048 0.000000 -0.028122
#
#
# Mechanical properties :
#
#
# Convention : Reuss Voigt Hill
#
# Bulk Modulus (GPa) = 42.17106 64.62501 53.39803
# Shear Modulus (GPa) = -86.80019 30.68455 -28.05782
#
# Velocity S-wave (km/s) = -6.07942 3.61461 -3.45644
# Velocity P-wave (km/s) = 5.59667 6.70356 2.60912
#
# Compressibility (1/GPa) = 0.02371295
#
# Stress axis : x y z
#
# Youngs Moduli (GPa) = 40.89834 134.08748 110.52349
#
# Poissons Ratio (x) = 0.39612 0.46002
# Poissons Ratio (y) = 0.12082 0.16638
# Poissons Ratio (z) = 0.17023 0.20185
#
# Static dielectric constant tensor:
#      x y z
#    x 1.987390 0.000000 -0.017040 
#    y 0.000000 1.899790 0.000000 
#    z -0.017040 0.000000 1.985090 
# 
# From -- ./inp_files/293528.got.cif
#   From: 2010.05.17/outbox.cif.g08.bks.cpg/sg12_147_cif.got.tgz:293528.got - 2010.06.03 13:09:07.
