data_PCOD9187226
_publ_section_title
;
Structure prediction by ZEFSAII (Michael W. Deem and Ramdas Pophale) SiO2 
 PCOD9187226
Probable space group: C 2/M
;
_chemical_formula_sum "Si O2"
_cell_formula_units_Z 64
_cell_length_a 30.958834
_cell_length_b 11.451017
_cell_length_c 18.726933
_cell_angle_alpha 90.000000
_cell_angle_beta 30.532633
_cell_angle_gamma 90.000000
_cell_volume 3372.747557
_symmetry_space_group_name_H-M "C 2/M"
_symmetry_group_IT_number 12
_symmetry_cell_setting 'monoclinic'
loop_
_space_group_symop_operation_xyz
x,y,z
-x,y,-z
-x,-y,-z
x,-y,z
1/2+x,1/2+y,z
1/2-x,1/2+y,-z
1/2-x,1/2-y,-z
1/2+x,1/2-y,z
loop_
_atom_site_type_symbol
_atom_site_label
_atom_site_fract_x
_atom_site_fract_y
_atom_site_fract_z
Si Si1 0.038624 0.867691 0.024995
Si Si2 0.595084 0.775899 0.358137
Si Si3 0.742235 0.710048 0.393754
Si Si4 0.355538 0.871593 0.108580
Si Si5 0.582835 0.134200 0.222211
Si Si6 0.894325 0.360936 0.496132
Si Si7 0.144753 0.870628 0.668391
Si Si8 0.236902 0.366951 0.912554
O O1 0.956181 0.856796 0.192713
O O2 0.076547 0.000000 0.981014
O O3 0.093318 0.750558 0.957385
O O4 0.000000 0.866099 0.000000
O O5 0.500000 0.721477 0.500000
O O6 0.588667 0.862160 0.299649
O O7 0.614526 0.832920 0.406994
O O8 0.672687 0.693442 0.226084
O O9 0.787764 0.633808 0.269109
O O10 0.678915 0.798622 0.444018
O O11 0.814161 0.779053 0.335835
O O12 0.688739 0.642632 0.529491
O O13 0.308137 0.867909 0.100434
O O14 0.400548 0.000000 0.048475
O O15 0.488984 0.182571 0.338304
O O16 0.581580 0.000000 0.199214
O O17 0.666398 0.188102 0.066477
O O18 0.890947 0.500000 0.491114
O O19 0.161249 0.000000 0.674198
O O20 0.252770 0.500000 0.913627
#
# Coordination Sequence:
#
# PCOD9187226 Si02
#       8
#     8   8   8   8   8   8   8   8
#     4  10  21  40  62  85 116 153 194 244 299 350
#     4  10  19  35  58  84 111 147 190 237 287 347
#     4  11  21  37  58  84 115 153 197 240 287 353
#     4  11  23  39  59  86 119 156 196 240 293 351
#     4   9  19  35  56  82 114 149 188 241 290 338
#     4  10  20  34  56  85 114 148 194 245 293 343
#     4  10  22  39  58  82 115 155 194 244 298 343
#     4  10  21  37  55  80 115 153 190 234 289 345
#
# _framework density 18.975626999999999
#
# number of rings (size 3 to 8) (size 9 to 14) (size 15 to 20)
#    0.000    1.875    2.500    1.500    1.750    2.500 
#    0.000    0.625    0.000    0.750    0.000    0.000 
#    0.000    0.000    0.000    0.000    0.000    0.000 
#
# Total GULP energy -178276.012504 kJ/mol
# GULP energy per Si atom -5571.125391 kJ/mol
# Density = 1.893244 g / cm^3
# Si number density = 18.975627 Si / 1000 Ang^3
#
#
#
# Elastic Constant Matrix: (Units=GPa)
#
#
# Indices 1 2 3 4 5 6 
#
# 1 50.7565 13.9032 16.3369 0.0000 0.1233 0.0000
# 2 13.9032 94.0021 40.8100 -0.0001 -20.6721 0.0000
# 3 16.3369 40.8100 124.6038 -0.0001 5.4109 0.0000
# 4 0.0000 -0.0001 -0.0001 11.5977 0.0000 -1.7800
# 5 0.1233 -20.6721 5.4109 0.0000 25.7316 0.0000
# 6 0.0000 0.0000 0.0000 -1.7800 0.0000 20.7126
#
#
#
# Elastic Compliance Matrix: (Units=1/GPa)
#
#
# Indices 1 2 3 4 5 6 
#
# 1 0.021035 -0.002777 -0.001763 0.000000 -0.001961 0.000000
# 2 -0.002777 0.016793 -0.005775 0.000000 0.014718 0.000000
# 3 -0.001763 -0.005775 0.010445 0.000000 -0.006827 0.000000
# 4 0.000000 0.000000 0.000000 0.087376 0.000000 0.007509
# 5 -0.001961 0.014718 -0.006827 0.000000 0.052132 0.000000
# 6 0.000000 0.000000 0.000000 0.007509 0.000000 0.048925
#
#
# Mechanical properties :
#
#
# Convention : Reuss Voigt Hill
#
# Bulk Modulus (GPa) = 36.17705 45.71806 40.94756
# Shear Modulus (GPa) = 18.75821 24.82921 21.79371
#
# Velocity S-wave (km/s) = 3.14752 3.62121 3.39265
# Velocity P-wave (km/s) = 5.68468 6.45210 6.08051
#
# Compressibility (1/GPa) = 0.02764183
#
# Stress axis : x y z
#
# Youngs Moduli (GPa) = 47.54017 59.54981 95.74411
#
# Poissons Ratio (x) = 0.16536 0.16882
# Poissons Ratio (y) = 0.13201 0.55292
# Poissons Ratio (z) = 0.08383 0.34390
#
# Static dielectric constant tensor:
#      x y z
#    x 1.630300 0.000000 -0.004150 
#    y 0.000000 1.672660 0.000000 
#    z -0.004150 0.000000 1.707670 
# 
# From -- ./inp_files/296442.got.cif
#   From: 2010.05.17/outbox.cif.g08.bks.cpg/sg12_149_cif.got.tgz:296442.got - 2010.06.03 13:09:07.
