data_PCOD9187121
_publ_section_title
;
Structure prediction by ZEFSAII (Michael W. Deem and Ramdas Pophale) SiO2 
 PCOD9187121
Probable space group: C 2/M
;
_chemical_formula_sum "Si O2"
_cell_formula_units_Z 56
_cell_length_a 14.919870
_cell_length_b 7.777677
_cell_length_c 25.783130
_cell_angle_alpha 90.000000
_cell_angle_beta 116.701700
_cell_angle_gamma 90.000000
_cell_volume 2672.859552
_symmetry_space_group_name_H-M "C 2/M"
_symmetry_group_IT_number 12
_symmetry_cell_setting 'monoclinic'
loop_
_space_group_symop_operation_xyz
x,y,z
-x,y,-z
-x,-y,-z
x,-y,z
1/2+x,1/2+y,z
1/2-x,1/2+y,-z
1/2-x,1/2-y,-z
1/2+x,1/2-y,z
loop_
_atom_site_type_symbol
_atom_site_label
_atom_site_fract_x
_atom_site_fract_y
_atom_site_fract_z
Si Si1 0.850892 0.795759 0.777026
Si Si2 0.853271 0.206188 0.998334
Si Si3 0.071755 0.788232 0.311508
Si Si4 0.186753 0.187424 0.434625
Si Si5 0.928884 0.210718 0.907481
Si Si6 0.631168 0.294229 0.683187
Si Si7 0.005729 0.700556 0.561634
O O1 0.910641 0.729148 0.742329
O O2 0.884697 0.726812 0.841548
O O3 0.734413 0.767716 0.734264
O O4 0.869395 0.000000 0.783398
O O5 0.955161 0.263778 0.053963
O O6 0.858266 0.000000 0.998137
O O7 0.750000 0.250000 0.000000
O O8 0.865918 0.266104 0.941919
O O9 0.161456 0.724742 0.373109
O O10 0.964177 0.736938 0.306750
O O11 0.075612 0.000000 0.313971
O O12 0.250000 0.250000 0.500000
O O13 0.074995 0.185743 0.429372
O O14 0.228823 0.000000 0.433544
O O15 0.927076 0.000000 0.906791
O O16 0.632285 0.500000 0.681911
O O17 0.608922 0.226863 0.619225
O O18 0.976611 0.500000 0.558626
O O19 0.000000 0.745988 0.500000
#
# Coordination Sequence:
#
# PCOD9187121 Si02
#       7
#     8   8   8   8   8   8   8
#     4  10  19  35  58  78 101 145 187 219 263 324
#     4   9  17  33  55  81 112 147 183 222 263 311
#     4   8  18  35  52  70 100 135 172 214 265 325
#     4  10  20  34  51  74 102 133 170 221 276 332
#     4   8  17  33  53  78 110 145 185 220 259 320
#     4  10  21  37  53  77 109 138 171 224 281 330
#     4  10  21  36  54  75  99 133 177 223 273 334
#
# _framework density 20.951345
#
# number of rings (size 3 to 8) (size 9 to 14) (size 15 to 20)
#    0.000    2.714    0.000    3.000    2.000    2.286 
#    0.000    7.857    0.000    0.000    0.000    0.000 
#    0.000    0.000    0.000    0.000    0.000    0.000 
#
# Total GULP energy -156093.271948 kJ/mol
# GULP energy per Si atom -5574.759712 kJ/mol
# Density = 2.090366 g / cm^3
# Si number density = 20.951345 Si / 1000 Ang^3
#
#
#
# Elastic Constant Matrix: (Units=GPa)
#
#
# Indices 1 2 3 4 5 6 
#
# 1 111.7116 -5.4262 76.4770 0.0000 -12.3137 0.0000
# 2 -5.4262 25.2166 6.1147 0.0000 -6.6417 0.0000
# 3 76.4770 6.1147 220.2495 0.0000 -13.2750 0.0000
# 4 0.0000 0.0000 0.0000 12.7762 0.0000 3.6604
# 5 -12.3137 -6.6417 -13.2750 0.0000 21.5722 0.0000
# 6 0.0000 0.0000 0.0000 3.6604 0.0000 21.3970
#
#
#
# Elastic Compliance Matrix: (Units=1/GPa)
#
#
# Indices 1 2 3 4 5 6 
#
# 1 0.012806 0.005463 -0.004213 0.000000 0.006400 0.000000
# 2 0.005463 0.045522 -0.002210 0.000000 0.015774 0.000000
# 3 -0.004213 -0.002210 0.006105 0.000000 0.000672 0.000000
# 4 0.000000 0.000000 0.000000 0.082305 0.000000 -0.014080
# 5 0.006400 0.015774 0.000672 0.000000 0.055279 0.000000
# 6 0.000000 0.000000 0.000000 -0.014080 0.000000 0.049144
#
#
# Mechanical properties :
#
#
# Convention : Reuss Voigt Hill
#
# Bulk Modulus (GPa) = 15.99646 56.83430 36.41538
# Shear Modulus (GPa) = 18.25358 29.81654 24.03506
#
# Velocity S-wave (km/s) = 2.95487 3.77654 3.39069
# Velocity P-wave (km/s) = 4.39242 6.79720 5.72256
#
# Compressibility (1/GPa) = 0.06251382
#
# Stress axis : x y z
#
# Youngs Moduli (GPa) = 78.08632 21.96728 163.80255
#
# Poissons Ratio (x) = -0.12000 0.69005
# Poissons Ratio (y) = -0.42656 0.36199
# Poissons Ratio (z) = 0.32895 0.04855
#
# Static dielectric constant tensor:
#      x y z
#    x 1.745880 0.000000 -0.003790 
#    y 0.000000 1.777450 0.000000 
#    z -0.003790 0.000000 1.791350 
# 
# From -- ./inp_files/338212.got.cif
#   From: 2010.05.17/outbox.cif.g08.bks.cpg/sg12_170_cif.got.tgz:338212.got - 2010.06.03 13:09:07.
