data_PCOD9187649
_publ_section_title
;
Structure prediction by ZEFSAII (Michael W. Deem and Ramdas Pophale) SiO2 
 PCOD9187649
Probable space group: C 2/M
;
_chemical_formula_sum "Si O2"
_cell_formula_units_Z 32
_cell_length_a 9.027949
_cell_length_b 17.530713
_cell_length_c 12.969667
_cell_angle_alpha 90.000000
_cell_angle_beta 54.860622
_cell_angle_gamma 90.000000
_cell_volume 1678.573485
_symmetry_space_group_name_H-M "C 2/M"
_symmetry_group_IT_number 12
_symmetry_cell_setting 'monoclinic'
loop_
_space_group_symop_operation_xyz
x,y,z
-x,y,-z
-x,-y,-z
x,-y,z
1/2+x,1/2+y,z
1/2-x,1/2+y,-z
1/2-x,1/2-y,-z
1/2+x,1/2-y,z
loop_
_atom_site_type_symbol
_atom_site_label
_atom_site_fract_x
_atom_site_fract_y
_atom_site_fract_z
Si Si1 0.187438 0.086255 0.364091
Si Si2 0.486509 0.863216 0.627298
Si Si3 0.371908 0.714287 0.775158
Si Si4 0.884821 0.846173 0.136091
O O1 0.351683 0.096904 0.377628
O O2 0.200736 0.147575 0.268220
O O3 0.000000 0.098793 0.500000
O O4 0.186662 0.000000 0.323783
O O5 0.500000 0.871946 0.500000
O O6 0.490114 0.773317 0.658212
O O7 0.289391 0.889452 0.747844
O O8 0.208336 0.769693 0.874954
O O9 0.489547 0.680374 0.820041
O O10 0.000000 0.884597 0.000000
#
# Coordination Sequence:
#
# PCOD9187649 Si02
#       4
#     8   8   8   8
#     4  11  23  37  56  87 124 155 189 238 297 346
#     4  10  20  36  59  89 113 152 192 245 280 340
#     4  10  19  35  60  87 114 149 193 241 282 337
#     4  10  20  34  61  90 114 148 195 244 287 336
#
# _framework density 19.063807000000001
#
# number of rings (size 3 to 8) (size 9 to 14) (size 15 to 20)
#    1.500    0.250    2.500    3.000    0.000    3.500 
#    0.000    1.250    0.000    8.250    0.000    0.000 
#    0.000    0.000    0.000    0.000    0.000    0.000 
#
# Total GULP energy -89173.393168 kJ/mol
# GULP energy per Si atom -5573.337073 kJ/mol
# Density = 1.902042 g / cm^3
# Si number density = 19.063807 Si / 1000 Ang^3
#
#
#
# Elastic Constant Matrix: (Units=GPa)
#
#
# Indices 1 2 3 4 5 6 
#
# 1 118.3883 -15.9083 41.4925 0.0000 -2.0325 0.0000
# 2 -15.9083 29.1127 0.6666 0.0000 -6.8091 0.0000
# 3 41.4925 0.6666 108.8751 0.0000 -23.0216 0.0000
# 4 0.0000 0.0000 0.0000 -2.6221 0.0000 -0.8159
# 5 -2.0325 -6.8091 -23.0216 0.0000 16.6902 0.0000
# 6 0.0000 0.0000 0.0000 -0.8159 0.0000 -9.5440
#
#
#
# Elastic Compliance Matrix: (Units=1/GPa)
#
#
# Indices 1 2 3 4 5 6 
#
# 1 0.010787 0.005260 -0.004816 0.000000 -0.003184 0.000000
# 2 0.005260 0.042016 0.002115 0.000000 0.020699 0.000000
# 3 -0.004816 0.002115 0.015622 0.000000 0.021825 0.000000
# 4 0.000000 0.000000 0.000000 -0.391797 0.000000 0.033493
# 5 -0.003184 0.020699 0.021825 0.000000 0.098077 0.000000
# 6 0.000000 0.000000 0.000000 0.033493 0.000000 -0.107641
#
#
# Mechanical properties :
#
#
# Convention : Reuss Voigt Hill
#
# Bulk Modulus (GPa) = 13.59747 34.31976 23.95861
# Shear Modulus (GPa) = -15.94703 16.24650 0.14974
#
# Velocity S-wave (km/s) = -2.89538 2.92244 0.28056
# Velocity P-wave (km/s) = 2.00738 5.42487 3.56368
#
# Compressibility (1/GPa) = 0.07354309
#
# Stress axis : x y z
#
# Youngs Moduli (GPa) = 92.70453 23.80018 64.01099
#
# Poissons Ratio (x) = -0.12519 0.30830
# Poissons Ratio (y) = -0.48763 -0.13539
# Poissons Ratio (z) = 0.44650 -0.05034
#
# Static dielectric constant tensor:
#      x y z
#    x 1.642890 0.000000 -0.046030 
#    y 0.000000 1.642410 0.000000 
#    z -0.046030 0.000000 1.676680 
# 
# From -- ./inp_files/37746.got.cif
#   From: 2010.05.17/outbox.cif.g08.bks.cpg/sg12_19_cif.got.tgz:37746.got - 2010.06.03 13:09:07.
