data_PCOD9187884
_publ_section_title
;
Structure prediction by ZEFSAII (Michael W. Deem and Ramdas Pophale) SiO2 
 PCOD9187884
Probable space group: C 2/M
;
_chemical_formula_sum "Si O2"
_cell_formula_units_Z 56
_cell_length_a 27.491162
_cell_length_b 15.434287
_cell_length_c 9.019670
_cell_angle_alpha 90.000000
_cell_angle_beta 38.750357
_cell_angle_gamma 90.000000
_cell_volume 2395.493113
_symmetry_space_group_name_H-M "C 2/M"
_symmetry_group_IT_number 12
_symmetry_cell_setting 'monoclinic'
loop_
_space_group_symop_operation_xyz
x,y,z
-x,y,-z
-x,-y,-z
x,-y,z
1/2+x,1/2+y,z
1/2-x,1/2+y,-z
1/2-x,1/2-y,-z
1/2+x,1/2-y,z
loop_
_atom_site_type_symbol
_atom_site_label
_atom_site_fract_x
_atom_site_fract_y
_atom_site_fract_z
Si Si1 0.308398 0.331004 0.362568
Si Si2 0.871492 0.595306 0.509797
Si Si3 0.148569 0.738198 0.013908
Si Si4 0.247212 0.901428 0.060445
Si Si5 0.931540 0.856720 0.572273
Si Si6 0.940689 0.232894 0.267271
Si Si7 0.656302 0.908411 0.776165
O O1 0.250000 0.250000 0.500000
O O2 0.371568 0.310637 0.336263
O O3 0.250500 0.405092 0.553766
O O4 0.334821 0.323452 0.128688
O O5 0.905438 0.500000 0.464028
O O6 0.918889 0.682815 0.414052
O O7 0.858524 0.598161 0.363670
O O8 0.794314 0.603386 0.792936
O O9 0.090546 0.772288 0.275459
O O10 0.217963 0.680843 0.927942
O O11 0.120560 0.668188 0.958738
O O12 0.154999 0.893892 0.252629
O O13 0.263424 0.000000 0.080028
O O14 0.966544 0.835423 0.328094
O O15 0.000000 0.902861 0.500000
O O16 0.000000 0.258175 0.000000
O O17 0.625753 0.000000 0.902289
#
# Coordination Sequence:
#
# PCOD9187884 Si02
#       7
#     8   8   8   8   8   8   8
#     4  10  19  35  62  90 120 161 209 262 307 379
#     4  10  21  39  63  92 123 166 210 255 317 385
#     4  11  20  36  65  94 126 161 217 269 316 374
#     4  11  24  42  68  97 130 168 215 273 326 380
#     4  12  26  40  64  96 130 172 218 269 323 380
#     4  12  24  41  62  89 129 171 212 261 321 388
#     4  10  20  34  60  92 125 159 204 259 314 370
#
# _framework density 23.377231999999999
#
# number of rings (size 3 to 8) (size 9 to 14) (size 15 to 20)
#    0.000    1.143    4.286    4.286    2.000    0.571 
#    0.000    0.000    0.000    5.571    0.000    0.000 
#    0.000    0.000    0.000    0.000    0.000    0.000 
#
# Total GULP energy -156035.092471 kJ/mol
# GULP energy per Si atom -5572.681874 kJ/mol
# Density = 2.332402 g / cm^3
# Si number density = 23.377232 Si / 1000 Ang^3
#
#
#
# Elastic Constant Matrix: (Units=GPa)
#
#
# Indices 1 2 3 4 5 6 
#
# 1 113.3810 13.7648 16.3140 0.0000 7.6686 0.0000
# 2 13.7648 68.8834 14.2675 0.0000 8.8410 0.0000
# 3 16.3140 14.2675 97.3439 0.0000 19.1588 0.0000
# 4 0.0000 0.0000 0.0000 10.0137 0.0000 11.5308
# 5 7.6686 8.8410 19.1588 0.0000 42.8256 0.0000
# 6 0.0000 0.0000 0.0000 11.5308 0.0000 6.5181
#
#
#
# Elastic Compliance Matrix: (Units=1/GPa)
#
#
# Indices 1 2 3 4 5 6 
#
# 1 0.009225 -0.001497 -0.001165 0.000000 -0.000822 0.000000
# 2 -0.001497 0.015426 -0.001575 0.000000 -0.002212 0.000000
# 3 -0.001165 -0.001575 0.011617 0.000000 -0.004663 0.000000
# 4 0.000000 0.000000 0.000000 -0.096295 0.000000 0.170349
# 5 -0.000822 -0.002212 -0.004663 0.000000 0.026041 0.000000
# 6 0.000000 0.000000 0.000000 0.170349 0.000000 -0.147936
#
#
# Mechanical properties :
#
#
# Convention : Reuss Voigt Hill
#
# Bulk Modulus (GPa) = 35.97742 40.92233 38.44987
# Shear Modulus (GPa) = -30.45346 27.55560 -1.44893
#
# Velocity S-wave (km/s) = -3.61321 3.43700 -0.78813
# Velocity P-wave (km/s) = 1.40842 5.77008 3.95665
#
# Compressibility (1/GPa) = 0.02779521
#
# Stress axis : x y z
#
# Youngs Moduli (GPa) = 108.40458 64.82373 86.08288
#
# Poissons Ratio (x) = 0.09702 0.10028
# Poissons Ratio (y) = 0.16224 0.13557
# Poissons Ratio (z) = 0.12628 0.10209
#
# Static dielectric constant tensor:
#      x y z
#    x 1.958630 0.000000 -0.011490 
#    y 0.000000 1.537230 0.000000 
#    z -0.011490 0.000000 1.935580 
# 
# From -- ./inp_files/105966.got.cif
#   From: 2010.05.17/outbox.cif.g08.bks.cpg/sg12_53_cif.got.tgz:105966.got - 2010.06.03 13:09:07.
