data_PCOD9187073
_publ_section_title
;
Structure prediction by ZEFSAII (Michael W. Deem and Ramdas Pophale) SiO2 
 PCOD9187073
Probable space group: C 2/M
;
_chemical_formula_sum "Si O2"
_cell_formula_units_Z 64
_cell_length_a 14.200808
_cell_length_b 10.649201
_cell_length_c 24.699058
_cell_angle_alpha 90.000000
_cell_angle_beta 113.658356
_cell_angle_gamma 90.000000
_cell_volume 3421.246524
_symmetry_space_group_name_H-M "C 2/M"
_symmetry_group_IT_number 12
_symmetry_cell_setting 'monoclinic'
loop_
_space_group_symop_operation_xyz
x,y,z
-x,y,-z
-x,-y,-z
x,-y,z
1/2+x,1/2+y,z
1/2-x,1/2+y,-z
1/2-x,1/2-y,-z
1/2+x,1/2-y,z
loop_
_atom_site_type_symbol
_atom_site_label
_atom_site_fract_x
_atom_site_fract_y
_atom_site_fract_z
Si Si1 0.863436 0.854873 0.219837
Si Si2 0.904697 0.853440 0.445243
Si Si3 0.012932 0.858215 0.356983
Si Si4 0.764165 0.359631 0.047195
Si Si5 0.566167 0.351425 0.066735
Si Si6 0.321561 0.153965 0.626701
Si Si7 0.320065 0.856444 0.751858
Si Si8 0.529417 0.787465 0.853598
O O1 0.760553 0.798243 0.224015
O O2 0.909344 0.789228 0.177974
O O3 0.949024 0.850499 0.286773
O O4 0.843153 0.000000 0.200343
O O5 0.788276 0.808977 0.424205
O O6 0.000000 0.794973 0.500000
O O7 0.934934 0.849504 0.389221
O O8 0.899695 0.000000 0.460641
O O9 0.090858 0.742049 0.377993
O O10 0.059683 0.000000 0.370553
O O11 0.736804 0.500000 0.019912
O O12 0.684573 0.331394 0.077544
O O13 0.880311 0.361670 0.095306
O O14 0.750000 0.250000 0.000000
O O15 0.549449 0.500000 0.067042
O O16 0.526347 0.291743 0.112429
O O17 0.500000 0.304265 0.000000
O O18 0.318672 0.190482 0.689998
O O19 0.336415 0.000000 0.626321
O O20 0.435158 0.854185 0.801473
O O21 0.283821 0.000000 0.738240
#
# Coordination Sequence:
#
# PCOD9187073 Si02
#       8
#     8   8   8   8   8   8   8   8
#     4  10  20  34  56  84 112 148 189 230 278 340
#     4   9  18  34  59  85 112 155 203 235 274 343
#     4  10  19  35  57  84 116 149 192 240 280 329
#     4  11  24  42  62  85 114 149 189 233 285 338
#     4  10  21  39  59  79 110 150 184 222 280 343
#     4  10  19  35  58  82 115 156 190 229 290 340
#     4  10  20  35  54  80 113 146 181 230 283 335
#     4  12  21  36  60  85 108 142 188 238 278 337
#
# _framework density 18.706631999999999
#
# number of rings (size 3 to 8) (size 9 to 14) (size 15 to 20)
#    0.000    1.750    3.750    1.500    0.000    1.000 
#    0.000    2.500    0.000    2.250    0.000    0.000 
#    0.000    0.000    0.000    0.000    0.000    0.000 
#
# Total GULP energy -178276.874408 kJ/mol
# GULP energy per Si atom -5571.152325 kJ/mol
# Density = 1.866405 g / cm^3
# Si number density = 18.706632 Si / 1000 Ang^3
#
#
#
# Elastic Constant Matrix: (Units=GPa)
#
#
# Indices 1 2 3 4 5 6 
#
# 1 85.0791 24.7532 -8.9569 0.0000 22.0405 0.0000
# 2 24.7532 51.8816 2.2154 0.0000 3.9943 0.0000
# 3 -8.9569 2.2154 37.7434 0.0000 16.8894 0.0000
# 4 0.0000 0.0000 0.0000 17.2990 0.0000 3.2655
# 5 22.0405 3.9943 16.8894 0.0000 32.8163 0.0000
# 6 0.0000 0.0000 0.0000 3.2655 0.0000 29.8803
#
#
#
# Elastic Compliance Matrix: (Units=1/GPa)
#
#
# Indices 1 2 3 4 5 6 
#
# 1 0.021498 -0.009278 0.015073 0.000000 -0.021067 0.000000
# 2 -0.009278 0.023462 -0.006613 0.000000 0.006779 0.000000
# 3 0.015073 -0.006613 0.044991 0.000000 -0.032474 0.000000
# 4 0.000000 0.000000 0.000000 0.059025 0.000000 -0.006451
# 5 -0.021067 0.006779 -0.032474 0.000000 0.060510 0.000000
# 6 0.000000 0.000000 0.000000 -0.006451 0.000000 0.034172
#
#
# Mechanical properties :
#
#
# Convention : Reuss Voigt Hill
#
# Bulk Modulus (GPa) = 11.32308 23.41417 17.36862
# Shear Modulus (GPa) = 18.19957 26.44525 22.32241
#
# Velocity S-wave (km/s) = 3.12251 3.76398 3.45815
# Velocity P-wave (km/s) = 4.36649 5.60658 5.02493
#
# Compressibility (1/GPa) = 0.08831523
#
# Stress axis : x y z
#
# Youngs Moduli (GPa) = 46.51664 42.62221 22.22648
#
# Poissons Ratio (x) = 0.39547 -0.33502
# Poissons Ratio (y) = 0.43160 0.14697
# Poissons Ratio (z) = -0.70115 0.28184
#
# Static dielectric constant tensor:
#      x y z
#    x 1.664610 0.000000 0.021490 
#    y 0.000000 2.015280 0.000000 
#    z 0.021490 0.000000 1.669450 
# 
# From -- ./inp_files/335181.got.cif
#   From: 2010.05.17/outbox.cif.g08.bks.cpg/sg12_168_cif.got.tgz:335181.got - 2010.06.03 13:09:07.
