data_PCOD9187641
_publ_section_title
;
Structure prediction by ZEFSAII (Michael W. Deem and Ramdas Pophale) SiO2 
 PCOD9187641
Probable space group: C 2/M
;
_chemical_formula_sum "Si O2"
_cell_formula_units_Z 56
_cell_length_a 17.186000
_cell_length_b 18.655407
_cell_length_c 7.270086
_cell_angle_alpha 90.000000
_cell_angle_beta 89.048584
_cell_angle_gamma 90.000000
_cell_volume 2330.554191
_symmetry_space_group_name_H-M "C 2/M"
_symmetry_group_IT_number 12
_symmetry_cell_setting 'monoclinic'
loop_
_space_group_symop_operation_xyz
x,y,z
-x,y,-z
-x,-y,-z
x,-y,z
1/2+x,1/2+y,z
1/2-x,1/2+y,-z
1/2-x,1/2-y,-z
1/2+x,1/2-y,z
loop_
_atom_site_type_symbol
_atom_site_label
_atom_site_fract_x
_atom_site_fract_y
_atom_site_fract_z
Si Si1 0.910095 0.578049 0.457791
Si Si2 0.673614 0.416356 0.136509
Si Si3 0.713346 0.788574 0.789125
Si Si4 0.711210 0.831441 0.376790
Si Si5 0.950268 0.303667 0.172295
Si Si6 0.362844 0.581809 0.299862
Si Si7 0.983121 0.838889 0.779227
O O1 0.876109 0.500000 0.418859
O O2 0.860964 0.614161 0.624077
O O3 0.916438 0.629561 0.283301
O O4 0.000000 0.571225 0.500000
O O5 0.683798 0.500000 0.192357
O O6 0.746992 0.363614 0.161633
O O7 0.599625 0.377827 0.237937
O O8 0.655037 0.418234 0.919086
O O9 0.695889 0.791251 0.569756
O O10 0.775285 0.723468 0.790138
O O11 0.631221 0.765738 0.879250
O O12 0.791090 0.875935 0.391443
O O13 0.004302 0.244861 0.272541
O O14 0.000000 0.329111 0.000000
O O15 0.365285 0.500000 0.362735
O O16 0.446482 0.618618 0.318227
O O17 0.000000 0.839265 0.000000
#
# Coordination Sequence:
#
# PCOD9187641 Si02
#       7
#     8   8   8   8   8   8   8
#     4  10  23  40  58  83 115 154 200 248 297 351
#     4  10  22  37  59  92 124 156 196 251 305 354
#     4  10  22  39  59  88 121 152 199 246 301 358
#     4  10  21  39  59  84 115 160 198 241 301 363
#     4  10  21  39  62  88 116 157 199 246 299 354
#     4  10  19  35  60  86 118 158 199 243 296 362
#     4   9  18  36  57  87 121 156 196 239 297 356
#
# _framework density 24.02862
#
# number of rings (size 3 to 8) (size 9 to 14) (size 15 to 20)
#    0.000    2.143    1.429    0.857    2.000    6.571 
#    0.000    2.143    0.000    1.714    0.000    0.000 
#    0.000    0.000    0.000    0.000    0.000    0.000 
#
# Total GULP energy -156384.354994 kJ/mol
# GULP energy per Si atom -5585.155535 kJ/mol
# Density = 2.397393 g / cm^3
# Si number density = 24.028620 Si / 1000 Ang^3
#
#
#
# Elastic Constant Matrix: (Units=GPa)
#
#
# Indices 1 2 3 4 5 6 
#
# 1 111.3080 41.3246 30.7449 0.0000 -43.5117 0.0000
# 2 41.3246 159.4960 13.8542 0.0000 -24.0455 0.0000
# 3 30.7449 13.8542 60.1030 0.0000 -28.1919 0.0000
# 4 0.0000 0.0000 0.0000 21.6554 0.0000 -3.9376
# 5 -43.5117 -24.0455 -28.1919 0.0000 47.5283 0.0000
# 6 0.0000 0.0000 0.0000 -3.9376 0.0000 34.3674
#
#
#
# Elastic Compliance Matrix: (Units=1/GPa)
#
#
# Indices 1 2 3 4 5 6 
#
# 1 0.014627 -0.001922 -0.001682 0.000000 0.011420 0.000000
# 2 -0.001922 0.007040 0.000285 0.000000 0.001971 0.000000
# 3 -0.001682 0.000285 0.023246 0.000000 0.012393 0.000000
# 4 0.000000 0.000000 0.000000 0.047160 0.000000 0.005403
# 5 0.011420 0.001971 0.012393 0.000000 0.039844 0.000000
# 6 0.000000 0.000000 0.000000 0.005403 0.000000 0.029716
#
#
# Mechanical properties :
#
#
# Convention : Reuss Voigt Hill
#
# Bulk Modulus (GPa) = 26.12709 55.86160 40.99434
# Shear Modulus (GPa) = 27.61987 37.04246 32.33116
#
# Velocity S-wave (km/s) = 3.39404 3.93058 3.67212
# Velocity P-wave (km/s) = 5.12409 6.62553 5.92258
#
# Compressibility (1/GPa) = 0.03827445
#
# Stress axis : x y z
#
# Youngs Moduli (GPa) = 68.36857 142.04281 43.01854
#
# Poissons Ratio (x) = 0.27298 0.07236
# Poissons Ratio (y) = 0.13139 -0.01226
# Poissons Ratio (z) = 0.11501 -0.04048
#
# Static dielectric constant tensor:
#      x y z
#    x 2.115450 0.000000 0.072210 
#    y 0.000000 2.055090 0.000000 
#    z 0.072210 0.000000 1.936810 
# 
# From -- ./inp_files/75907.got.cif
#   From: 2010.05.17/outbox.cif.g08.bks.cpg/sg12_38_cif.got.tgz:75907.got - 2010.06.03 13:09:07.
