data_PCOD9187370
_publ_section_title
;
Structure prediction by ZEFSAII (Michael W. Deem and Ramdas Pophale) SiO2 
 PCOD9187370
Probable space group: C 2/M
;
_chemical_formula_sum "Si O2"
_cell_formula_units_Z 64
_cell_length_a 22.774512
_cell_length_b 18.749654
_cell_length_c 12.416229
_cell_angle_alpha 90.000000
_cell_angle_beta 43.205062
_cell_angle_gamma 90.000000
_cell_volume 3629.746089
_symmetry_space_group_name_H-M "C 2/M"
_symmetry_group_IT_number 12
_symmetry_cell_setting 'monoclinic'
loop_
_space_group_symop_operation_xyz
x,y,z
-x,y,-z
-x,-y,-z
x,-y,z
1/2+x,1/2+y,z
1/2-x,1/2+y,-z
1/2-x,1/2-y,-z
1/2+x,1/2-y,z
loop_
_atom_site_type_symbol
_atom_site_label
_atom_site_fract_x
_atom_site_fract_y
_atom_site_fract_z
Si Si1 0.011021 0.843412 0.361905
Si Si2 0.809767 0.083899 0.834761
Si Si3 0.821135 0.137589 0.584109
Si Si4 0.018611 0.691817 0.281284
Si Si5 0.178131 0.694030 0.402423
Si Si6 0.715287 0.919821 0.527334
Si Si7 0.514401 0.080950 0.854841
Si Si8 0.705352 0.817827 0.119833
O O1 0.094880 0.891196 0.258069
O O2 0.020843 0.777726 0.266901
O O3 0.000000 0.813526 0.500000
O O4 0.922227 0.881707 0.452913
O O5 0.788308 0.119092 0.747735
O O6 0.806069 0.000000 0.827784
O O7 0.746949 0.113828 0.008990
O O8 0.814591 0.222786 0.575646
O O9 0.772252 0.097891 0.554962
O O10 0.103469 0.679139 0.236971
O O11 0.924556 0.676773 0.457738
O O12 0.024897 0.642480 0.167405
O O13 0.222821 0.640691 0.426325
O O14 0.216669 0.686682 0.232180
O O15 0.616065 0.918160 0.696777
O O16 0.733874 0.000000 0.462796
O O17 0.482972 0.000000 0.871494
O O18 0.500000 0.093958 0.000000
O O19 0.750000 0.750000 0.000000
#
# Coordination Sequence:
#
# PCOD9187370 Si02
#       8
#     8   8   8   8   8   8   8   8
#     4   9  18  35  57  81 111 146 181 230 286 336
#     4  11  23  35  54  88 119 145 182 235 292 336
#     4  10  19  35  60  85 110 148 193 235 280 343
#     4  10  19  35  59  82 109 151 189 223 281 341
#     4  10  21  38  59  82 115 151 192 234 281 340
#     4  10  21  36  55  81 114 152 193 236 282 334
#     4   9  20  35  51  77 116 151 184 238 289 327
#     4  12  21  36  58  85 114 149 187 231 281 335
#
# _framework density 17.632088
#
# number of rings (size 3 to 8) (size 9 to 14) (size 15 to 20)
#    0.000    1.875    2.500    2.625    1.750    3.750 
#    0.000    0.000    0.000    5.625    0.000    1.750 
#    0.000    0.000    0.000    0.000    0.000    0.000 
#
# Total GULP energy -178420.601065 kJ/mol
# GULP energy per Si atom -5575.643783 kJ/mol
# Density = 1.759196 g / cm^3
# Si number density = 17.632088 Si / 1000 Ang^3
#
#
#
# Elastic Constant Matrix: (Units=GPa)
#
#
# Indices 1 2 3 4 5 6 
#
# 1 69.4076 25.1173 3.3057 0.0000 5.5638 0.0000
# 2 25.1173 96.4517 27.2382 0.0000 11.4331 0.0000
# 3 3.3057 27.2382 50.1592 0.0000 16.2003 0.0000
# 4 0.0000 0.0000 0.0000 21.9205 0.0000 3.6169
# 5 5.5638 11.4331 16.2003 0.0000 21.3923 0.0000
# 6 0.0000 0.0000 0.0000 3.6169 0.0000 25.4266
#
#
#
# Elastic Compliance Matrix: (Units=1/GPa)
#
#
# Indices 1 2 3 4 5 6 
#
# 1 0.016219 -0.004510 0.002600 0.000000 -0.003777 0.000000
# 2 -0.004510 0.013565 -0.006760 0.000000 -0.000958 0.000000
# 3 0.002600 -0.006760 0.029769 0.000000 -0.019607 0.000000
# 4 0.000000 0.000000 0.000000 0.046716 0.000000 -0.006645
# 5 -0.003777 -0.000958 -0.019607 0.000000 0.063088 0.000000
# 6 0.000000 0.000000 0.000000 -0.006645 0.000000 0.040274
#
#
# Mechanical properties :
#
#
# Convention : Reuss Voigt Hill
#
# Bulk Modulus (GPa) = 23.68949 36.37119 30.03034
# Shear Modulus (GPa) = 20.74337 24.43834 22.59086
#
# Velocity S-wave (km/s) = 3.43367 3.72696 3.58332
# Velocity P-wave (km/s) = 5.40229 6.26043 5.84712
#
# Compressibility (1/GPa) = 0.04221281
#
# Stress axis : x y z
#
# Youngs Moduli (GPa) = 61.65716 73.71995 33.59246
#
# Poissons Ratio (x) = 0.33249 -0.08734
# Poissons Ratio (y) = 0.27808 0.22707
# Poissons Ratio (z) = -0.16032 0.49832
#
# Static dielectric constant tensor:
#      x y z
#    x 1.596180 0.000000 -0.024070 
#    y 0.000000 1.616630 0.000000 
#    z -0.024070 0.000000 1.602590 
# 
# From -- ./inp_files/168744.got.cif
#   From: 2010.05.17/outbox.cif.g08.bks.cpg/sg12_85_cif.got.tgz:168744.got - 2010.06.03 13:09:07.
