data_PCOD9187078
_publ_section_title
;
Structure prediction by ZEFSAII (Michael W. Deem and Ramdas Pophale) SiO2 
 PCOD9187078
Probable space group: C 2/M
;
_chemical_formula_sum "Si O2"
_cell_formula_units_Z 56
_cell_length_a 9.721617
_cell_length_b 26.461788
_cell_length_c 21.873258
_cell_angle_alpha 90.000000
_cell_angle_beta 148.589766
_cell_angle_gamma 90.000000
_cell_volume 2932.540233
_symmetry_space_group_name_H-M "C 2/M"
_symmetry_group_IT_number 12
_symmetry_cell_setting 'monoclinic'
loop_
_space_group_symop_operation_xyz
x,y,z
-x,y,-z
-x,-y,-z
x,-y,z
1/2+x,1/2+y,z
1/2-x,1/2+y,-z
1/2-x,1/2-y,-z
1/2+x,1/2-y,z
loop_
_atom_site_type_symbol
_atom_site_label
_atom_site_fract_x
_atom_site_fract_y
_atom_site_fract_z
Si Si1 0.851785 0.057609 0.083876
Si Si2 0.768185 0.114375 0.864271
Si Si3 0.010931 0.275651 0.075509
Si Si4 0.118258 0.557342 0.192214
Si Si5 0.015939 0.289797 0.700900
Si Si6 0.162613 0.869348 0.806163
Si Si7 0.165487 0.294193 0.621465
O O1 0.825410 0.095440 0.130121
O O2 0.080421 0.079239 0.126852
O O3 0.905664 0.000000 0.124454
O O4 0.587469 0.055791 0.942799
O O5 0.552133 0.081888 0.818563
O O6 0.619175 0.160139 0.774108
O O7 0.000000 0.131744 0.000000
O O8 0.243242 0.249004 0.199843
O O9 0.075090 0.334958 0.104587
O O10 0.750000 0.250000 0.000000
O O11 0.000000 0.264615 0.000000
O O12 0.199280 0.500000 0.236348
O O13 0.349828 0.594200 0.257246
O O14 0.997864 0.295953 0.620674
O O15 0.776642 0.261671 0.645071
O O16 0.920214 0.830801 0.724332
O O17 0.000000 0.311260 0.500000
#
# Coordination Sequence:
#
# PCOD9187078 Si02
#       7
#     8   8   8   8   8   8   8
#     4  10  19  35  57  84 121 161 192 227 276 346
#     4  10  21  34  57  87 127 158 188 221 275 350
#     4  11  23  33  52  84 123 154 180 221 276 350
#     4  10  21  34  55  88 124 158 190 226 276 348
#     4  11  23  38  59  86 112 154 188 233 292 344
#     4  11  22  36  57  84 115 153 200 235 289 339
#     4  11  25  44  61  82 109 145 203 255 295 339
#
# _framework density 19.096073000000001
#
# number of rings (size 3 to 8) (size 9 to 14) (size 15 to 20)
#    0.000    1.429    1.429    4.714   10.000    2.857 
#    0.000    0.000    0.000    1.714    0.000    1.000 
#    0.000    0.000    0.000    0.000    0.000    0.000 
#
# Total GULP energy -156302.249414 kJ/mol
# GULP energy per Si atom -5582.223193 kJ/mol
# Density = 1.905261 g / cm^3
# Si number density = 19.096073 Si / 1000 Ang^3
#
#
#
# Elastic Constant Matrix: (Units=GPa)
#
#
# Indices 1 2 3 4 5 6 
#
# 1 78.3748 42.3636 11.9441 -0.0039 -21.1376 -0.0005
# 2 42.3636 131.7646 25.1135 -0.0019 -14.4043 -0.0013
# 3 11.9441 25.1135 40.0041 0.0003 -18.1460 0.0027
# 4 -0.0039 -0.0019 0.0003 15.9407 -0.0023 -5.6849
# 5 -21.1376 -14.4043 -18.1460 -0.0023 24.7759 0.0015
# 6 -0.0005 -0.0013 0.0027 -5.6849 0.0015 17.7682
#
#
#
# Elastic Compliance Matrix: (Units=1/GPa)
#
#
# Indices 1 2 3 4 5 6 
#
# 1 0.019607 -0.005435 0.005559 0.000007 0.017640 0.000000
# 2 -0.005435 0.010168 -0.006263 0.000000 -0.003313 0.000002
# 3 0.005559 -0.006263 0.041585 0.000001 0.031558 -0.000009
# 4 0.000007 0.000000 0.000001 0.070812 0.000012 0.022656
# 5 0.017640 -0.003313 0.031558 0.000012 0.076599 -0.000007
# 6 0.000000 0.000002 -0.000009 0.022656 -0.000007 0.063529
#
#
# Mechanical properties :
#
#
# Convention : Reuss Voigt Hill
#
# Bulk Modulus (GPa) = 16.92562 45.44289 31.18425
# Shear Modulus (GPa) = 15.90977 23.07845 19.49411
#
# Velocity S-wave (km/s) = 2.88955 3.48018 3.19853
# Velocity P-wave (km/s) = 4.47385 6.32436 5.47781
#
# Compressibility (1/GPa) = 0.05908204
#
# Stress axis : x y z
#
# Youngs Moduli (GPa) = 51.00158 98.34424 24.04740
#
# Poissons Ratio (x) = 0.53452 -0.13369
# Poissons Ratio (y) = 0.27720 0.15061
# Poissons Ratio (z) = -0.28354 0.61595
#
# Static dielectric constant tensor:
#      x y z
#    x 1.753800 0.000000 -0.017830 
#    y 0.000000 1.723850 0.000000 
#    z -0.017830 0.000000 1.664540 
# 
# From -- ./inp_files/124251.got.cif
#   From: 2010.05.17/outbox.cif.g08.bks.cpg/sg12_63_cif.got.tgz:124251.got - 2010.06.03 13:09:07.
