data_PCOD9187536
_publ_section_title
;
Structure prediction by ZEFSAII (Michael W. Deem and Ramdas Pophale) SiO2 
 PCOD9187536
Probable space group: C 2/M
;
_chemical_formula_sum "Si O2"
_cell_formula_units_Z 56
_cell_length_a 15.075253
_cell_length_b 23.181048
_cell_length_c 9.879695
_cell_angle_alpha 90.000000
_cell_angle_beta 132.484196
_cell_angle_gamma 90.000000
_cell_volume 2546.137401
_symmetry_space_group_name_H-M "C 2/M"
_symmetry_group_IT_number 12
_symmetry_cell_setting 'monoclinic'
loop_
_space_group_symop_operation_xyz
x,y,z
-x,y,-z
-x,-y,-z
x,-y,z
1/2+x,1/2+y,z
1/2-x,1/2+y,-z
1/2-x,1/2-y,-z
1/2+x,1/2-y,z
loop_
_atom_site_type_symbol
_atom_site_label
_atom_site_fract_x
_atom_site_fract_y
_atom_site_fract_z
Si Si1 0.001982 0.229018 0.273597
Si Si2 0.497954 0.153387 0.843080
Si Si3 0.384558 0.363097 0.788716
Si Si4 0.773156 0.255888 0.362168
Si Si5 0.707050 0.066107 0.444314
Si Si6 0.859070 0.063265 0.322728
Si Si7 0.739867 0.324827 0.897191
O O1 0.859942 0.217983 0.142571
O O2 0.025453 0.277939 0.185120
O O3 0.059941 0.169052 0.285504
O O4 0.081668 0.252301 0.480398
O O5 0.399250 0.113754 0.668221
O O6 0.500000 0.132324 0.000000
O O7 0.630908 0.155190 0.913566
O O8 0.293155 0.314173 0.753416
O O9 0.303495 0.415944 0.657634
O O10 0.500000 0.375331 0.000000
O O11 0.750000 0.250000 0.500000
O O12 0.735501 0.204250 0.224566
O O13 0.779207 0.069504 0.376279
O O14 0.664737 0.000000 0.416288
O O15 0.828893 0.115614 0.195559
O O16 0.000000 0.065370 0.500000
O O17 0.831918 0.000000 0.236587
#
# Coordination Sequence:
#
# PCOD9187536 Si02
#       7
#     8   8   8   8   8   8   8
#     4  11  22  37  59  93 130 164 206 262 324 383
#     4  12  23  39  61  89 134 167 208 264 321 383
#     4  11  22  39  64  90 123 165 212 264 323 377
#     4  10  19  35  59  88 128 165 201 257 323 379
#     4  11  24  42  64  91 123 170 222 266 319 383
#     4  10  20  36  58  87 124 162 207 264 320 373
#     4  12  22  35  60  93 127 166 212 256 316 394
#
# _framework density 21.994102000000002
#
# number of rings (size 3 to 8) (size 9 to 14) (size 15 to 20)
#    0.000    1.000    2.857    7.286    0.000    1.143 
#    0.000    0.000    0.000    0.000    0.000    7.000 
#    0.000    0.000    0.000    0.000    0.000    0.000 
#
# Total GULP energy -156199.629691 kJ/mol
# GULP energy per Si atom -5578.558203 kJ/mol
# Density = 2.194404 g / cm^3
# Si number density = 21.994102 Si / 1000 Ang^3
#
#
#
# Elastic Constant Matrix: (Units=GPa)
#
#
# Indices 1 2 3 4 5 6 
#
# 1 93.4142 30.2271 27.9386 0.0000 34.2690 0.0000
# 2 30.2271 114.7023 32.1019 0.0000 11.9797 0.0000
# 3 27.9386 32.1019 127.4954 0.0000 30.0806 0.0000
# 4 0.0000 0.0000 0.0000 12.0115 0.0000 11.1455
# 5 34.2690 11.9797 30.0806 0.0000 33.9809 0.0000
# 6 0.0000 0.0000 0.0000 11.1455 0.0000 20.0032
#
#
#
# Elastic Compliance Matrix: (Units=1/GPa)
#
#
# Indices 1 2 3 4 5 6 
#
# 1 0.018015 -0.003174 0.001105 0.000000 -0.018026 0.000000
# 2 -0.003174 0.010002 -0.002207 0.000000 0.001628 0.000000
# 3 0.001105 -0.002207 0.010411 0.000000 -0.009551 0.000000
# 4 0.000000 0.000000 0.000000 0.172373 0.000000 -0.096044
# 5 -0.018026 0.001628 -0.009551 0.000000 0.055488 0.000000
# 6 0.000000 0.000000 0.000000 -0.096044 0.000000 0.103506
#
#
# Mechanical properties :
#
#
# Convention : Reuss Voigt Hill
#
# Bulk Modulus (GPa) = 33.47317 57.34967 45.41142
# Shear Modulus (GPa) = 12.87645 29.55541 21.21593
#
# Velocity S-wave (km/s) = 2.42223 3.66975 3.10920
# Velocity P-wave (km/s) = 4.80366 6.63986 5.79495
#
# Compressibility (1/GPa) = 0.02987467
#
# Stress axis : x y z
#
# Youngs Moduli (GPa) = 55.51080 99.97759 96.05551
#
# Poissons Ratio (x) = 0.31730 -0.10609
# Poissons Ratio (y) = 0.17618 0.21201
# Poissons Ratio (z) = -0.06131 0.22066
#
# Static dielectric constant tensor:
#      x y z
#    x 1.942570 0.000000 0.068770 
#    y 0.000000 1.784060 0.000000 
#    z 0.068770 0.000000 1.909500 
# 
# From -- ./inp_files/160336.got.cif
#   From: 2010.05.17/outbox.cif.g08.bks.cpg/sg12_81_cif.got.tgz:160336.got - 2010.06.03 13:09:07.
