data_PCOD9187389
_publ_section_title
;
Structure prediction by ZEFSAII (Michael W. Deem and Ramdas Pophale) SiO2 
 PCOD9187389
Probable space group: C 2/M
;
_chemical_formula_sum "Si O2"
_cell_formula_units_Z 64
_cell_length_a 20.210454
_cell_length_b 7.915721
_cell_length_c 31.949570
_cell_angle_alpha 90.000000
_cell_angle_beta 141.797316
_cell_angle_gamma 90.000000
_cell_volume 3161.060399
_symmetry_space_group_name_H-M "C 2/M"
_symmetry_group_IT_number 12
_symmetry_cell_setting 'monoclinic'
loop_
_space_group_symop_operation_xyz
x,y,z
-x,y,-z
-x,-y,-z
x,-y,z
1/2+x,1/2+y,z
1/2-x,1/2+y,-z
1/2-x,1/2-y,-z
1/2+x,1/2-y,z
loop_
_atom_site_type_symbol
_atom_site_label
_atom_site_fract_x
_atom_site_fract_y
_atom_site_fract_z
Si Si1 0.261989 0.797135 0.457845
Si Si2 0.493057 0.696554 0.543269
Si Si3 0.033545 0.797208 0.312309
Si Si4 0.020720 0.704763 0.962963
Si Si5 0.624439 0.800517 0.690477
Si Si6 0.981725 0.792577 0.193003
Si Si7 0.250860 0.702923 0.048522
Si Si8 0.631077 0.296867 0.189993
O O1 0.250000 0.750000 0.500000
O O2 0.369816 0.715173 0.494825
O O3 0.152600 0.736592 0.382317
O O4 0.271382 0.000000 0.457866
O O5 0.500000 0.772741 0.500000
O O6 0.523236 0.500000 0.555466
O O7 0.565668 0.768803 0.616856
O O8 0.949643 0.759776 0.307760
O O9 0.005464 0.736111 0.251943
O O10 0.038928 0.000000 0.312966
O O11 0.020279 0.500000 0.962223
O O12 0.936094 0.758184 0.885421
O O13 0.139583 0.767210 0.011363
O O14 0.000000 0.760345 0.000000
O O15 0.746439 0.731412 0.751166
O O16 0.632824 0.000000 0.700073
O O17 0.861896 0.735263 0.122717
O O18 0.064528 0.736889 0.197882
O O19 0.983386 0.000000 0.193269
O O20 0.250685 0.500000 0.053215
O O21 0.250000 0.750000 0.000000
O O22 0.636673 0.500000 0.196519
#
# Coordination Sequence:
#
# PCOD9187389 Si02
#       8
#     8   8   8   8   8   8   8   8
#     4  11  22  38  64  92 121 156 200 250 299 357
#     4  11  25  43  63  89 121 161 204 247 302 358
#     4  10  22  39  63  88 116 157 197 238 295 355
#     4  10  22  37  57  87 117 152 196 240 290 348
#     4  11  24  40  61  88 120 156 197 246 299 356
#     4   9  19  37  60  84 112 151 196 239 286 347
#     4  10  19  35  59  83 111 148 192 240 290 340
#     4  10  22  40  60  84 116 155 196 241 295 351
#
# _framework density 20.246369999999999
#
# number of rings (size 3 to 8) (size 9 to 14) (size 15 to 20)
#    0.000    1.750    2.500    1.125    3.500    2.750 
#    0.000    1.250    0.000    0.000    0.000    0.000 
#    0.000    0.000    0.000    0.000    0.000    0.000 
#
# Total GULP energy -178633.190588 kJ/mol
# GULP energy per Si atom -5582.287206 kJ/mol
# Density = 2.020029 g / cm^3
# Si number density = 20.246370 Si / 1000 Ang^3
#
#
#
# Elastic Constant Matrix: (Units=GPa)
#
#
# Indices 1 2 3 4 5 6 
#
# 1 171.2714 -11.8994 102.2586 0.0001 -2.2030 -0.0001
# 2 -11.8994 14.4505 -4.6382 0.0002 1.8201 0.0000
# 3 102.2586 -4.6382 209.3170 0.0000 0.3389 -0.0001
# 4 0.0001 0.0002 0.0000 21.3329 0.0000 2.6198
# 5 -2.2030 1.8201 0.3389 0.0000 42.8224 0.0001
# 6 -0.0001 0.0000 -0.0001 2.6198 0.0001 11.2155
#
#
#
# Elastic Compliance Matrix: (Units=1/GPa)
#
#
# Indices 1 2 3 4 5 6 
#
# 1 0.008710 0.005818 -0.004126 0.000000 0.000233 0.000000
# 2 0.005818 0.073965 -0.001199 -0.000001 -0.002835 0.000000
# 3 -0.004126 -0.001199 0.006767 0.000000 -0.000215 0.000000
# 4 0.000000 -0.000001 0.000000 0.048260 0.000000 -0.011273
# 5 0.000233 -0.002835 -0.000215 0.000000 0.023486 0.000000
# 6 0.000000 0.000000 0.000000 -0.011273 0.000000 0.091796
#
#
# Mechanical properties :
#
#
# Convention : Reuss Voigt Hill
#
# Bulk Modulus (GPa) = 11.05858 62.94233 37.00045
# Shear Modulus (GPa) = 17.72166 35.69535 26.70850
#
# Velocity S-wave (km/s) = 2.96176 4.20342 3.63598
# Velocity P-wave (km/s) = 4.14365 7.39689 5.99516
#
# Compressibility (1/GPa) = 0.09042755
#
# Stress axis : x y z
#
# Youngs Moduli (GPa) = 114.81567 13.51992 147.77336
#
# Poissons Ratio (x) = -0.07866 0.60977
# Poissons Ratio (y) = -0.66801 0.17715
# Poissons Ratio (z) = 0.47378 0.01621
#
# Static dielectric constant tensor:
#      x y z
#    x 1.699310 0.000000 -0.008640 
#    y 0.000000 1.719130 0.000000 
#    z -0.008640 0.000000 1.694750 
# 
# From -- ./inp_files/378511.got.cif
#   From: 2010.05.17/outbox.cif.g08.bks.cpg/sg12_190_cif.got.tgz:378511.got - 2010.06.03 13:09:07.
