data_PCOD9187636
_publ_section_title
;
Structure prediction by ZEFSAII (Michael W. Deem and Ramdas Pophale) SiO2 
 PCOD9187636
Probable space group: C 2/M
;
_chemical_formula_sum "Si O2"
_cell_formula_units_Z 56
_cell_length_a 20.905925
_cell_length_b 8.338346
_cell_length_c 17.771655
_cell_angle_alpha 90.000000
_cell_angle_beta 75.129350
_cell_angle_gamma 90.000000
_cell_volume 2994.211533
_symmetry_space_group_name_H-M "C 2/M"
_symmetry_group_IT_number 12
_symmetry_cell_setting 'monoclinic'
loop_
_space_group_symop_operation_xyz
x,y,z
-x,y,-z
-x,-y,-z
x,-y,z
1/2+x,1/2+y,z
1/2-x,1/2+y,-z
1/2-x,1/2-y,-z
1/2+x,1/2-y,z
loop_
_atom_site_type_symbol
_atom_site_label
_atom_site_fract_x
_atom_site_fract_y
_atom_site_fract_z
Si Si1 0.044394 0.690662 0.763322
Si Si2 0.809983 0.694556 0.737581
Si Si3 0.401964 0.804911 0.577669
Si Si4 0.336477 0.690318 0.173036
Si Si5 0.319916 0.811520 0.011152
Si Si6 0.952303 0.305156 0.406612
Si Si7 0.900118 0.188726 0.848815
O O1 0.032137 0.500000 0.763537
O O2 0.103170 0.726899 0.802764
O O3 0.063038 0.747345 0.673178
O O4 0.976173 0.772142 0.808729
O O5 0.811373 0.500000 0.739428
O O6 0.842544 0.748720 0.649111
O O7 0.734615 0.745896 0.773337
O O8 0.855650 0.754872 0.791892
O O9 0.406580 0.749342 0.489768
O O10 0.472019 0.761320 0.595309
O O11 0.400026 0.000000 0.576985
O O12 0.341760 0.500000 0.183426
O O13 0.336246 0.725683 0.084390
O O14 0.374178 0.777021 0.931053
O O15 0.314753 0.000000 0.026985
O O16 0.250000 0.750000 0.000000
O O17 0.949791 0.500000 0.408166
O O18 0.890864 0.000000 0.862476
#
# Coordination Sequence:
#
# PCOD9187636 Si02
#       7
#     8   8   8   8   8   8   8
#     4  11  22  39  60  85 119 159 200 245 297 354
#     4  10  19  35  60  86 116 154 199 244 290 348
#     4   8  13  26  52  87 114 144 194 246 289 341
#     4  11  24  40  59  86 121 159 196 242 296 351
#     4  12  24  41  64  91 119 152 194 241 291 345
#     4   8  14  26  52  85 115 147 193 245 291 344
#     4  12  24  38  61  89 119 153 194 244 293 351
#
# _framework density 18.702753999999999
#
# number of rings (size 3 to 8) (size 9 to 14) (size 15 to 20)
#    0.000    1.714    2.857    4.286    0.000    1.143 
#    0.000    3.571    0.000    2.571    0.000    0.000 
#    0.000    0.000    0.000    0.000    0.000    0.000 
#
# Total GULP energy -156353.490022 kJ/mol
# GULP energy per Si atom -5584.053215 kJ/mol
# Density = 1.866019 g / cm^3
# Si number density = 18.702754 Si / 1000 Ang^3
#
#
#
# Elastic Constant Matrix: (Units=GPa)
#
#
# Indices 1 2 3 4 5 6 
#
# 1 71.4006 -11.6524 19.8328 0.0000 0.8248 0.0000
# 2 -11.6524 18.0065 -20.7952 0.0000 -3.9851 0.0000
# 3 19.8328 -20.7952 110.3131 0.0000 -3.9018 0.0000
# 4 0.0000 0.0000 0.0000 14.9008 0.0000 0.2131
# 5 0.8248 -3.9851 -3.9018 0.0000 29.7396 0.0000
# 6 0.0000 0.0000 0.0000 0.2131 0.0000 24.6342
#
#
#
# Elastic Compliance Matrix: (Units=1/GPa)
#
#
# Indices 1 2 3 4 5 6 
#
# 1 0.015787 0.009082 -0.001104 0.000000 0.000634 0.000000
# 2 0.009082 0.080223 0.013926 0.000000 0.012325 0.000000
# 3 -0.001104 0.013926 0.012012 0.000000 0.003473 0.000000
# 4 0.000000 0.000000 0.000000 0.067119 0.000000 -0.000581
# 5 0.000634 0.012325 0.003473 0.000000 0.035715 0.000000
# 6 0.000000 0.000000 0.000000 -0.000581 0.000000 0.040599
#
#
# Mechanical properties :
#
#
# Convention : Reuss Voigt Hill
#
# Bulk Modulus (GPa) = 6.58634 19.38785 12.98710
# Shear Modulus (GPa) = 19.36060 28.01057 23.68559
#
# Velocity S-wave (km/s) = 3.22090 3.87417 3.56254
# Velocity P-wave (km/s) = 4.16672 5.51372 4.88685
#
# Compressibility (1/GPa) = 0.15182935
#
# Stress axis : x y z
#
# Youngs Moduli (GPa) = 63.34372 12.46523 83.25288
#
# Poissons Ratio (x) = -0.11321 0.09190
# Poissons Ratio (y) = -0.57527 -1.15939
# Poissons Ratio (z) = 0.06992 -0.17359
#
# Static dielectric constant tensor:
#      x y z
#    x 1.622680 0.000000 0.005580 
#    y 0.000000 1.650880 0.000000 
#    z 0.005580 0.000000 1.679770 
# 
# From -- ./inp_files/275100.got.cif
#   From: 2010.05.17/outbox.cif.g08.bks.cpg/sg12_138_cif.got.tgz:275100.got - 2010.06.03 13:09:07.
