data_PCOD9187862
_publ_section_title
;
Structure prediction by ZEFSAII (Michael W. Deem and Ramdas Pophale) SiO2 
 PCOD9187862
Probable space group: C 2/M
;
_chemical_formula_sum "Si O2"
_cell_formula_units_Z 48
_cell_length_a 29.596188
_cell_length_b 7.523483
_cell_length_c 14.634251
_cell_angle_alpha 90.000000
_cell_angle_beta 39.281763
_cell_angle_gamma 90.000000
_cell_volume 2063.104475
_symmetry_space_group_name_H-M "C 2/M"
_symmetry_group_IT_number 12
_symmetry_cell_setting 'monoclinic'
loop_
_space_group_symop_operation_xyz
x,y,z
-x,y,-z
-x,-y,-z
x,-y,z
1/2+x,1/2+y,z
1/2-x,1/2+y,-z
1/2-x,1/2-y,-z
1/2+x,1/2-y,z
loop_
_atom_site_type_symbol
_atom_site_label
_atom_site_fract_x
_atom_site_fract_y
_atom_site_fract_z
Si Si1 0.808872 0.787420 0.485052
Si Si2 0.965240 0.209908 0.267514
Si Si3 0.818191 0.287297 0.955828
Si Si4 0.562425 0.797908 0.961254
Si Si5 0.708829 0.218389 0.795994
Si Si6 0.971562 0.714099 0.642240
O O1 0.750000 0.750000 0.500000
O O2 0.889656 0.721342 0.347126
O O3 0.777892 0.726162 0.631301
O O4 0.815141 0.000000 0.479721
O O5 0.030880 0.300020 0.112744
O O6 0.974366 0.239823 0.360674
O O7 0.971090 0.000000 0.240717
O O8 0.825861 0.500000 0.951121
O O9 0.892630 0.220185 0.795934
O O10 0.750000 0.250000 0.000000
O O11 0.801155 0.220720 0.084798
O O12 0.570772 0.000000 0.914521
O O13 0.500000 0.710613 0.000000
O O14 0.640384 0.718502 0.844866
O O15 0.707280 0.000000 0.799061
O O16 0.967396 0.500000 0.643117
O O17 0.000000 0.779583 0.500000
#
# Coordination Sequence:
#
# PCOD9187862 Si02
#       6
#     8   8   8   8   8   8
#     4  10  22  39  58  84 116 153 194 235 282 336
#     4  11  23  37  57  87 122 152 185 238 295 344
#     4  10  21  38  60  85 114 147 187 236 285 339
#     4  10  19  35  62  86 108 149 196 234 280 341
#     4   9  18  36  58  80 111 148 188 231 275 334
#     4  10  22  41  63  86 114 150 195 240 284 345
#
# _framework density 23.265910000000002
#
# number of rings (size 3 to 8) (size 9 to 14) (size 15 to 20)
#    0.000    2.000    1.667    1.500    2.333    4.000 
#    0.000    1.667    0.000    0.000    0.000    0.000 
#    0.000    0.000    0.000    0.000    0.000    0.000 
#
# Total GULP energy -134123.132662 kJ/mol
# GULP energy per Si atom -5588.463861 kJ/mol
# Density = 2.321296 g / cm^3
# Si number density = 23.265910 Si / 1000 Ang^3
#
#
#
# Elastic Constant Matrix: (Units=GPa)
#
#
# Indices 1 2 3 4 5 6 
#
# 1 97.5648 -5.1478 15.6361 0.0000 -1.0526 0.0000
# 2 -5.1478 69.8032 11.8706 -0.0023 0.7910 0.0005
# 3 15.6361 11.8706 110.9110 -0.0008 -0.8376 0.0001
# 4 0.0000 -0.0023 -0.0008 4.9794 0.0002 3.6540
# 5 -1.0526 0.7910 -0.8376 0.0002 46.6761 0.0000
# 6 0.0000 0.0005 0.0001 3.6540 0.0000 23.9228
#
#
#
# Elastic Compliance Matrix: (Units=1/GPa)
#
#
# Indices 1 2 3 4 5 6 
#
# 1 0.010563 0.001049 -0.001600 0.000000 0.000192 0.000000
# 2 0.001049 0.014699 -0.001723 0.000008 -0.000256 -0.000001
# 3 -0.001600 -0.001723 0.009427 0.000001 0.000162 0.000000
# 4 0.000000 0.000008 0.000001 0.226180 -0.000001 -0.034547
# 5 0.000192 -0.000256 0.000162 -0.000001 0.021436 0.000000
# 6 0.000000 -0.000001 0.000000 -0.034547 0.000000 0.047078
#
#
# Mechanical properties :
#
#
# Convention : Reuss Voigt Hill
#
# Bulk Modulus (GPa) = 33.17642 35.88853 34.53248
# Shear Modulus (GPa) = 14.53576 32.17699 23.35638
#
# Velocity S-wave (km/s) = 2.50224 3.72292 3.17186
# Velocity P-wave (km/s) = 4.75804 5.82572 5.31874
#
# Compressibility (1/GPa) = 0.03014189
#
# Stress axis : x y z
#
# Youngs Moduli (GPa) = 94.66609 68.03057 106.07320
#
# Poissons Ratio (x) = -0.07136 0.16972
# Poissons Ratio (y) = -0.09930 0.18277
# Poissons Ratio (z) = 0.15147 0.11722
#
# Static dielectric constant tensor:
#      x y z
#    x 1.868240 0.000000 0.015640 
#    y 0.000000 1.897080 0.000000 
#    z 0.015640 0.000000 1.877190 
# 
# From -- ./inp_files/230446.got.cif
#   From: 2010.05.17/outbox.cif.g08.bks.cpg/sg12_116_cif.got.tgz:230446.got - 2010.06.03 13:09:07.
