data_PCOD9187608
_publ_section_title
;
Structure prediction by ZEFSAII (Michael W. Deem and Ramdas Pophale) SiO2 
 PCOD9187608
Probable space group: C 2/M
;
_chemical_formula_sum "Si O2"
_cell_formula_units_Z 56
_cell_length_a 18.905418
_cell_length_b 12.724548
_cell_length_c 15.144805
_cell_angle_alpha 90.000000
_cell_angle_beta 115.522627
_cell_angle_gamma 90.000000
_cell_volume 3287.749613
_symmetry_space_group_name_H-M "C 2/M"
_symmetry_group_IT_number 12
_symmetry_cell_setting 'monoclinic'
loop_
_space_group_symop_operation_xyz
x,y,z
-x,y,-z
-x,-y,-z
x,-y,z
1/2+x,1/2+y,z
1/2-x,1/2+y,-z
1/2-x,1/2-y,-z
1/2+x,1/2-y,z
loop_
_atom_site_type_symbol
_atom_site_label
_atom_site_fract_x
_atom_site_fract_y
_atom_site_fract_z
Si Si1 0.939856 0.375549 0.308722
Si Si2 0.211900 0.374554 0.079048
Si Si3 0.815943 0.624903 0.388980
Si Si4 0.128054 0.238743 0.885050
Si Si5 0.122308 0.626322 0.390417
Si Si6 0.520491 0.622160 0.114685
Si Si7 0.826705 0.259359 0.760274
O O1 0.934716 0.500000 0.285632
O O2 0.896747 0.359565 0.378715
O O3 0.894392 0.310111 0.210371
O O4 0.031119 0.345992 0.357232
O O5 0.204278 0.500000 0.068669
O O6 0.299374 0.336756 0.100084
O O7 0.192399 0.333287 0.166642
O O8 0.155365 0.314388 0.979681
O O9 0.798878 0.500000 0.378166
O O10 0.828461 0.658649 0.496834
O O11 0.747813 0.687635 0.303458
O O12 0.052323 0.172907 0.872994
O O13 0.126558 0.500000 0.387194
O O14 0.151735 0.675798 0.315679
O O15 0.530666 0.500000 0.144137
O O16 0.599234 0.686682 0.175735
O O17 0.500000 0.627826 0.000000
#
# Coordination Sequence:
#
# PCOD9187608 Si02
#       7
#     8   8   8   8   8   8   8
#     4  10  19  35  60  85 112 145 189 235 279 332
#     4  11  24  38  58  86 115 149 187 228 280 338
#     4  10  21  37  57  84 111 147 193 239 279 326
#     4  11  21  41  58  83 115 150 188 225 280 335
#     4  10  21  36  58  84 113 146 188 237 288 332
#     4  11  23  39  59  84 114 152 192 230 274 334
#     4  12  21  38  57  84 117 151 185 231 283 339
#
# _framework density 17.032927000000001
#
# number of rings (size 3 to 8) (size 9 to 14) (size 15 to 20)
#    0.000    1.286    4.286    2.571    0.000    1.714 
#    0.000    0.714    0.000    0.000    0.000    2.000 
#    0.000    0.000    0.000    0.000    0.000    0.000 
#
# Total GULP energy -156374.970047 kJ/mol
# GULP energy per Si atom -5584.820359 kJ/mol
# Density = 1.699416 g / cm^3
# Si number density = 17.032927 Si / 1000 Ang^3
#
#
#
# Elastic Constant Matrix: (Units=GPa)
#
#
# Indices 1 2 3 4 5 6 
#
# 1 100.8883 51.1305 30.7662 0.0000 -7.0825 0.0000
# 2 51.1305 90.5786 46.4276 0.0000 -8.3731 0.0000
# 3 30.7662 46.4276 89.5360 0.0000 -16.1089 0.0000
# 4 0.0000 0.0000 0.0000 29.7825 0.0000 -3.5920
# 5 -7.0825 -8.3731 -16.1089 0.0000 30.0322 0.0000
# 6 0.0000 0.0000 0.0000 -3.5920 0.0000 24.6368
#
#
#
# Elastic Compliance Matrix: (Units=1/GPa)
#
#
# Indices 1 2 3 4 5 6 
#
# 1 0.013962 -0.007385 -0.000826 0.000000 0.000791 0.000000
# 2 -0.007385 0.018943 -0.007358 0.000000 -0.000407 0.000000
# 3 -0.000826 -0.007358 0.016451 0.000000 0.006578 0.000000
# 4 0.000000 0.000000 0.000000 0.034178 0.000000 0.004983
# 5 0.000791 -0.000407 0.006578 0.000000 0.036899 0.000000
# 6 0.000000 0.000000 0.000000 0.004983 0.000000 0.041316
#
#
# Mechanical properties :
#
#
# Convention : Reuss Voigt Hill
#
# Bulk Modulus (GPa) = 54.89043 59.73908 57.31476
# Shear Modulus (GPa) = 25.13069 27.06889 26.09979
#
# Velocity S-wave (km/s) = 3.84528 3.99081 3.91872
# Velocity P-wave (km/s) = 7.21186 7.50895 7.36190
#
# Compressibility (1/GPa) = 0.01821811
#
# Stress axis : x y z
#
# Youngs Moduli (GPa) = 71.62275 52.79072 60.78483
#
# Poissons Ratio (x) = 0.38985 0.05021
# Poissons Ratio (y) = 0.52893 0.44726
# Poissons Ratio (z) = 0.05916 0.38844
#
# Static dielectric constant tensor:
#      x y z
#    x 1.561980 0.000000 -0.002750 
#    y 0.000000 1.542740 0.000000 
#    z -0.002750 0.000000 1.555210 
# 
# From -- ./inp_files/223116.got.cif
#   From: 2010.05.17/outbox.cif.g08.bks.cpg/sg12_112_cif.got.tgz:223116.got - 2010.06.03 13:09:07.
