data_PCOD9187401
_publ_section_title
;
Structure prediction by ZEFSAII (Michael W. Deem and Ramdas Pophale) SiO2 
 PCOD9187401
Probable space group: C 2/M
;
_chemical_formula_sum "Si O2"
_cell_formula_units_Z 48
_cell_length_a 13.829512
_cell_length_b 18.977116
_cell_length_c 17.511277
_cell_angle_alpha 90.000000
_cell_angle_beta 26.417794
_cell_angle_gamma 90.000000
_cell_volume 2044.703342
_symmetry_space_group_name_H-M "C 2/M"
_symmetry_group_IT_number 12
_symmetry_cell_setting 'monoclinic'
loop_
_space_group_symop_operation_xyz
x,y,z
-x,y,-z
-x,-y,-z
x,-y,z
1/2+x,1/2+y,z
1/2-x,1/2+y,-z
1/2-x,1/2-y,-z
1/2+x,1/2-y,z
loop_
_atom_site_type_symbol
_atom_site_label
_atom_site_fract_x
_atom_site_fract_y
_atom_site_fract_z
Si Si1 0.113799 0.173459 0.168266
Si Si2 0.796352 0.779380 0.738847
Si Si3 0.279274 0.884883 0.747655
Si Si4 0.846115 0.922688 0.990635
Si Si5 0.785796 0.582947 0.498078
Si Si6 0.693229 0.193160 0.648661
O O1 0.222602 0.140215 0.016654
O O2 0.947711 0.112685 0.312991
O O3 0.970482 0.242322 0.250504
O O4 0.260253 0.193465 0.136973
O O5 0.733810 0.698072 0.773967
O O6 0.708705 0.821381 0.727934
O O7 0.061137 0.781195 0.546935
O O8 0.109074 0.920833 0.811925
O O9 0.535050 0.899381 0.563918
O O10 0.224655 0.910391 0.872238
O O11 0.774180 0.000000 0.015808
O O12 0.784017 0.500000 0.485509
O O13 0.847032 0.627814 0.378958
#
# Coordination Sequence:
#
# PCOD9187401 Si02
#       6
#     8   8   8   8   8   8
#     4  11  20  37  57  84 111 144 187 230 270 323
#     4  10  19  35  59  84 108 144 187 227 273 321
#     4  11  20  37  58  79 113 147 183 225 276 335
#     4  11  24  37  52  83 121 147 175 229 287 329
#     4  11  21  36  59  85 110 147 188 223 273 333
#     4  10  19  36  57  85 115 140 181 236 273 314
#
# _framework density 23.475287000000002
#
# number of rings (size 3 to 8) (size 9 to 14) (size 15 to 20)
#    0.000    1.333    5.000    3.500    0.000    1.333 
#    0.000    9.167    0.000    0.000    0.000    2.333 
#    0.000    0.000    0.000    0.000    0.000    0.000 
#
# Total GULP energy -134394.867199 kJ/mol
# GULP energy per Si atom -5599.786133 kJ/mol
# Density = 2.342186 g / cm^3
# Si number density = 23.475287 Si / 1000 Ang^3
#
#
#
# Elastic Constant Matrix: (Units=GPa)
#
#
# Indices 1 2 3 4 5 6 
#
# 1 126.6099 39.9455 3.0505 -0.1009 14.0417 0.0206
# 2 39.9455 145.7327 3.2655 -0.1750 6.0098 0.0077
# 3 3.0505 3.2655 58.5217 -0.1565 7.1601 0.0250
# 4 -0.1009 -0.1750 -0.1565 -9.2062 0.0801 -8.2328
# 5 14.0417 6.0098 7.1601 0.0801 37.6902 -0.0109
# 6 0.0206 0.0077 0.0250 -8.2328 -0.0109 17.8954
#
#
#
# Elastic Compliance Matrix: (Units=1/GPa)
#
#
# Indices 1 2 3 4 5 6 
#
# 1 0.008964 -0.002335 0.000027 -0.000050 -0.002972 -0.000034
# 2 -0.002335 0.007519 -0.000264 -0.000081 -0.000279 -0.000038
# 3 0.000027 -0.000264 0.017503 -0.000211 -0.003293 -0.000123
# 4 -0.000050 -0.000081 -0.000211 -0.076955 0.000225 -0.035403
# 5 -0.002972 -0.000279 -0.003293 0.000225 0.028309 0.000129
# 6 -0.000034 -0.000038 -0.000123 -0.035403 0.000129 0.039594
#
#
# Mechanical properties :
#
#
# Convention : Reuss Voigt Hill
#
# Bulk Modulus (GPa) = 34.67218 47.04301 40.85760
# Shear Modulus (GPa) = 125.96802 28.24939 77.10870
#
# Velocity S-wave (km/s) = 7.33323 3.47272 5.73743
# Velocity P-wave (km/s) = 9.30073 6.01354 7.83154
#
# Compressibility (1/GPa) = 0.02884156
#
# Stress axis : x y z
#
# Youngs Moduli (GPa) = 111.55774 132.99198 57.13193
#
# Poissons Ratio (x) = 0.31055 -0.00152
# Poissons Ratio (y) = 0.26050 0.01508
# Poissons Ratio (z) = -0.00296 0.03510
#
# Static dielectric constant tensor:
#      x y z
#    x 1.875920 0.000000 0.017140 
#    y 0.000000 1.805500 0.000040 
#    z 0.017140 0.000040 2.033870 
# 
# From -- ./inp_files/271592.got.cif
#   From: 2010.05.17/outbox.cif.g08.bks.cpg/sg12_136_cif.got.tgz:271592.got - 2010.06.03 13:09:07.
