data_PCOD9187280
_publ_section_title
;
Structure prediction by ZEFSAII (Michael W. Deem and Ramdas Pophale) SiO2 
 PCOD9187280
Probable space group: C 2/M
;
_chemical_formula_sum "Si O2"
_cell_formula_units_Z 44
_cell_length_a 11.257620
_cell_length_b 17.266191
_cell_length_c 12.157846
_cell_angle_alpha 90.000000
_cell_angle_beta 118.222858
_cell_angle_gamma 90.000000
_cell_volume 2082.247211
_symmetry_space_group_name_H-M "C 2/M"
_symmetry_group_IT_number 12
_symmetry_cell_setting 'monoclinic'
loop_
_space_group_symop_operation_xyz
x,y,z
-x,y,-z
-x,-y,-z
x,-y,z
1/2+x,1/2+y,z
1/2-x,1/2+y,-z
1/2-x,1/2-y,-z
1/2+x,1/2-y,z
loop_
_atom_site_type_symbol
_atom_site_label
_atom_site_fract_x
_atom_site_fract_y
_atom_site_fract_z
Si Si1 0.724987 0.587595 0.315975
Si Si2 0.382868 0.804729 0.537987
Si Si3 0.036498 0.142128 0.896191
Si Si4 0.045932 0.587462 0.763728
Si Si5 0.815241 0.585540 0.936938
Si Si6 0.500000 0.210178 0.000000
O O1 0.681828 0.500000 0.317149
O O2 0.818012 0.620495 0.451357
O O3 0.593246 0.637925 0.236904
O O4 0.817825 0.590461 0.248935
O O5 0.500000 0.776160 0.500000
O O6 0.250000 0.750000 0.500000
O O7 0.456350 0.841622 0.677447
O O8 0.161274 0.100452 0.896594
O O9 0.064445 0.231078 0.940012
O O10 0.000000 0.105839 0.000000
O O11 0.987371 0.500000 0.720638
O O12 0.101445 0.590128 0.912263
O O13 0.834673 0.500000 0.897622
O O14 0.879247 0.657376 0.901089
#
# Coordination Sequence:
#
# PCOD9187280 Si02
#       6
#     8   8   8   8   8   4
#     4  10  19  35  58  86 111 143 189 240 280 328
#     4  10  22  38  58  84 113 147 188 237 287 342
#     4  10  21  34  57  82 114 144 187 233 281 327
#     4   9  18  34  59  81 108 144 190 234 275 327
#     4  11  21  37  58  83 116 154 190 231 283 347
#     4  10  23  36  51  82 120 156 188 226 285 346
#
# _framework density 21.131015000000001
#
# number of rings (size 3 to 8) (size 9 to 14) (size 15 to 20)
#    0.545    1.455    1.818    1.909    2.545    2.909 
#    3.273    0.000    0.000    2.182    0.000    0.000 
#    0.000    0.000    0.000    0.000    0.000    0.000 
#
# Total GULP energy -122583.646022 kJ/mol
# GULP energy per Si atom -5571.983910 kJ/mol
# Density = 2.108292 g / cm^3
# Si number density = 21.131015 Si / 1000 Ang^3
#
#
#
# Elastic Constant Matrix: (Units=GPa)
#
#
# Indices 1 2 3 4 5 6 
#
# 1 94.1178 32.8322 16.7489 0.0000 16.3663 0.0000
# 2 32.8322 94.8982 -5.0216 0.0000 11.5164 0.0000
# 3 16.7489 -5.0216 52.8152 0.0000 13.2711 0.0000
# 4 0.0000 0.0000 0.0000 4.2044 0.0000 11.6065
# 5 16.3663 11.5164 13.2711 0.0000 26.3972 0.0000
# 6 0.0000 0.0000 0.0000 11.6065 0.0000 25.7362
#
#
#
# Elastic Compliance Matrix: (Units=1/GPa)
#
#
# Indices 1 2 3 4 5 6 
#
# 1 0.013583 -0.004306 -0.003517 0.000000 -0.004775 0.000000
# 2 -0.004306 0.012815 0.003798 0.000000 -0.004830 0.000000
# 3 -0.003517 0.003798 0.023211 0.000000 -0.011145 0.000000
# 4 0.000000 0.000000 0.000000 -0.970930 0.000000 0.437870
# 5 -0.004775 -0.004830 -0.011145 0.000000 0.048554 0.000000
# 6 0.000000 0.000000 0.000000 0.437870 0.000000 -0.158615
#
#
# Mechanical properties :
#
#
# Convention : Reuss Voigt Hill
#
# Bulk Modulus (GPa) = 24.06309 36.77224 30.41766
# Shear Modulus (GPa) = -4.95305 24.41899 9.73297
#
# Velocity S-wave (km/s) = -1.53266 3.40310 2.14849
# Velocity P-wave (km/s) = 2.87754 5.73422 4.53660
#
# Compressibility (1/GPa) = 0.04155742
#
# Stress axis : x y z
#
# Youngs Moduli (GPa) = 73.61948 78.03638 43.08305
#
# Poissons Ratio (x) = 0.33604 0.15153
# Poissons Ratio (y) = 0.31702 -0.16361
# Poissons Ratio (z) = 0.25894 -0.29636
#
# Static dielectric constant tensor:
#      x y z
#    x 1.811480 0.000000 -0.056490 
#    y 0.000000 1.821250 0.000000 
#    z -0.056490 0.000000 1.753450 
# 
# From -- ./inp_files/205759.got.cif
#   From: 2010.05.17/outbox.cif.g08.bks.cpg/sg12_103_cif.got.tgz:205759.got - 2010.06.03 13:09:07.
