data_PCOD9187879
_publ_section_title
;
Structure prediction by ZEFSAII (Michael W. Deem and Ramdas Pophale) SiO2 
 PCOD9187879
Probable space group: C 2/M
;
_chemical_formula_sum "Si O2"
_cell_formula_units_Z 64
_cell_length_a 17.153741
_cell_length_b 14.263320
_cell_length_c 17.706639
_cell_angle_alpha 90.000000
_cell_angle_beta 42.822036
_cell_angle_gamma 90.000000
_cell_volume 2944.746122
_symmetry_space_group_name_H-M "C 2/M"
_symmetry_group_IT_number 12
_symmetry_cell_setting 'monoclinic'
loop_
_space_group_symop_operation_xyz
x,y,z
-x,y,-z
-x,-y,-z
x,-y,z
1/2+x,1/2+y,z
1/2-x,1/2+y,-z
1/2-x,1/2-y,-z
1/2+x,1/2-y,z
loop_
_atom_site_type_symbol
_atom_site_label
_atom_site_fract_x
_atom_site_fract_y
_atom_site_fract_z
Si Si1 0.135459 0.598978 0.889425
Si Si2 0.378961 0.309839 0.129922
Si Si3 0.811001 0.864413 0.890863
Si Si4 0.426510 0.217252 0.481142
Si Si5 0.158923 0.214973 0.681542
Si Si6 0.541838 0.394619 0.636199
Si Si7 0.544644 0.895394 0.692566
Si Si8 0.218354 0.642641 0.113697
O O1 0.165908 0.500000 0.828381
O O2 0.160548 0.700191 0.836447
O O3 0.202046 0.600187 0.921324
O O4 0.000000 0.598483 0.000000
O O5 0.389804 0.336299 0.209473
O O6 0.285674 0.363099 0.144991
O O7 0.500000 0.313613 0.000000
O O8 0.805852 0.752399 0.884994
O O9 0.926075 0.896186 0.768208
O O10 0.796969 0.889481 0.988162
O O11 0.500000 0.185568 0.500000
O O12 0.293670 0.228890 0.595558
O O13 0.472951 0.317818 0.418746
O O14 0.435299 0.144535 0.405808
O O15 0.136759 0.150642 0.623948
O O16 0.096116 0.314204 0.709874
O O17 0.568805 0.500000 0.592294
O O18 0.407411 0.900012 0.799372
O O19 0.592283 0.000000 0.670078
#
# Coordination Sequence:
#
# PCOD9187879 Si02
#       8
#     8   8   8   8   8   8   8   8
#     4   9  19  31  49  84 128 164 202 251 307 369
#     4  10  21  37  61  90 123 170 211 253 314 375
#     4  10  19  35  62  89 126 173 211 252 310 376
#     4  11  25  46  68  92 125 162 211 264 317 375
#     4  11  24  42  66  93 126 165 207 263 316 372
#     4  11  23  42  67  94 125 165 211 258 319 379
#     4  11  24  42  66  96 127 166 213 262 317 373
#     4  10  20  37  62  90 128 171 211 254 309 372
#
# _framework density 21.733623000000001
#
# number of rings (size 3 to 8) (size 9 to 14) (size 15 to 20)
#    0.000    1.625    2.500    3.375    7.000    4.000 
#    0.000    1.875    0.000    1.500    0.000    0.000 
#    0.000    0.000    0.000    0.000    0.000    0.000 
#
# Total GULP energy -178742.097502 kJ/mol
# GULP energy per Si atom -5585.690547 kJ/mol
# Density = 2.168416 g / cm^3
# Si number density = 21.733623 Si / 1000 Ang^3
#
#
#
# Elastic Constant Matrix: (Units=GPa)
#
#
# Indices 1 2 3 4 5 6 
#
# 1 111.5503 -7.4323 29.1673 0.0000 -8.1204 0.0000
# 2 -7.4323 66.9807 0.3508 0.0000 -15.2011 0.0000
# 3 29.1673 0.3508 96.1378 0.0000 -7.1874 0.0000
# 4 0.0000 0.0000 0.0000 -2.5845 0.0000 -2.1944
# 5 -8.1204 -15.2011 -7.1874 0.0000 36.8286 0.0000
# 6 0.0000 0.0000 0.0000 -2.1944 0.0000 -0.3622
#
#
#
# Elastic Compliance Matrix: (Units=1/GPa)
#
#
# Indices 1 2 3 4 5 6 
#
# 1 0.009993 0.001652 -0.002864 0.000000 0.002326 0.000000
# 2 0.001652 0.016765 -0.000018 0.000000 0.007281 0.000000
# 3 -0.002864 -0.000018 0.011389 0.000000 0.001584 0.000000
# 4 0.000000 0.000000 0.000000 0.093363 0.000000 -0.565663
# 5 0.002326 0.007281 0.001584 0.000000 0.030980 0.000000
# 6 0.000000 0.000000 0.000000 -0.565663 0.000000 0.666217
#
#
# Mechanical properties :
#
#
# Convention : Reuss Voigt Hill
#
# Bulk Modulus (GPa) = 28.02136 35.42671 31.72403
# Shear Modulus (GPa) = 5.93076 23.61526 14.77301
#
# Velocity S-wave (km/s) = 1.65371 3.29990 2.60999
# Velocity P-wave (km/s) = 4.07031 5.55472 4.86941
#
# Compressibility (1/GPa) = 0.03568706
#
# Stress axis : x y z
#
# Youngs Moduli (GPa) = 100.07243 59.64677 87.80353
#
# Poissons Ratio (x) = -0.09852 0.25145
# Poissons Ratio (y) = -0.16529 0.00158
# Poissons Ratio (z) = 0.28659 0.00107
#
# Static dielectric constant tensor:
#      x y z
#    x 1.777930 0.000000 0.002170 
#    y 0.000000 1.832930 0.000000 
#    z 0.002170 0.000000 1.822800 
# 
# From -- ./inp_files/270648.got.cif
#   From: 2010.05.17/outbox.cif.g08.bks.cpg/sg12_136_cif.got.tgz:270648.got - 2010.06.03 13:09:07.
