data_PCOD9187868
_publ_section_title
;
Structure prediction by ZEFSAII (Michael W. Deem and Ramdas Pophale) SiO2 
 PCOD9187868
Probable space group: C 2/M
;
_chemical_formula_sum "Si O2"
_cell_formula_units_Z 56
_cell_length_a 10.588994
_cell_length_b 14.178414
_cell_length_c 26.712063
_cell_angle_alpha 90.000000
_cell_angle_beta 141.535402
_cell_angle_gamma 90.000000
_cell_volume 2494.604986
_symmetry_space_group_name_H-M "C 2/M"
_symmetry_group_IT_number 12
_symmetry_cell_setting 'monoclinic'
loop_
_space_group_symop_operation_xyz
x,y,z
-x,y,-z
-x,-y,-z
x,-y,z
1/2+x,1/2+y,z
1/2-x,1/2+y,-z
1/2-x,1/2-y,-z
1/2+x,1/2-y,z
loop_
_atom_site_type_symbol
_atom_site_label
_atom_site_fract_x
_atom_site_fract_y
_atom_site_fract_z
Si Si1 0.789350 0.281935 0.954298
Si Si2 0.417765 0.234270 0.349020
Si Si3 0.962433 0.604410 0.692990
Si Si4 0.490792 0.387967 0.793620
Si Si5 0.994665 0.103614 0.438593
Si Si6 0.168060 0.607435 0.857011
Si Si7 0.724892 0.395908 0.766976
O O1 0.593377 0.342440 0.874679
O O2 0.793486 0.187221 0.922205
O O3 0.750000 0.250000 0.000000
O O4 0.000000 0.330854 0.000000
O O5 0.559270 0.160980 0.364417
O O6 0.530207 0.291630 0.427743
O O7 0.380607 0.314431 0.296393
O O8 0.204021 0.174617 0.286285
O O9 0.027877 0.500000 0.700070
O O10 0.112767 0.638048 0.783067
O O11 0.743857 0.598651 0.650244
O O12 0.443512 0.500000 0.784657
O O13 0.666590 0.381586 0.806299
O O14 0.000000 0.104372 0.500000
O O15 0.086730 0.000000 0.452066
O O16 0.246775 0.500000 0.880058
O O17 0.959890 0.605401 0.824845
O O18 0.644615 0.500000 0.728668
#
# Coordination Sequence:
#
# PCOD9187868 Si02
#       7
#     8   8   8   8   8   8   8
#     4  12  26  41  61  88 125 165 207 257 321 390
#     4  12  20  36  64  90 120 157 204 252 298 354
#     4  10  21  37  60  88 119 158 204 250 299 352
#     4  11  25  42  62  90 121 160 207 255 308 368
#     4  10  21  38  60  91 129 164 200 242 295 361
#     4  10  20  39  63  87 116 156 206 260 305 362
#     4  10  19  35  62  88 114 150 201 255 300 351
#
# _framework density 22.448443000000001
#
# number of rings (size 3 to 8) (size 9 to 14) (size 15 to 20)
#    0.000    1.286    2.857    3.429    2.000    1.714 
#    0.000    0.000    0.000    1.714    0.000    0.000 
#    0.000    0.000    0.000    0.000    0.000    0.000 
#
# Total GULP energy -155973.791194 kJ/mol
# GULP energy per Si atom -5570.492543 kJ/mol
# Density = 2.239735 g / cm^3
# Si number density = 22.448443 Si / 1000 Ang^3
#
#
#
# Elastic Constant Matrix: (Units=GPa)
#
#
# Indices 1 2 3 4 5 6 
#
# 1 71.9411 25.9520 15.8234 0.0000 -9.4664 0.0000
# 2 25.9520 118.2416 46.5613 0.0000 -23.4639 0.0000
# 3 15.8234 46.5613 79.2095 0.0000 -18.2120 0.0000
# 4 0.0000 0.0000 0.0000 5.5716 0.0000 -11.1088
# 5 -9.4664 -23.4639 -18.2120 0.0000 37.7414 0.0000
# 6 0.0000 0.0000 0.0000 -11.1088 0.0000 33.5963
#
#
#
# Elastic Compliance Matrix: (Units=1/GPa)
#
#
# Indices 1 2 3 4 5 6 
#
# 1 0.015303 -0.002568 -0.001161 0.000000 0.001682 0.000000
# 2 -0.002568 0.012056 -0.005622 0.000000 0.004138 0.000000
# 3 -0.001161 -0.005622 0.017199 0.000000 0.004513 0.000000
# 4 0.000000 0.000000 0.000000 0.526760 0.000000 0.174177
# 5 0.001682 0.004138 0.004513 0.000000 0.031668 0.000000
# 6 0.000000 0.000000 0.000000 0.174177 0.000000 0.087358
#
#
# Mechanical properties :
#
#
# Convention : Reuss Voigt Hill
#
# Bulk Modulus (GPa) = 38.67571 49.56282 44.11927
# Shear Modulus (GPa) = 6.96703 27.45221 17.20962
#
# Velocity S-wave (km/s) = 1.76361 3.50079 2.77181
# Velocity P-wave (km/s) = 4.62744 6.20219 5.47176
#
# Compressibility (1/GPa) = 0.02585602
#
# Stress axis : x y z
#
# Youngs Moduli (GPa) = 65.34563 82.94597 58.14205
#
# Poissons Ratio (x) = 0.21300 0.06750
# Poissons Ratio (y) = 0.16780 0.32690
# Poissons Ratio (z) = 0.07586 0.46636
#
# Static dielectric constant tensor:
#      x y z
#    x 1.890030 0.000000 0.033430 
#    y 0.000000 1.960210 0.000000 
#    z 0.033430 0.000000 1.876510 
# 
# From -- ./inp_files/358228.got.cif
#   From: 2010.05.17/outbox.cif.g08.bks.cpg/sg12_180_cif.got.tgz:358228.got - 2010.06.03 13:09:07.
