data_PCOD9187864
_publ_section_title
;
Structure prediction by ZEFSAII (Michael W. Deem and Ramdas Pophale) SiO2 
 PCOD9187864
Probable space group: C 2/M
;
_chemical_formula_sum "Si O2"
_cell_formula_units_Z 58
_cell_length_a 19.705922
_cell_length_b 7.683273
_cell_length_c 20.668390
_cell_angle_alpha 90.000000
_cell_angle_beta 111.101340
_cell_angle_gamma 90.000000
_cell_volume 2919.481765
_symmetry_space_group_name_H-M "C 2/M"
_symmetry_group_IT_number 12
_symmetry_cell_setting 'monoclinic'
loop_
_space_group_symop_operation_xyz
x,y,z
-x,y,-z
-x,-y,-z
x,-y,z
1/2+x,1/2+y,z
1/2-x,1/2+y,-z
1/2-x,1/2-y,-z
1/2+x,1/2-y,z
loop_
_atom_site_type_symbol
_atom_site_label
_atom_site_fract_x
_atom_site_fract_y
_atom_site_fract_z
Si Si1 0.450716 0.295176 0.925290
Si Si2 0.011215 0.289481 0.805042
Si Si3 0.862752 0.297754 0.242068
Si Si4 0.201726 0.703519 0.177039
Si Si5 0.593938 0.295253 0.598513
Si Si6 0.762312 0.207923 0.430031
Si Si7 0.500000 0.000000 0.500000
Si Si8 0.359873 0.787518 0.706554
O O1 0.442358 0.500000 0.933078
O O2 0.491267 0.268743 0.870573
O O3 0.368514 0.224039 0.892504
O O4 0.500000 0.221637 0.000000
O O5 0.012308 0.500000 0.808982
O O6 0.084406 0.227649 0.795963
O O7 0.943632 0.235171 0.736218
O O8 0.881090 0.500000 0.257684
O O9 0.779469 0.285842 0.190425
O O10 0.877507 0.214190 0.317415
O O11 0.216735 0.500000 0.189071
O O12 0.174182 0.770045 0.237126
O O13 0.576193 0.500000 0.579359
O O14 0.661608 0.236182 0.575547
O O15 0.531295 0.156343 0.560232
O O16 0.750000 0.250000 0.500000
O O17 0.692888 0.276905 0.367077
O O18 0.762530 0.000000 0.422591
O O19 0.359680 0.000000 0.705788
#
# Coordination Sequence:
#
# PCOD9187864 Si02
#       8
#     8   8   8   8   8   8   2   8
#     4  10  21  38  60  91 128 160 199 253 310 370
#     4   9  20  36  59  90 121 157 201 250 300 367
#     4  11  21  37  61  94 126 160 206 258 312 368
#     4  10  19  35  62  87 115 162 206 249 300 364
#     4  11  24  43  63  89 122 166 215 264 321 387
#     4  10  21  36  57  86 117 152 198 259 313 372
#     4  12  26  44  64  86 124 176 210 262 332 390
#     4   8  15  33  55  77 108 145 192 245 298 352
#
# _framework density 19.866539
#
# number of rings (size 3 to 8) (size 9 to 14) (size 15 to 20)
#    0.000    2.069    2.069    2.276    0.966    3.310 
#    2.483    1.379    0.000    0.000    0.000    0.000 
#    0.000    0.000    0.000    0.000    0.000    0.000 
#
# Total GULP energy -161462.580306 kJ/mol
# GULP energy per Si atom -5567.675183 kJ/mol
# Density = 1.982132 g / cm^3
# Si number density = 19.866539 Si / 1000 Ang^3
#
#
#
# Elastic Constant Matrix: (Units=GPa)
#
#
# Indices 1 2 3 4 5 6 
#
# 1 92.0755 7.9332 17.0649 0.0000 7.0783 0.0000
# 2 7.9332 62.1490 10.9797 0.0000 3.6289 0.0000
# 3 17.0649 10.9797 89.2201 0.0000 20.6748 0.0000
# 4 0.0000 0.0000 0.0000 24.0923 0.0000 0.6432
# 5 7.0783 3.6289 20.6748 0.0000 23.3947 0.0000
# 6 0.0000 0.0000 0.0000 0.6432 0.0000 14.2465
#
#
#
# Elastic Compliance Matrix: (Units=1/GPa)
#
#
# Indices 1 2 3 4 5 6 
#
# 1 0.011395 -0.001060 -0.001620 0.000000 -0.001852 0.000000
# 2 -0.001060 0.016564 -0.001653 0.000000 -0.000788 0.000000
# 3 -0.001620 -0.001653 0.014523 0.000000 -0.012088 0.000000
# 4 0.000000 0.000000 0.000000 0.041557 0.000000 -0.001876
# 5 -0.001852 -0.000788 -0.012088 0.000000 0.054109 0.000000
# 6 0.000000 0.000000 0.000000 -0.001876 0.000000 0.070278
#
#
# Mechanical properties :
#
#
# Convention : Reuss Voigt Hill
#
# Bulk Modulus (GPa) = 29.57310 35.04446 32.30878
# Shear Modulus (GPa) = 21.89499 26.17781 24.03640
#
# Velocity S-wave (km/s) = 3.32340 3.63393 3.48213
# Velocity P-wave (km/s) = 5.44471 5.94016 5.69782
#
# Compressibility (1/GPa) = 0.03381451
#
# Stress axis : x y z
#
# Youngs Moduli (GPa) = 87.76114 60.37283 68.85850
#
# Poissons Ratio (x) = 0.06401 0.11154
# Poissons Ratio (y) = 0.09304 0.11383
# Poissons Ratio (z) = 0.14216 0.09980
#
# Static dielectric constant tensor:
#      x y z
#    x 1.684510 0.000000 0.090220 
#    y 0.000000 1.732500 0.000000 
#    z 0.090220 0.000000 1.570250 
# 
# From -- ./inp_files/314334.got.cif
#   From: 2010.05.17/outbox.cif.g08.bks.cpg/sg12_158_cif.got.tgz:314334.got - 2010.06.03 13:09:07.
