data_PCOD9187101
_publ_section_title
;
Structure prediction by ZEFSAII (Michael W. Deem and Ramdas Pophale) SiO2 
 PCOD9187101
Probable space group: C 2/M
;
_chemical_formula_sum "Si O2"
_cell_formula_units_Z 56
_cell_length_a 14.028349
_cell_length_b 17.837314
_cell_length_c 11.608727
_cell_angle_alpha 90.000000
_cell_angle_beta 65.221123
_cell_angle_gamma 90.000000
_cell_volume 2637.387640
_symmetry_space_group_name_H-M "C 2/M"
_symmetry_group_IT_number 12
_symmetry_cell_setting 'monoclinic'
loop_
_space_group_symop_operation_xyz
x,y,z
-x,y,-z
-x,-y,-z
x,-y,z
1/2+x,1/2+y,z
1/2-x,1/2+y,-z
1/2-x,1/2-y,-z
1/2+x,1/2-y,z
loop_
_atom_site_type_symbol
_atom_site_label
_atom_site_fract_x
_atom_site_fract_y
_atom_site_fract_z
Si Si1 0.413758 0.704584 0.132293
Si Si2 0.099786 0.298051 0.664006
Si Si3 0.523253 0.087189 0.128232
Si Si4 0.373874 0.584985 0.307184
Si Si5 0.793306 0.321693 0.042477
Si Si6 0.655010 0.313259 0.457869
Si Si7 0.612939 0.587027 0.261633
O O1 0.461788 0.737825 0.225697
O O2 0.345110 0.635422 0.211176
O O3 0.361636 0.778088 0.103954
O O4 0.500000 0.677317 0.000000
O O5 0.224039 0.293589 0.630419
O O6 0.099050 0.261899 0.536322
O O7 0.054809 0.375231 0.738110
O O8 0.530889 0.000000 0.149149
O O9 0.500000 0.092467 0.000000
O O10 0.632665 0.130736 0.078141
O O11 0.335818 0.500000 0.321333
O O12 0.337640 0.628227 0.439686
O O13 0.501186 0.583157 0.254011
O O14 0.704944 0.375751 0.139509
O O15 0.750000 0.250000 0.000000
O O16 0.605389 0.358490 0.376785
O O17 0.638964 0.500000 0.280728
#
# Coordination Sequence:
#
# PCOD9187101 Si02
#       7
#     8   8   8   8   8   8   8
#     4  11  19  38  59  82 115 150 199 237 288 360
#     4  10  19  35  57  88 119 152 194 239 293 355
#     4  11  21  37  62  91 121 151 193 250 306 353
#     4  10  23  38  57  85 119 156 194 243 294 348
#     4  12  23  37  61  91 118 157 195 243 298 359
#     4  10  20  34  59  84 121 153 197 246 289 352
#     4  11  22  38  59  90 122 150 193 253 304 340
#
# _framework density 21.233132000000001
#
# number of rings (size 3 to 8) (size 9 to 14) (size 15 to 20)
#    0.000    1.286    4.286    2.143    2.000    3.714 
#    0.000    1.429    0.000    0.000    0.000    1.000 
#    0.000    0.000    0.000    0.000    0.000    0.000 
#
# Total GULP energy -156015.909361 kJ/mol
# GULP energy per Si atom -5571.996763 kJ/mol
# Density = 2.118480 g / cm^3
# Si number density = 21.233132 Si / 1000 Ang^3
#
#
#
# Elastic Constant Matrix: (Units=GPa)
#
#
# Indices 1 2 3 4 5 6 
#
# 1 26.6953 25.5755 17.1501 0.0000 -3.5412 0.0000
# 2 25.5755 175.3449 51.7141 0.0000 -4.8175 0.0000
# 3 17.1501 51.7141 115.3277 0.0000 -19.7916 0.0000
# 4 0.0000 0.0000 0.0000 41.5844 0.0000 3.2484
# 5 -3.5412 -4.8175 -19.7916 0.0000 14.5024 0.0000
# 6 0.0000 0.0000 0.0000 3.2484 0.0000 27.2202
#
#
#
# Elastic Compliance Matrix: (Units=1/GPa)
#
#
# Indices 1 2 3 4 5 6 
#
# 1 0.045584 -0.005477 -0.003558 0.000000 0.004455 0.000000
# 2 -0.005477 0.007295 -0.002965 0.000000 -0.002960 0.000000
# 3 -0.003558 -0.002965 0.013334 0.000000 0.016344 0.000000
# 4 0.000000 0.000000 0.000000 0.024274 0.000000 -0.002897
# 5 0.004455 -0.002960 0.016344 0.000000 0.091363 0.000000
# 6 0.000000 0.000000 0.000000 -0.002897 0.000000 0.037083
#
#
# Mechanical properties :
#
#
# Convention : Reuss Voigt Hill
#
# Bulk Modulus (GPa) = 23.68903 56.24968 39.96936
# Shear Modulus (GPa) = 19.45498 31.52330 25.48914
#
# Velocity S-wave (km/s) = 3.03026 3.85727 3.46850
# Velocity P-wave (km/s) = 4.83985 6.81080 5.90809
#
# Compressibility (1/GPa) = 0.04221362
#
# Stress axis : x y z
#
# Youngs Moduli (GPa) = 21.93754 137.08151 74.99519
#
# Poissons Ratio (x) = 0.75079 0.26684
# Poissons Ratio (y) = 0.12015 0.22233
# Poissons Ratio (z) = 0.07806 0.40639
#
# Static dielectric constant tensor:
#      x y z
#    x 2.016950 0.000000 0.109760 
#    y 0.000000 1.784570 0.000000 
#    z 0.109760 0.000000 1.843590 
# 
# From -- ./inp_files/146035.got.cif
#   From: 2010.05.17/outbox.cif.g08.bks.cpg/sg12_74_cif.got.tgz:146035.got - 2010.06.03 13:09:07.
