data_PCOD9187757
_publ_section_title
;
Structure prediction by ZEFSAII (Michael W. Deem and Ramdas Pophale) SiO2 
 PCOD9187757
Probable space group: C 2/M
;
_chemical_formula_sum "Si O2"
_cell_formula_units_Z 64
_cell_length_a 15.084961
_cell_length_b 7.828583
_cell_length_c 28.466413
_cell_angle_alpha 90.000000
_cell_angle_beta 129.441120
_cell_angle_gamma 90.000000
_cell_volume 2596.173258
_symmetry_space_group_name_H-M "C 2/M"
_symmetry_group_IT_number 12
_symmetry_cell_setting 'monoclinic'
loop_
_space_group_symop_operation_xyz
x,y,z
-x,y,-z
-x,-y,-z
x,-y,z
1/2+x,1/2+y,z
1/2-x,1/2+y,-z
1/2-x,1/2-y,-z
1/2+x,1/2-y,z
loop_
_atom_site_type_symbol
_atom_site_label
_atom_site_fract_x
_atom_site_fract_y
_atom_site_fract_z
Si Si1 0.853574 0.699232 0.649874
Si Si2 0.373168 0.796256 0.946966
Si Si3 0.362275 0.807115 0.097782
Si Si4 0.110494 0.695876 0.596949
Si Si5 0.098212 0.709237 0.145971
Si Si6 0.619934 0.793910 0.444543
Si Si7 0.808760 0.207078 0.274013
Si Si8 0.946741 0.803148 0.225765
O O1 0.882518 0.500000 0.662739
O O2 0.716279 0.716464 0.606505
O O3 0.896361 0.770080 0.614302
O O4 0.920264 0.787785 0.714779
O O5 0.266817 0.759200 0.944727
O O6 0.346309 0.739759 0.884737
O O7 0.382958 0.000000 0.949374
O O8 0.500000 0.727105 0.000000
O O9 0.468221 0.724721 0.105552
O O10 0.409505 0.799320 0.167416
O O11 0.354380 0.000000 0.078273
O O12 0.108185 0.500000 0.579724
O O13 0.145924 0.705713 0.663931
O O14 0.980592 0.767428 0.554417
O O15 0.094909 0.500000 0.145957
O O16 0.179974 0.758991 0.216122
O O17 0.750000 0.750000 0.500000
O O18 0.609734 0.000000 0.440314
O O19 0.882302 0.247337 0.252189
O O20 0.812244 0.000000 0.282459
O O21 0.915678 0.000000 0.205291
#
# Coordination Sequence:
#
# PCOD9187757 Si02
#       8
#     8   8   8   8   8   8   8   8
#     4  11  23  41  62  90 124 159 197 242 300 356
#     4  10  21  40  62  81 110 155 203 248 294 352
#     4  11  22  36  59  87 120 155 190 241 298 354
#     4  11  23  40  61  91 123 154 198 246 293 354
#     4   9  19  37  57  83 116 152 190 231 291 354
#     4  10  24  43  63  86 119 158 203 252 296 350
#     4  10  19  35  61  87 118 157 193 236 295 360
#     4  11  21  36  62  92 120 155 198 241 292 356
#
# _framework density 24.651668000000001
#
# number of rings (size 3 to 8) (size 9 to 14) (size 15 to 20)
#    0.000    1.625    2.500    2.250    0.000    4.750 
#    0.000    4.375    0.000    0.000    0.000    0.000 
#    0.000    0.000    0.000    0.000    0.000    0.000 
#
# Total GULP energy -178934.814327 kJ/mol
# GULP energy per Si atom -5591.712948 kJ/mol
# Density = 2.459556 g / cm^3
# Si number density = 24.651668 Si / 1000 Ang^3
#
#
#
# Elastic Constant Matrix: (Units=GPa)
#
#
# Indices 1 2 3 4 5 6 
#
# 1 130.2592 -0.6181 8.9951 0.0000 29.4343 0.0000
# 2 -0.6181 33.9145 -6.0316 0.0000 0.4519 0.0000
# 3 8.9951 -6.0316 67.4762 0.0000 30.5891 0.0000
# 4 0.0000 0.0000 0.0000 20.4116 0.0000 6.0916
# 5 29.4343 0.4519 30.5891 0.0000 46.5054 0.0000
# 6 0.0000 0.0000 0.0000 6.0916 0.0000 18.2376
#
#
#
# Elastic Compliance Matrix: (Units=1/GPa)
#
#
# Indices 1 2 3 4 5 6 
#
# 1 0.009157 0.000634 0.002089 0.000000 -0.007176 0.000000
# 2 0.000634 0.030288 0.004187 0.000000 -0.003449 0.000000
# 3 0.002089 0.004187 0.022133 0.000000 -0.015921 0.000000
# 4 0.000000 0.000000 0.000000 0.054416 0.000000 -0.018176
# 5 -0.007176 -0.003449 -0.015921 0.000000 0.036551 0.000000
# 6 0.000000 0.000000 0.000000 -0.018176 0.000000 0.060903
#
#
# Mechanical properties :
#
#
# Convention : Reuss Voigt Hill
#
# Bulk Modulus (GPa) = 13.26290 26.26005 19.76148
# Shear Modulus (GPa) = 22.24585 32.31791 27.28188
#
# Velocity S-wave (km/s) = 3.00727 3.62468 3.33031
# Velocity P-wave (km/s) = 4.17732 5.30973 4.77720
#
# Compressibility (1/GPa) = 0.07539828
#
# Stress axis : x y z
#
# Youngs Moduli (GPa) = 109.20229 33.01639 45.18063
#
# Poissons Ratio (x) = -0.02093 -0.09439
# Poissons Ratio (y) = -0.06924 -0.18915
# Poissons Ratio (z) = -0.22814 -0.13823
#
# Static dielectric constant tensor:
#      x y z
#    x 1.989290 0.000000 0.039420 
#    y 0.000000 1.884160 0.000000 
#    z 0.039420 0.000000 1.981910 
# 
# From -- ./inp_files/375556.got.cif
#   From: 2010.05.17/outbox.cif.g08.bks.cpg/sg12_188_cif.got.tgz:375556.got - 2010.06.03 13:09:07.
