data_PCOD9187119
_publ_section_title
;
Structure prediction by ZEFSAII (Michael W. Deem and Ramdas Pophale) SiO2 
 PCOD9187119
Probable space group: C 2/M
;
_chemical_formula_sum "Si O2"
_cell_formula_units_Z 48
_cell_length_a 22.714851
_cell_length_b 20.525252
_cell_length_c 19.236933
_cell_angle_alpha 90.000000
_cell_angle_beta 18.104022
_cell_angle_gamma 90.000000
_cell_volume 2786.992435
_symmetry_space_group_name_H-M "C 2/M"
_symmetry_group_IT_number 12
_symmetry_cell_setting 'monoclinic'
loop_
_space_group_symop_operation_xyz
x,y,z
-x,y,-z
-x,-y,-z
x,-y,z
1/2+x,1/2+y,z
1/2-x,1/2+y,-z
1/2-x,1/2-y,-z
1/2+x,1/2-y,z
loop_
_atom_site_type_symbol
_atom_site_label
_atom_site_fract_x
_atom_site_fract_y
_atom_site_fract_z
Si Si1 0.062794 0.424199 0.140248
Si Si2 0.121290 0.379270 0.797257
Si Si3 0.054226 0.190477 0.153130
Si Si4 0.375555 0.722326 0.205775
Si Si5 0.499421 0.575152 0.683360
Si Si6 0.493683 0.188222 0.690523
O O1 0.021242 0.500000 0.199755
O O2 0.987174 0.377086 0.285514
O O3 0.977977 0.402992 0.161958
O O4 0.290893 0.415541 0.885001
O O5 0.130767 0.300939 0.786250
O O6 0.333157 0.407387 0.557423
O O7 0.000000 0.400211 0.000000
O O8 0.993594 0.251245 0.269776
O O9 0.969197 0.199021 0.172630
O O10 0.987181 0.125134 0.267429
O O11 0.283100 0.190283 0.895131
O O12 0.161106 0.696285 0.447656
O O13 0.500000 0.702082 0.000000
O O14 0.517448 0.500000 0.684849
#
# Coordination Sequence:
#
# PCOD9187119 Si02
#       6
#     8   8   8   8   8   8
#     4  10  21  36  55  79 104 135 177 220 260 305
#     4  11  22  34  50  76 111 146 175 207 254 312
#     4  10  19  35  58  78 100 137 180 219 258 303
#     4  11  22  34  53  81 111 139 171 216 263 308
#     4  10  21  36  55  79 104 135 177 220 260 305
#     4  10  19  35  58  78 100 137 180 219 258 303
#
# _framework density 17.222867000000001
#
# number of rings (size 3 to 8) (size 9 to 14) (size 15 to 20)
#    0.000    1.667    3.333    2.000    0.000    2.667 
#    0.000    5.000    0.000    2.000    0.000    4.667 
#    0.000    0.000    0.000    0.000    0.000    0.000 
#
# Total GULP energy -134028.925940 kJ/mol
# GULP energy per Si atom -5584.538581 kJ/mol
# Density = 1.718367 g / cm^3
# Si number density = 17.222867 Si / 1000 Ang^3
#
#
#
# Elastic Constant Matrix: (Units=GPa)
#
#
# Indices 1 2 3 4 5 6 
#
# 1 11.8917 9.5954 25.3557 0.0232 2.3078 -0.0113
# 2 9.5954 90.8037 48.4659 0.0105 8.4339 -0.0124
# 3 25.3557 48.4659 134.1949 0.0415 23.0321 -0.0294
# 4 0.0232 0.0105 0.0415 17.9272 -0.0120 0.0673
# 5 2.3078 8.4339 23.0321 -0.0120 17.5622 0.0084
# 6 -0.0113 -0.0124 -0.0294 0.0673 0.0084 19.5338
#
#
#
# Elastic Compliance Matrix: (Units=1/GPa)
#
#
# Indices 1 2 3 4 5 6 
#
# 1 0.147255 -0.000915 -0.031290 -0.000103 0.022125 0.000028
# 2 -0.000915 0.013648 -0.004713 0.000004 -0.000253 0.000001
# 3 -0.031290 -0.004713 0.018030 -0.000010 -0.017271 0.000014
# 4 -0.000103 0.000004 -0.000010 0.055782 0.000063 -0.000192
# 5 0.022125 -0.000253 -0.017271 0.000063 0.076805 -0.000047
# 6 0.000028 0.000001 0.000014 -0.000192 -0.000047 0.051194
#
#
# Mechanical properties :
#
#
# Convention : Reuss Voigt Hill
#
# Bulk Modulus (GPa) = 9.51493 44.85824 27.18659
# Shear Modulus (GPa) = 10.60258 21.23621 15.91939
#
# Velocity S-wave (km/s) = 2.48384 3.51525 3.04356
# Velocity P-wave (km/s) = 3.70979 6.52520 5.30758
#
# Compressibility (1/GPa) = 0.10509802
#
# Stress axis : x y z
#
# Youngs Moduli (GPa) = 6.79095 73.26817 55.46166
#
# Poissons Ratio (x) = 0.06701 1.73541
# Poissons Ratio (y) = 0.00621 0.26139
# Poissons Ratio (z) = 0.21249 0.34531
#
# Static dielectric constant tensor:
#      x y z
#    x 1.545540 0.000000 -0.022300 
#    y 0.000000 1.580570 0.000010 
#    z -0.022300 0.000010 1.609830 
# 
# From -- ./inp_files/285313.got.cif
#   From: 2010.05.17/outbox.cif.g08.bks.cpg/sg12_143_cif.got.tgz:285313.got - 2010.06.03 13:09:07.
