data_PCOD9187183
_publ_section_title
;
Structure prediction by ZEFSAII (Michael W. Deem and Ramdas Pophale) SiO2 
 PCOD9187183
Probable space group: C 2/M
;
_chemical_formula_sum "Si O2"
_cell_formula_units_Z 32
_cell_length_a 13.446436
_cell_length_b 10.852437
_cell_length_c 24.559302
_cell_angle_alpha 90.000000
_cell_angle_beta 158.450276
_cell_angle_gamma 90.000000
_cell_volume 1316.380738
_symmetry_space_group_name_H-M "C 2/M"
_symmetry_group_IT_number 12
_symmetry_cell_setting 'monoclinic'
loop_
_space_group_symop_operation_xyz
x,y,z
-x,y,-z
-x,-y,-z
x,-y,z
1/2+x,1/2+y,z
1/2-x,1/2+y,-z
1/2-x,1/2-y,-z
1/2+x,1/2-y,z
loop_
_atom_site_type_symbol
_atom_site_label
_atom_site_fract_x
_atom_site_fract_y
_atom_site_fract_z
Si Si1 0.838096 0.636899 0.733921
Si Si2 0.079461 0.224929 0.766432
Si Si3 0.958532 0.633786 0.543879
Si Si4 0.916855 0.361878 0.032386
O O1 0.719870 0.500000 0.678307
O O2 0.633935 0.745979 0.646332
O O3 0.085290 0.644709 0.903477
O O4 0.942624 0.657954 0.725596
O O5 0.359679 0.232352 0.877010
O O6 0.860368 0.161998 0.616006
O O7 0.155345 0.150269 0.860935
O O8 0.027389 0.500000 0.603798
O O9 0.000000 0.623395 0.500000
O O10 0.027170 0.500000 0.077384
#
# Coordination Sequence:
#
# PCOD9187183 Si02
#       4
#     8   8   8   8
#     4  10  22  38  57  84 117 148 181 229 286 332
#     4  10  19  35  58  82 111 146 188 232 273 326
#     4   9  18  33  56  83 110 145 188 229 271 326
#     4  10  20  36  59  85 111 146 189 231 277 330
#
# _framework density 24.309076999999998
#
# number of rings (size 3 to 8) (size 9 to 14) (size 15 to 20)
#    0.000    2.250    0.000    3.750    0.000    7.500 
#    0.000    5.000    0.000    0.000    0.000    0.000 
#    0.000    0.000    0.000    0.000    0.000    0.000 
#
# Total GULP energy -89154.960158 kJ/mol
# GULP energy per Si atom -5572.185010 kJ/mol
# Density = 2.425375 g / cm^3
# Si number density = 24.309077 Si / 1000 Ang^3
#
#
#
# Elastic Constant Matrix: (Units=GPa)
#
#
# Indices 1 2 3 4 5 6 
#
# 1 63.1882 11.6014 -4.9866 0.0016 -4.4858 -0.0002
# 2 11.6014 167.9495 51.9990 0.0063 -4.0420 0.0004
# 3 -4.9866 51.9990 82.1329 0.0339 9.7868 -0.0001
# 4 0.0016 0.0063 0.0339 23.0743 0.0016 -5.7539
# 5 -4.4858 -4.0420 9.7868 0.0016 32.6266 -0.0006
# 6 -0.0002 0.0004 -0.0001 -5.7539 -0.0006 13.8474
#
#
#
# Elastic Compliance Matrix: (Units=1/GPa)
#
#
# Indices 1 2 3 4 5 6 
#
# 1 0.016388 -0.001679 0.001881 -0.000004 0.001481 -0.000001
# 2 -0.001679 0.007765 -0.005295 0.000006 0.002319 0.000002
# 3 0.001881 -0.005295 0.016271 -0.000025 -0.005278 -0.000010
# 4 -0.000004 0.000006 -0.000025 0.048348 0.000006 0.020090
# 5 0.001481 0.002319 -0.005278 0.000006 0.032724 0.000004
# 6 -0.000001 0.000002 -0.000010 0.020090 0.000004 0.080563
#
#
# Mechanical properties :
#
#
# Convention : Reuss Voigt Hill
#
# Bulk Modulus (GPa) = 33.06946 47.83312 40.45129
# Shear Modulus (GPa) = 22.48988 30.88680 26.68834
#
# Velocity S-wave (km/s) = 3.04495 3.56840 3.31701
# Velocity P-wave (km/s) = 5.09859 6.05786 5.59881
#
# Compressibility (1/GPa) = 0.03023938
#
# Stress axis : x y z
#
# Youngs Moduli (GPa) = 61.02184 128.77980 61.46089
#
# Poissons Ratio (x) = 0.21621 -0.11563
# Poissons Ratio (y) = 0.10245 0.32540
# Poissons Ratio (z) = -0.11481 0.68183
#
# Static dielectric constant tensor:
#      x y z
#    x 1.968280 0.000000 0.019660 
#    y 0.000000 2.021380 0.000000 
#    z 0.019660 0.000000 2.006340 
# 
# From -- ./inp_files/151435.got.cif
#   From: 2010.05.17/outbox.cif.g08.bks.cpg/sg12_76_cif.got.tgz:151435.got - 2010.06.03 13:09:07.
