data_PCOD9187411
_publ_section_title
;
Structure prediction by ZEFSAII (Michael W. Deem and Ramdas Pophale) SiO2 
 PCOD9187411
Probable space group: C 2/M
;
_chemical_formula_sum "Si O2"
_cell_formula_units_Z 56
_cell_length_a 18.219238
_cell_length_b 14.601416
_cell_length_c 12.116641
_cell_angle_alpha 90.000000
_cell_angle_beta 46.628001
_cell_angle_gamma 90.000000
_cell_volume 2343.086322
_symmetry_space_group_name_H-M "C 2/M"
_symmetry_group_IT_number 12
_symmetry_cell_setting 'monoclinic'
loop_
_space_group_symop_operation_xyz
x,y,z
-x,y,-z
-x,-y,-z
x,-y,z
1/2+x,1/2+y,z
1/2-x,1/2+y,-z
1/2-x,1/2-y,-z
1/2+x,1/2-y,z
loop_
_atom_site_type_symbol
_atom_site_label
_atom_site_fract_x
_atom_site_fract_y
_atom_site_fract_z
Si Si1 0.590543 0.106884 0.130629
Si Si2 0.840008 0.108088 0.614676
Si Si3 0.220620 0.394007 0.202857
Si Si4 0.794378 0.768847 0.310488
Si Si5 0.945424 0.891616 0.727226
Si Si6 0.020831 0.778386 0.099679
Si Si7 0.879612 0.396699 0.473886
O O1 0.681940 0.127804 0.120608
O O2 0.575179 0.179507 0.049051
O O3 0.488372 0.118677 0.309279
O O4 0.598432 0.000000 0.089372
O O5 0.749822 0.169613 0.667033
O O6 0.941900 0.123595 0.438094
O O7 0.869375 0.136833 0.708992
O O8 0.819161 0.000000 0.634866
O O9 0.257259 0.500000 0.166185
O O10 0.293023 0.324004 0.192753
O O11 0.124736 0.392220 0.387471
O O12 0.902582 0.766933 0.253334
O O13 0.711098 0.828291 0.461738
O O14 0.931302 0.840770 0.856016
O O15 0.934165 0.000000 0.754264
O O16 0.000000 0.816430 0.000000
O O17 0.848963 0.500000 0.474621
#
# Coordination Sequence:
#
# PCOD9187411 Si02
#       7
#     8   8   8   8   8   8   8
#     4  10  19  35  59  84 112 146 180 223 278 335
#     4   9  18  36  64  92 112 135 177 234 290 338
#     4   8  16  32  57  89 114 133 171 225 285 338
#     4  10  20  34  54  81 116 149 178 231 280 325
#     4   9  20  39  62  87 113 143 182 229 281 333
#     4  12  27  41  52  74 114 162 199 221 262 330
#     4   8  16  30  57  91 113 130 166 227 293 336
#
# _framework density 23.900102
#
# number of rings (size 3 to 8) (size 9 to 14) (size 15 to 20)
#    0.857    1.714    0.000    3.000    0.000    7.429 
#    0.000    5.714    0.000    3.429    0.000    0.000 
#    0.000    0.000    0.000    0.000    0.000    0.000 
#
# Total GULP energy -156405.086393 kJ/mol
# GULP energy per Si atom -5585.895943 kJ/mol
# Density = 2.384570 g / cm^3
# Si number density = 23.900102 Si / 1000 Ang^3
#
#
#
# Elastic Constant Matrix: (Units=GPa)
#
#
# Indices 1 2 3 4 5 6 
#
# 1 90.8218 48.3231 10.2570 0.0000 15.0593 0.0000
# 2 48.3231 60.6245 13.6461 0.0000 14.2623 0.0000
# 3 10.2570 13.6461 65.5501 0.0000 21.3621 0.0000
# 4 0.0000 0.0000 0.0000 -6.7598 0.0000 -42.9918
# 5 15.0593 14.2623 21.3621 0.0000 32.9459 0.0000
# 6 0.0000 0.0000 0.0000 -42.9918 0.0000 -85.1179
#
#
#
# Elastic Compliance Matrix: (Units=1/GPa)
#
#
# Indices 1 2 3 4 5 6 
#
# 1 0.019349 -0.014943 0.001087 0.000000 -0.003080 0.000000
# 2 -0.014943 0.030033 -0.002413 0.000000 -0.004606 0.000000
# 3 0.001087 -0.002413 0.019538 0.000000 -0.012121 0.000000
# 4 0.000000 0.000000 0.000000 0.066868 0.000000 -0.033774
# 5 -0.003080 -0.004606 -0.012121 0.000000 0.041614 0.000000
# 6 0.000000 0.000000 0.000000 -0.033774 0.000000 0.005310
#
#
# Mechanical properties :
#
#
# Convention : Reuss Voigt Hill
#
# Bulk Modulus (GPa) = 27.48616 40.16098 33.82357
# Shear Modulus (GPa) = 21.98988 -2.13501 9.92744
#
# Velocity S-wave (km/s) = 3.03656 -0.94617 2.04028
# Velocity P-wave (km/s) = 4.88054 3.95557 4.44220
#
# Compressibility (1/GPa) = 0.03638194
#
# Stress axis : x y z
#
# Youngs Moduli (GPa) = 51.68159 33.29707 51.18313
#
# Poissons Ratio (x) = 0.49756 -0.05564
# Poissons Ratio (y) = 0.77228 0.12349
# Poissons Ratio (z) = -0.05618 0.08034
#
# Static dielectric constant tensor:
#      x y z
#    x 1.862720 0.000000 -0.044570 
#    y 0.000000 1.885040 0.000000 
#    z -0.044570 0.000000 2.074410 
# 
# From -- ./inp_files/156546.got.cif
#   From: 2010.05.17/outbox.cif.g08.bks.cpg/sg12_79_cif.got.tgz:156546.got - 2010.06.03 13:09:07.
