data_PCOD9187022
_publ_section_title
;
Structure prediction by ZEFSAII (Michael W. Deem and Ramdas Pophale) SiO2 
 PCOD9187022
Probable space group: C 2/M
;
_chemical_formula_sum "Si O2"
_cell_formula_units_Z 56
_cell_length_a 7.446477
_cell_length_b 23.289918
_cell_length_c 15.214010
_cell_angle_alpha 90.000000
_cell_angle_beta 70.001260
_cell_angle_gamma 90.000000
_cell_volume 2479.429715
_symmetry_space_group_name_H-M "C 2/M"
_symmetry_group_IT_number 12
_symmetry_cell_setting 'monoclinic'
loop_
_space_group_symop_operation_xyz
x,y,z
-x,y,-z
-x,-y,-z
x,-y,z
1/2+x,1/2+y,z
1/2-x,1/2+y,-z
1/2-x,1/2-y,-z
1/2+x,1/2-y,z
loop_
_atom_site_type_symbol
_atom_site_label
_atom_site_fract_x
_atom_site_fract_y
_atom_site_fract_z
Si Si1 0.172349 0.690678 0.407567
Si Si2 0.185900 0.818828 0.155938
Si Si3 0.649814 0.881147 0.232830
Si Si4 0.148082 0.796998 0.902397
Si Si5 0.385578 0.320754 0.628794
Si Si6 0.565428 0.436886 0.179474
Si Si7 0.743992 0.063155 0.664311
O O1 0.133626 0.660385 0.320415
O O2 0.386373 0.675054 0.400618
O O3 0.000000 0.672999 0.500000
O O4 0.168663 0.760176 0.403884
O O5 0.303855 0.769101 0.090035
O O6 0.969108 0.800082 0.169072
O O7 0.203490 0.817403 0.257686
O O8 0.195660 0.884418 0.122930
O O9 0.673716 0.838711 0.144705
O O10 0.845671 0.917870 0.204627
O O11 0.468028 0.922551 0.264525
O O12 0.000000 0.818024 0.000000
O O13 0.307473 0.379999 0.601518
O O14 0.600434 0.500000 0.136355
O O15 0.615397 0.438789 0.274793
O O16 0.747738 0.000000 0.621129
#
# Coordination Sequence:
#
# PCOD9187022 Si02
#       7
#     8   8   8   8   8   8   8
#     4  12  23  38  63  92 123 161 199 253 315 363
#     4  10  19  35  57  82 119 153 190 247 299 349
#     4  11  21  39  64  90 122 156 204 251 304 361
#     4  11  22  35  57  92 121 156 193 243 311 365
#     4  11  20  39  59  88 126 155 200 259 301 363
#     4   9  19  36  60  85 115 159 205 243 297 356
#     4  10  21  36  65  92 116 165 209 246 302 362
#
# _framework density 22.585839
#
# number of rings (size 3 to 8) (size 9 to 14) (size 15 to 20)
#    0.000    1.429    5.714    2.143    4.000    0.000 
#    0.000    0.000    0.000   18.000    0.000    0.000 
#    0.000    0.000    0.000    0.000    0.000    0.000 
#
# Total GULP energy -156339.987718 kJ/mol
# GULP energy per Si atom -5583.570990 kJ/mol
# Density = 2.253443 g / cm^3
# Si number density = 22.585839 Si / 1000 Ang^3
#
#
#
# Elastic Constant Matrix: (Units=GPa)
#
#
# Indices 1 2 3 4 5 6 
#
# 1 55.7874 28.2546 7.7371 0.0000 -16.4278 0.0000
# 2 28.2546 170.1931 30.0182 0.0000 -7.6941 0.0000
# 3 7.7371 30.0182 94.0234 0.0000 -11.6365 0.0000
# 4 0.0000 0.0000 0.0000 10.1969 0.0000 -4.8388
# 5 -16.4278 -7.6941 -11.6365 0.0000 23.4333 0.0000
# 6 0.0000 0.0000 0.0000 -4.8388 0.0000 22.7133
#
#
#
# Elastic Compliance Matrix: (Units=1/GPa)
#
#
# Indices 1 2 3 4 5 6 
#
# 1 0.024411 -0.003509 0.001158 0.000000 0.016536 0.000000
# 2 -0.003509 0.006759 -0.002023 0.000000 -0.001246 0.000000
# 3 0.001158 -0.002023 0.011938 0.000000 0.006076 0.000000
# 4 0.000000 0.000000 0.000000 0.109099 0.000000 0.023242
# 5 0.016536 -0.001246 0.006076 0.000000 0.056875 0.000000
# 6 0.000000 0.000000 0.000000 0.023242 0.000000 0.048978
#
#
# Mechanical properties :
#
#
# Convention : Reuss Voigt Hill
#
# Bulk Modulus (GPa) = 29.10386 50.22485 39.66436
# Shear Modulus (GPa) = 17.96861 28.20163 23.08512
#
# Velocity S-wave (km/s) = 2.82364 3.53745 3.20051
# Velocity P-wave (km/s) = 4.85227 6.24262 5.59083
#
# Compressibility (1/GPa) = 0.03435970
#
# Stress axis : x y z
#
# Youngs Moduli (GPa) = 40.96438 147.95470 83.76434
#
# Poissons Ratio (x) = 0.51923 -0.09702
# Poissons Ratio (y) = 0.14376 0.16948
# Poissons Ratio (z) = -0.04744 0.29935
#
# Static dielectric constant tensor:
#      x y z
#    x 1.908530 0.000000 0.013650 
#    y 0.000000 1.899990 0.000000 
#    z 0.013650 0.000000 1.830290 
# 
# From -- ./inp_files/302086.got.cif
#   From: 2010.05.17/outbox.cif.g08.bks.cpg/sg12_152_cif.got.tgz:302086.got - 2010.06.03 13:09:07.
