data_PCOD9187149
_publ_section_title
;
Structure prediction by ZEFSAII (Michael W. Deem and Ramdas Pophale) SiO2 
 PCOD9187149
Probable space group: C 2/M
;
_chemical_formula_sum "Si O2"
_cell_formula_units_Z 48
_cell_length_a 20.946314
_cell_length_b 7.596422
_cell_length_c 14.544385
_cell_angle_alpha 90.000000
_cell_angle_beta 91.020896
_cell_angle_gamma 90.000000
_cell_volume 2313.892140
_symmetry_space_group_name_H-M "C 2/M"
_symmetry_group_IT_number 12
_symmetry_cell_setting 'monoclinic'
loop_
_space_group_symop_operation_xyz
x,y,z
-x,y,-z
-x,-y,-z
x,-y,z
1/2+x,1/2+y,z
1/2-x,1/2+y,-z
1/2-x,1/2-y,-z
1/2+x,1/2-y,z
loop_
_atom_site_type_symbol
_atom_site_label
_atom_site_fract_x
_atom_site_fract_y
_atom_site_fract_z
Si Si1 0.313986 0.789122 0.557352
Si Si2 0.190852 0.209295 0.064534
Si Si3 0.434686 0.284349 0.046956
Si Si4 0.935914 0.287371 0.447701
Si Si5 0.255358 0.794453 0.739187
Si Si6 0.110599 0.789778 0.754990
O O1 0.250000 0.750000 0.500000
O O2 0.374707 0.720017 0.503197
O O3 0.298791 0.719095 0.658725
O O4 0.323466 0.000000 0.562769
O O5 0.208173 0.283313 0.164100
O O6 0.185558 0.000000 0.074217
O O7 0.250000 0.250000 0.000000
O O8 0.126032 0.272591 0.015201
O O9 0.435429 0.500000 0.047674
O O10 0.422894 0.225509 0.152037
O O11 0.500000 0.227087 0.000000
O O12 0.936197 0.500000 0.451180
O O13 0.927346 0.241753 0.340276
O O14 0.000000 0.225417 0.500000
O O15 0.183437 0.719024 0.746153
O O16 0.245839 0.000000 0.715674
O O17 0.116313 0.000000 0.767139
#
# Coordination Sequence:
#
# PCOD9187149 Si02
#       6
#     8   8   8   8   8   8
#     4  10  20  35  56  79 108 143 182 227 271 319
#     4  11  21  35  57  84 111 144 184 227 273 325
#     4   9  19  36  56  79 110 144 180 224 272 320
#     4  10  22  38  55  80 114 148 179 221 278 333
#     4  10  20  35  55  83 113 143 182 231 277 319
#     4  10  19  35  58  81 107 144 184 226 274 323
#
# _framework density 20.744268999999999
#
# number of rings (size 3 to 8) (size 9 to 14) (size 15 to 20)
#    0.000    2.000    3.333    0.500    0.000    3.000 
#    0.000    0.000    0.000    3.500    0.000    0.000 
#    0.000    0.000    0.000    0.000    0.000    0.000 
#
# Total GULP energy -133993.363215 kJ/mol
# GULP energy per Si atom -5583.056801 kJ/mol
# Density = 2.069705 g / cm^3
# Si number density = 20.744269 Si / 1000 Ang^3
#
#
#
# Elastic Constant Matrix: (Units=GPa)
#
#
# Indices 1 2 3 4 5 6 
#
# 1 177.0417 -6.3803 95.1858 0.0000 -1.3285 0.0000
# 2 -6.3803 40.9232 -15.6736 0.0000 -7.4121 0.0000
# 3 95.1858 -15.6736 197.3265 0.0000 -4.9522 0.0000
# 4 0.0000 0.0000 0.0000 20.4267 0.0000 12.7069
# 5 -1.3285 -7.4121 -4.9522 0.0000 32.4070 0.0000
# 6 0.0000 0.0000 0.0000 12.7069 0.0000 8.6811
#
#
#
# Elastic Compliance Matrix: (Units=1/GPa)
#
#
# Indices 1 2 3 4 5 6 
#
# 1 0.007631 -0.000290 -0.003712 0.000000 -0.000321 0.000000
# 2 -0.000290 0.026472 0.002404 0.000000 0.006410 0.000000
# 3 -0.003712 0.002404 0.007087 0.000000 0.001480 0.000000
# 4 0.000000 0.000000 0.000000 0.547339 0.000000 -0.801163
# 5 -0.000321 0.006410 0.001480 0.000000 0.032537 0.000000
# 6 0.000000 0.000000 0.000000 -0.801163 0.000000 1.287888
#
#
# Mechanical properties :
#
#
# Convention : Reuss Voigt Hill
#
# Bulk Modulus (GPa) = 26.32097 62.39502 44.35799
# Shear Modulus (GPa) = 2.59765 35.11358 18.85562
#
# Velocity S-wave (km/s) = 1.12024 4.11869 3.01816
# Velocity P-wave (km/s) = 3.79330 7.26372 5.79443
#
# Compressibility (1/GPa) = 0.03799252
#
# Stress axis : x y z
#
# Youngs Moduli (GPa) = 131.03674 37.77520 141.11227
#
# Poissons Ratio (x) = 0.01096 0.52386
# Poissons Ratio (y) = 0.03802 -0.33917
# Poissons Ratio (z) = 0.48645 -0.09079
#
# Static dielectric constant tensor:
#      x y z
#    x 1.716150 0.000000 -0.023970 
#    y 0.000000 1.789570 0.000000 
#    z -0.023970 0.000000 1.782380 
# 
# From -- ./inp_files/221666.got.cif
#   From: 2010.05.17/outbox.cif.g08.bks.cpg/sg12_111_cif.got.tgz:221666.got - 2010.06.03 13:09:07.
