data_PCOD9187270
_publ_section_title
;
Structure prediction by ZEFSAII (Michael W. Deem and Ramdas Pophale) SiO2 
 PCOD9187270
Probable space group: C 2/M
;
_chemical_formula_sum "Si O2"
_cell_formula_units_Z 36
_cell_length_a 8.891718
_cell_length_b 18.364583
_cell_length_c 10.531400
_cell_angle_alpha 90.000000
_cell_angle_beta 74.420407
_cell_angle_gamma 90.000000
_cell_volume 1656.515920
_symmetry_space_group_name_H-M "C 2/M"
_symmetry_group_IT_number 12
_symmetry_cell_setting 'monoclinic'
loop_
_space_group_symop_operation_xyz
x,y,z
-x,y,-z
-x,-y,-z
x,-y,z
1/2+x,1/2+y,z
1/2-x,1/2+y,-z
1/2-x,1/2-y,-z
1/2+x,1/2-y,z
loop_
_atom_site_type_symbol
_atom_site_label
_atom_site_fract_x
_atom_site_fract_y
_atom_site_fract_z
Si Si1 0.068809 0.583785 0.615221
Si Si2 0.671574 0.300883 0.411255
Si Si3 0.796765 0.237456 0.137416
Si Si4 0.500000 0.851707 0.000000
Si Si5 0.273496 0.919116 0.871028
O O1 0.115368 0.500000 0.581379
O O2 0.217979 0.628810 0.624127
O O3 0.000000 0.615237 0.500000
O O4 0.923595 0.582573 0.744297
O O5 0.500000 0.318732 0.500000
O O6 0.750000 0.250000 0.500000
O O7 0.676105 0.260032 0.274316
O O8 0.830644 0.151216 0.139781
O O9 0.750000 0.250000 0.000000
O O10 0.937585 0.294972 0.119947
O O11 0.356905 0.900939 0.986318
O O12 0.203761 0.000000 0.883200
#
# Coordination Sequence:
#
# PCOD9187270 Si02
#       5
#     8   8   8   4   8
#     4  10  21  40  63  90 125 164 206 263 326 383
#     4  12  24  39  63  92 127 165 217 261 315 381
#     4  10  22  38  58  89 122 162 207 262 317 369
#     4  10  19  36  61  80 118 152 210 254 309 366
#     4  10  19  35  58  85 116 156 205 253 308 373
#
# _framework density 21.73236
#
# number of rings (size 3 to 8) (size 9 to 14) (size 15 to 20)
#    0.000    1.556    2.222    3.667    3.111    0.444 
#    0.000    0.556    0.000    0.000    0.000    0.000 
#    0.000    0.000    0.000    0.000    0.000    0.000 
#
# Total GULP energy -100410.373644 kJ/mol
# GULP energy per Si atom -5578.354091 kJ/mol
# Density = 2.168290 g / cm^3
# Si number density = 21.732360 Si / 1000 Ang^3
#
#
#
# Elastic Constant Matrix: (Units=GPa)
#
#
# Indices 1 2 3 4 5 6 
#
# 1 42.5059 15.7088 26.9366 0.0000 1.8906 0.0000
# 2 15.7088 145.4527 32.3197 0.0000 -0.4172 0.0000
# 3 26.9366 32.3197 107.5566 0.0000 -0.7867 0.0000
# 4 0.0000 0.0000 0.0000 27.3284 0.0000 -2.3654
# 5 1.8906 -0.4172 -0.7867 0.0000 31.2403 0.0000
# 6 0.0000 0.0000 0.0000 -2.3654 0.0000 37.0272
#
#
#
# Elastic Compliance Matrix: (Units=1/GPa)
#
#
# Indices 1 2 3 4 5 6 
#
# 1 0.028416 -0.001597 -0.006651 0.000000 -0.001908 0.000000
# 2 -0.001597 0.007457 -0.001840 0.000000 0.000150 0.000000
# 3 -0.006651 -0.001840 0.011521 0.000000 0.000668 0.000000
# 4 0.000000 0.000000 0.000000 0.036795 0.000000 0.002351
# 5 -0.001908 0.000150 0.000668 0.000000 0.032144 0.000000
# 6 0.000000 0.000000 0.000000 0.002351 0.000000 0.027157
#
#
# Mechanical properties :
#
#
# Convention : Reuss Voigt Hill
#
# Bulk Modulus (GPa) = 36.73870 49.49393 43.11632
# Shear Modulus (GPa) = 28.94569 33.82252 31.38410
#
# Velocity S-wave (km/s) = 3.65350 3.94930 3.80428
# Velocity P-wave (km/s) = 5.89400 6.60452 6.25935
#
# Compressibility (1/GPa) = 0.02721925
#
# Stress axis : x y z
#
# Youngs Moduli (GPa) = 35.19176 134.10693 86.79988
#
# Poissons Ratio (x) = 0.21411 0.57728
# Poissons Ratio (y) = 0.05619 0.15969
# Poissons Ratio (z) = 0.23405 0.24672
#
# Static dielectric constant tensor:
#      x y z
#    x 1.854250 0.000000 0.019280 
#    y 0.000000 1.826230 0.000000 
#    z 0.019280 0.000000 1.850620 
# 
# From -- ./inp_files/118785.got.cif
#   From: 2010.05.17/outbox.cif.g08.bks.cpg/sg12_60_cif.got.tgz:118785.got - 2010.06.03 13:09:07.
