data_PCOD9187492
_publ_section_title
;
Structure prediction by ZEFSAII (Michael W. Deem and Ramdas Pophale) SiO2 
 PCOD9187492
Probable space group: C 2/M
;
_chemical_formula_sum "Si O2"
_cell_formula_units_Z 64
_cell_length_a 14.597390
_cell_length_b 9.465893
_cell_length_c 21.623898
_cell_angle_alpha 90.000000
_cell_angle_beta 86.114744
_cell_angle_gamma 90.000000
_cell_volume 2981.065508
_symmetry_space_group_name_H-M "C 2/M"
_symmetry_group_IT_number 12
_symmetry_cell_setting 'monoclinic'
loop_
_space_group_symop_operation_xyz
x,y,z
-x,y,-z
-x,-y,-z
x,-y,z
1/2+x,1/2+y,z
1/2-x,1/2+y,-z
1/2-x,1/2-y,-z
1/2+x,1/2-y,z
loop_
_atom_site_type_symbol
_atom_site_label
_atom_site_fract_x
_atom_site_fract_y
_atom_site_fract_z
Si Si1 0.352901 0.663074 0.353806
Si Si2 0.192059 0.336158 0.453607
Si Si3 0.761107 0.336199 0.103725
Si Si4 0.443270 0.662804 0.845172
Si Si5 0.397648 0.162968 0.735015
Si Si6 0.993672 0.663344 0.597047
Si Si7 0.789044 0.334459 0.246481
Si Si8 0.578551 0.662818 0.951762
O O1 0.377938 0.500000 0.343309
O O2 0.250930 0.668946 0.387532
O O3 0.419370 0.736628 0.400432
O O4 0.353713 0.747624 0.289625
O O5 0.188797 0.500000 0.472407
O O6 0.250000 0.250000 0.500000
O O7 0.088009 0.289988 0.444771
O O8 0.768023 0.500000 0.085617
O O9 0.652680 0.301777 0.114878
O O10 0.800230 0.321406 0.172240
O O11 0.825500 0.242511 0.057690
O O12 0.431126 0.500000 0.822686
O O13 0.454634 0.774080 0.789710
O O14 0.527817 0.663073 0.887884
O O15 0.449910 0.165289 0.667862
O O16 0.310720 0.266482 0.737119
O O17 0.369801 0.000000 0.748180
O O18 0.017911 0.500000 0.582024
O O19 0.792843 0.500000 0.262275
O O20 0.594569 0.500000 0.970278
O O21 0.500000 0.724631 0.000000
#
# Coordination Sequence:
#
# PCOD9187492 Si02
#       8
#     8   8   8   8   8   8   8   8
#     4  11  23  39  60  90 122 155 199 245 290 348
#     4  10  23  44  64  85 119 158 199 246 293 344
#     4   9  20  37  56  81 114 150 189 237 289 347
#     4   9  20  38  56  81 116 153 191 237 294 351
#     4  10  19  35  59  86 120 154 193 242 291 349
#     4  10  22  40  59  86 123 158 194 243 297 349
#     4  10  20  36  59  87 122 157 192 237 298 356
#     4  10  22  39  58  82 114 152 196 242 288 345
#
# _framework density 21.468834000000001
#
# number of rings (size 3 to 8) (size 9 to 14) (size 15 to 20)
#    0.000    2.125    1.250    1.875    1.750    6.750 
#    0.000    2.500    0.000    0.000    0.000    0.000 
#    0.000    0.000    0.000    0.000    0.000    0.000 
#
# Total GULP energy -178794.171451 kJ/mol
# GULP energy per Si atom -5587.317858 kJ/mol
# Density = 2.141997 g / cm^3
# Si number density = 21.468834 Si / 1000 Ang^3
#
#
#
# Elastic Constant Matrix: (Units=GPa)
#
#
# Indices 1 2 3 4 5 6 
#
# 1 93.5008 34.5677 5.2018 0.0000 1.3065 0.0000
# 2 34.5677 77.1945 18.8574 0.0000 -3.7725 0.0000
# 3 5.2018 18.8574 31.1868 0.0000 -0.4683 0.0000
# 4 0.0000 0.0000 0.0000 25.4489 0.0000 -0.6898
# 5 1.3065 -3.7725 -0.4683 0.0000 41.6794 0.0000
# 6 0.0000 0.0000 0.0000 -0.6898 0.0000 21.4152
#
#
#
# Elastic Compliance Matrix: (Units=1/GPa)
#
#
# Indices 1 2 3 4 5 6 
#
# 1 0.012920 -0.006221 0.001592 0.000000 -0.000950 0.000000
# 2 -0.006221 0.018263 -0.009979 0.000000 0.001736 0.000000
# 3 0.001592 -0.009979 0.037825 0.000000 -0.000528 0.000000
# 4 0.000000 0.000000 0.000000 0.039329 0.000000 0.001267
# 5 -0.000950 0.001736 -0.000528 0.000000 0.024174 0.000000
# 6 0.000000 0.000000 0.000000 0.001267 0.000000 0.046737
#
#
# Mechanical properties :
#
#
# Convention : Reuss Voigt Hill
#
# Bulk Modulus (GPa) = 25.13042 35.45955 30.29499
# Shear Modulus (GPa) = 22.55039 27.25903 24.90471
#
# Velocity S-wave (km/s) = 3.24447 3.56715 3.40963
# Velocity P-wave (km/s) = 5.07606 5.78954 5.44450
#
# Compressibility (1/GPa) = 0.03979241
#
# Stress axis : x y z
#
# Youngs Moduli (GPa) = 77.40150 54.75700 26.43736
#
# Poissons Ratio (x) = 0.34063 -0.04210
# Poissons Ratio (y) = 0.48150 0.26382
# Poissons Ratio (z) = -0.12324 0.54642
#
# Static dielectric constant tensor:
#      x y z
#    x 1.799850 0.000000 0.007580 
#    y 0.000000 1.728930 0.000000 
#    z 0.007580 0.000000 1.824730 
# 
# From -- ./inp_files/338751.got.cif
#   From: 2010.05.17/outbox.cif.g08.bks.cpg/sg12_170_cif.got.tgz:338751.got - 2010.06.03 13:09:07.
