data_PCOD9187943
_publ_section_title
;
Structure prediction by ZEFSAII (Michael W. Deem and Ramdas Pophale) SiO2 
 PCOD9187943
Probable space group: C 2/M
;
_chemical_formula_sum "Si O2"
_cell_formula_units_Z 64
_cell_length_a 9.142012
_cell_length_b 27.490875
_cell_length_c 24.442324
_cell_angle_alpha 90.000000
_cell_angle_beta 32.945625
_cell_angle_gamma 90.000000
_cell_volume 3340.767775
_symmetry_space_group_name_H-M "C 2/M"
_symmetry_group_IT_number 12
_symmetry_cell_setting 'monoclinic'
loop_
_space_group_symop_operation_xyz
x,y,z
-x,y,-z
-x,-y,-z
x,-y,z
1/2+x,1/2+y,z
1/2-x,1/2+y,-z
1/2-x,1/2-y,-z
1/2+x,1/2-y,z
loop_
_atom_site_type_symbol
_atom_site_label
_atom_site_fract_x
_atom_site_fract_y
_atom_site_fract_z
Si Si1 0.288437 0.558861 0.726602
Si Si2 0.819407 0.056617 0.104886
Si Si3 0.264235 0.218459 0.233367
Si Si4 0.904211 0.882818 0.909988
Si Si5 0.696217 0.128781 0.855760
Si Si6 0.545933 0.378668 0.424441
Si Si7 0.756572 0.701199 0.533832
Si Si8 0.593952 0.815859 0.229324
O O1 0.318660 0.500000 0.722998
O O2 0.310153 0.589366 0.776320
O O3 0.454398 0.581553 0.624069
O O4 0.985037 0.572793 0.803605
O O5 0.966835 0.065478 0.115550
O O6 0.801002 0.000000 0.099870
O O7 0.000000 0.079120 0.000000
O O8 0.301136 0.182334 0.171155
O O9 0.505709 0.210133 0.200370
O O10 0.187164 0.272938 0.240787
O O11 0.005148 0.199360 0.346512
O O12 0.863870 0.873235 0.858986
O O13 0.137898 0.848172 0.860721
O O14 0.613693 0.880769 0.029857
O O15 0.500000 0.398280 0.500000
O O16 0.293386 0.343105 0.491570
O O17 0.828734 0.346878 0.332289
O O18 0.750000 0.750000 0.500000
O O19 0.000000 0.699452 0.500000
#
# Coordination Sequence:
#
# PCOD9187943 Si02
#       8
#     8   8   8   8   8   8   8   8
#     4  11  22  42  66  90 123 166 207 258 316 371
#     4  10  19  35  63  91 116 155 206 258 316 366
#     4  11  22  38  60  86 130 160 209 248 314 362
#     4  11  23  37  62  88 130 161 211 256 310 369
#     4  11  23  40  58  93 124 170 205 257 311 372
#     4  11  23  41  63  95 124 158 210 256 313 367
#     4  11  21  37  62  94 122 160 204 257 310 361
#     4  11  22  39  60  92 122 169 204 258 306 374
#
# _framework density 19.157273
#
# number of rings (size 3 to 8) (size 9 to 14) (size 15 to 20)
#    0.000    1.125    5.000    3.375    0.000    2.250 
#    0.000    1.250    0.000    0.375    0.000    0.000 
#    0.000    0.000    0.000    0.000    0.000    0.000 
#
# Total GULP energy -178293.691522 kJ/mol
# GULP energy per Si atom -5571.677860 kJ/mol
# Density = 1.911367 g / cm^3
# Si number density = 19.157273 Si / 1000 Ang^3
#
#
#
# Elastic Constant Matrix: (Units=GPa)
#
#
# Indices 1 2 3 4 5 6 
#
# 1 119.0713 23.0523 38.7058 0.0002 -3.4463 0.0000
# 2 23.0523 56.8394 18.5381 0.0000 6.2309 0.0001
# 3 38.7058 18.5381 42.2365 -0.0010 11.1590 0.0010
# 4 0.0002 0.0000 -0.0010 23.4108 0.0000 2.7424
# 5 -3.4463 6.2309 11.1590 0.0000 31.0549 -0.0002
# 6 0.0000 0.0001 0.0010 2.7424 -0.0002 27.1063
#
#
#
# Elastic Compliance Matrix: (Units=1/GPa)
#
#
# Indices 1 2 3 4 5 6 
#
# 1 0.013154 -0.001815 -0.012971 -0.000001 0.006485 0.000001
# 2 -0.001815 0.020810 -0.006976 0.000000 -0.001870 0.000000
# 3 -0.012971 -0.006976 0.042688 0.000002 -0.015379 -0.000002
# 4 -0.000001 0.000000 0.000002 0.043228 -0.000001 -0.004373
# 5 0.006485 -0.001870 -0.015379 -0.000001 0.038822 0.000001
# 6 0.000001 0.000000 -0.000002 -0.004373 0.000001 0.037334
#
#
# Mechanical properties :
#
#
# Convention : Reuss Voigt Hill
#
# Bulk Modulus (GPa) = 30.18678 42.08216 36.13447
# Shear Modulus (GPa) = 19.95201 25.50450 22.72825
#
# Velocity S-wave (km/s) = 3.23071 3.65269 3.44816
# Velocity P-wave (km/s) = 5.45052 6.30903 5.89542
#
# Compressibility (1/GPa) = 0.03312708
#
# Stress axis : x y z
#
# Youngs Moduli (GPa) = 76.02390 48.05405 23.42604
#
# Poissons Ratio (x) = 0.08723 0.30385
# Poissons Ratio (y) = 0.13800 0.16342
# Poissons Ratio (z) = 0.98608 0.33523
#
# Static dielectric constant tensor:
#      x y z
#    x 1.703770 0.000010 0.029780 
#    y 0.000010 1.559540 -0.000010 
#    z 0.029780 -0.000010 1.692550 
# 
# From -- ./inp_files/334348.got.cif
#   From: 2010.05.17/outbox.cif.g08.bks.cpg/sg12_168_cif.got.tgz:334348.got - 2010.06.03 13:09:07.
