data_PCOD9187335
_publ_section_title
;
Structure prediction by ZEFSAII (Michael W. Deem and Ramdas Pophale) SiO2 
 PCOD9187335
Probable space group: C 2/M
;
_chemical_formula_sum "Si O2"
_cell_formula_units_Z 64
_cell_length_a 18.850716
_cell_length_b 27.299202
_cell_length_c 8.155387
_cell_angle_alpha 90.000000
_cell_angle_beta 139.520734
_cell_angle_gamma 90.000000
_cell_volume 2724.474289
_symmetry_space_group_name_H-M "C 2/M"
_symmetry_group_IT_number 12
_symmetry_cell_setting 'monoclinic'
loop_
_space_group_symop_operation_xyz
x,y,z
-x,y,-z
-x,-y,-z
x,-y,z
1/2+x,1/2+y,z
1/2-x,1/2+y,-z
1/2-x,1/2-y,-z
1/2+x,1/2-y,z
loop_
_atom_site_type_symbol
_atom_site_label
_atom_site_fract_x
_atom_site_fract_y
_atom_site_fract_z
Si Si1 0.768263 0.595155 0.997102
Si Si2 0.149173 0.393060 0.331439
Si Si3 0.863704 0.896027 0.553810
Si Si4 0.437929 0.442067 0.220173
Si Si5 0.660065 0.785983 0.423646
Si Si6 0.986999 0.802313 0.784106
Si Si7 0.722191 0.301834 0.033301
Si Si8 0.970070 0.441841 0.191332
O O1 0.703245 0.581060 0.715804
O O2 0.684819 0.577514 0.989842
O O3 0.767252 0.653642 0.005051
O O4 0.887961 0.572437 0.193360
O O5 0.279513 0.399700 0.554710
O O6 0.132266 0.334854 0.274623
O O7 0.083583 0.412490 0.373223
O O8 0.096546 0.423049 0.087423
O O9 0.981007 0.921051 0.773302
O O10 0.893580 0.839820 0.563177
O O11 0.500000 0.427277 0.500000
O O12 0.435237 0.500000 0.208635
O O13 0.750000 0.750000 0.500000
O O14 0.556716 0.752915 0.288202
O O15 0.714701 0.804869 0.684782
O O16 0.094345 0.806769 0.860532
O O17 0.000000 0.815270 0.000000
O O18 0.750000 0.250000 0.000000
O O19 0.987252 0.500000 0.216847
#
# Coordination Sequence:
#
# PCOD9187335 Si02
#       8
#     8   8   8   8   8   8   8   8
#     4  10  21  37  60  89 132 163 214 266 332 389
#     4  10  21  36  62  88 128 165 221 272 325 388
#     4  10  19  35  58  91 121 165 205 269 317 391
#     4   9  17  30  54  85 114 149 199 258 319 373
#     4  12  25  42  64  97 132 175 222 267 333 406
#     4  12  24  41  66  88 131 175 217 261 333 399
#     4  12  27  41  65  97 132 177 220 274 335 402
#     4  10  22  39  66  96 128 174 229 284 336 393
#
# _framework density 23.490767999999999
#
# number of rings (size 3 to 8) (size 9 to 14) (size 15 to 20)
#    0.000    1.375    3.750    1.875    5.250    5.000 
#    0.000    0.000    0.000    4.125    0.000    0.000 
#    0.000    0.000    0.000    0.000    0.000    0.000 
#
# Total GULP energy -178812.396383 kJ/mol
# GULP energy per Si atom -5587.887387 kJ/mol
# Density = 2.343730 g / cm^3
# Si number density = 23.490768 Si / 1000 Ang^3
#
#
#
# Elastic Constant Matrix: (Units=GPa)
#
#
# Indices 1 2 3 4 5 6 
#
# 1 134.9560 43.0013 42.1117 0.0000 57.4159 0.0000
# 2 43.0013 117.0336 13.2951 0.0000 36.6206 0.0000
# 3 42.1117 13.2951 48.5471 0.0000 17.2135 0.0000
# 4 0.0000 0.0000 0.0000 15.0057 0.0000 8.9840
# 5 57.4159 36.6206 17.2135 0.0000 53.7605 0.0000
# 6 0.0000 0.0000 0.0000 8.9840 0.0000 19.6344
#
#
#
# Elastic Compliance Matrix: (Units=1/GPa)
#
#
# Indices 1 2 3 4 5 6 
#
# 1 0.016541 -0.000544 -0.009100 0.000000 -0.014382 0.000000
# 2 -0.000544 0.010884 -0.000097 0.000000 -0.006802 0.000000
# 3 -0.009100 -0.000097 0.028258 0.000000 0.000738 0.000000
# 4 0.000000 0.000000 0.000000 0.091786 0.000000 -0.041998
# 5 -0.014382 -0.006802 0.000738 0.000000 0.038358 0.000000
# 6 0.000000 0.000000 0.000000 -0.041998 0.000000 0.070148
#
#
# Mechanical properties :
#
#
# Convention : Reuss Voigt Hill
#
# Bulk Modulus (GPa) = 27.62406 55.26144 41.44275
# Shear Modulus (GPa) = 17.38989 31.15536 24.27263
#
# Velocity S-wave (km/s) = 2.72377 3.64576 3.21796
# Velocity P-wave (km/s) = 4.65585 6.42635 5.61137
#
# Compressibility (1/GPa) = 0.03620032
#
# Stress axis : x y z
#
# Youngs Moduli (GPa) = 60.45425 91.88003 35.38862
#
# Poissons Ratio (x) = 0.04996 0.32205
# Poissons Ratio (y) = 0.03287 0.00344
# Poissons Ratio (z) = 0.55016 0.00893
#
# Static dielectric constant tensor:
#      x y z
#    x 1.855250 0.000000 0.100120 
#    y 0.000000 1.899580 0.000000 
#    z 0.100120 0.000000 1.846270 
# 
# From -- ./inp_files/80763.got.cif
#   From: 2010.05.17/outbox.cif.g08.bks.cpg/sg12_41_cif.got.tgz:80763.got - 2010.06.03 13:09:07.
