data_PCOD9187987
_publ_section_title
;
Structure prediction by ZEFSAII (Michael W. Deem and Ramdas Pophale) SiO2 
 PCOD9187987
Probable space group: C 2/M
;
_chemical_formula_sum "Si O2"
_cell_formula_units_Z 56
_cell_length_a 9.842747
_cell_length_b 15.156016
_cell_length_c 23.414144
_cell_angle_alpha 90.000000
_cell_angle_beta 57.999421
_cell_angle_gamma 90.000000
_cell_volume 2962.084225
_symmetry_space_group_name_H-M "C 2/M"
_symmetry_group_IT_number 12
_symmetry_cell_setting 'monoclinic'
loop_
_space_group_symop_operation_xyz
x,y,z
-x,y,-z
-x,-y,-z
x,-y,z
1/2+x,1/2+y,z
1/2-x,1/2+y,-z
1/2-x,1/2-y,-z
1/2+x,1/2-y,z
loop_
_atom_site_type_symbol
_atom_site_label
_atom_site_fract_x
_atom_site_fract_y
_atom_site_fract_z
Si Si1 0.945221 0.746087 0.741956
Si Si2 0.835620 0.903187 0.345562
Si Si3 0.169643 0.337713 0.494209
Si Si4 0.908905 0.189256 0.960062
Si Si5 0.438443 0.000000 0.108850
Si Si6 0.915469 0.692090 0.171570
Si Si7 0.008073 0.594767 0.639464
Si Si8 0.263122 0.500000 0.962334
O O1 0.762616 0.775106 0.773075
O O2 0.010689 0.674650 0.682473
O O3 0.051566 0.832118 0.708057
O O4 0.971776 0.706403 0.798769
O O5 0.786183 0.880617 0.421548
O O6 0.668694 0.904244 0.348594
O O7 0.909336 0.000000 0.326731
O O8 0.250000 0.250000 0.500000
O O9 0.000000 0.320309 0.500000
O O10 0.126863 0.394438 0.559485
O O11 0.021192 0.242171 0.891392
O O12 0.860894 0.090755 0.950320
O O13 0.750000 0.250000 0.000000
O O14 0.000000 0.183473 0.000000
O O15 0.418059 0.090997 0.148747
O O16 0.313096 0.000000 0.084048
O O17 0.614583 0.000000 0.040213
O O18 0.035281 0.500000 0.661731
#
# Coordination Sequence:
#
# PCOD9187987 Si02
#       8
#     8   8   8   8   4   8   8   4
#     4  12  24  43  61  92 130 175 209 259 316 386
#     4  10  21  40  64  92 123 167 221 264 314 381
#     4  10  19  35  65  92 120 162 213 272 321 365
#     4  12  24  46  71  98 131 166 217 271 317 376
#     4  11  24  44  70  98 132 163 211 261 330 388
#     4  12  27  43  65  96 130 173 209 256 322 386
#     4  10  21  40  64  89 125 167 216 265 315 374
#     4  11  23  44  74 102 126 166 209 272 326 372
#
# _framework density 18.905605999999999
#
# number of rings (size 3 to 8) (size 9 to 14) (size 15 to 20)
#    0.000    1.000    4.286    3.214    2.000    1.714 
#    2.571    0.000    0.000    0.857    0.000    0.000 
#    0.000    0.000    0.000    0.000    0.000    0.000 
#
# Total GULP energy -156405.955702 kJ/mol
# GULP energy per Si atom -5585.926989 kJ/mol
# Density = 1.886258 g / cm^3
# Si number density = 18.905606 Si / 1000 Ang^3
#
#
#
# Elastic Constant Matrix: (Units=GPa)
#
#
# Indices 1 2 3 4 5 6 
#
# 1 38.7895 28.8219 -1.8639 0.0000 8.8776 0.0000
# 2 28.8219 170.8075 28.9990 0.0000 12.7323 0.0000
# 3 -1.8639 28.9990 49.2730 0.0000 9.7125 0.0000
# 4 0.0000 0.0000 0.0000 -81.5680 0.0000 -114.6495
# 5 8.8776 12.7323 9.7125 0.0000 33.9958 0.0000
# 6 0.0000 0.0000 0.0000 -114.6495 0.0000 -107.6341
#
#
#
# Elastic Compliance Matrix: (Units=1/GPa)
#
#
# Indices 1 2 3 4 5 6 
#
# 1 0.032319 -0.005924 0.006289 0.000000 -0.008018 0.000000
# 2 -0.005924 0.007656 -0.004736 0.000000 0.000033 0.000000
# 3 0.006289 -0.004736 0.024685 0.000000 -0.006921 0.000000
# 4 0.000000 0.000000 0.000000 0.024658 0.000000 -0.026266
# 5 -0.008018 0.000033 -0.006921 0.000000 0.033474 0.000000
# 6 0.000000 0.000000 0.000000 -0.026266 0.000000 0.018687
#
#
# Mechanical properties :
#
#
# Convention : Reuss Voigt Hill
#
# Bulk Modulus (GPa) = 17.88326 41.19822 29.54074
# Shear Modulus (GPa) = 29.61052 -17.51371 6.04840
#
# Velocity S-wave (km/s) = 3.96186 -3.04695 1.79059
# Velocity P-wave (km/s) = 5.51436 3.07577 4.46478
#
# Compressibility (1/GPa) = 0.05591822
#
# Stress axis : x y z
#
# Youngs Moduli (GPa) = 30.94171 130.62110 40.51105
#
# Poissons Ratio (x) = 0.77374 -0.25478
# Poissons Ratio (y) = 0.18328 0.19187
# Poissons Ratio (z) = -0.19460 0.61865
#
# Static dielectric constant tensor:
#      x y z
#    x 1.636920 0.000000 0.003990 
#    y 0.000000 1.641080 0.000000 
#    z 0.003990 0.000000 1.663040 
# 
# From -- ./inp_files/300186.got.cif
#   From: 2010.05.17/outbox.cif.g08.bks.cpg/sg12_151_cif.got.tgz:300186.got - 2010.06.03 13:09:07.
