data_PCOD9187514
_publ_section_title
;
Structure prediction by ZEFSAII (Michael W. Deem and Ramdas Pophale) SiO2 
 PCOD9187514
Probable space group: C 2/M
;
_chemical_formula_sum "Si O2"
_cell_formula_units_Z 48
_cell_length_a 23.351601
_cell_length_b 14.177384
_cell_length_c 14.859329
_cell_angle_alpha 90.000000
_cell_angle_beta 26.630068
_cell_angle_gamma 90.000000
_cell_volume 2205.013244
_symmetry_space_group_name_H-M "C 2/M"
_symmetry_group_IT_number 12
_symmetry_cell_setting 'monoclinic'
loop_
_space_group_symop_operation_xyz
x,y,z
-x,y,-z
-x,-y,-z
x,-y,z
1/2+x,1/2+y,z
1/2-x,1/2+y,-z
1/2-x,1/2-y,-z
1/2+x,1/2-y,z
loop_
_atom_site_type_symbol
_atom_site_label
_atom_site_fract_x
_atom_site_fract_y
_atom_site_fract_z
Si Si1 0.228295 0.655862 0.476526
Si Si2 0.769740 0.605797 0.714579
Si Si3 0.971782 0.607837 0.935614
Si Si4 0.093234 0.738484 0.130396
Si Si5 0.322239 0.112811 0.836344
Si Si6 0.016552 0.100975 0.803973
O O1 0.250000 0.750000 0.500000
O O2 0.208035 0.671632 0.399990
O O3 0.107477 0.607052 0.692905
O O4 0.363510 0.603250 0.298634
O O5 0.797361 0.500000 0.642809
O O6 0.852553 0.620110 0.687811
O O7 0.620116 0.608422 0.953738
O O8 0.921130 0.500000 0.009669
O O9 0.889041 0.679066 0.988585
O O10 0.000000 0.638133 0.000000
O O11 0.087367 0.660001 0.216343
O O12 0.978683 0.809451 0.267939
O O13 0.198566 0.817212 0.012032
O O14 0.301260 0.000000 0.882850
O O15 0.016033 0.000000 0.756454
#
# Coordination Sequence:
#
# PCOD9187514 Si02
#       6
#     8   8   8   8   8   8
#     4  12  23  35  58  88 121 159 190 241 295 354
#     4   9  19  36  60  89 116 148 193 245 299 347
#     4  11  25  41  57  82 121 164 201 237 286 354
#     4  10  19  35  59  87 118 154 195 240 290 351
#     4   9  19  35  60  90 117 150 194 247 298 347
#     4  10  20  36  61  91 121 151 193 245 297 348
#
# _framework density 21.768578000000002
#
# number of rings (size 3 to 8) (size 9 to 14) (size 15 to 20)
#    0.000    1.833    1.667    4.000    4.667    1.333 
#    0.000    0.833    0.000    3.500    0.000    1.167 
#    0.000    0.000    0.000    0.000    0.000    0.000 
#
# Total GULP energy -133657.333560 kJ/mol
# GULP energy per Si atom -5569.055565 kJ/mol
# Density = 2.171903 g / cm^3
# Si number density = 21.768578 Si / 1000 Ang^3
#
#
#
# Elastic Constant Matrix: (Units=GPa)
#
#
# Indices 1 2 3 4 5 6 
#
# 1 155.2265 71.3454 38.6913 0.0000 12.7361 0.0000
# 2 71.3454 169.7909 13.8714 0.0000 16.3587 0.0000
# 3 38.6913 13.8714 54.2916 0.0000 2.5675 0.0000
# 4 0.0000 0.0000 0.0000 24.1660 0.0000 2.9079
# 5 12.7361 16.3587 2.5675 0.0000 36.9120 0.0000
# 6 0.0000 0.0000 0.0000 2.9079 0.0000 37.8303
#
#
#
# Elastic Compliance Matrix: (Units=1/GPa)
#
#
# Indices 1 2 3 4 5 6 
#
# 1 0.009597 -0.003417 -0.005901 0.000000 -0.001387 0.000000
# 2 -0.003417 0.007484 0.000626 0.000000 -0.002181 0.000000
# 3 -0.005901 0.000626 0.022455 0.000000 0.000197 0.000000
# 4 0.000000 0.000000 0.000000 0.041767 0.000000 -0.003210
# 5 -0.001387 -0.002181 0.000197 0.000000 0.028523 0.000000
# 6 0.000000 0.000000 0.000000 -0.003210 0.000000 0.026681
#
#
# Mechanical properties :
#
#
# Convention : Reuss Voigt Hill
#
# Bulk Modulus (GPa) = 45.14049 69.68058 57.41053
# Shear Modulus (GPa) = 31.00276 36.80838 33.90557
#
# Velocity S-wave (km/s) = 3.77795 4.11651 3.95086
# Velocity P-wave (km/s) = 6.30968 7.39415 6.87334
#
# Compressibility (1/GPa) = 0.02215306
#
# Stress axis : x y z
#
# Youngs Moduli (GPa) = 104.19478 133.60990 44.53313
#
# Poissons Ratio (x) = 0.45656 0.26279
# Poissons Ratio (y) = 0.35604 -0.02788
# Poissons Ratio (z) = 0.61486 -0.08366
#
# Static dielectric constant tensor:
#      x y z
#    x 1.850730 0.000000 -0.041060 
#    y 0.000000 1.870230 0.000000 
#    z -0.041060 0.000000 1.815860 
# 
# From -- ./inp_files/240589.got.cif
#   From: 2010.05.17/outbox.cif.g08.bks.cpg/sg12_121_cif.got.tgz:240589.got - 2010.06.03 13:09:07.
