data_PCOD9187379
_publ_section_title
;
Structure prediction by ZEFSAII (Michael W. Deem and Ramdas Pophale) SiO2 
 PCOD9187379
Probable space group: C 2/M
;
_chemical_formula_sum "Si O2"
_cell_formula_units_Z 56
_cell_length_a 18.011566
_cell_length_b 14.663994
_cell_length_c 13.051341
_cell_angle_alpha 90.000000
_cell_angle_beta 65.673050
_cell_angle_gamma 90.000000
_cell_volume 3141.066839
_symmetry_space_group_name_H-M "C 2/M"
_symmetry_group_IT_number 12
_symmetry_cell_setting 'monoclinic'
loop_
_space_group_symop_operation_xyz
x,y,z
-x,y,-z
-x,-y,-z
x,-y,z
1/2+x,1/2+y,z
1/2-x,1/2+y,-z
1/2-x,1/2-y,-z
1/2+x,1/2-y,z
loop_
_atom_site_type_symbol
_atom_site_label
_atom_site_fract_x
_atom_site_fract_y
_atom_site_fract_z
Si Si1 0.812889 0.603828 0.412916
Si Si2 0.422444 0.897548 0.147683
Si Si3 0.551484 0.217044 0.564218
Si Si4 0.638234 0.392450 0.185523
Si Si5 0.368472 0.607531 0.565013
Si Si6 0.318492 0.895220 0.999297
Si Si7 0.948405 0.723083 0.827529
O O1 0.818701 0.500000 0.447780
O O2 0.860013 0.608034 0.277625
O O3 0.862480 0.668990 0.460490
O O4 0.719240 0.622249 0.438997
O O5 0.371376 0.890535 0.073444
O O6 0.488861 0.819209 0.126256
O O7 0.460355 0.000000 0.130990
O O8 0.500000 0.176762 0.500000
O O9 0.571407 0.321971 0.524337
O O10 0.494053 0.205583 0.694896
O O11 0.622507 0.500000 0.183962
O O12 0.637886 0.372691 0.308757
O O13 0.726725 0.372887 0.085787
O O14 0.573719 0.329285 0.163722
O O15 0.389817 0.500000 0.542198
O O16 0.319530 0.000000 0.962543
O O17 0.363800 0.830650 0.892896
#
# Coordination Sequence:
#
# PCOD9187379 Si02
#       7
#     8   8   8   8   8   8   8
#     4   9  18  34  56  78 103 140 177 213 262 311
#     4   9  17  32  56  84 107 130 170 223 270 311
#     4  11  22  34  50  80 114 141 171 212 262 317
#     4  10  20  35  56  78 104 139 178 221 262 305
#     4  10  19  36  58  76 101 140 184 223 255 297
#     4  10  19  35  59  83 104 132 176 224 265 311
#     4  11  21  32  50  82 113 138 168 212 273 316
#
# _framework density 17.828337999999999
#
# number of rings (size 3 to 8) (size 9 to 14) (size 15 to 20)
#    0.000    2.000    2.857    1.714    0.000    2.857 
#    0.000    0.000    0.000    1.714    0.000    0.000 
#    0.000    0.000    0.000    0.000    0.000    0.000 
#
# Total GULP energy -156074.413205 kJ/mol
# GULP energy per Si atom -5574.086186 kJ/mol
# Density = 1.778776 g / cm^3
# Si number density = 17.828338 Si / 1000 Ang^3
#
#
#
# Elastic Constant Matrix: (Units=GPa)
#
#
# Indices 1 2 3 4 5 6 
#
# 1 72.9085 44.1494 12.3622 0.0000 15.0405 0.0000
# 2 44.1494 77.9490 26.4055 0.0000 12.6203 0.0000
# 3 12.3622 26.4055 63.5195 0.0000 -4.6718 0.0000
# 4 0.0000 0.0000 0.0000 20.5836 0.0000 -8.7566
# 5 15.0405 12.6203 -4.6718 0.0000 -7.4883 0.0000
# 6 0.0000 0.0000 0.0000 -8.7566 0.0000 34.3297
#
#
#
# Elastic Compliance Matrix: (Units=1/GPa)
#
#
# Indices 1 2 3 4 5 6 
#
# 1 0.018922 -0.013815 0.003005 0.000000 0.012847 0.000000
# 2 -0.013815 0.020719 -0.005160 0.000000 0.010390 0.000000
# 3 0.003005 -0.005160 0.016357 0.000000 -0.012865 0.000000
# 4 0.000000 0.000000 0.000000 0.054496 0.000000 0.013901
# 5 0.012847 0.010390 -0.012865 0.000000 -0.082200 0.000000
# 6 0.000000 0.000000 0.000000 0.013901 0.000000 0.032675
#
#
# Mechanical properties :
#
#
# Convention : Reuss Voigt Hill
#
# Bulk Modulus (GPa) = 41.56573 42.24569 41.90571
# Shear Modulus (GPa) = 49.54017 18.24897 33.89457
#
# Velocity S-wave (km/s) = 5.27709 3.20284 4.36496
# Velocity P-wave (km/s) = 7.77787 6.11758 6.99714
#
# Compressibility (1/GPa) = 0.02405828
#
# Stress axis : x y z
#
# Youngs Moduli (GPa) = 52.84950 48.26406 61.13510
#
# Poissons Ratio (x) = 0.66677 -0.18373
# Poissons Ratio (y) = 0.73012 0.31547
# Poissons Ratio (z) = -0.15883 0.24906
#
# Static dielectric constant tensor:
#      x y z
#    x 1.619490 0.000000 -0.030590 
#    y 0.000000 1.622530 0.000000 
#    z -0.030590 0.000000 1.617330 
# 
# From -- ./inp_files/223150.got.cif
#   From: 2010.05.17/outbox.cif.g08.bks.cpg/sg12_112_cif.got.tgz:223150.got - 2010.06.03 13:09:07.
