data_PCOD9187825
_publ_section_title
;
Structure prediction by ZEFSAII (Michael W. Deem and Ramdas Pophale) SiO2 
 PCOD9187825
Probable space group: C 2/M
;
_chemical_formula_sum "Si O2"
_cell_formula_units_Z 48
_cell_length_a 9.377323
_cell_length_b 22.657194
_cell_length_c 21.265542
_cell_angle_alpha 90.000000
_cell_angle_beta 28.839651
_cell_angle_gamma 90.000000
_cell_volume 2179.378890
_symmetry_space_group_name_H-M "C 2/M"
_symmetry_group_IT_number 12
_symmetry_cell_setting 'monoclinic'
loop_
_space_group_symop_operation_xyz
x,y,z
-x,y,-z
-x,-y,-z
x,-y,z
1/2+x,1/2+y,z
1/2-x,1/2+y,-z
1/2-x,1/2-y,-z
1/2+x,1/2-y,z
loop_
_atom_site_type_symbol
_atom_site_label
_atom_site_fract_x
_atom_site_fract_y
_atom_site_fract_z
Si Si1 0.367288 0.431334 0.220083
Si Si2 0.834372 0.749960 0.364541
Si Si3 0.089531 0.270631 0.796988
Si Si4 0.808236 0.340710 0.011929
Si Si5 0.318648 0.571233 0.507382
Si Si6 0.836693 0.889704 0.365430
O O1 0.372939 0.500000 0.202886
O O2 0.582240 0.394386 0.092580
O O3 0.470338 0.421337 0.253005
O O4 0.024742 0.410417 0.350703
O O5 0.500000 0.728622 0.500000
O O6 0.977524 0.717802 0.249548
O O7 0.820209 0.820327 0.356166
O O8 0.069944 0.748725 0.329617
O O9 0.889812 0.216358 0.896119
O O10 0.013287 0.323690 0.873702
O O11 0.000000 0.350865 0.000000
O O12 0.500000 0.585570 0.500000
O O13 0.322605 0.500000 0.497506
O O14 0.447587 0.599645 0.393531
O O15 0.500000 0.913291 0.500000
#
# Coordination Sequence:
#
# PCOD9187825 Si02
#       6
#     8   8   8   8   8   8
#     4  10  19  35  61  92 122 161 213 258 306 365
#     4  11  22  40  63  93 127 150 202 267 315 369
#     4  11  22  41  62  88 122 165 203 252 311 373
#     4  11  22  40  63  84 125 166 213 253 297 369
#     4   9  18  34  57  89 130 168 202 250 314 376
#     4   9  17  33  55  86 126 162 199 253 306 366
#
# _framework density 22.024622999999998
#
# number of rings (size 3 to 8) (size 9 to 14) (size 15 to 20)
#    0.000    1.833    3.333    1.000    0.000    2.333 
#    3.000    0.000    3.667    0.000    0.000    2.333 
#    0.000    0.667    0.000    0.000    0.000    0.000 
#
# Total GULP energy -134056.543144 kJ/mol
# GULP energy per Si atom -5585.689298 kJ/mol
# Density = 2.197449 g / cm^3
# Si number density = 22.024623 Si / 1000 Ang^3
#
#
#
# Elastic Constant Matrix: (Units=GPa)
#
#
# Indices 1 2 3 4 5 6 
#
# 1 115.9544 9.2258 28.9777 -0.0114 9.7383 -0.0041
# 2 9.2258 53.4936 35.6268 -0.0100 6.6092 -0.0092
# 3 28.9777 35.6268 96.6420 -0.0236 -2.1605 -0.0001
# 4 -0.0114 -0.0100 -0.0236 27.6293 0.0202 -0.0074
# 5 9.7383 6.6092 -2.1605 0.0202 32.2526 -0.0047
# 6 -0.0041 -0.0092 -0.0001 -0.0074 -0.0047 20.0809
#
#
#
# Elastic Compliance Matrix: (Units=1/GPa)
#
#
# Indices 1 2 3 4 5 6 
#
# 1 0.009659 0.000961 -0.003325 0.000004 -0.003336 0.000002
# 2 0.000961 0.025964 -0.010000 0.000006 -0.006281 0.000011
# 3 -0.003325 -0.010000 0.015122 0.000005 0.004066 -0.000004
# 4 0.000004 0.000006 0.000005 0.036193 -0.000025 0.000013
# 5 -0.003336 -0.006281 0.004066 -0.000025 0.033572 0.000004
# 6 0.000002 0.000011 -0.000004 0.000013 0.000004 0.049799
#
#
# Mechanical properties :
#
#
# Convention : Reuss Voigt Hill
#
# Bulk Modulus (GPa) = 38.43752 45.97230 42.20491
# Shear Modulus (GPa) = 24.54477 28.80986 26.67731
#
# Velocity S-wave (km/s) = 3.34192 3.62066 3.48408
# Velocity P-wave (km/s) = 5.69045 6.19656 5.94889
#
# Compressibility (1/GPa) = 0.02601625
#
# Stress axis : x y z
#
# Youngs Moduli (GPa) = 103.53346 38.51460 66.12960
#
# Poissons Ratio (x) = -0.03700 0.21987
# Poissons Ratio (y) = -0.09947 0.66130
# Poissons Ratio (z) = 0.34424 0.38515
#
# Static dielectric constant tensor:
#      x y z
#    x 1.807550 -0.000010 -0.016830 
#    y -0.000010 1.778490 0.000020 
#    z -0.016830 0.000020 1.847290 
# 
# From -- ./inp_files/302720.got.cif
#   From: 2010.05.17/outbox.cif.g08.bks.cpg/sg12_152_cif.got.tgz:302720.got - 2010.06.03 13:09:07.
