data_PCOD9187700
_publ_section_title
;
Structure prediction by ZEFSAII (Michael W. Deem and Ramdas Pophale) SiO2 
 PCOD9187700
Probable space group: C 2/M
;
_chemical_formula_sum "Si O2"
_cell_formula_units_Z 50
_cell_length_a 25.040855
_cell_length_b 7.466719
_cell_length_c 13.436624
_cell_angle_alpha 90.000000
_cell_angle_beta 120.029896
_cell_angle_gamma 90.000000
_cell_volume 2175.048003
_symmetry_space_group_name_H-M "C 2/M"
_symmetry_group_IT_number 12
_symmetry_cell_setting 'monoclinic'
loop_
_space_group_symop_operation_xyz
x,y,z
-x,y,-z
-x,-y,-z
x,-y,z
1/2+x,1/2+y,z
1/2-x,1/2+y,-z
1/2-x,1/2-y,-z
1/2+x,1/2-y,z
loop_
_atom_site_type_symbol
_atom_site_label
_atom_site_fract_x
_atom_site_fract_y
_atom_site_fract_z
Si Si1 0.290729 0.283264 0.323866
Si Si2 0.587299 0.793233 0.947170
Si Si3 0.847939 0.281020 0.792203
Si Si4 0.421735 0.794102 0.500394
Si Si5 0.000000 0.000000 0.500000
Si Si6 0.457454 0.218907 0.750593
Si Si7 0.812777 0.212425 0.118605
O O1 0.290669 0.500000 0.325275
O O2 0.222278 0.222209 0.289091
O O3 0.348062 0.218857 0.442080
O O4 0.304604 0.222883 0.223604
O O5 0.520249 0.715959 0.860432
O O6 0.630110 0.788205 0.889990
O O7 0.575360 0.000000 0.963024
O O8 0.625684 0.719291 0.076163
O O9 0.846164 0.500000 0.791752
O O10 0.897194 0.226444 0.755432
O O11 0.446687 0.658157 0.441993
O O12 0.452428 0.725470 0.631401
O O13 0.437529 0.000000 0.496707
O O14 0.458344 0.000000 0.749754
O O15 0.821229 0.000000 0.130028
O O16 0.750000 0.250000 0.000000
#
# Coordination Sequence:
#
# PCOD9187700 Si02
#       7
#     8   8   8   8   2   8   8
#     4  10  21  39  61  91 129 171 213 261 321 380
#     4  10  19  35  60  90 121 161 206 260 322 379
#     4   9  17  35  63  91 125 166 209 261 319 380
#     4  11  25  43  67  98 129 171 216 260 321 384
#     4  12  26  48  68  90 138 164 208 272 322 384
#     4   9  20  37  62  95 124 159 216 265 312 382
#     4  11  22  36  57  86 123 160 206 260 320 380
#
# _framework density 22.987998000000001
#
# number of rings (size 3 to 8) (size 9 to 14) (size 15 to 20)
#    0.000    1.920    2.400    1.200    2.240    3.840 
#    0.000    0.000    3.520    0.960    0.000    0.000 
#    0.000    0.000    0.000    0.000    0.000    0.000 
#
# Total GULP energy -139530.886365 kJ/mol
# GULP energy per Si atom -5581.235455 kJ/mol
# Density = 2.293568 g / cm^3
# Si number density = 22.987998 Si / 1000 Ang^3
#
#
#
# Elastic Constant Matrix: (Units=GPa)
#
#
# Indices 1 2 3 4 5 6 
#
# 1 138.3494 8.3130 30.9025 0.0000 29.2500 0.0000
# 2 8.3130 97.9301 12.4883 0.0000 4.0651 0.0000
# 3 30.9025 12.4883 50.7672 0.0000 33.8085 0.0000
# 4 0.0000 0.0000 0.0000 4.9736 0.0000 8.2109
# 5 29.2500 4.0651 33.8085 0.0000 41.1705 0.0000
# 6 0.0000 0.0000 0.0000 8.2109 0.0000 13.2999
#
#
#
# Elastic Compliance Matrix: (Units=1/GPa)
#
#
# Indices 1 2 3 4 5 6 
#
# 1 0.008663 -0.000248 -0.002493 0.000000 -0.004083 0.000000
# 2 -0.000248 0.010658 -0.004165 0.000000 0.002544 0.000000
# 3 -0.002493 -0.004165 0.045873 0.000000 -0.035487 0.000000
# 4 0.000000 0.000000 0.000000-10.470962 0.000000 6.464413
# 5 -0.004083 0.002544 -0.035487 0.000000 0.056080 0.000000
# 6 0.000000 0.000000 0.000000 6.464413 0.000000 -3.915719
#
#
# Mechanical properties :
#
#
# Convention : Reuss Voigt Hill
#
# Bulk Modulus (GPa) = 19.46239 43.38380 31.42310
# Shear Modulus (GPa) = -0.35126 27.57833 13.61354
#
# Velocity S-wave (km/s) = -0.39132 3.46740 2.43616
# Velocity P-wave (km/s) = 2.87759 5.91133 4.64889
#
# Compressibility (1/GPa) = 0.05138115
#
# Stress axis : x y z
#
# Youngs Moduli (GPa) = 115.43217 93.82669 21.79934
#
# Poissons Ratio (x) = 0.02326 0.05435
# Poissons Ratio (y) = 0.02862 0.09080
# Poissons Ratio (z) = 0.28782 0.39080
#
# Static dielectric constant tensor:
#      x y z
#    x 1.861160 0.000000 -0.009320 
#    y 0.000000 1.864420 0.000000 
#    z -0.009320 0.000000 1.860050 
# 
# From -- ./inp_files/238003.got.cif
#   From: 2010.05.17/outbox.cif.g08.bks.cpg/sg12_120_cif.got.tgz:238003.got - 2010.06.03 13:09:07.
