data_PCOD9187451
_publ_section_title
;
Structure prediction by ZEFSAII (Michael W. Deem and Ramdas Pophale) SiO2 
 PCOD9187451
Probable space group: C 2/M
;
_chemical_formula_sum "Si O2"
_cell_formula_units_Z 58
_cell_length_a 13.061136
_cell_length_b 12.469462
_cell_length_c 20.185730
_cell_angle_alpha 90.000000
_cell_angle_beta 59.852384
_cell_angle_gamma 90.000000
_cell_volume 2842.862355
_symmetry_space_group_name_H-M "C 2/M"
_symmetry_group_IT_number 12
_symmetry_cell_setting 'monoclinic'
loop_
_space_group_symop_operation_xyz
x,y,z
-x,y,-z
-x,-y,-z
x,-y,z
1/2+x,1/2+y,z
1/2-x,1/2+y,-z
1/2-x,1/2-y,-z
1/2+x,1/2-y,z
loop_
_atom_site_type_symbol
_atom_site_label
_atom_site_fract_x
_atom_site_fract_y
_atom_site_fract_z
Si Si1 0.431114 0.187281 0.930374
Si Si2 0.448692 0.705347 0.234653
Si Si3 0.897567 0.878110 0.477787
Si Si4 0.500000 0.000000 0.000000
Si Si5 0.239136 0.378472 0.219297
Si Si6 0.275490 0.123643 0.352987
Si Si7 0.426108 0.309097 0.682329
Si Si8 0.817392 0.876253 0.045767
O O1 0.482915 0.233014 0.845578
O O2 0.304426 0.132352 0.956192
O O3 0.508049 0.096051 0.940521
O O4 0.403836 0.291128 0.984161
O O5 0.350275 0.631689 0.232437
O O6 0.377517 0.796374 0.298171
O O7 0.534691 0.646968 0.258725
O O8 0.784622 0.843374 0.557474
O O9 0.000000 0.884328 0.500000
O O10 0.956393 0.808734 0.401136
O O11 0.877598 0.000000 0.459278
O O12 0.198074 0.500000 0.226510
O O13 0.135735 0.303407 0.280220
O O14 0.285424 0.344580 0.131547
O O15 0.173400 0.130518 0.328949
O O16 0.312965 0.000000 0.346160
O O17 0.858374 0.000000 0.031489
#
# Coordination Sequence:
#
# PCOD9187451 Si02
#       8
#     8   8   8   2   8   8   8   8
#     4  11  23  39  62  91 122 153 202 252 312 357
#     4  11  23  37  58  90 118 153 194 249 298 356
#     4   8  15  32  58  84 116 153 194 241 296 351
#     4  12  24  40  62  96 120 158 196 266 300 360
#     4  10  22  39  58  81 117 156 195 242 294 358
#     4   9  20  37  59  88 116 154 197 245 296 354
#     4  10  19  35  59  85 115 152 194 241 291 347
#     4  10  21  43  63  82 117 164 202 243 302 370
#
# _framework density 20.401972000000001
#
# number of rings (size 3 to 8) (size 9 to 14) (size 15 to 20)
#    0.000    2.069    2.069    2.069    0.966    2.759 
#    0.000    1.724    1.517   10.345    0.000    0.000 
#    0.000    0.000    0.000    0.000    0.000    0.000 
#
# Total GULP energy -161529.878515 kJ/mol
# GULP energy per Si atom -5569.995811 kJ/mol
# Density = 2.035554 g / cm^3
# Si number density = 20.401972 Si / 1000 Ang^3
#
#
#
# Elastic Constant Matrix: (Units=GPa)
#
#
# Indices 1 2 3 4 5 6 
#
# 1 54.8268 3.1870 12.7916 0.0000 11.1564 0.0000
# 2 3.1870 85.8519 76.4734 0.0000 -11.0522 0.0000
# 3 12.7916 76.4734 147.3427 0.0000 -1.4421 0.0000
# 4 0.0000 0.0000 0.0000 15.7881 0.0000 5.6043
# 5 11.1564 -11.0522 -1.4421 0.0000 33.6440 0.0000
# 6 0.0000 0.0000 0.0000 5.6043 0.0000 1.4337
#
#
#
# Elastic Compliance Matrix: (Units=1/GPa)
#
#
# Indices 1 2 3 4 5 6 
#
# 1 0.020027 -0.000002 -0.001803 0.000000 -0.006719 0.000000
# 2 -0.000002 0.023254 -0.011999 0.000000 0.007125 0.000000
# 3 -0.001803 -0.011999 0.013144 0.000000 -0.002780 0.000000
# 4 0.000000 0.000000 0.000000 -0.163424 0.000000 0.638823
# 5 -0.006719 0.007125 -0.002780 0.000000 0.034173 0.000000
# 6 0.000000 0.000000 0.000000 0.638823 0.000000 -1.799657
#
#
# Mechanical properties :
#
#
# Convention : Reuss Voigt Hill
#
# Bulk Modulus (GPa) = 34.70314 52.54729 43.62522
# Shear Modulus (GPa) = -2.72440 23.21113 10.24337
#
# Velocity S-wave (km/s) = -1.15683 3.37663 2.24314
# Velocity P-wave (km/s) = 3.90670 6.40422 5.30454
#
# Compressibility (1/GPa) = 0.02881583
#
# Stress axis : x y z
#
# Youngs Moduli (GPa) = 49.93178 43.00393 76.08024
#
# Poissons Ratio (x) = 0.00009 0.13720
# Poissons Ratio (y) = 0.00010 0.91290
# Poissons Ratio (z) = 0.09005 0.51601
#
# Static dielectric constant tensor:
#      x y z
#    x 1.773090 0.000000 0.003560 
#    y 0.000000 1.679320 0.000000 
#    z 0.003560 0.000000 1.714810 
# 
# From -- ./inp_files/309827.got.cif
#   From: 2010.05.17/outbox.cif.g08.bks.cpg/sg12_155_cif.got.tgz:309827.got - 2010.06.03 13:09:07.
