data_PCOD9187254
_publ_section_title
;
Structure prediction by ZEFSAII (Michael W. Deem and Ramdas Pophale) SiO2 
 PCOD9187254
Probable space group: C 2/M
;
_chemical_formula_sum "Si O2"
_cell_formula_units_Z 40
_cell_length_a 7.613526
_cell_length_b 12.588818
_cell_length_c 20.094691
_cell_angle_alpha 90.000000
_cell_angle_beta 47.914280
_cell_angle_gamma 90.000000
_cell_volume 1429.353553
_symmetry_space_group_name_H-M "C 2/M"
_symmetry_group_IT_number 12
_symmetry_cell_setting 'monoclinic'
loop_
_space_group_symop_operation_xyz
x,y,z
-x,y,-z
-x,-y,-z
x,-y,z
1/2+x,1/2+y,z
1/2-x,1/2+y,-z
1/2-x,1/2-y,-z
1/2+x,1/2-y,z
loop_
_atom_site_type_symbol
_atom_site_label
_atom_site_fract_x
_atom_site_fract_y
_atom_site_fract_z
Si Si1 0.941726 0.613063 0.214220
Si Si2 0.903310 0.157830 0.808738
Si Si3 0.220147 0.614455 0.554947
Si Si4 0.661254 0.377189 0.024783
Si Si5 0.922206 0.158391 0.369929
O O1 0.054691 0.500000 0.196982
O O2 0.092850 0.714668 0.191794
O O3 0.841949 0.623154 0.163770
O O4 0.690197 0.620556 0.316610
O O5 0.096765 0.128080 0.702867
O O6 0.935404 0.120702 0.874739
O O7 0.500000 0.626278 0.500000
O O8 0.133520 0.500000 0.598851
O O9 0.086960 0.715388 0.617240
O O10 0.236411 0.617975 0.470354
O O11 0.772676 0.500000 0.994116
O O12 0.500000 0.379085 0.000000
O O13 0.750000 0.250000 0.000000
#
# Coordination Sequence:
#
# PCOD9187254 Si02
#       5
#     8   8   8   8   8
#     4  10  21  40  64  91 127 168 212 267 322 378
#     4  10  22  40  67  96 126 169 219 264 320 392
#     4  10  19  35  58  84 122 165 207 263 321 377
#     4  11  25  45  69 101 139 177 221 276 336 398
#     4   9  21  34  59  91 122 162 217 261 314 387
#
# _framework density 27.984680000000001
#
# number of rings (size 3 to 8) (size 9 to 14) (size 15 to 20)
#    1.200    0.800    0.000    3.600    0.000    3.600 
#    0.000    4.000    0.000    4.200    0.000    0.000 
#    0.000    0.000    0.000    0.000    0.000    0.000 
#
# Total GULP energy -111633.622537 kJ/mol
# GULP energy per Si atom -5581.681127 kJ/mol
# Density = 2.792099 g / cm^3
# Si number density = 27.984680 Si / 1000 Ang^3
#
#
#
# Elastic Constant Matrix: (Units=GPa)
#
#
# Indices 1 2 3 4 5 6 
#
# 1 61.0147 50.8560 32.7228 0.0002 10.9014 -0.0003
# 2 50.8560 291.9105 41.6351 0.0002 -0.4054 -0.0005
# 3 32.7228 41.6351 231.5429 0.0002 40.9611 -0.0005
# 4 0.0002 0.0002 0.0002 4.7100 -0.0004 -13.3850
# 5 10.9014 -0.4054 40.9611 -0.0004 26.5774 0.0007
# 6 -0.0003 -0.0005 -0.0005 -13.3850 0.0007 18.1341
#
#
#
# Elastic Compliance Matrix: (Units=1/GPa)
#
#
# Indices 1 2 3 4 5 6 
#
# 1 0.021197 -0.003544 -0.001115 0.000000 -0.007031 0.000000
# 2 -0.003544 0.004147 -0.000706 0.000000 0.002604 0.000000
# 3 -0.001115 -0.000706 0.006220 -0.000001 -0.009140 0.000000
# 4 0.000000 0.000000 -0.000001 -0.193435 0.000002 -0.142777
# 5 -0.007031 0.002604 -0.009140 0.000002 0.054636 -0.000001
# 6 0.000000 0.000000 0.000000 -0.142777 -0.000001 -0.050241
#
#
# Mechanical properties :
#
#
# Convention : Reuss Voigt Hill
#
# Bulk Modulus (GPa) = 47.99259 92.76620 70.37939
# Shear Modulus (GPa) = -35.76497 40.50124 2.36813
#
# Velocity S-wave (km/s) = -3.57882 3.80842 0.92090
# Velocity P-wave (km/s) = 0.33101 7.24980 5.13173
#
# Compressibility (1/GPa) = 0.02083655
#
# Stress axis : x y z
#
# Youngs Moduli (GPa) = 47.17613 241.11791 160.76580
#
# Poissons Ratio (x) = 0.85445 0.17921
# Poissons Ratio (y) = 0.16718 0.11345
# Poissons Ratio (z) = 0.05259 0.17015
#
# Static dielectric constant tensor:
#      x y z
#    x 2.207600 0.000000 -0.026050 
#    y 0.000000 2.145650 0.000000 
#    z -0.026050 0.000000 2.283940 
# 
# From -- ./inp_files/261495.got.cif
#   From: 2010.05.17/outbox.cif.g08.bks.cpg/sg12_131_cif.got.tgz:261495.got - 2010.06.03 13:09:07.
