data_PCOD9187406
_publ_section_title
;
Structure prediction by ZEFSAII (Michael W. Deem and Ramdas Pophale) SiO2 
 PCOD9187406
Probable space group: C 2/M
;
_chemical_formula_sum "Si O2"
_cell_formula_units_Z 48
_cell_length_a 12.160721
_cell_length_b 24.580707
_cell_length_c 8.421938
_cell_angle_alpha 90.000000
_cell_angle_beta 108.075072
_cell_angle_gamma 90.000000
_cell_volume 2393.242778
_symmetry_space_group_name_H-M "C 2/M"
_symmetry_group_IT_number 12
_symmetry_cell_setting 'monoclinic'
loop_
_space_group_symop_operation_xyz
x,y,z
-x,y,-z
-x,-y,-z
x,-y,z
1/2+x,1/2+y,z
1/2-x,1/2+y,-z
1/2-x,1/2-y,-z
1/2+x,1/2-y,z
loop_
_atom_site_type_symbol
_atom_site_label
_atom_site_fract_x
_atom_site_fract_y
_atom_site_fract_z
Si Si1 0.317027 0.500000 0.323824
Si Si2 0.367878 0.693135 0.942275
Si Si3 0.803662 0.314589 0.860583
Si Si4 0.229123 0.913578 0.241905
Si Si5 0.056614 0.000000 0.273242
Si Si6 0.667106 0.902290 0.366444
Si Si7 0.572057 0.088932 0.891832
O O1 0.418868 0.500000 0.238428
O O2 0.385120 0.500000 0.524089
O O3 0.234426 0.447324 0.289641
O O4 0.355000 0.754461 0.873556
O O5 0.298935 0.648693 0.810877
O O6 0.500000 0.677130 0.000000
O O7 0.315234 0.691263 0.095812
O O8 0.792923 0.344696 0.688180
O O9 0.882475 0.355180 0.004130
O O10 0.112391 0.948238 0.209849
O O11 0.295446 0.914502 0.438791
O O12 0.315659 0.934834 0.143770
O O13 0.528990 0.903382 0.282908
O O14 0.500000 0.060267 0.000000
#
# Coordination Sequence:
#
# PCOD9187406 Si02
#       7
#     4   8   8   8   4   8   8
#     4   9  20  35  57  79 114 158 182 222 297 332
#     4  10  20  36  56  79 112 152 189 224 285 345
#     4   9  20  37  56  80 113 151 183 229 288 336
#     4  10  21  35  58  85 109 147 192 237 274 333
#     4   9  20  39  52  78 121 149 182 237 282 335
#     4  10  19  35  59  84 110 145 194 234 279 328
#     4   9  18  36  58  79 113 146 179 225 288 340
#
# _framework density 20.056469
#
# number of rings (size 3 to 8) (size 9 to 14) (size 15 to 20)
#    0.000    2.500    0.000    2.000    2.333    1.333 
#    0.000   14.583    0.000    0.000    0.000    0.000 
#    0.000    0.000    0.000    0.000    0.000    0.000 
#
# Total GULP energy -133794.147042 kJ/mol
# GULP energy per Si atom -5574.756127 kJ/mol
# Density = 2.001082 g / cm^3
# Si number density = 20.056469 Si / 1000 Ang^3
#
#
#
# Elastic Constant Matrix: (Units=GPa)
#
#
# Indices 1 2 3 4 5 6 
#
# 1 134.9371 30.5944 24.1405 0.0000 -16.4927 0.0000
# 2 30.5944 98.7733 9.9689 0.0000 -11.3768 0.0000
# 3 24.1405 9.9689 45.7312 0.0000 -10.3423 0.0000
# 4 0.0000 0.0000 0.0000 16.2732 0.0000 -4.5238
# 5 -16.4927 -11.3768 -10.3423 0.0000 29.3722 0.0000
# 6 0.0000 0.0000 0.0000 -4.5238 0.0000 26.6618
#
#
#
# Elastic Compliance Matrix: (Units=1/GPa)
#
#
# Indices 1 2 3 4 5 6 
#
# 1 0.008873 -0.002050 -0.003575 0.000000 0.002930 0.000000
# 2 -0.002050 0.011166 -0.000689 0.000000 0.002931 0.000000
# 3 -0.003575 -0.000689 0.025413 0.000000 0.006674 0.000000
# 4 0.000000 0.000000 0.000000 0.064493 0.000000 0.010943
# 5 0.002930 0.002931 0.006674 0.000000 0.039176 0.000000
# 6 0.000000 0.000000 0.000000 0.010943 0.000000 0.039363
#
#
# Mechanical properties :
#
#
# Convention : Reuss Voigt Hill
#
# Bulk Modulus (GPa) = 30.46397 45.42769 37.94583
# Shear Modulus (GPa) = 23.57882 28.77730 26.17806
#
# Velocity S-wave (km/s) = 3.43245 3.79200 3.61670
# Velocity P-wave (km/s) = 5.56157 6.47082 6.03335
#
# Compressibility (1/GPa) = 0.03282566
#
# Stress axis : x y z
#
# Youngs Moduli (GPa) = 112.69791 89.55431 39.34929
#
# Poissons Ratio (x) = 0.18361 0.14065
# Poissons Ratio (y) = 0.23106 0.02711
# Poissons Ratio (z) = 0.40284 0.06170
#
# Static dielectric constant tensor:
#      x y z
#    x 1.716560 0.000000 -0.021800 
#    y 0.000000 1.714250 0.000000 
#    z -0.021800 0.000000 1.716000 
# 
# From -- ./inp_files/51508.got.cif
#   From: 2010.05.17/outbox.cif.g08.bks.cpg/sg12_26_cif.got.tgz:51508.got - 2010.06.03 13:09:07.
