data_PCOD9187143
_publ_section_title
;
Structure prediction by ZEFSAII (Michael W. Deem and Ramdas Pophale) SiO2 
 PCOD9187143
Probable space group: C 2/M
;
_chemical_formula_sum "Si O2"
_cell_formula_units_Z 64
_cell_length_a 19.661948
_cell_length_b 14.730957
_cell_length_c 11.584162
_cell_angle_alpha 90.000000
_cell_angle_beta 68.866383
_cell_angle_gamma 90.000000
_cell_volume 3129.563241
_symmetry_space_group_name_H-M "C 2/M"
_symmetry_group_IT_number 12
_symmetry_cell_setting 'monoclinic'
loop_
_space_group_symop_operation_xyz
x,y,z
-x,y,-z
-x,-y,-z
x,-y,z
1/2+x,1/2+y,z
1/2-x,1/2+y,-z
1/2-x,1/2-y,-z
1/2+x,1/2-y,z
loop_
_atom_site_type_symbol
_atom_site_label
_atom_site_fract_x
_atom_site_fract_y
_atom_site_fract_z
Si Si1 0.271264 0.604889 0.751596
Si Si2 0.935818 0.095869 0.214660
Si Si3 0.594121 0.401252 0.040488
Si Si4 0.069727 0.255859 0.618013
Si Si5 0.401920 0.744894 0.669138
Si Si6 0.715811 0.896898 0.275805
Si Si7 0.196632 0.243463 0.925835
Si Si8 0.214455 0.650433 0.537580
O O1 0.276372 0.500000 0.783266
O O2 0.345339 0.662616 0.733906
O O3 0.206120 0.661862 0.853720
O O4 0.252333 0.609656 0.627105
O O5 0.923840 0.096761 0.085183
O O6 0.907504 0.178956 0.304925
O O7 0.907042 0.000000 0.278118
O O8 0.023563 0.096116 0.164411
O O9 0.632822 0.500000 0.037519
O O10 0.626229 0.300130 0.027770
O O11 0.084988 0.229624 0.475982
O O12 0.126535 0.337654 0.607250
O O13 0.981520 0.261565 0.676293
O O14 0.356478 0.838443 0.706880
O O15 0.777225 0.836049 0.177127
O O16 0.725952 0.896710 0.407450
O O17 0.714492 0.000000 0.234455
O O18 0.250000 0.250000 0.000000
O O19 0.250000 0.750000 0.500000
#
# Coordination Sequence:
#
# PCOD9187143 Si02
#       8
#     8   8   8   8   8   8   8   8
#     4  11  23  39  60  89 125 156 194 246 299 355
#     4   9  19  32  54  84 110 143 189 237 288 342
#     4   9  19  36  54  82 112 141 193 245 282 334
#     4  10  19  35  58  80 116 156 187 228 288 355
#     4   9  21  37  54  86 119 152 187 230 293 355
#     4  10  21  38  61  86 113 148 197 246 287 344
#     4  11  23  37  57  82 116 162 196 232 293 344
#     4  11  19  40  62  88 117 151 194 239 295 350
#
# _framework density 20.450139
#
# number of rings (size 3 to 8) (size 9 to 14) (size 15 to 20)
#    0.000    2.000    3.750    2.250    3.500    2.000 
#    0.000    6.875    0.000    0.000    0.000    2.625 
#    0.000    0.000    0.000    0.000    0.000    0.000 
#
# Total GULP energy -178211.316553 kJ/mol
# GULP energy per Si atom -5569.103642 kJ/mol
# Density = 2.040359 g / cm^3
# Si number density = 20.450139 Si / 1000 Ang^3
#
#
#
# Elastic Constant Matrix: (Units=GPa)
#
#
# Indices 1 2 3 4 5 6 
#
# 1 90.3226 22.0974 5.7667 0.0000 -5.4449 0.0000
# 2 22.0974 125.3327 17.9384 0.0000 -9.0616 0.0000
# 3 5.7667 17.9384 53.2918 0.0000 2.2509 0.0000
# 4 0.0000 0.0000 0.0000 5.8567 0.0000 -1.4814
# 5 -5.4449 -9.0616 2.2509 0.0000 31.9780 0.0000
# 6 0.0000 0.0000 0.0000 -1.4814 0.0000 3.9315
#
#
#
# Elastic Compliance Matrix: (Units=1/GPa)
#
#
# Indices 1 2 3 4 5 6 
#
# 1 0.011659 -0.001845 -0.000704 0.000000 0.001512 0.000000
# 2 -0.001845 0.008893 -0.002895 0.000000 0.002410 0.000000
# 3 -0.000704 -0.002895 0.019914 0.000000 -0.002342 0.000000
# 4 0.000000 0.000000 0.000000 0.188732 0.000000 0.071113
# 5 0.001512 0.002410 -0.002342 0.000000 0.032377 0.000000
# 6 0.000000 0.000000 0.000000 0.071113 0.000000 0.281149
#
#
# Mechanical properties :
#
#
# Convention : Reuss Voigt Hill
#
# Bulk Modulus (GPa) = 33.81148 40.06135 36.93642
# Shear Modulus (GPa) = 8.87354 23.22955 16.05155
#
# Velocity S-wave (km/s) = 2.08531 3.37399 2.80467
# Velocity P-wave (km/s) = 4.72943 5.90006 5.34688
#
# Compressibility (1/GPa) = 0.02957575
#
# Stress axis : x y z
#
# Youngs Moduli (GPa) = 85.77049 112.45101 50.21495
#
# Poissons Ratio (x) = 0.20753 0.03536
# Poissons Ratio (y) = 0.15829 0.14539
# Poissons Ratio (z) = 0.06041 0.32560
#
# Static dielectric constant tensor:
#      x y z
#    x 1.860930 0.000000 -0.030760 
#    y 0.000000 1.757920 0.000000 
#    z -0.030760 0.000000 1.754230 
# 
# From -- ./inp_files/167221.got.cif
#   From: 2010.05.17/outbox.cif.g08.bks.cpg/sg12_84_cif.got.tgz:167221.got - 2010.06.03 13:09:07.
