data_PCOD9187224
_publ_section_title
;
Structure prediction by ZEFSAII (Michael W. Deem and Ramdas Pophale) SiO2 
 PCOD9187224
Probable space group: C 2/M
;
_chemical_formula_sum "Si O2"
_cell_formula_units_Z 64
_cell_length_a 25.199919
_cell_length_b 8.455135
_cell_length_c 16.787885
_cell_angle_alpha 90.000000
_cell_angle_beta 91.005433
_cell_angle_gamma 90.000000
_cell_volume 3576.422394
_symmetry_space_group_name_H-M "C 2/M"
_symmetry_group_IT_number 12
_symmetry_cell_setting 'monoclinic'
loop_
_space_group_symop_operation_xyz
x,y,z
-x,y,-z
-x,-y,-z
x,-y,z
1/2+x,1/2+y,z
1/2-x,1/2+y,-z
1/2-x,1/2-y,-z
1/2+x,1/2-y,z
loop_
_atom_site_type_symbol
_atom_site_label
_atom_site_fract_x
_atom_site_fract_y
_atom_site_fract_z
Si Si1 0.788740 0.307680 0.764476
Si Si2 0.057883 0.307137 0.969276
Si Si3 0.380310 0.809075 0.877826
Si Si4 0.307418 0.689263 0.473503
Si Si5 0.674574 0.691735 0.708692
Si Si6 0.567839 0.810474 0.786966
Si Si7 0.367847 0.189437 0.623781
Si Si8 0.955205 0.187677 0.738931
O O1 0.788031 0.500000 0.765756
O O2 0.824115 0.253554 0.840329
O O3 0.728243 0.255035 0.755380
O O4 0.821903 0.262773 0.686173
O O5 0.058279 0.500000 0.968876
O O6 0.066885 0.254993 0.879213
O O7 0.101561 0.253637 0.034780
O O8 0.000000 0.258717 0.000000
O O9 0.424935 0.761591 0.814570
O O10 0.378931 0.000000 0.879473
O O11 0.305991 0.500000 0.474391
O O12 0.250000 0.750000 0.500000
O O13 0.319453 0.740020 0.383522
O O14 0.350774 0.748957 0.537514
O O15 0.672742 0.500000 0.711006
O O16 0.621713 0.757952 0.746420
O O17 0.515795 0.742417 0.742809
O O18 0.563952 0.000000 0.786748
O O19 0.422416 0.254707 0.661227
O O20 0.369834 0.000000 0.623310
O O21 0.951994 0.000000 0.744369
#
# Coordination Sequence:
#
# PCOD9187224 Si02
#       8
#     8   8   8   8   8   8   8   8
#     4   8  15  30  53  78 106 144 180 215 270 328
#     4   9  16  30  54  82 108 138 185 237 278 321
#     4   9  16  31  56  81 107 143 186 230 272 326
#     4  11  21  35  57  85 116 147 186 233 278 326
#     4  10  21  38  54  77 114 151 183 223 280 334
#     4  11  22  37  56  79 108 148 191 230 276 334
#     4  10  19  35  58  84 111 143 184 230 275 327
#     4  11  21  34  53  82 114 144 178 226 283 334
#
# _framework density 17.894977999999998
#
# number of rings (size 3 to 8) (size 9 to 14) (size 15 to 20)
#    0.000    2.125    2.500    3.000    0.000    1.000 
#    0.000    3.750    0.000    3.750    0.000    0.000 
#    0.000    0.000    0.000    0.000    0.000    0.000 
#
# Total GULP energy -178553.154880 kJ/mol
# GULP energy per Si atom -5579.786090 kJ/mol
# Density = 1.785425 g / cm^3
# Si number density = 17.894978 Si / 1000 Ang^3
#
#
#
# Elastic Constant Matrix: (Units=GPa)
#
#
# Indices 1 2 3 4 5 6 
#
# 1 147.7478 15.4509 85.6875 0.0000 22.3769 0.0000
# 2 15.4509 19.9263 21.6832 0.0000 5.7363 0.0000
# 3 85.6875 21.6832 128.2303 0.0000 20.7026 0.0000
# 4 0.0000 0.0000 0.0000 15.3220 0.0000 -0.9929
# 5 22.3769 5.7363 20.7026 0.0000 33.1513 0.0000
# 6 0.0000 0.0000 0.0000 -0.9929 0.0000 26.4208
#
#
#
# Elastic Compliance Matrix: (Units=1/GPa)
#
#
# Indices 1 2 3 4 5 6 
#
# 1 0.011359 -0.000226 -0.007029 0.000000 -0.003238 0.000000
# 2 -0.000226 0.062147 -0.009615 0.000000 -0.004596 0.000000
# 3 -0.007029 -0.009615 0.014554 0.000000 -0.002680 0.000000
# 4 0.000000 0.000000 0.000000 0.065425 0.000000 0.002459
# 5 -0.003238 -0.004596 -0.002680 0.000000 0.034820 0.000000
# 6 0.000000 0.000000 0.000000 0.002459 0.000000 0.037941
#
#
# Mechanical properties :
#
#
# Convention : Reuss Voigt Hill
#
# Bulk Modulus (GPa) = 18.41023 60.17199 39.29111
# Shear Modulus (GPa) = 17.97947 26.51768 22.24858
#
# Velocity S-wave (km/s) = 3.17317 3.85366 3.52985
# Velocity P-wave (km/s) = 4.87192 7.31430 6.21428
#
# Compressibility (1/GPa) = 0.05431763
#
# Stress axis : x y z
#
# Youngs Moduli (GPa) = 88.03407 16.09097 68.70745
#
# Poissons Ratio (x) = 0.00364 0.48298
# Poissons Ratio (y) = 0.01994 0.66065
# Poissons Ratio (z) = 0.61883 0.15472
#
# Static dielectric constant tensor:
#      x y z
#    x 1.593360 0.000000 0.029470 
#    y 0.000000 1.613350 0.000000 
#    z 0.029470 0.000000 1.613790 
# 
# From -- ./inp_files/287780.got.cif
#   From: 2010.05.17/outbox.cif.g08.bks.cpg/sg12_144_cif.got.tgz:287780.got - 2010.06.03 13:09:07.
