data_PCOD9187508
_publ_section_title
;
Structure prediction by ZEFSAII (Michael W. Deem and Ramdas Pophale) SiO2 
 PCOD9187508
Probable space group: C 2/M
;
_chemical_formula_sum "Si O2"
_cell_formula_units_Z 40
_cell_length_a 15.074224
_cell_length_b 11.395491
_cell_length_c 12.946632
_cell_angle_alpha 90.000000
_cell_angle_beta 65.559962
_cell_angle_gamma 90.000000
_cell_volume 2024.671462
_symmetry_space_group_name_H-M "C 2/M"
_symmetry_group_IT_number 12
_symmetry_cell_setting 'monoclinic'
loop_
_space_group_symop_operation_xyz
x,y,z
-x,y,-z
-x,-y,-z
x,-y,z
1/2+x,1/2+y,z
1/2-x,1/2+y,-z
1/2-x,1/2-y,-z
1/2+x,1/2-y,z
loop_
_atom_site_type_symbol
_atom_site_label
_atom_site_fract_x
_atom_site_fract_y
_atom_site_fract_z
Si Si1 0.862621 0.863805 0.288731
Si Si2 0.147510 0.635693 0.425976
Si Si3 0.848506 0.866032 0.049700
Si Si4 0.500257 0.193105 0.330710
Si Si5 0.375910 0.872219 0.918054
O O1 0.757310 0.819534 0.378765
O O2 0.864195 0.850354 0.164275
O O3 0.951690 0.805675 0.303667
O O4 0.864584 0.000000 0.311260
O O5 0.149507 0.500000 0.386568
O O6 0.086502 0.635676 0.560880
O O7 0.086451 0.709245 0.371953
O O8 0.733083 0.865678 0.078113
O O9 0.883740 0.000000 0.004545
O O10 0.890122 0.749391 0.974026
O O11 0.547432 0.126651 0.212038
O O12 0.382009 0.000000 0.970576
#
# Coordination Sequence:
#
# PCOD9187508 Si02
#       5
#     8   8   8   8   8
#     4  10  21  38  59  84 116 155 194 235 289 356
#     4  10  20  38  60  83 114 153 192 235 292 353
#     4   9  19  37  60  83 114 157 197 235 290 355
#     4  11  20  33  60  89 112 145 196 242 287 341
#     4  10  19  35  59  87 116 150 195 246 291 340
#
# _framework density 19.756291000000001
#
# number of rings (size 3 to 8) (size 9 to 14) (size 15 to 20)
#    0.000    2.000    2.000    3.000    0.000    1.600 
#    0.000    8.000    0.000    4.800    0.000    0.000 
#    0.000    0.000    0.000    0.000    0.000    0.000 
#
# Total GULP energy -111465.347642 kJ/mol
# GULP energy per Si atom -5573.267382 kJ/mol
# Density = 1.971132 g / cm^3
# Si number density = 19.756291 Si / 1000 Ang^3
#
#
#
# Elastic Constant Matrix: (Units=GPa)
#
#
# Indices 1 2 3 4 5 6 
#
# 1 65.4409 50.8158 20.9741 0.0000 -3.0042 0.0000
# 2 50.8158 126.5842 61.3171 0.0000 3.1278 0.0000
# 3 20.9741 61.3171 70.1155 0.0000 -10.5412 0.0000
# 4 0.0000 0.0000 0.0000 21.6889 0.0000 17.5382
# 5 -3.0042 3.1278 -10.5412 0.0000 20.3739 0.0000
# 6 0.0000 0.0000 0.0000 17.5382 0.0000 -100.4748
#
#
#
# Elastic Compliance Matrix: (Units=1/GPa)
#
#
# Indices 1 2 3 4 5 6 
#
# 1 0.023255 -0.011610 0.004316 0.000000 0.007444 0.000000
# 2 -0.011610 0.021217 -0.017163 0.000000 -0.013849 0.000000
# 3 0.004316 -0.017163 0.030874 0.000000 0.019245 0.000000
# 4 0.000000 0.000000 0.000000 0.040404 0.000000 0.007053
# 5 0.007444 -0.013849 0.019245 0.000000 0.062263 0.000000
# 6 0.000000 0.000000 0.000000 0.007053 0.000000 -0.008722
#
#
# Mechanical properties :
#
#
# Convention : Reuss Voigt Hill
#
# Bulk Modulus (GPa) = 37.83495 58.70606 48.27051
# Shear Modulus (GPa) = 22.02490 -3.08015 9.47237
#
# Velocity S-wave (km/s) = 3.34253 -1.24998 2.19204
# Velocity P-wave (km/s) = 5.83858 5.26273 5.55812
#
# Compressibility (1/GPa) = 0.02643059
#
# Stress axis : x y z
#
# Youngs Moduli (GPa) = 43.00210 47.13278 32.38950
#
# Poissons Ratio (x) = 0.54720 -0.13979
# Poissons Ratio (y) = 0.49925 0.55592
# Poissons Ratio (z) = -0.18559 0.80896
#
# Static dielectric constant tensor:
#      x y z
#    x 1.694240 0.000000 -0.028630 
#    y 0.000000 1.721830 0.000000 
#    z -0.028630 0.000000 1.709210 
# 
# From -- ./inp_files/140785.got.cif
#   From: 2010.05.17/outbox.cif.g08.bks.cpg/sg12_71_cif.got.tgz:140785.got - 2010.06.03 13:09:07.
