data_PCOD9187272
_publ_section_title
;
Structure prediction by ZEFSAII (Michael W. Deem and Ramdas Pophale) SiO2 
 PCOD9187272
Probable space group: C 2/M
;
_chemical_formula_sum "Si O2"
_cell_formula_units_Z 64
_cell_length_a 27.063897
_cell_length_b 19.956972
_cell_length_c 18.439939
_cell_angle_alpha 90.000000
_cell_angle_beta 163.419730
_cell_angle_gamma 90.000000
_cell_volume 2842.071786
_symmetry_space_group_name_H-M "C 2/M"
_symmetry_group_IT_number 12
_symmetry_cell_setting 'monoclinic'
loop_
_space_group_symop_operation_xyz
x,y,z
-x,y,-z
-x,-y,-z
x,-y,z
1/2+x,1/2+y,z
1/2-x,1/2+y,-z
1/2-x,1/2-y,-z
1/2+x,1/2-y,z
loop_
_atom_site_type_symbol
_atom_site_label
_atom_site_fract_x
_atom_site_fract_y
_atom_site_fract_z
Si Si1 0.659635 0.205277 0.513078
Si Si2 0.049257 0.927746 0.276009
Si Si3 0.380768 0.120109 0.674651
Si Si4 0.677193 0.575758 0.611972
Si Si5 0.820536 0.673800 0.105582
Si Si6 0.123208 0.199738 0.962358
Si Si7 0.880744 0.708817 0.916822
Si Si8 0.254118 0.423007 0.133346
O O1 0.703940 0.150904 0.515749
O O2 0.526161 0.173503 0.383392
O O3 0.534865 0.262953 0.302432
O O4 0.825863 0.236825 0.782443
O O5 0.250657 0.925154 0.535940
O O6 0.046879 0.920985 0.360803
O O7 0.963072 0.863076 0.119043
O O8 0.975680 0.000000 0.152911
O O9 0.561769 0.088483 0.900128
O O10 0.430975 0.184416 0.794837
O O11 0.752135 0.500000 0.713035
O O12 0.797959 0.639842 0.772208
O O13 0.626312 0.583782 0.625470
O O14 0.743426 0.628087 0.931507
O O15 0.750000 0.750000 0.000000
O O16 0.759571 0.663173 0.101652
O O17 0.194481 0.258623 0.114186
O O18 0.267962 0.500000 0.127364
#
# Coordination Sequence:
#
# PCOD9187272 Si02
#       8
#     8   8   8   8   8   8   8   8
#     4   9  18  36  57  82 112 145 193 246 296 342
#     4  11  22  38  57  81 123 164 192 237 295 353
#     4   9  20  35  54  84 115 151 195 235 288 351
#     4   9  18  33  53  82 117 150 185 228 292 355
#     4   9  18  34  56  79 113 149 193 240 290 350
#     4  10  21  37  54  84 115 152 201 237 290 351
#     4  10  19  35  58  85 118 149 188 247 289 348
#     4   9  17  32  55  81 108 143 190 240 289 344
#
# _framework density 22.518785000000001
#
# number of rings (size 3 to 8) (size 9 to 14) (size 15 to 20)
#    0.000    2.500    1.250    2.625    0.000    5.500 
#    2.250    6.250    0.000    6.750    0.000    4.375 
#    0.000    0.000    0.000    0.000    0.000    0.000 
#
# Total GULP energy -178201.294354 kJ/mol
# GULP energy per Si atom -5568.790449 kJ/mol
# Density = 2.246753 g / cm^3
# Si number density = 22.518785 Si / 1000 Ang^3
#
#
#
# Elastic Constant Matrix: (Units=GPa)
#
#
# Indices 1 2 3 4 5 6 
#
# 1 100.8660 38.2742 22.1484 0.0000 14.4886 0.0000
# 2 38.2742 99.9333 18.7971 0.0000 -5.6522 0.0000
# 3 22.1484 18.7971 37.9028 0.0000 -1.2810 0.0000
# 4 0.0000 0.0000 0.0000 27.0579 0.0000 -5.9306
# 5 14.4886 -5.6522 -1.2810 0.0000 23.9124 0.0000
# 6 0.0000 0.0000 0.0000 -5.9306 0.0000 29.1872
#
#
#
# Elastic Compliance Matrix: (Units=1/GPa)
#
#
# Indices 1 2 3 4 5 6 
#
# 1 0.014746 -0.005021 -0.006481 0.000000 -0.010469 0.000000
# 2 -0.005021 0.012876 -0.003252 0.000000 0.005911 0.000000
# 3 -0.006481 -0.003252 0.031947 0.000000 0.004870 0.000000
# 4 0.000000 0.000000 0.000000 0.038680 0.000000 0.007860
# 5 -0.010469 0.005911 0.004870 0.000000 0.049820 0.000000
# 6 0.000000 0.000000 0.000000 0.007860 0.000000 0.035859
#
#
# Mechanical properties :
#
#
# Convention : Reuss Voigt Hill
#
# Bulk Modulus (GPa) = 33.26379 44.12683 38.69531
# Shear Modulus (GPa) = 22.37579 26.66368 24.51973
#
# Velocity S-wave (km/s) = 3.15564 3.44476 3.30336
# Velocity P-wave (km/s) = 5.29916 5.95482 5.63653
#
# Compressibility (1/GPa) = 0.03006272
#
# Stress axis : x y z
#
# Youngs Moduli (GPa) = 67.81442 77.66610 31.30147
#
# Poissons Ratio (x) = 0.38995 0.20285
# Poissons Ratio (y) = 0.34049 0.10178
# Poissons Ratio (z) = 0.43948 0.25255
#
# Static dielectric constant tensor:
#      x y z
#    x 2.005660 0.000000 0.045950 
#    y 0.000000 1.853970 0.000000 
#    z 0.045950 0.000000 1.874980 
# 
# From -- ./inp_files/294170.got.cif
#   From: 2010.05.17/outbox.cif.g08.bks.cpg/sg12_148_cif.got.tgz:294170.got - 2010.06.03 13:09:07.
