data_PCOD9187269
_publ_section_title
;
Structure prediction by ZEFSAII (Michael W. Deem and Ramdas Pophale) SiO2 
 PCOD9187269
Probable space group: C 2/M
;
_chemical_formula_sum "Si O2"
_cell_formula_units_Z 48
_cell_length_a 24.698005
_cell_length_b 8.877129
_cell_length_c 13.604932
_cell_angle_alpha 90.000000
_cell_angle_beta 126.359622
_cell_angle_gamma 90.000000
_cell_volume 2402.120788
_symmetry_space_group_name_H-M "C 2/M"
_symmetry_group_IT_number 12
_symmetry_cell_setting 'monoclinic'
loop_
_space_group_symop_operation_xyz
x,y,z
-x,y,-z
-x,-y,-z
x,-y,z
1/2+x,1/2+y,z
1/2-x,1/2+y,-z
1/2-x,1/2-y,-z
1/2+x,1/2-y,z
loop_
_atom_site_type_symbol
_atom_site_label
_atom_site_fract_x
_atom_site_fract_y
_atom_site_fract_z
Si Si1 0.840019 0.177467 0.707654
Si Si2 0.914776 0.318710 0.603045
Si Si3 0.294741 0.818454 0.340743
Si Si4 0.575008 0.174681 0.037209
Si Si5 0.202282 0.821099 0.865785
Si Si6 0.933084 0.319565 0.204826
O O1 0.878848 0.261914 0.663091
O O2 0.762327 0.220395 0.640616
O O3 0.876898 0.218167 0.849329
O O4 0.843595 0.000000 0.692634
O O5 0.915593 0.500000 0.607954
O O6 0.867480 0.274114 0.461323
O O7 0.992272 0.270216 0.682725
O O8 0.278896 0.739723 0.221345
O O9 0.293205 0.000000 0.325734
O O10 0.595994 0.000000 0.074510
O O11 0.500000 0.189294 0.000000
O O12 0.573379 0.204462 0.919464
O O13 0.126617 0.766635 0.806287
O O14 0.207977 0.000000 0.875486
O O15 0.250000 0.750000 0.000000
O O16 0.926352 0.500000 0.215257
#
# Coordination Sequence:
#
# PCOD9187269 Si02
#       6
#     8   8   8   8   8   8
#     4  11  22  35  57  91 127 160 200 254 307 352
#     4  10  21  40  64  89 122 164 206 245 295 365
#     4  10  23  42  63  89 122 163 207 248 298 359
#     4  10  19  35  58  85 116 155 203 245 293 360
#     4  12  26  44  66  90 120 157 200 252 304 361
#     4  10  21  39  64  91 121 160 204 251 299 354
#
# _framework density 19.982341999999999
#
# number of rings (size 3 to 8) (size 9 to 14) (size 15 to 20)
#    0.000    1.500    1.667    3.500    0.000    7.000 
#    0.000    3.333    0.000    0.000    0.000    0.000 
#    0.000    0.000    0.000    0.000    0.000    0.000 
#
# Total GULP energy -134189.518507 kJ/mol
# GULP energy per Si atom -5591.229938 kJ/mol
# Density = 1.993686 g / cm^3
# Si number density = 19.982342 Si / 1000 Ang^3
#
#
#
# Elastic Constant Matrix: (Units=GPa)
#
#
# Indices 1 2 3 4 5 6 
#
# 1 86.3288 27.5035 27.9210 0.0000 13.0640 0.0000
# 2 27.5035 25.0221 29.2222 0.0000 4.0025 0.0000
# 3 27.9210 29.2222 109.8759 0.0000 15.3301 0.0000
# 4 0.0000 0.0000 0.0000 9.3893 0.0000 -3.8496
# 5 13.0640 4.0025 15.3301 0.0000 26.5847 0.0000
# 6 0.0000 0.0000 0.0000 -3.8496 0.0000 32.5378
#
#
#
# Elastic Compliance Matrix: (Units=1/GPa)
#
#
# Indices 1 2 3 4 5 6 
#
# 1 0.019098 -0.022260 0.002076 0.000000 -0.007231 0.000000
# 2 -0.022260 0.083916 -0.017862 0.000000 0.008605 0.000000
# 3 0.002076 -0.017862 0.014237 0.000000 -0.006540 0.000000
# 4 0.000000 0.000000 0.000000 0.111934 0.000000 0.013243
# 5 -0.007231 0.008605 -0.006540 0.000000 0.043645 0.000000
# 6 0.000000 0.000000 0.000000 0.013243 0.000000 0.032300
#
#
# Mechanical properties :
#
#
# Convention : Reuss Voigt Hill
#
# Bulk Modulus (GPa) = 24.29613 43.39114 33.84364
# Shear Modulus (GPa) = 12.66010 22.80771 17.73390
#
# Velocity S-wave (km/s) = 2.51980 3.38212 2.98229
# Velocity P-wave (km/s) = 4.54434 6.08387 5.36957
#
# Compressibility (1/GPa) = 0.04115882
#
# Stress axis : x y z
#
# Youngs Moduli (GPa) = 52.36096 11.91671 70.24094
#
# Poissons Ratio (x) = 0.26526 -0.14581
# Poissons Ratio (y) = 1.16555 1.25464
# Poissons Ratio (z) = -0.10870 0.21286
#
# Static dielectric constant tensor:
#      x y z
#    x 1.694990 0.000000 0.018190 
#    y 0.000000 1.672480 0.000000 
#    z 0.018190 0.000000 1.709410 
# 
# From -- ./inp_files/244838.got.cif
#   From: 2010.05.17/outbox.cif.g08.bks.cpg/sg12_123_cif.got.tgz:244838.got - 2010.06.03 13:09:07.
