data_PCOD9187204
_publ_section_title
;
Structure prediction by ZEFSAII (Michael W. Deem and Ramdas Pophale) SiO2 
 PCOD9187204
Probable space group: C 2/M
;
_chemical_formula_sum "Si O2"
_cell_formula_units_Z 56
_cell_length_a 12.530306
_cell_length_b 22.782713
_cell_length_c 10.641899
_cell_angle_alpha 90.000000
_cell_angle_beta 95.918296
_cell_angle_gamma 90.000000
_cell_volume 3021.796705
_symmetry_space_group_name_H-M "C 2/M"
_symmetry_group_IT_number 12
_symmetry_cell_setting 'monoclinic'
loop_
_space_group_symop_operation_xyz
x,y,z
-x,y,-z
-x,-y,-z
x,-y,z
1/2+x,1/2+y,z
1/2-x,1/2+y,-z
1/2-x,1/2-y,-z
1/2+x,1/2-y,z
loop_
_atom_site_type_symbol
_atom_site_label
_atom_site_fract_x
_atom_site_fract_y
_atom_site_fract_z
Si Si1 0.619399 0.320977 0.485734
Si Si2 0.458347 0.431033 0.669800
Si Si3 0.319134 0.570255 0.176272
Si Si4 0.614883 0.842960 0.844808
Si Si5 0.874423 0.343683 0.852529
Si Si6 0.302589 0.568324 0.885141
Si Si7 0.244611 0.749765 0.702696
O O1 0.500000 0.296609 0.500000
O O2 0.596571 0.387782 0.437500
O O3 0.685482 0.291345 0.380239
O O4 0.687795 0.300637 0.613974
O O5 0.454205 0.500000 0.633490
O O6 0.580334 0.414431 0.722515
O O7 0.393867 0.424535 0.792525
O O8 0.304944 0.500000 0.184359
O O9 0.210245 0.605190 0.190384
O O10 0.341375 0.584239 0.030949
O O11 0.489997 0.854995 0.804437
O O12 0.699447 0.894788 0.830960
O O13 0.659298 0.787582 0.772591
O O14 0.618287 0.837622 0.996273
O O15 0.827344 0.282308 0.801988
O O16 0.272993 0.500000 0.887002
#
# Coordination Sequence:
#
# PCOD9187204 Si02
#       7
#     8   8   8   8   8   8   8
#     4  11  23  37  57  79 107 147 191 233 277 331
#     4  10  19  35  58  83 112 145 186 234 283 335
#     4   9  18  32  54  86 119 147 178 226 285 336
#     4  10  20  37  58  84 113 147 186 229 281 334
#     4  10  21  35  57  84 114 146 186 232 276 334
#     4   9  17  32  56  85 115 146 182 227 282 339
#     4  11  22  39  55  77 112 151 190 233 276 330
#
# _framework density 18.532021
#
# number of rings (size 3 to 8) (size 9 to 14) (size 15 to 20)
#    0.000    2.000    1.429    2.571    0.000    2.571 
#    0.000    5.000    0.000    0.000    0.000    2.000 
#    0.000    0.000    0.000    0.000    0.000    0.000 
#
# Total GULP energy -156078.229876 kJ/mol
# GULP energy per Si atom -5574.222496 kJ/mol
# Density = 1.848984 g / cm^3
# Si number density = 18.532021 Si / 1000 Ang^3
#
#
#
# Elastic Constant Matrix: (Units=GPa)
#
#
# Indices 1 2 3 4 5 6 
#
# 1 137.9939 57.9152 47.8341 0.0000 1.9134 0.0000
# 2 57.9152 89.5437 42.3572 0.0000 11.1686 0.0000
# 3 47.8341 42.3572 44.4486 0.0000 4.5360 0.0000
# 4 0.0000 0.0000 0.0000 12.6547 0.0000 12.1444
# 5 1.9134 11.1686 4.5360 0.0000 20.3818 0.0000
# 6 0.0000 0.0000 0.0000 12.1444 0.0000 19.5134
#
#
#
# Elastic Compliance Matrix: (Units=1/GPa)
#
#
# Indices 1 2 3 4 5 6 
#
# 1 0.012156 -0.003466 -0.010085 0.000000 0.003003 0.000000
# 2 -0.003466 0.022344 -0.016726 0.000000 -0.008196 0.000000
# 3 -0.010085 -0.016726 0.049379 0.000000 -0.000877 0.000000
# 4 0.000000 0.000000 0.000000 0.196214 0.000000 -0.122116
# 5 0.003003 -0.008196 -0.000877 0.000000 0.053468 0.000000
# 6 0.000000 0.000000 0.000000 -0.122116 0.000000 0.127247
#
#
# Mechanical properties :
#
#
# Convention : Reuss Voigt Hill
#
# Bulk Modulus (GPa) = 42.87257 63.13323 53.00290
# Shear Modulus (GPa) = 9.44935 18.76861 14.10898
#
# Velocity S-wave (km/s) = 2.26053 3.18585 2.76221
# Velocity P-wave (km/s) = 5.47703 6.90463 6.23185
#
# Compressibility (1/GPa) = 0.02332494
#
# Stress axis : x y z
#
# Youngs Moduli (GPa) = 82.26712 44.75540 20.25137
#
# Poissons Ratio (x) = 0.15512 0.20423
# Poissons Ratio (y) = 0.28514 0.33872
# Poissons Ratio (z) = 0.82965 0.74858
#
# Static dielectric constant tensor:
#      x y z
#    x 1.628800 0.000000 -0.007580 
#    y 0.000000 1.636140 0.000000 
#    z -0.007580 0.000000 1.661710 
# 
# From -- ./inp_files/133163.got.cif
#   From: 2010.05.17/outbox.cif.g08.bks.cpg/sg12_67_cif.got.tgz:133163.got - 2010.06.03 13:09:07.
