data_PCOD9187434
_publ_section_title
;
Structure prediction by ZEFSAII (Michael W. Deem and Ramdas Pophale) SiO2 
 PCOD9187434
Probable space group: C 2/M
;
_chemical_formula_sum "Si O2"
_cell_formula_units_Z 56
_cell_length_a 13.552431
_cell_length_b 13.971887
_cell_length_c 16.121709
_cell_angle_alpha 90.000000
_cell_angle_beta 125.651130
_cell_angle_gamma 90.000000
_cell_volume 2480.561439
_symmetry_space_group_name_H-M "C 2/M"
_symmetry_group_IT_number 12
_symmetry_cell_setting 'monoclinic'
loop_
_space_group_symop_operation_xyz
x,y,z
-x,y,-z
-x,-y,-z
x,-y,z
1/2+x,1/2+y,z
1/2-x,1/2+y,-z
1/2-x,1/2-y,-z
1/2+x,1/2-y,z
loop_
_atom_site_type_symbol
_atom_site_label
_atom_site_fract_x
_atom_site_fract_y
_atom_site_fract_z
Si Si1 0.702583 0.884761 0.876050
Si Si2 0.869718 0.293653 0.335164
Si Si3 0.097473 0.116111 0.903560
Si Si4 0.617744 0.235316 0.398497
Si Si5 0.359036 0.613249 0.706193
Si Si6 0.940219 0.387056 0.793554
Si Si7 0.285210 0.612582 0.216197
O O1 0.672712 0.838432 0.773718
O O2 0.582755 0.864902 0.872732
O O3 0.711795 0.000000 0.869194
O O4 0.824015 0.849981 0.980485
O O5 0.774856 0.343917 0.349005
O O6 0.844758 0.181099 0.314029
O O7 0.014639 0.304592 0.409345
O O8 0.168956 0.139497 0.853229
O O9 0.956400 0.143954 0.824627
O O10 0.096943 0.000000 0.907952
O O11 0.750000 0.250000 0.500000
O O12 0.584582 0.341210 0.348745
O O13 0.609249 0.170987 0.310743
O O14 0.353305 0.500000 0.701364
O O15 0.932319 0.500000 0.768999
O O16 0.857508 0.372508 0.833759
O O17 0.311681 0.500000 0.240053
#
# Coordination Sequence:
#
# PCOD9187434 Si02
#       7
#     8   8   8   8   8   8   8
#     4   9  19  36  58  88 124 161 200 248 301 358
#     4  11  22  39  62  88 122 159 201 249 302 363
#     4   9  19  36  59  88 123 161 204 248 296 356
#     4  11  24  42  64  89 117 153 201 254 310 368
#     4  11  23  42  65  92 126 162 201 252 309 364
#     4   9  19  38  60  85 121 157 197 249 306 358
#     4  10  19  35  59  84 118 162 202 246 297 356
#
# _framework density 22.575536
#
# number of rings (size 3 to 8) (size 9 to 14) (size 15 to 20)
#    0.000    2.000    2.857    0.429    0.000    3.429 
#    0.000    7.143    0.000    1.714    0.000    0.000 
#    0.000    0.000    0.000    0.000    0.000    0.000 
#
# Total GULP energy -156249.921531 kJ/mol
# GULP energy per Si atom -5580.354340 kJ/mol
# Density = 2.252415 g / cm^3
# Si number density = 22.575536 Si / 1000 Ang^3
#
#
#
# Elastic Constant Matrix: (Units=GPa)
#
#
# Indices 1 2 3 4 5 6 
#
# 1 109.4937 21.4275 29.9657 0.0000 24.7737 0.0000
# 2 21.4275 72.4808 27.0842 0.0000 9.6004 0.0000
# 3 29.9657 27.0842 125.0012 0.0000 31.4632 0.0000
# 4 0.0000 0.0000 0.0000 19.3163 0.0000 4.8663
# 5 24.7737 9.6004 31.4632 0.0000 26.5707 0.0000
# 6 0.0000 0.0000 0.0000 4.8663 0.0000 26.2161
#
#
#
# Elastic Compliance Matrix: (Units=1/GPa)
#
#
# Indices 1 2 3 4 5 6 
#
# 1 0.011893 -0.002221 0.000312 0.000000 -0.010656 0.000000
# 2 -0.002221 0.015521 -0.002764 0.000000 -0.000264 0.000000
# 3 0.000312 -0.002764 0.011890 0.000000 -0.013371 0.000000
# 4 0.000000 0.000000 0.000000 0.054310 0.000000 -0.010081
# 5 -0.010656 -0.000264 -0.013371 0.000000 0.063500 0.000000
# 6 0.000000 0.000000 0.000000 -0.010081 0.000000 0.040016
#
#
# Mechanical properties :
#
#
# Convention : Reuss Voigt Hill
#
# Bulk Modulus (GPa) = 33.37997 51.54783 42.46390
# Shear Modulus (GPa) = 23.09886 29.65382 26.37634
#
# Velocity S-wave (km/s) = 3.20219 3.62821 3.42184
# Velocity P-wave (km/s) = 5.33761 6.35885 5.87047
#
# Compressibility (1/GPa) = 0.02995808
#
# Stress axis : x y z
#
# Youngs Moduli (GPa) = 84.08191 64.42770 84.10751
#
# Poissons Ratio (x) = 0.14311 -0.02628
# Poissons Ratio (y) = 0.18677 0.23248
# Poissons Ratio (z) = -0.02627 0.17808
#
# Static dielectric constant tensor:
#      x y z
#    x 1.887230 0.000000 0.010770 
#    y 0.000000 1.863950 0.000000 
#    z 0.010770 0.000000 1.850890 
# 
# From -- ./inp_files/310868.got.cif
#   From: 2010.05.17/outbox.cif.g08.bks.cpg/sg12_156_cif.got.tgz:310868.got - 2010.06.03 13:09:07.
