data_PCOD9187268
_publ_section_title
;
Structure prediction by ZEFSAII (Michael W. Deem and Ramdas Pophale) SiO2 
 PCOD9187268
Probable space group: C 2/M
;
_chemical_formula_sum "Si O2"
_cell_formula_units_Z 56
_cell_length_a 19.434047
_cell_length_b 7.642093
_cell_length_c 19.211584
_cell_angle_alpha 90.000000
_cell_angle_beta 58.570837
_cell_angle_gamma 90.000000
_cell_volume 2434.630766
_symmetry_space_group_name_H-M "C 2/M"
_symmetry_group_IT_number 12
_symmetry_cell_setting 'monoclinic'
loop_
_space_group_symop_operation_xyz
x,y,z
-x,y,-z
-x,-y,-z
x,-y,z
1/2+x,1/2+y,z
1/2-x,1/2+y,-z
1/2-x,1/2-y,-z
1/2+x,1/2-y,z
loop_
_atom_site_type_symbol
_atom_site_label
_atom_site_fract_x
_atom_site_fract_y
_atom_site_fract_z
Si Si1 0.932743 0.286223 0.317550
Si Si2 0.176046 0.213107 0.324847
Si Si3 0.999820 0.297844 0.577360
Si Si4 0.755823 0.291589 0.416362
Si Si5 0.179201 0.800070 0.983475
Si Si6 0.006525 0.287499 0.136951
Si Si7 0.837015 0.700170 0.163838
O O1 0.934785 0.500000 0.319504
O O2 0.843041 0.231632 0.343838
O O3 0.948710 0.219199 0.386932
O O4 0.992924 0.235631 0.224563
O O5 0.091442 0.289371 0.346111
O O6 0.188397 0.270808 0.398768
O O7 0.255680 0.273152 0.241742
O O8 0.170113 0.000000 0.323222
O O9 0.025215 0.500000 0.555995
O O10 0.000000 0.216477 0.500000
O O11 0.754752 0.500000 0.411122
O O12 0.750000 0.250000 0.500000
O O13 0.091032 0.780580 0.064095
O O14 0.193093 0.000000 0.956513
O O15 0.250000 0.750000 0.000000
O O16 0.176112 0.700082 0.911885
O O17 0.010652 0.500000 0.130109
O O18 0.925579 0.228382 0.137900
O O19 0.840078 0.500000 0.188677
#
# Coordination Sequence:
#
# PCOD9187268 Si02
#       7
#     8   8   8   8   8   8   8
#     4   9  18  35  59  84 115 156 202 242 288 350
#     4  10  21  37  59  87 120 155 198 247 297 353
#     4  10  21  36  55  83 119 161 206 251 298 350
#     4  10  19  35  58  85 116 154 197 245 291 344
#     4  12  27  44  64  93 126 158 197 247 300 360
#     4  10  20  40  67  91 120 162 204 244 298 362
#     4  10  21  41  66  92 123 161 202 245 302 367
#
# _framework density 23.001434
#
# number of rings (size 3 to 8) (size 9 to 14) (size 15 to 20)
#    0.000    1.857    1.429    2.571    2.000    4.857 
#    0.000    1.429    0.000    0.000    0.000    0.000 
#    0.000    0.000    0.000    0.000    0.000    0.000 
#
# Total GULP energy -156386.333574 kJ/mol
# GULP energy per Si atom -5585.226199 kJ/mol
# Density = 2.294908 g / cm^3
# Si number density = 23.001434 Si / 1000 Ang^3
#
#
#
# Elastic Constant Matrix: (Units=GPa)
#
#
# Indices 1 2 3 4 5 6 
#
# 1 107.3823 -1.8670 19.1173 -0.0005 2.1931 -0.0016
# 2 -1.8670 54.9161 -9.4553 -0.0014 0.1107 -0.0038
# 3 19.1173 -9.4553 95.6802 -0.0001 1.9977 -0.0001
# 4 -0.0005 -0.0014 -0.0001 17.9164 0.0001 -7.0012
# 5 2.1931 0.1107 1.9977 0.0001 42.8860 -0.0003
# 6 -0.0016 -0.0038 -0.0001 -7.0012 -0.0003 18.6392
#
#
#
# Elastic Compliance Matrix: (Units=1/GPa)
#
#
# Indices 1 2 3 4 5 6 
#
# 1 0.009663 -0.000002 -0.001922 0.000001 -0.000405 0.000001
# 2 -0.000002 0.018526 0.001834 0.000003 -0.000133 0.000005
# 3 -0.001922 0.001834 0.011026 0.000000 -0.000420 0.000000
# 4 0.000001 0.000003 0.000000 0.065417 0.000000 0.024572
# 5 -0.000405 -0.000133 -0.000420 0.000000 0.023358 0.000000
# 6 0.000001 0.000005 0.000000 0.024572 0.000000 0.062880
#
#
# Mechanical properties :
#
#
# Convention : Reuss Voigt Hill
#
# Bulk Modulus (GPa) = 25.61892 30.39651 28.00772
# Shear Modulus (GPa) = 24.50253 32.56721 28.53487
#
# Velocity S-wave (km/s) = 3.26737 3.76690 3.52599
# Velocity P-wave (km/s) = 5.03949 5.67125 5.36468
#
# Compressibility (1/GPa) = 0.03903366
#
# Stress axis : x y z
#
# Youngs Moduli (GPa) = 103.48744 53.97945 90.69811
#
# Poissons Ratio (x) = 0.00009 0.17436
# Poissons Ratio (y) = 0.00017 -0.16633
# Poissons Ratio (z) = 0.19895 -0.09899
#
# Static dielectric constant tensor:
#      x y z
#    x 1.869040 0.000000 0.036680 
#    y 0.000000 1.889020 0.000000 
#    z 0.036680 0.000000 1.894640 
# 
# From -- ./inp_files/275156.got.cif
#   From: 2010.05.17/outbox.cif.g08.bks.cpg/sg12_138_cif.got.tgz:275156.got - 2010.06.03 13:09:07.
