data_PCOD9187076
_publ_section_title
;
Structure prediction by ZEFSAII (Michael W. Deem and Ramdas Pophale) SiO2 
 PCOD9187076
Probable space group: C 2/M
;
_chemical_formula_sum "Si O2"
_cell_formula_units_Z 58
_cell_length_a 18.782077
_cell_length_b 9.356832
_cell_length_c 23.023028
_cell_angle_alpha 90.000000
_cell_angle_beta 44.000868
_cell_angle_gamma 90.000000
_cell_volume 2810.690181
_symmetry_space_group_name_H-M "C 2/M"
_symmetry_group_IT_number 12
_symmetry_cell_setting 'monoclinic'
loop_
_space_group_symop_operation_xyz
x,y,z
-x,y,-z
-x,-y,-z
x,-y,z
1/2+x,1/2+y,z
1/2-x,1/2+y,-z
1/2-x,1/2-y,-z
1/2+x,1/2-y,z
loop_
_atom_site_type_symbol
_atom_site_label
_atom_site_fract_x
_atom_site_fract_y
_atom_site_fract_z
Si Si1 0.389212 0.834933 0.532197
Si Si2 0.979325 0.167243 0.374999
Si Si3 0.500000 0.000000 0.000000
Si Si4 0.800961 0.833461 0.687895
Si Si5 0.731295 0.661142 0.930987
Si Si6 0.625154 0.732679 0.876687
Si Si7 0.962592 0.327610 0.774973
Si Si8 0.457340 0.662588 0.887087
O O1 0.500000 0.835601 0.500000
O O2 0.404570 0.747402 0.463885
O O3 0.315038 0.754027 0.620269
O O4 0.360484 0.000000 0.539074
O O5 0.091481 0.172802 0.339877
O O6 0.988074 0.251829 0.309425
O O7 0.953265 0.000000 0.382373
O O8 0.576479 0.123035 0.929452
O O9 0.715124 0.765377 0.778655
O O10 0.779317 0.000000 0.688736
O O11 0.750159 0.500000 0.941126
O O12 0.672570 0.656236 0.904428
O O13 0.842906 0.722217 0.851015
O O14 0.650137 0.725311 0.024446
O O15 0.534553 0.656224 0.895500
O O16 0.967814 0.500000 0.767305
O O17 0.004449 0.266565 0.811076
O O18 0.442310 0.500000 0.873904
#
# Coordination Sequence:
#
# PCOD9187076 Si02
#       8
#     8   8   2   8   8   8   8   8
#     4   9  18  32  53  83 118 151 188 239 295 350
#     4  10  19  35  57  84 118 153 190 237 295 354
#     4  12  24  36  58  92 118 164 198 250 302 340
#     4  10  20  33  55  86 116 151 193 243 291 346
#     4  10  21  39  59  83 110 151 199 251 298 347
#     4  12  22  38  60  85 119 155 202 247 292 348
#     4  11  23  37  59  85 116 153 197 246 295 352
#     4  11  24  40  56  81 116 159 199 243 298 354
#
# _framework density 20.635501000000001
#
# number of rings (size 3 to 8) (size 9 to 14) (size 15 to 20)
#    0.000    1.517    3.448    2.069    0.966    4.414 
#    1.241    0.000    0.000    0.828    0.000    0.000 
#    0.000    0.000    0.000    0.000    0.000    0.000 
#
# Total GULP energy -161626.269532 kJ/mol
# GULP energy per Si atom -5573.319639 kJ/mol
# Density = 2.058853 g / cm^3
# Si number density = 20.635501 Si / 1000 Ang^3
#
#
#
# Elastic Constant Matrix: (Units=GPa)
#
#
# Indices 1 2 3 4 5 6 
#
# 1 32.5940 0.6031 -11.4282 0.0000 15.9105 0.0000
# 2 0.6031 117.5675 41.2486 0.0000 19.3406 -0.0001
# 3 -11.4282 41.2486 132.2606 0.0000 28.0385 0.0000
# 4 0.0000 0.0000 0.0000 36.3999 0.0000 10.0838
# 5 15.9105 19.3406 28.0385 0.0000 27.4659 0.0000
# 6 0.0000 -0.0001 0.0000 10.0838 0.0000 48.7147
#
#
#
# Elastic Compliance Matrix: (Units=1/GPa)
#
#
# Indices 1 2 3 4 5 6 
#
# 1 0.063483 0.003101 0.016306 0.000000 -0.055604 0.000000
# 2 0.003101 0.010203 -0.001289 0.000000 -0.007665 0.000000
# 3 0.016306 -0.001289 0.014270 0.000000 -0.023105 0.000000
# 4 0.000000 0.000000 0.000000 0.029144 0.000000 -0.006033
# 5 -0.055604 -0.007665 -0.023105 0.000000 0.097603 0.000000
# 6 0.000000 0.000000 0.000000 -0.006033 0.000000 0.021776
#
#
# Mechanical properties :
#
#
# Convention : Reuss Voigt Hill
#
# Bulk Modulus (GPa) = 8.05216 38.14101 23.09659
# Shear Modulus (GPa) = 20.69178 39.31599 30.00388
#
# Velocity S-wave (km/s) = 3.17002 4.36966 3.81726
# Velocity P-wave (km/s) = 4.16044 6.63189 5.53585
#
# Compressibility (1/GPa) = 0.12419032
#
# Stress axis : x y z
#
# Youngs Moduli (GPa) = 15.75230 98.00974 70.07653
#
# Poissons Ratio (x) = -0.30388 -1.14267
# Poissons Ratio (y) = -0.04884 0.09035
# Poissons Ratio (z) = -0.25686 0.12637
#
# Static dielectric constant tensor:
#      x y z
#    x 1.763490 0.000000 -0.009880 
#    y 0.000000 1.746690 0.000000 
#    z -0.009880 0.000000 1.720010 
# 
# From -- ./inp_files/346476.got.cif
#   From: 2010.05.17/outbox.cif.g08.bks.cpg/sg12_174_cif.got.tgz:346476.got - 2010.06.03 13:09:07.
