data_PCOD9187705
_publ_section_title
;
Structure prediction by ZEFSAII (Michael W. Deem and Ramdas Pophale) SiO2 
 PCOD9187705
Probable space group: C 2/M
;
_chemical_formula_sum "Si O2"
_cell_formula_units_Z 64
_cell_length_a 26.360127
_cell_length_b 17.539153
_cell_length_c 9.095456
_cell_angle_alpha 90.000000
_cell_angle_beta 134.326904
_cell_angle_gamma 90.000000
_cell_volume 3008.209655
_symmetry_space_group_name_H-M "C 2/M"
_symmetry_group_IT_number 12
_symmetry_cell_setting 'monoclinic'
loop_
_space_group_symop_operation_xyz
x,y,z
-x,y,-z
-x,-y,-z
x,-y,z
1/2+x,1/2+y,z
1/2-x,1/2+y,-z
1/2-x,1/2-y,-z
1/2+x,1/2-y,z
loop_
_atom_site_type_symbol
_atom_site_label
_atom_site_fract_x
_atom_site_fract_y
_atom_site_fract_z
Si Si1 0.211239 0.142155 0.325708
Si Si2 0.134516 0.916241 0.916675
Si Si3 0.534222 0.086648 0.904303
Si Si4 0.645266 0.802216 0.244296
Si Si5 0.060584 0.714347 0.369277
Si Si6 0.318529 0.710508 0.209977
Si Si7 0.001756 0.130547 0.181742
Si Si8 0.839056 0.084575 0.471517
O O1 0.201942 0.094649 0.160044
O O2 0.289815 0.158163 0.540113
O O3 0.173690 0.224746 0.228742
O O4 0.173169 0.099024 0.381463
O O5 0.134022 0.000000 0.846340
O O6 0.141123 0.847007 0.817682
O O7 0.065829 0.908479 0.881709
O O8 0.478426 0.134260 0.694973
O O9 0.546722 0.000000 0.883526
O O10 0.500000 0.084298 0.000000
O O11 0.604690 0.137949 0.060276
O O12 0.592489 0.779161 0.269005
O O13 0.124512 0.730080 0.610063
O O14 0.005095 0.783892 0.254451
O O15 0.300023 0.653403 0.307785
O O16 0.250000 0.750000 0.000000
O O17 0.076575 0.093805 0.381406
O O18 0.000000 0.129514 0.000000
O O19 0.814913 0.000000 0.382913
#
# Coordination Sequence:
#
# PCOD9187705 Si02
#       8
#     8   8   8   8   8   8   8   8
#     4  11  21  35  63  94 123 168 210 262 315 387
#     4  12  25  39  63  98 132 163 211 265 317 378
#     4   9  18  32  56  89 123 153 202 274 330 363
#     4  10  19  35  60  90 125 162 215 260 317 379
#     4  10  19  38  60  87 120 170 211 257 310 382
#     4  11  25  45  63  85 125 175 216 256 314 385
#     4  11  20  37  64  96 131 169 203 255 321 387
#     4  11  23  40  62  90 128 166 207 261 323 379
#
# _framework density 21.275112
#
# number of rings (size 3 to 8) (size 9 to 14) (size 15 to 20)
#    0.000    1.375    3.750    3.750    1.750    3.500 
#    0.000    6.875    0.000    0.000    0.000    2.625 
#    0.000    0.000    0.000    0.000    0.000    0.000 
#
# Total GULP energy -178840.945835 kJ/mol
# GULP energy per Si atom -5588.779557 kJ/mol
# Density = 2.122669 g / cm^3
# Si number density = 21.275112 Si / 1000 Ang^3
#
#
#
# Elastic Constant Matrix: (Units=GPa)
#
#
# Indices 1 2 3 4 5 6 
#
# 1 30.4046 17.7775 6.0506 0.0000 0.9395 0.0000
# 2 17.7775 150.8895 73.1698 0.0000 18.6534 0.0000
# 3 6.0506 73.1698 116.8845 0.0000 9.4757 0.0000
# 4 0.0000 0.0000 0.0000 10.3712 0.0000 1.5100
# 5 0.9395 18.6534 9.4757 0.0000 30.1109 0.0000
# 6 0.0000 0.0000 0.0000 1.5100 0.0000 7.8301
#
#
#
# Elastic Compliance Matrix: (Units=1/GPa)
#
#
# Indices 1 2 3 4 5 6 
#
# 1 0.035495 -0.004918 0.001112 0.000000 0.001589 0.000000
# 2 -0.004918 0.010725 -0.006088 0.000000 -0.004574 0.000000
# 3 0.001112 -0.006088 0.012320 0.000000 -0.000140 0.000000
# 4 0.000000 0.000000 0.000000 0.099206 0.000000 -0.019132
# 5 0.001589 -0.004574 -0.000140 0.000000 0.036039 0.000000
# 6 0.000000 0.000000 0.000000 -0.019132 0.000000 0.131402
#
#
# Mechanical properties :
#
#
# Convention : Reuss Voigt Hill
#
# Bulk Modulus (GPa) = 25.80481 54.68606 40.24543
# Shear Modulus (GPa) = 13.97072 23.07450 18.52261
#
# Velocity S-wave (km/s) = 2.56534 3.29686 2.95383
# Velocity P-wave (km/s) = 4.57494 6.34448 5.53094
#
# Compressibility (1/GPa) = 0.03875246
#
# Stress axis : x y z
#
# Youngs Moduli (GPa) = 28.17321 93.24393 81.16589
#
# Poissons Ratio (x) = 0.45855 -0.09028
# Poissons Ratio (y) = 0.13855 0.49415
# Poissons Ratio (z) = -0.03134 0.56768
#
# Static dielectric constant tensor:
#      x y z
#    x 1.787800 0.000000 -0.011510 
#    y 0.000000 1.789540 0.000000 
#    z -0.011510 0.000000 1.782970 
# 
# From -- ./inp_files/112904.got.cif
#   From: 2010.05.17/outbox.cif.g08.bks.cpg/sg12_57_cif.got.tgz:112904.got - 2010.06.03 13:09:07.
