data_PCOD9187990
_publ_section_title
;
Structure prediction by ZEFSAII (Michael W. Deem and Ramdas Pophale) SiO2 
 PCOD9187990
Probable space group: C 2/M
;
_chemical_formula_sum "Si O2"
_cell_formula_units_Z 64
_cell_length_a 14.986542
_cell_length_b 28.904438
_cell_length_c 9.276899
_cell_angle_alpha 90.000000
_cell_angle_beta 54.042972
_cell_angle_gamma 90.000000
_cell_volume 3252.841500
_symmetry_space_group_name_H-M "C 2/M"
_symmetry_group_IT_number 12
_symmetry_cell_setting 'monoclinic'
loop_
_space_group_symop_operation_xyz
x,y,z
-x,y,-z
-x,-y,-z
x,-y,z
1/2+x,1/2+y,z
1/2-x,1/2+y,-z
1/2-x,1/2-y,-z
1/2+x,1/2-y,z
loop_
_atom_site_type_symbol
_atom_site_label
_atom_site_fract_x
_atom_site_fract_y
_atom_site_fract_z
Si Si1 0.403302 0.050831 0.473812
Si Si2 0.121152 0.735548 0.397235
Si Si3 0.254370 0.179677 0.304639
Si Si4 0.190896 0.680610 0.081879
Si Si5 0.935008 0.107812 0.419678
Si Si6 0.850485 0.947423 0.224558
Si Si7 0.940516 0.348010 0.334415
Si Si8 0.413259 0.361879 0.972441
O O1 0.500000 0.052637 0.500000
O O2 0.282010 0.052694 0.656891
O O3 0.412393 0.098164 0.377834
O O4 0.412162 0.000000 0.391611
O O5 0.202531 0.770901 0.395929
O O6 0.162306 0.727071 0.195725
O O7 0.103052 0.686241 0.495717
O O8 0.000000 0.757414 0.500000
O O9 0.166176 0.140679 0.436646
O O10 0.372287 0.170808 0.264329
O O11 0.272066 0.180476 0.117297
O O12 0.072346 0.655233 0.201130
O O13 0.293630 0.660005 0.072527
O O14 0.887488 0.071359 0.347356
O O15 0.000000 0.090128 0.500000
O O16 0.025684 0.135081 0.238098
O O17 0.887042 0.000000 0.171090
O O18 0.892100 0.912402 0.062717
O O19 0.500000 0.338130 0.000000
#
# Coordination Sequence:
#
# PCOD9187990 Si02
#       8
#     8   8   8   8   8   8   8   8
#     4  10  19  35  65  96 125 163 208 261 322 381
#     4  10  23  40  64  91 125 168 217 266 310 374
#     4  12  23  41  62  90 128 171 207 253 319 388
#     4  11  23  41  63  92 127 168 207 265 314 376
#     4  11  22  39  61  87 123 169 206 255 319 376
#     4  10  21  39  63  92 124 158 214 269 316 376
#     4  11  22  41  66  94 130 163 209 270 323 369
#     4  10  22  38  62  89 120 165 211 257 314 366
#
# _framework density 19.675106
#
# number of rings (size 3 to 8) (size 9 to 14) (size 15 to 20)
#    0.000    1.375    2.500    4.125    1.750    2.500 
#    0.000    0.000    0.000    3.000    0.000    0.000 
#    0.000    0.000    0.000    0.000    0.000    0.000 
#
# Total GULP energy -178446.998601 kJ/mol
# GULP energy per Si atom -5576.468706 kJ/mol
# Density = 1.963032 g / cm^3
# Si number density = 19.675106 Si / 1000 Ang^3
#
#
#
# Elastic Constant Matrix: (Units=GPa)
#
#
# Indices 1 2 3 4 5 6 
#
# 1 132.8569 27.8292 47.6425 0.0000 -19.4862 0.0000
# 2 27.8292 74.0765 29.2028 0.0000 -11.1196 0.0000
# 3 47.6425 29.2028 104.0471 0.0000 -11.7165 0.0000
# 4 0.0000 0.0000 0.0000 11.9988 0.0000 -2.0686
# 5 -19.4862 -11.1196 -11.7165 0.0000 41.6493 0.0000
# 6 0.0000 0.0000 0.0000 -2.0686 0.0000 28.7463
#
#
#
# Elastic Compliance Matrix: (Units=1/GPa)
#
#
# Indices 1 2 3 4 5 6 
#
# 1 0.009619 -0.001751 -0.003572 0.000000 0.003028 0.000000
# 2 -0.001751 0.015856 -0.003371 0.000000 0.002466 0.000000
# 3 -0.003572 -0.003371 0.012293 0.000000 0.000887 0.000000
# 4 0.000000 0.000000 0.000000 0.084388 0.000000 0.006073
# 5 0.003028 0.002466 0.000887 0.000000 0.026335 0.000000
# 6 0.000000 0.000000 0.000000 0.006073 0.000000 0.035224
#
#
# Mechanical properties :
#
#
# Convention : Reuss Voigt Hill
#
# Bulk Modulus (GPa) = 49.06767 57.81439 53.44103
# Shear Modulus (GPa) = 24.05053 30.23261 27.14157
#
# Velocity S-wave (km/s) = 3.50005 3.92419 3.71818
# Velocity P-wave (km/s) = 6.42860 7.06970 6.75676
#
# Compressibility (1/GPa) = 0.02038002
#
# Stress axis : x y z
#
# Youngs Moduli (GPa) = 103.96469 63.06598 81.34970
#
# Poissons Ratio (x) = 0.11042 0.29058
# Poissons Ratio (y) = 0.18203 0.27423
# Poissons Ratio (z) = 0.37135 0.21260
#
# Static dielectric constant tensor:
#      x y z
#    x 1.717950 0.000000 -0.012280 
#    y 0.000000 1.718700 0.000000 
#    z -0.012280 0.000000 1.703050 
# 
# From -- ./inp_files/68590.got.cif
#   From: 2010.05.17/outbox.cif.g08.bks.cpg/sg12_35_cif.got.tgz:68590.got - 2010.06.03 13:09:07.
