data_PCOD9187361
_publ_section_title
;
Structure prediction by ZEFSAII (Michael W. Deem and Ramdas Pophale) SiO2 
 PCOD9187361
Probable space group: C 2/M
;
_chemical_formula_sum "Si O2"
_cell_formula_units_Z 64
_cell_length_a 20.250864
_cell_length_b 7.624811
_cell_length_c 32.684155
_cell_angle_alpha 90.000000
_cell_angle_beta 144.993906
_cell_angle_gamma 90.000000
_cell_volume 2895.123963
_symmetry_space_group_name_H-M "C 2/M"
_symmetry_group_IT_number 12
_symmetry_cell_setting 'monoclinic'
loop_
_space_group_symop_operation_xyz
x,y,z
-x,y,-z
-x,-y,-z
x,-y,z
1/2+x,1/2+y,z
1/2-x,1/2+y,-z
1/2-x,1/2-y,-z
1/2+x,1/2-y,z
loop_
_atom_site_type_symbol
_atom_site_label
_atom_site_fract_x
_atom_site_fract_y
_atom_site_fract_z
Si Si1 0.027925 0.215474 0.219825
Si Si2 0.239981 0.786448 0.766723
Si Si3 0.099944 0.212696 0.019294
Si Si4 0.504747 0.704480 0.886351
Si Si5 0.200658 0.696204 0.518787
Si Si6 0.727426 0.213006 0.622286
Si Si7 0.836406 0.792944 0.183642
Si Si8 0.559412 0.705663 0.606318
O O1 0.982773 0.278783 0.152890
O O2 0.158835 0.268179 0.295187
O O3 0.945196 0.276916 0.214100
O O4 0.026906 0.000000 0.218416
O O5 0.368929 0.717508 0.827130
O O6 0.188883 0.723791 0.783993
O O7 0.155994 0.732172 0.687476
O O8 0.247098 0.000000 0.770249
O O9 0.222515 0.268556 0.098739
O O10 0.096543 0.000000 0.016926
O O11 0.000000 0.270780 0.000000
O O12 0.072251 0.278983 0.959574
O O13 0.537315 0.500000 0.900438
O O14 0.244587 0.500000 0.545679
O O15 0.250000 0.750000 0.500000
O O16 0.233660 0.783046 0.578973
O O17 0.062269 0.703155 0.448660
O O18 0.614742 0.270690 0.589767
O O19 0.724194 0.000000 0.620137
O O20 0.857028 0.000000 0.199370
O O21 0.539224 0.500000 0.603556
#
# Coordination Sequence:
#
# PCOD9187361 Si02
#       8
#     8   8   8   8   8   8   8   8
#     4   9  19  36  59  84 110 146 189 236 285 337
#     4  10  21  35  56  85 114 146 191 242 286 335
#     4  10  20  34  53  80 113 147 186 236 292 346
#     4  10  19  35  59  81 109 148 192 235 284 346
#     4  11  25  42  63  92 124 159 198 240 292 350
#     4  10  21  40  66  88 115 157 202 240 285 352
#     4  10  21  36  56  81 111 149 192 235 288 347
#     4  11  23  39  62  90 123 157 195 246 297 345
#
# _framework density 22.106134999999998
#
# number of rings (size 3 to 8) (size 9 to 14) (size 15 to 20)
#    0.000    1.875    2.500    1.125    1.750    4.250 
#    0.000    1.250    0.000    0.000    0.000    0.000 
#    0.000    0.000    0.000    0.000    0.000    0.000 
#
# Total GULP energy -178773.996759 kJ/mol
# GULP energy per Si atom -5586.687399 kJ/mol
# Density = 2.205582 g / cm^3
# Si number density = 22.106135 Si / 1000 Ang^3
#
#
#
# Elastic Constant Matrix: (Units=GPa)
#
#
# Indices 1 2 3 4 5 6 
#
# 1 128.9847 -8.2427 22.7928 -0.0004 -18.5960 -0.0004
# 2 -8.2427 41.2765 -11.7360 -0.0003 -7.1489 -0.0012
# 3 22.7928 -11.7360 65.4368 0.0002 -25.7383 -0.0008
# 4 -0.0004 -0.0003 0.0002 16.5870 0.0000 3.5833
# 5 -18.5960 -7.1489 -25.7383 0.0000 43.8901 0.0000
# 6 -0.0004 -0.0012 -0.0008 3.5833 0.0000 17.6929
#
#
#
# Elastic Compliance Matrix: (Units=1/GPa)
#
#
# Indices 1 2 3 4 5 6 
#
# 1 0.008570 0.001835 -0.001443 0.000000 0.003084 0.000000
# 2 0.001835 0.028905 0.008712 0.000000 0.010595 0.000002
# 3 -0.001443 0.008712 0.022961 -0.000001 0.014273 0.000002
# 4 0.000000 0.000000 -0.000001 0.063046 0.000000 -0.012769
# 5 0.003084 0.010595 0.014273 0.000000 0.034186 0.000001
# 6 0.000000 0.000002 0.000002 -0.012769 0.000001 0.059106
#
#
# Mechanical properties :
#
#
# Convention : Reuss Voigt Hill
#
# Bulk Modulus (GPa) = 12.71542 26.81402 19.76472
# Shear Modulus (GPa) = 22.24392 31.15960 26.70176
#
# Velocity S-wave (km/s) = 3.17556 3.75846 3.47924
# Velocity P-wave (km/s) = 4.38293 5.56693 5.01003
#
# Compressibility (1/GPa) = 0.07864465
#
# Stress axis : x y z
#
# Youngs Moduli (GPa) = 116.69034 34.59561 43.55238
#
# Poissons Ratio (x) = -0.06349 0.06284
# Poissons Ratio (y) = -0.21414 -0.37944
# Poissons Ratio (z) = 0.16838 -0.30140
#
# Static dielectric constant tensor:
#      x y z
#    x 1.805180 0.000000 -0.042970 
#    y 0.000000 1.833110 0.000000 
#    z -0.042970 0.000000 1.781730 
# 
# From -- ./inp_files/378400.got.cif
#   From: 2010.05.17/outbox.cif.g08.bks.cpg/sg12_190_cif.got.tgz:378400.got - 2010.06.03 13:09:07.
