data_PCOD9187815
_publ_section_title
;
Structure prediction by ZEFSAII (Michael W. Deem and Ramdas Pophale) SiO2 
 PCOD9187815
Probable space group: C 2/M
;
_chemical_formula_sum "Si O2"
_cell_formula_units_Z 56
_cell_length_a 30.241560
_cell_length_b 7.890586
_cell_length_c 21.756271
_cell_angle_alpha 90.000000
_cell_angle_beta 29.064247
_cell_angle_gamma 90.000000
_cell_volume 2522.008343
_symmetry_space_group_name_H-M "C 2/M"
_symmetry_group_IT_number 12
_symmetry_cell_setting 'monoclinic'
loop_
_space_group_symop_operation_xyz
x,y,z
-x,y,-z
-x,-y,-z
x,-y,z
1/2+x,1/2+y,z
1/2-x,1/2+y,-z
1/2-x,1/2-y,-z
1/2+x,1/2-y,z
loop_
_atom_site_type_symbol
_atom_site_label
_atom_site_fract_x
_atom_site_fract_y
_atom_site_fract_z
Si Si1 0.841812 0.293689 0.068415
Si Si2 0.297382 0.204730 0.254470
Si Si3 0.965023 0.693037 0.125807
Si Si4 0.112160 0.302141 0.538603
Si Si5 0.024126 0.296080 0.401266
Si Si6 0.778868 0.797220 0.895472
Si Si7 0.645910 0.306781 0.629465
O O1 0.848078 0.500000 0.055518
O O2 0.782342 0.257129 0.201157
O O3 0.796908 0.231056 0.060650
O O4 0.941143 0.225906 0.965812
O O5 0.397432 0.262820 0.155677
O O6 0.217058 0.283025 0.391418
O O7 0.295293 0.000000 0.265076
O O8 0.987332 0.500000 0.080849
O O9 0.903525 0.692549 0.261021
O O10 0.090997 0.500000 0.573881
O O11 0.101587 0.210825 0.616354
O O12 0.050011 0.234923 0.558671
O O13 0.016324 0.500000 0.413614
O O14 0.123318 0.257515 0.251534
O O15 0.000000 0.233212 0.500000
O O16 0.779202 0.000000 0.892941
O O17 0.750000 0.750000 0.000000
O O18 0.640760 0.500000 0.656934
O O19 0.750000 0.250000 0.500000
#
# Coordination Sequence:
#
# PCOD9187815 Si02
#       7
#     8   8   8   8   8   8   8
#     4   9  20  38  61  88 119 158 200 243 302 365
#     4  10  19  35  61  91 121 155 196 242 295 364
#     4  10  20  36  60  88 120 157 196 240 295 363
#     4  11  23  38  61  89 122 160 199 249 308 363
#     4  10  23  44  68  94 125 165 212 264 325 384
#     4  11  24  42  64  91 126 167 214 267 318 375
#     4  12  24  39  58  85 121 159 202 248 299 359
#
# _framework density 22.204525
#
# number of rings (size 3 to 8) (size 9 to 14) (size 15 to 20)
#    0.000    1.571    1.429    3.429    2.000    3.143 
#    0.000    2.143    0.000    1.714    0.000    0.000 
#    0.000    0.000    0.000    0.000    0.000    0.000 
#
# Total GULP energy -156392.674507 kJ/mol
# GULP energy per Si atom -5585.452661 kJ/mol
# Density = 2.215399 g / cm^3
# Si number density = 22.204525 Si / 1000 Ang^3
#
#
#
# Elastic Constant Matrix: (Units=GPa)
#
#
# Indices 1 2 3 4 5 6 
#
# 1 194.5685 10.8927 56.0399 -0.0020 13.9675 -0.0004
# 2 10.8927 45.4901 -3.1773 -0.0009 3.4070 -0.0043
# 3 56.0399 -3.1773 94.8929 -0.0003 8.9889 -0.0025
# 4 -0.0020 -0.0009 -0.0003 23.0783 -0.0006 3.7639
# 5 13.9675 3.4070 8.9889 -0.0006 40.1223 0.0003
# 6 -0.0004 -0.0043 -0.0025 3.7639 0.0003 16.1585
#
#
#
# Elastic Compliance Matrix: (Units=1/GPa)
#
#
# Indices 1 2 3 4 5 6 
#
# 1 0.006394 -0.001697 -0.003715 0.000001 -0.001250 -0.000001
# 2 -0.001697 0.022656 0.001928 0.000000 -0.001765 0.000006
# 3 -0.003715 0.001928 0.012965 -0.000001 -0.001775 0.000003
# 4 0.000001 0.000000 -0.000001 0.045042 0.000001 -0.010492
# 5 -0.001250 -0.001765 -0.001775 0.000001 0.025906 -0.000001
# 6 -0.000001 0.000006 0.000003 -0.010492 -0.000001 0.064331
#
#
# Mechanical properties :
#
#
# Convention : Reuss Voigt Hill
#
# Bulk Modulus (GPa) = 28.53267 51.38469 39.95868
# Shear Modulus (GPa) = 25.51752 33.95155 29.73453
#
# Velocity S-wave (km/s) = 3.39367 3.91453 3.66337
# Velocity P-wave (km/s) = 5.31355 6.60479 5.99404
#
# Compressibility (1/GPa) = 0.03504755
#
# Stress axis : x y z
#
# Youngs Moduli (GPa) = 156.39248 44.13842 77.13321
#
# Poissons Ratio (x) = 0.07490 0.28652
# Poissons Ratio (y) = 0.26539 -0.14871
# Poissons Ratio (z) = 0.58093 -0.08510
#
# Static dielectric constant tensor:
#      x y z
#    x 1.856640 0.000000 0.005580 
#    y 0.000000 1.786760 0.000000 
#    z 0.005580 0.000000 1.815140 
# 
# From -- ./inp_files/329467.got.cif
#   From: 2010.05.17/outbox.cif.g08.bks.cpg/sg12_165_cif.got.tgz:329467.got - 2010.06.03 13:09:07.
