data_PCOD9187831
_publ_section_title
;
Structure prediction by ZEFSAII (Michael W. Deem and Ramdas Pophale) SiO2 
 PCOD9187831
Probable space group: C 2/M
;
_chemical_formula_sum "Si O2"
_cell_formula_units_Z 48
_cell_length_a 14.410378
_cell_length_b 27.400786
_cell_length_c 10.979383
_cell_angle_alpha 90.000000
_cell_angle_beta 28.866223
_cell_angle_gamma 90.000000
_cell_volume 2092.922665
_symmetry_space_group_name_H-M "C 2/M"
_symmetry_group_IT_number 12
_symmetry_cell_setting 'monoclinic'
loop_
_space_group_symop_operation_xyz
x,y,z
-x,y,-z
-x,-y,-z
x,-y,z
1/2+x,1/2+y,z
1/2-x,1/2+y,-z
1/2-x,1/2-y,-z
1/2+x,1/2-y,z
loop_
_atom_site_type_symbol
_atom_site_label
_atom_site_fract_x
_atom_site_fract_y
_atom_site_fract_z
Si Si1 0.054405 0.778248 0.191614
Si Si2 0.719145 0.441363 0.250368
Si Si3 0.901180 0.443191 0.783094
Si Si4 0.344289 0.804322 0.281590
Si Si5 0.893723 0.881180 0.992841
Si Si6 0.269471 0.907470 0.457617
O O1 0.117600 0.827855 0.053119
O O2 0.881751 0.791915 0.486925
O O3 0.940511 0.742909 0.230684
O O4 0.250000 0.750000 0.000000
O O5 0.500000 0.423454 0.500000
O O6 0.721264 0.500000 0.247368
O O7 0.807557 0.425442 0.277147
O O8 0.816662 0.426174 0.012292
O O9 0.858555 0.500000 0.809639
O O10 0.123466 0.436131 0.559441
O O11 0.805968 0.409192 0.791622
O O12 0.325525 0.850186 0.394937
O O13 0.500000 0.818748 0.000000
O O14 0.043459 0.911953 0.739346
O O15 0.000000 0.877414 0.000000
#
# Coordination Sequence:
#
# PCOD9187831 Si02
#       6
#     8   8   8   8   8   8
#     4  10  22  41  64  90 123 163 214 265 320 384
#     4  10  19  35  61  92 126 163 202 259 332 387
#     4  11  23  39  63  93 124 167 218 267 327 387
#     4  10  21  38  60  93 125 157 202 259 322 387
#     4  11  25  44  64  88 128 175 218 263 318 384
#     4  11  22  39  64  93 131 163 211 269 327 391
#
# _framework density 22.934436000000002
#
# number of rings (size 3 to 8) (size 9 to 14) (size 15 to 20)
#    0.000    1.500    1.667    3.500    0.000    3.667 
#    0.000    2.500    0.000    0.000    0.000    0.000 
#    0.000    0.000    0.000    0.000    0.000    0.000 
#
# Total GULP energy -133981.537763 kJ/mol
# GULP energy per Si atom -5582.564073 kJ/mol
# Density = 2.288224 g / cm^3
# Si number density = 22.934436 Si / 1000 Ang^3
#
#
#
# Elastic Constant Matrix: (Units=GPa)
#
#
# Indices 1 2 3 4 5 6 
#
# 1 132.2046 39.6217 41.6644 0.0004 -23.4969 -0.0002
# 2 39.6217 70.2198 13.8409 -0.0001 -23.3376 0.0001
# 3 41.6644 13.8409 100.7184 0.0005 -13.1789 -0.0004
# 4 0.0004 -0.0001 0.0005 22.0576 -0.0003 -11.4264
# 5 -23.4969 -23.3376 -13.1789 -0.0003 39.3223 0.0003
# 6 -0.0002 0.0001 -0.0004 -11.4264 0.0003 38.6918
#
#
#
# Elastic Compliance Matrix: (Units=1/GPa)
#
#
# Indices 1 2 3 4 5 6 
#
# 1 0.010374 -0.004366 -0.003367 0.000000 0.002479 0.000000
# 2 -0.004366 0.019697 0.000301 0.000000 0.009182 0.000000
# 3 -0.003367 0.000301 0.011547 0.000000 0.002036 0.000000
# 4 0.000000 0.000000 0.000000 0.053524 0.000000 0.015807
# 5 0.002479 0.009182 0.002036 0.000000 0.033044 0.000000
# 6 0.000000 0.000000 0.000000 0.015807 0.000000 0.030513
#
#
# Mechanical properties :
#
#
# Convention : Reuss Voigt Hill
#
# Bulk Modulus (GPa) = 37.37884 54.82186 46.10035
# Shear Modulus (GPa) = 27.39994 33.88206 30.64100
#
# Velocity S-wave (km/s) = 3.46020 3.84779 3.65913
# Velocity P-wave (km/s) = 5.68309 6.61032 6.16416
#
# Compressibility (1/GPa) = 0.02675310
#
# Stress axis : x y z
#
# Youngs Moduli (GPa) = 96.39143 50.76948 86.60479
#
# Poissons Ratio (x) = 0.22166 0.29161
# Poissons Ratio (y) = 0.42085 -0.02605
# Poissons Ratio (z) = 0.32457 -0.01527
#
# Static dielectric constant tensor:
#      x y z
#    x 1.851940 0.000000 0.018000 
#    y 0.000000 1.820460 0.000000 
#    z 0.018000 0.000000 1.956980 
# 
# From -- ./inp_files/149613.got.cif
#   From: 2010.05.17/outbox.cif.g08.bks.cpg/sg12_75_cif.got.tgz:149613.got - 2010.06.03 13:09:07.
