data_PCOD9187026
_publ_section_title
;
Structure prediction by ZEFSAII (Michael W. Deem and Ramdas Pophale) SiO2 
 PCOD9187026
Probable space group: C 2/M
;
_chemical_formula_sum "Si O2"
_cell_formula_units_Z 56
_cell_length_a 22.019186
_cell_length_b 13.074660
_cell_length_c 10.648530
_cell_angle_alpha 90.000000
_cell_angle_beta 74.080208
_cell_angle_gamma 90.000000
_cell_volume 2948.063481
_symmetry_space_group_name_H-M "C 2/M"
_symmetry_group_IT_number 12
_symmetry_cell_setting 'monoclinic'
loop_
_space_group_symop_operation_xyz
x,y,z
-x,y,-z
-x,-y,-z
x,-y,z
1/2+x,1/2+y,z
1/2-x,1/2+y,-z
1/2-x,1/2-y,-z
1/2+x,1/2-y,z
loop_
_atom_site_type_symbol
_atom_site_label
_atom_site_fract_x
_atom_site_fract_y
_atom_site_fract_z
Si Si1 0.879743 0.116818 0.738493
Si Si2 0.779099 0.387553 0.574792
Si Si3 0.164060 0.718943 0.033380
Si Si4 0.009936 0.773914 0.640429
Si Si5 0.269040 0.615991 0.122842
Si Si6 0.348199 0.318405 0.477618
Si Si7 0.470526 0.120528 0.881533
O O1 0.848560 0.198409 0.849170
O O2 0.852812 0.135734 0.614769
O O3 0.954440 0.143156 0.692367
O O4 0.869292 0.000000 0.782356
O O5 0.802557 0.500000 0.526941
O O6 0.772805 0.379404 0.728227
O O7 0.707428 0.374187 0.565797
O O8 0.823840 0.298432 0.500325
O O9 0.222807 0.647084 0.035254
O O10 0.102669 0.650029 0.062209
O O11 0.179814 0.792739 0.907018
O O12 0.080466 0.818340 0.614045
O O13 0.000000 0.738911 0.500000
O O14 0.998174 0.685810 0.749898
O O15 0.293435 0.500000 0.098585
O O16 0.478756 0.000000 0.854312
O O17 0.500000 0.147083 0.000000
#
# Coordination Sequence:
#
# PCOD9187026 Si02
#       7
#     8   8   8   8   8   8   8
#     4  10  19  35  57  83 110 142 182 226 273 327
#     4  10  21  35  54  79 111 147 180 221 273 325
#     4  10  20  36  57  80 111 142 179 228 269 322
#     4   9  21  37  58  85 110 143 184 231 276 326
#     4  10  20  35  57  81 106 144 184 221 269 323
#     4  10  20  36  55  80 112 144 180 227 275 320
#     4  10  22  39  59  83 112 147 183 226 280 332
#
# _framework density 18.995521
#
# number of rings (size 3 to 8) (size 9 to 14) (size 15 to 20)
#    0.000    2.143    1.429    1.286    2.000    4.000 
#    0.000    0.000    0.000    2.143    0.000    0.000 
#    0.000    0.000    0.000    0.000    0.000    0.000 
#
# Total GULP energy -156150.037123 kJ/mol
# GULP energy per Si atom -5576.787040 kJ/mol
# Density = 1.895229 g / cm^3
# Si number density = 18.995521 Si / 1000 Ang^3
#
#
#
# Elastic Constant Matrix: (Units=GPa)
#
#
# Indices 1 2 3 4 5 6 
#
# 1 63.8734 -13.6895 2.0027 0.0000 -0.0324 0.0000
# 2 -13.6895 54.3007 8.9157 0.0000 13.1869 0.0000
# 3 2.0027 8.9157 24.1580 0.0000 1.4223 0.0000
# 4 0.0000 0.0000 0.0000 20.5607 0.0000 1.9078
# 5 -0.0324 13.1869 1.4223 0.0000 22.1404 0.0000
# 6 0.0000 0.0000 0.0000 1.9078 0.0000 9.0866
#
#
#
# Elastic Compliance Matrix: (Units=1/GPa)
#
#
# Indices 1 2 3 4 5 6 
#
# 1 0.016948 0.005557 -0.003275 0.000000 -0.003075 0.000000
# 2 0.005557 0.024684 -0.008738 0.000000 -0.014132 0.000000
# 3 -0.003275 -0.008738 0.044754 0.000000 0.002325 0.000000
# 4 0.000000 0.000000 0.000000 0.049603 0.000000 -0.010414
# 5 -0.003075 -0.014132 0.002325 0.000000 0.053430 0.000000
# 6 0.000000 0.000000 0.000000 -0.010414 0.000000 0.112239
#
#
# Mechanical properties :
#
#
# Convention : Reuss Voigt Hill
#
# Bulk Modulus (GPa) = 13.61039 15.19887 14.40463
# Shear Modulus (GPa) = 14.74667 20.03110 17.38888
#
# Velocity S-wave (km/s) = 2.78928 3.25086 3.02887
# Velocity P-wave (km/s) = 4.18976 4.70206 4.45328
#
# Compressibility (1/GPa) = 0.07347328
#
# Stress axis : x y z
#
# Youngs Moduli (GPa) = 59.00370 40.51258 22.34454
#
# Poissons Ratio (x) = -0.22513 0.07317
# Poissons Ratio (y) = -0.32789 0.19525
# Poissons Ratio (z) = 0.19323 0.35401
#
# Static dielectric constant tensor:
#      x y z
#    x 1.660080 0.000000 -0.005930 
#    y 0.000000 1.648410 0.000000 
#    z -0.005930 0.000000 1.668880 
# 
# From -- ./inp_files/164877.got.cif
#   From: 2010.05.17/outbox.cif.g08.bks.cpg/sg12_83_cif.got.tgz:164877.got - 2010.06.03 13:09:07.
