data_PCOD9187189
_publ_section_title
;
Structure prediction by ZEFSAII (Michael W. Deem and Ramdas Pophale) SiO2 
 PCOD9187189
Probable space group: C 2/M
;
_chemical_formula_sum "Si O2"
_cell_formula_units_Z 64
_cell_length_a 21.892083
_cell_length_b 23.757600
_cell_length_c 14.529648
_cell_angle_alpha 90.000000
_cell_angle_beta 154.733949
_cell_angle_gamma 90.000000
_cell_volume 3225.459871
_symmetry_space_group_name_H-M "C 2/M"
_symmetry_group_IT_number 12
_symmetry_cell_setting 'monoclinic'
loop_
_space_group_symop_operation_xyz
x,y,z
-x,y,-z
-x,-y,-z
x,-y,z
1/2+x,1/2+y,z
1/2-x,1/2+y,-z
1/2-x,1/2-y,-z
1/2+x,1/2-y,z
loop_
_atom_site_type_symbol
_atom_site_label
_atom_site_fract_x
_atom_site_fract_y
_atom_site_fract_z
Si Si1 0.659756 0.323939 0.235223
Si Si2 0.012838 0.561739 0.627699
Si Si3 0.146975 0.211346 0.023669
Si Si4 0.471014 0.938570 0.069427
Si Si5 0.860137 0.674439 0.876850
Si Si6 0.920760 0.312979 0.292977
Si Si7 0.234937 0.562063 0.564912
Si Si8 0.118646 0.768123 0.438625
O O1 0.663525 0.384706 0.285886
O O2 0.765746 0.280515 0.429971
O O3 0.500000 0.302102 0.000000
O O4 0.706219 0.325074 0.190568
O O5 0.079989 0.500000 0.742966
O O6 0.077199 0.622692 0.741633
O O7 0.000000 0.562340 0.500000
O O8 0.861515 0.561310 0.474249
O O9 0.983458 0.200561 0.772346
O O10 0.141344 0.275267 0.052187
O O11 0.258094 0.203506 0.093158
O O12 0.619103 0.928805 0.325709
O O13 0.416736 0.000000 0.025627
O O14 0.500000 0.941794 0.000000
O O15 0.369659 0.885064 0.940876
O O16 0.717240 0.686250 0.624052
O O17 0.000000 0.677558 0.000000
O O18 0.000000 0.312112 0.500000
O O19 0.006822 0.268254 0.348116
O O20 0.300653 0.500000 0.642360
#
# Coordination Sequence:
#
# PCOD9187189 Si02
#       8
#     8   8   8   8   8   8   8   8
#     4  11  22  35  53  80 115 151 183 234 283 337
#     4   9  17  30  53  81 110 147 187 231 280 335
#     4  11  22  35  55  80 111 150 189 232 286 339
#     4   9  19  36  59  84 108 142 192 240 282 333
#     4  10  21  35  55  81 110 145 185 235 284 340
#     4  11  18  35  56  77 113 144 189 245 283 336
#     4  10  19  35  58  82 113 152 187 234 290 340
#     4  11  21  35  52  79 109 149 191 229 280 342
#
# _framework density 19.842131999999999
#
# number of rings (size 3 to 8) (size 9 to 14) (size 15 to 20)
#    0.000    1.750    3.750    3.375    0.000    4.250 
#    0.000    0.000    0.000    1.500    0.000    1.750 
#    0.000    0.000    0.000    0.000    0.000    0.000 
#
# Total GULP energy -178309.257435 kJ/mol
# GULP energy per Si atom -5572.164295 kJ/mol
# Density = 1.979697 g / cm^3
# Si number density = 19.842132 Si / 1000 Ang^3
#
#
#
# Elastic Constant Matrix: (Units=GPa)
#
#
# Indices 1 2 3 4 5 6 
#
# 1 49.4919 6.0604 8.3805 0.0000 3.4417 0.0000
# 2 6.0604 166.3231 43.3767 0.0000 -4.6739 0.0000
# 3 8.3805 43.3767 102.9378 0.0000 -2.7738 0.0000
# 4 0.0000 0.0000 0.0000 30.3111 0.0000 6.9334
# 5 3.4417 -4.6739 -2.7738 0.0000 33.5027 0.0000
# 6 0.0000 0.0000 0.0000 6.9334 0.0000 14.1752
#
#
#
# Elastic Compliance Matrix: (Units=1/GPa)
#
#
# Indices 1 2 3 4 5 6 
#
# 1 0.020683 -0.000408 -0.001574 0.000000 -0.002312 0.000000
# 2 -0.000408 0.006780 -0.002803 0.000000 0.000756 0.000000
# 3 -0.001574 -0.002803 0.011042 0.000000 0.000685 0.000000
# 4 0.000000 0.000000 0.000000 0.037147 0.000000 -0.018170
# 5 -0.002312 0.000756 0.000685 0.000000 0.030248 0.000000
# 6 0.000000 0.000000 0.000000 -0.018170 0.000000 0.079433
#
#
# Mechanical properties :
#
#
# Convention : Reuss Voigt Hill
#
# Bulk Modulus (GPa) = 34.56176 48.26533 41.41355
# Shear Modulus (GPa) = 24.44406 32.99348 28.71877
#
# Velocity S-wave (km/s) = 3.51369 4.08217 3.80855
# Velocity P-wave (km/s) = 5.82388 6.82615 6.34483
#
# Compressibility (1/GPa) = 0.02893371
#
# Stress axis : x y z
#
# Youngs Moduli (GPa) = 48.34974 147.50186 90.55943
#
# Poissons Ratio (x) = 0.06019 0.14256
# Poissons Ratio (y) = 0.01973 0.25386
# Poissons Ratio (z) = 0.07611 0.41348
#
# Static dielectric constant tensor:
#      x y z
#    x 1.822330 0.000000 -0.027580 
#    y 0.000000 1.753870 0.000000 
#    z -0.027580 0.000000 1.706180 
# 
# From -- ./inp_files/294303.got.cif
#   From: 2010.05.17/outbox.cif.g08.bks.cpg/sg12_148_cif.got.tgz:294303.got - 2010.06.03 13:09:07.
