data_PCOD9187137
_publ_section_title
;
Structure prediction by ZEFSAII (Michael W. Deem and Ramdas Pophale) SiO2 
 PCOD9187137
Probable space group: C 2/M
;
_chemical_formula_sum "Si O2"
_cell_formula_units_Z 64
_cell_length_a 26.155193
_cell_length_b 7.453910
_cell_length_c 15.145071
_cell_angle_alpha 90.000000
_cell_angle_beta 107.678664
_cell_angle_gamma 90.000000
_cell_volume 2813.219200
_symmetry_space_group_name_H-M "C 2/M"
_symmetry_group_IT_number 12
_symmetry_cell_setting 'monoclinic'
loop_
_space_group_symop_operation_xyz
x,y,z
-x,y,-z
-x,-y,-z
x,-y,z
1/2+x,1/2+y,z
1/2-x,1/2+y,-z
1/2-x,1/2-y,-z
1/2+x,1/2-y,z
loop_
_atom_site_type_symbol
_atom_site_label
_atom_site_fract_x
_atom_site_fract_y
_atom_site_fract_z
Si Si1 0.383897 0.794688 0.113051
Si Si2 0.871190 0.211848 0.729140
Si Si3 0.244331 0.214317 0.392772
Si Si4 0.157247 0.284370 0.095359
Si Si5 0.229677 0.787722 0.889589
Si Si6 0.445052 0.779343 0.306328
Si Si7 0.640075 0.218957 0.591844
Si Si8 0.937522 0.294776 0.600846
O O1 0.329142 0.795584 0.142948
O O2 0.429360 0.716615 0.199923
O O3 0.399178 0.000000 0.102975
O O4 0.368006 0.714574 0.009697
O O5 0.812500 0.285566 0.670986
O O6 0.876458 0.242264 0.835963
O O7 0.915696 0.292856 0.688854
O O8 0.872320 0.000000 0.712645
O O9 0.250000 0.250000 0.500000
O O10 0.298610 0.283196 0.375035
O O11 0.242827 0.000000 0.379186
O O12 0.161684 0.500000 0.088406
O O13 0.219235 0.220063 0.139385
O O14 0.222895 0.000000 0.872938
O O15 0.250000 0.750000 0.000000
O O16 0.398054 0.726361 0.348340
O O17 0.503026 0.715715 0.369361
O O18 0.446016 0.000000 0.304967
O O19 0.608997 0.279517 0.486736
O O20 0.642990 0.000000 0.592991
O O21 0.944162 0.500000 0.573769
#
# Coordination Sequence:
#
# PCOD9187137 Si02
#       8
#     8   8   8   8   8   8   8   8
#     4   9  18  33  53  78 110 141 177 225 269 312
#     4  11  23  35  53  80 108 143 182 220 269 322
#     4  10  20  34  53  80 110 140 173 215 268 319
#     4   9  19  34  51  74 105 143 181 219 263 315
#     4   9  17  30  49  74 104 138 174 213 264 318
#     4   9  18  32  56  85 107 136 182 226 265 314
#     4   9  17  31  54  83 110 135 172 220 266 316
#     4  10  19  35  58  80 106 142 179 221 268 316
#
# _framework density 22.749738000000001
#
# number of rings (size 3 to 8) (size 9 to 14) (size 15 to 20)
#    0.000    2.500    1.250    1.875    1.750    4.500 
#    0.000    1.250    0.000    6.750    0.000    0.000 
#    0.000    0.000    0.000    0.000    0.000    0.000 
#
# Total GULP energy -178653.779482 kJ/mol
# GULP energy per Si atom -5582.930609 kJ/mol
# Density = 2.269796 g / cm^3
# Si number density = 22.749738 Si / 1000 Ang^3
#
#
#
# Elastic Constant Matrix: (Units=GPa)
#
#
# Indices 1 2 3 4 5 6 
#
# 1 93.5454 -5.5329 13.8594 0.0000 -2.2881 0.0000
# 2 -5.5329 75.4081 -4.4599 0.0000 6.8969 0.0000
# 3 13.8594 -4.4599 59.8866 0.0000 -11.2261 0.0000
# 4 0.0000 0.0000 0.0000 4.3737 0.0000 -5.4087
# 5 -2.2881 6.8969 -11.2261 0.0000 31.3304 0.0000
# 6 0.0000 0.0000 0.0000 -5.4087 0.0000 8.9941
#
#
#
# Elastic Compliance Matrix: (Units=1/GPa)
#
#
# Indices 1 2 3 4 5 6 
#
# 1 0.011105 0.000687 -0.002568 0.000000 -0.000260 0.000000
# 2 0.000687 0.013589 0.000323 0.000000 -0.002825 0.000000
# 3 -0.002568 0.000323 0.018511 0.000000 0.006374 0.000000
# 4 0.000000 0.000000 0.000000 0.891953 0.000000 0.536388
# 5 -0.000260 -0.002825 0.006374 0.000000 0.034805 0.000000
# 6 0.000000 0.000000 0.000000 0.536388 0.000000 0.433747
#
#
# Mechanical properties :
#
#
# Convention : Reuss Voigt Hill
#
# Bulk Modulus (GPa) = 24.94365 26.28594 25.61480
# Shear Modulus (GPa) = 3.52066 23.93789 13.72928
#
# Velocity S-wave (km/s) = 1.24536 3.24732 2.45927
# Velocity P-wave (km/s) = 3.61332 5.06356 4.39862
#
# Compressibility (1/GPa) = 0.04009036
#
# Stress axis : x y z
#
# Youngs Moduli (GPa) = 90.05236 73.58841 54.02080
#
# Poissons Ratio (x) = -0.05053 0.13870
# Poissons Ratio (y) = -0.06184 -0.01747
# Poissons Ratio (z) = 0.23121 -0.02380
#
# Static dielectric constant tensor:
#      x y z
#    x 1.848340 0.000000 0.016030 
#    y 0.000000 1.887060 0.000000 
#    z 0.016030 0.000000 1.853020 
# 
# From -- ./inp_files/244141.got.cif
#   From: 2010.05.17/outbox.cif.g08.bks.cpg/sg12_123_cif.got.tgz:244141.got - 2010.06.03 13:09:07.
