data_PCOD9187113
_publ_section_title
;
Structure prediction by ZEFSAII (Michael W. Deem and Ramdas Pophale) SiO2 
 PCOD9187113
Probable space group: C 2/M
;
_chemical_formula_sum "Si O2"
_cell_formula_units_Z 56
_cell_length_a 22.199878
_cell_length_b 13.619416
_cell_length_c 8.568486
_cell_angle_alpha 90.000000
_cell_angle_beta 66.009193
_cell_angle_gamma 90.000000
_cell_volume 2366.869672
_symmetry_space_group_name_H-M "C 2/M"
_symmetry_group_IT_number 12
_symmetry_cell_setting 'monoclinic'
loop_
_space_group_symop_operation_xyz
x,y,z
-x,y,-z
-x,-y,-z
x,-y,z
1/2+x,1/2+y,z
1/2-x,1/2+y,-z
1/2-x,1/2-y,-z
1/2+x,1/2-y,z
loop_
_atom_site_type_symbol
_atom_site_label
_atom_site_fract_x
_atom_site_fract_y
_atom_site_fract_z
Si Si1 0.614440 0.181689 0.184570
Si Si2 0.068770 0.107395 0.653055
Si Si3 0.645103 0.113261 0.499809
Si Si4 0.725868 0.196946 0.867437
Si Si5 0.208992 0.888073 0.675539
Si Si6 0.519596 0.190713 0.802892
Si Si7 0.635807 0.610673 0.258030
O O1 0.639805 0.161447 0.333171
O O2 0.539316 0.150257 0.242781
O O3 0.617882 0.300353 0.162884
O O4 0.661636 0.139833 0.999023
O O5 0.142294 0.111505 0.648217
O O6 0.025706 0.192970 0.768962
O O7 0.083458 0.118551 0.453953
O O8 0.040217 0.000000 0.712551
O O9 0.719754 0.122376 0.483280
O O10 0.590536 0.153684 0.673041
O O11 0.631055 0.000000 0.489152
O O12 0.707810 0.288505 0.777381
O O13 0.789671 0.132227 0.756622
O O14 0.750000 0.250000 0.000000
O O15 0.212855 0.000000 0.745263
O O16 0.500000 0.168763 0.000000
O O17 0.634322 0.500000 0.196846
#
# Coordination Sequence:
#
# PCOD9187113 Si02
#       7
#     8   8   8   8   8   8   8
#     4  11  23  42  63  93 128 173 212 250 317 376
#     4  10  22  40  64  96 128 167 210 254 316 381
#     4  11  24  44  68  94 123 167 218 261 313 375
#     4  10  19  35  57  92 123 158 205 259 304 369
#     4  10  20  38  66  94 128 167 207 260 319 370
#     4  12  26  43  64  91 129 170 212 264 311 372
#     4  10  21  38  62  96 129 161 208 263 312 370
#
# _framework density 23.659941
#
# number of rings (size 3 to 8) (size 9 to 14) (size 15 to 20)
#    0.000    1.429    4.286    1.286    0.000    8.571 
#    0.000    1.429    0.000    0.000    0.000    0.000 
#    0.000    0.000    0.000    0.000    0.000    0.000 
#
# Total GULP energy -156401.709343 kJ/mol
# GULP energy per Si atom -5585.775334 kJ/mol
# Density = 2.360609 g / cm^3
# Si number density = 23.659941 Si / 1000 Ang^3
#
#
#
# Elastic Constant Matrix: (Units=GPa)
#
#
# Indices 1 2 3 4 5 6 
#
# 1 85.7706 0.4458 17.9351 0.0000 -23.4286 0.0000
# 2 0.4458 76.2718 17.5466 0.0000 -9.6710 0.0000
# 3 17.9351 17.5466 87.5034 0.0000 -21.7683 0.0000
# 4 0.0000 0.0000 0.0000 -15.2651 0.0000 2.5067
# 5 -23.4286 -9.6710 -21.7683 0.0000 15.0301 0.0000
# 6 0.0000 0.0000 0.0000 2.5067 0.0000 21.9430
#
#
#
# Elastic Compliance Matrix: (Units=1/GPa)
#
#
# Indices 1 2 3 4 5 6 
#
# 1 0.023796 0.004641 0.006507 0.000000 0.049503 0.000000
# 2 0.004641 0.015227 0.000363 0.000000 0.017557 0.000000
# 3 0.006507 0.000363 0.019701 0.000000 0.038910 0.000000
# 4 0.000000 0.000000 0.000000 -0.064303 0.000000 0.007346
# 5 0.049503 0.017557 0.038910 0.000000 0.211348 0.000000
# 6 0.000000 0.000000 0.000000 0.007346 0.000000 0.044733
#
#
# Mechanical properties :
#
#
# Convention : Reuss Voigt Hill
#
# Bulk Modulus (GPa) = 12.23301 35.71118 23.97210
# Shear Modulus (GPa) = 19.62864 18.58283 19.10573
#
# Velocity S-wave (km/s) = 2.88343 2.80556 2.84476
# Velocity P-wave (km/s) = 4.03325 5.06174 4.57648
#
# Compressibility (1/GPa) = 0.08174603
#
# Stress axis : x y z
#
# Youngs Moduli (GPa) = 42.02355 65.67493 50.75791
#
# Poissons Ratio (x) = -0.30478 -0.33028
# Poissons Ratio (y) = -0.19502 -0.01844
# Poissons Ratio (z) = -0.27345 -0.02386
#
# Static dielectric constant tensor:
#      x y z
#    x 1.952040 0.000000 -0.049960 
#    y 0.000000 1.911890 0.000000 
#    z -0.049960 0.000000 1.983470 
# 
# From -- ./inp_files/96799.got.cif
#   From: 2010.05.17/outbox.cif.g08.bks.cpg/sg12_49_cif.got.tgz:96799.got - 2010.06.03 13:09:07.
