data_PCOD9187699
_publ_section_title
;
Structure prediction by ZEFSAII (Michael W. Deem and Ramdas Pophale) SiO2 
 PCOD9187699
Probable space group: C 2/M
;
_chemical_formula_sum "Si O2"
_cell_formula_units_Z 64
_cell_length_a 26.325579
_cell_length_b 12.311228
_cell_length_c 21.149163
_cell_angle_alpha 90.000000
_cell_angle_beta 150.985825
_cell_angle_gamma 90.000000
_cell_volume 3324.585438
_symmetry_space_group_name_H-M "C 2/M"
_symmetry_group_IT_number 12
_symmetry_cell_setting 'monoclinic'
loop_
_space_group_symop_operation_xyz
x,y,z
-x,y,-z
-x,-y,-z
x,-y,z
1/2+x,1/2+y,z
1/2-x,1/2+y,-z
1/2-x,1/2-y,-z
1/2+x,1/2-y,z
loop_
_atom_site_type_symbol
_atom_site_label
_atom_site_fract_x
_atom_site_fract_y
_atom_site_fract_z
Si Si1 0.239914 0.256584 0.881986
Si Si2 0.123440 0.126884 0.864485
Si Si3 0.874748 0.629151 0.359694
Si Si4 0.104369 0.210672 0.359224
Si Si5 0.880075 0.374630 0.939022
Si Si6 0.895620 0.379652 0.753657
Si Si7 0.783334 0.246245 0.723078
Si Si8 0.239712 0.619646 0.565914
O O1 0.166460 0.195783 0.852343
O O2 0.173739 0.326023 0.758932
O O3 0.308557 0.167019 0.919141
O O4 0.317419 0.331126 0.008104
O O5 0.000232 0.149425 0.737294
O O6 0.144139 0.000000 0.877982
O O7 0.850159 0.500000 0.340430
O O8 0.820004 0.702772 0.354300
O O9 0.000000 0.640804 0.500000
O O10 0.085354 0.295917 0.281730
O O11 0.151801 0.287385 0.465277
O O12 0.192444 0.133542 0.424036
O O13 0.853136 0.500000 0.891755
O O14 0.857539 0.286270 0.860332
O O15 0.000732 0.375314 0.090509
O O16 0.884273 0.500000 0.715600
O O17 0.796535 0.347115 0.688914
O O18 0.810355 0.148519 0.703994
O O19 0.196222 0.500000 0.524566
#
# Coordination Sequence:
#
# PCOD9187699 Si02
#       8
#     8   8   8   8   8   8   8   8
#     4  10  22  39  62  87 119 153 198 246 288 355
#     4  11  22  39  61  89 120 155 194 245 304 349
#     4  10  22  41  63  85 115 156 197 243 292 345
#     4  10  21  37  60  86 120 155 194 246 297 354
#     4  10  19  36  60  87 120 156 193 239 290 345
#     4  10  19  35  60  90 120 154 193 240 295 350
#     4  10  21  34  57  85 119 149 193 238 288 342
#     4  10  21  38  58  84 118 156 198 242 288 350
#
# _framework density 19.250520000000002
#
# number of rings (size 3 to 8) (size 9 to 14) (size 15 to 20)
#    0.000    1.875    1.250    2.625    1.750    1.000 
#    0.000    3.125    0.000    6.000    0.000    0.000 
#    0.000    0.000    0.000    0.000    0.000    0.000 
#
# Total GULP energy -178330.438655 kJ/mol
# GULP energy per Si atom -5572.826208 kJ/mol
# Density = 1.920671 g / cm^3
# Si number density = 19.250520 Si / 1000 Ang^3
#
#
#
# Elastic Constant Matrix: (Units=GPa)
#
#
# Indices 1 2 3 4 5 6 
#
# 1 67.0358 9.8479 25.6505 0.0000 -4.6719 0.0000
# 2 9.8479 78.8901 37.5439 0.0000 -0.6298 0.0000
# 3 25.6505 37.5439 81.9245 0.0000 0.3678 0.0000
# 4 0.0000 0.0000 0.0000 23.4792 0.0000 1.7745
# 5 -4.6719 -0.6298 0.3678 0.0000 30.5322 0.0000
# 6 0.0000 0.0000 0.0000 1.7745 0.0000 19.1409
#
#
#
# Elastic Compliance Matrix: (Units=1/GPa)
#
#
# Indices 1 2 3 4 5 6 
#
# 1 0.017186 0.000566 -0.005653 0.000000 0.002709 0.000000
# 2 0.000566 0.016236 -0.007620 0.000000 0.000513 0.000000
# 3 -0.005653 -0.007620 0.017474 0.000000 -0.001233 0.000000
# 4 0.000000 0.000000 0.000000 0.042891 0.000000 -0.003976
# 5 0.002709 0.000513 -0.001233 0.000000 0.033192 0.000000
# 6 0.000000 0.000000 0.000000 -0.003976 0.000000 0.052613
#
#
# Mechanical properties :
#
#
# Convention : Reuss Voigt Hill
#
# Bulk Modulus (GPa) = 39.24206 41.54833 40.39520
# Shear Modulus (GPa) = 23.41934 24.95100 24.18517
#
# Velocity S-wave (km/s) = 3.49170 3.60407 3.54833
# Velocity P-wave (km/s) = 6.05683 6.24091 6.14956
#
# Compressibility (1/GPa) = 0.02548286
#
# Stress axis : x y z
#
# Youngs Moduli (GPa) = 58.18703 61.59291 57.22855
#
# Poissons Ratio (x) = -0.03489 0.32349
# Poissons Ratio (y) = -0.03296 0.43608
# Poissons Ratio (z) = 0.32891 0.46934
#
# Static dielectric constant tensor:
#      x y z
#    x 1.687350 0.000000 -0.037110 
#    y 0.000000 1.655090 0.000000 
#    z -0.037110 0.000000 1.701300 
# 
# From -- ./inp_files/327860.got.cif
#   From: 2010.05.17/outbox.cif.g08.bks.cpg/sg12_164_cif.got.tgz:327860.got - 2010.06.03 13:09:07.
