data_PCOD9187054
_publ_section_title
;
Structure prediction by ZEFSAII (Michael W. Deem and Ramdas Pophale) SiO2 
 PCOD9187054
Probable space group: C 2/M
;
_chemical_formula_sum "Si O2"
_cell_formula_units_Z 56
_cell_length_a 30.743780
_cell_length_b 8.598065
_cell_length_c 12.065776
_cell_angle_alpha 90.000000
_cell_angle_beta 118.287899
_cell_angle_gamma 90.000000
_cell_volume 2808.541283
_symmetry_space_group_name_H-M "C 2/M"
_symmetry_group_IT_number 12
_symmetry_cell_setting 'monoclinic'
loop_
_space_group_symop_operation_xyz
x,y,z
-x,y,-z
-x,-y,-z
x,-y,z
1/2+x,1/2+y,z
1/2-x,1/2+y,-z
1/2-x,1/2-y,-z
1/2+x,1/2-y,z
loop_
_atom_site_type_symbol
_atom_site_label
_atom_site_fract_x
_atom_site_fract_y
_atom_site_fract_z
Si Si1 0.157538 0.689763 0.127731
Si Si2 0.991647 0.178329 0.120859
Si Si3 0.247000 0.184696 0.621771
Si Si4 0.644290 0.822058 0.536800
Si Si5 0.905051 0.318171 0.146454
Si Si6 0.557392 0.684820 0.578758
Si Si7 0.590842 0.820209 0.247770
O O1 0.157207 0.500000 0.127215
O O2 0.208917 0.741748 0.244260
O O3 0.115057 0.738496 0.163534
O O4 0.141426 0.736981 0.984533
O O5 0.951754 0.294280 0.121765
O O6 0.045317 0.217933 0.233386
O O7 0.977298 0.000000 0.126863
O O8 0.000000 0.197619 0.000000
O O9 0.250000 0.250000 0.500000
O O10 0.194299 0.226557 0.611534
O O11 0.252120 0.000000 0.618584
O O12 0.595643 0.760305 0.539119
O O13 0.632376 0.819729 0.391592
O O14 0.652752 0.000000 0.581035
O O15 0.898773 0.500000 0.166371
O O16 0.919735 0.225522 0.273735
O O17 0.500000 0.740019 0.500000
O O18 0.556735 0.500000 0.561188
O O19 0.574354 0.000000 0.213051
#
# Coordination Sequence:
#
# PCOD9187054 Si02
#       7
#     8   8   8   8   8   8   8
#     4   9  19  36  58  87 121 156 196 245 301 358
#     4  11  22  33  49  82 122 155 193 242 299 362
#     4  11  21  38  62  92 128 164 204 253 309 362
#     4  11  23  40  63  92 122 159 209 253 300 363
#     4  11  22  39  63  86 116 160 206 251 301 361
#     4  11  25  45  66  90 123 160 203 255 309 363
#     4  10  19  35  57  83 118 157 198 244 295 359
#
# _framework density 19.939177000000001
#
# number of rings (size 3 to 8) (size 9 to 14) (size 15 to 20)
#    0.000    1.429    2.857    3.000    0.000    5.143 
#    0.000    3.571    0.000    0.000    0.000    0.000 
#    0.000    0.000    0.000    0.000    0.000    0.000 
#
# Total GULP energy -156311.727671 kJ/mol
# GULP energy per Si atom -5582.561703 kJ/mol
# Density = 1.989379 g / cm^3
# Si number density = 19.939177 Si / 1000 Ang^3
#
#
#
# Elastic Constant Matrix: (Units=GPa)
#
#
# Indices 1 2 3 4 5 6 
#
# 1 73.8357 2.9059 29.9113 0.0000 12.1729 0.0000
# 2 2.9059 29.3493 7.0783 0.0000 -1.0998 0.0000
# 3 29.9113 7.0783 107.4768 0.0000 13.4184 0.0000
# 4 0.0000 0.0000 0.0000 22.8694 0.0000 -3.3540
# 5 12.1729 -1.0998 13.4184 0.0000 31.8581 0.0000
# 6 0.0000 0.0000 0.0000 -3.3540 0.0000 28.6529
#
#
#
# Elastic Compliance Matrix: (Units=1/GPa)
#
#
# Indices 1 2 3 4 5 6 
#
# 1 0.015854 -0.000822 -0.003798 0.000000 -0.004486 0.000000
# 2 -0.000822 0.034822 -0.002379 0.000000 0.002518 0.000000
# 3 -0.003798 -0.002379 0.010921 0.000000 -0.003231 0.000000
# 4 0.000000 0.000000 0.000000 0.044490 0.000000 0.005208
# 5 -0.004486 0.002518 -0.003231 0.000000 0.034551 0.000000
# 6 0.000000 0.000000 0.000000 0.005208 0.000000 0.035510
#
#
# Mechanical properties :
#
#
# Convention : Reuss Voigt Hill
#
# Bulk Modulus (GPa) = 21.00854 32.27253 26.64053
# Shear Modulus (GPa) = 24.27025 28.06049 26.16537
#
# Velocity S-wave (km/s) = 3.49264 3.75548 3.62644
# Velocity P-wave (km/s) = 5.17918 5.91823 5.56100
#
# Compressibility (1/GPa) = 0.04759969
#
# Stress axis : x y z
#
# Youngs Moduli (GPa) = 63.07477 28.71757 91.56334
#
# Poissons Ratio (x) = 0.02360 0.34776
# Poissons Ratio (y) = 0.05184 0.21783
# Poissons Ratio (z) = 0.23956 0.06832
#
# Static dielectric constant tensor:
#      x y z
#    x 1.690600 0.000000 0.008710 
#    y 0.000000 1.682550 0.000000 
#    z 0.008710 0.000000 1.767150 
# 
# From -- ./inp_files/187714.got.cif
#   From: 2010.05.17/outbox.cif.g08.bks.cpg/sg12_94_cif.got.tgz:187714.got - 2010.06.03 13:09:07.
