data_PCOD9187478
_publ_section_title
;
Structure prediction by ZEFSAII (Michael W. Deem and Ramdas Pophale) SiO2 
 PCOD9187478
Probable space group: C 2/M
;
_chemical_formula_sum "Si O2"
_cell_formula_units_Z 56
_cell_length_a 19.052849
_cell_length_b 8.612541
_cell_length_c 25.653634
_cell_angle_alpha 90.000000
_cell_angle_beta 46.240829
_cell_angle_gamma 90.000000
_cell_volume 3040.392390
_symmetry_space_group_name_H-M "C 2/M"
_symmetry_group_IT_number 12
_symmetry_cell_setting 'monoclinic'
loop_
_space_group_symop_operation_xyz
x,y,z
-x,y,-z
-x,-y,-z
x,-y,z
1/2+x,1/2+y,z
1/2-x,1/2+y,-z
1/2-x,1/2-y,-z
1/2+x,1/2-y,z
loop_
_atom_site_type_symbol
_atom_site_label
_atom_site_fract_x
_atom_site_fract_y
_atom_site_fract_z
Si Si1 0.143596 0.187423 0.571637
Si Si2 0.588038 0.312775 0.917682
Si Si3 0.223356 0.823553 0.296619
Si Si4 0.423347 0.681991 0.197084
Si Si5 0.494858 0.183800 0.266333
Si Si6 0.487666 0.310621 0.565310
Si Si7 0.206232 0.174642 0.181228
O O1 0.250000 0.250000 0.500000
O O2 0.089220 0.243136 0.652831
O O3 0.069858 0.238007 0.563389
O O4 0.148457 0.000000 0.571043
O O5 0.591960 0.500000 0.914340
O O6 0.567269 0.263353 0.868122
O O7 0.692068 0.255390 0.886071
O O8 0.500000 0.263174 0.000000
O O9 0.310572 0.713934 0.267797
O O10 0.119240 0.759269 0.364661
O O11 0.219241 0.835614 0.236672
O O12 0.237500 0.000000 0.310492
O O13 0.446732 0.500000 0.187322
O O14 0.479309 0.770264 0.213912
O O15 0.603410 0.242254 0.224746
O O16 0.489353 0.000000 0.275607
O O17 0.500000 0.261207 0.500000
O O18 0.487400 0.500000 0.567281
O O19 0.200631 0.000000 0.162422
#
# Coordination Sequence:
#
# PCOD9187478 Si02
#       7
#     8   8   8   8   8   8   8
#     4  11  23  40  58  83 117 155 196 244 298 349
#     4   9  19  38  63  91 122 153 187 231 286 351
#     4   9  17  33  55  79 108 145 186 231 282 341
#     4  10  21  36  57  86 117 148 187 238 288 341
#     4  12  24  39  59  82 114 158 202 245 291 344
#     4   9  18  33  54  78 107 143 185 230 281 339
#     4  10  19  35  59  86 115 150 191 237 286 342
#
# _framework density 18.418673999999999
#
# number of rings (size 3 to 8) (size 9 to 14) (size 15 to 20)
#    0.000    2.000    1.429    2.571    2.000    1.429 
#    0.000    0.714    0.000    2.143    0.000    0.000 
#    0.000    0.000    0.000    0.000    0.000    0.000 
#
# Total GULP energy -156010.229967 kJ/mol
# GULP energy per Si atom -5571.793927 kJ/mol
# Density = 1.837675 g / cm^3
# Si number density = 18.418674 Si / 1000 Ang^3
#
#
#
# Elastic Constant Matrix: (Units=GPa)
#
#
# Indices 1 2 3 4 5 6 
#
# 1 78.2460 30.1219 46.4879 0.0001 -2.4464 0.0003
# 2 30.1219 66.7927 33.2988 0.0001 -3.6826 0.0004
# 3 46.4879 33.2988 123.6646 0.0000 -21.6468 0.0000
# 4 0.0001 0.0001 0.0000 13.2890 0.0000 2.0104
# 5 -2.4464 -3.6826 -21.6468 0.0000 27.1811 0.0000
# 6 0.0003 0.0004 0.0000 2.0104 0.0000 20.7554
#
#
#
# Elastic Compliance Matrix: (Units=1/GPa)
#
#
# Indices 1 2 3 4 5 6 
#
# 1 0.018409 -0.005457 -0.006147 0.000000 -0.003978 0.000000
# 2 -0.005457 0.018970 -0.003129 0.000000 -0.000413 0.000000
# 3 -0.006147 -0.003129 0.012862 0.000000 0.009266 0.000000
# 4 0.000000 0.000000 0.000000 0.076369 0.000000 -0.007397
# 5 -0.003978 -0.000413 0.009266 0.000000 0.043755 0.000000
# 6 0.000000 0.000000 0.000000 -0.007397 0.000000 0.048897
#
#
# Mechanical properties :
#
#
# Convention : Reuss Voigt Hill
#
# Bulk Modulus (GPa) = 48.13595 54.28007 51.20801
# Shear Modulus (GPa) = 19.55786 22.83141 21.19464
#
# Velocity S-wave (km/s) = 3.26214 3.52459 3.39590
# Velocity P-wave (km/s) = 6.35451 6.78953 6.57562
#
# Compressibility (1/GPa) = 0.02077449
#
# Stress axis : x y z
#
# Youngs Moduli (GPa) = 54.32235 52.71590 77.75042
#
# Poissons Ratio (x) = 0.28765 0.47795
# Poissons Ratio (y) = 0.29641 0.24328
# Poissons Ratio (z) = 0.33393 0.16494
#
# Static dielectric constant tensor:
#      x y z
#    x 1.621760 0.000000 -0.017420 
#    y 0.000000 1.651600 0.000000 
#    z -0.017420 0.000000 1.512540 
# 
# From -- ./inp_files/342305.got.cif
#   From: 2010.05.17/outbox.cif.g08.bks.cpg/sg12_172_cif.got.tgz:342305.got - 2010.06.03 13:09:07.
