data_PCOD9187610
_publ_section_title
;
Structure prediction by ZEFSAII (Michael W. Deem and Ramdas Pophale) SiO2 
 PCOD9187610
Probable space group: C 2/M
;
_chemical_formula_sum "Si O2"
_cell_formula_units_Z 56
_cell_length_a 19.711109
_cell_length_b 14.825820
_cell_length_c 14.508545
_cell_angle_alpha 90.000000
_cell_angle_beta 137.108023
_cell_angle_gamma 90.000000
_cell_volume 2885.740381
_symmetry_space_group_name_H-M "C 2/M"
_symmetry_group_IT_number 12
_symmetry_cell_setting 'monoclinic'
loop_
_space_group_symop_operation_xyz
x,y,z
-x,y,-z
-x,-y,-z
x,-y,z
1/2+x,1/2+y,z
1/2-x,1/2+y,-z
1/2-x,1/2-y,-z
1/2+x,1/2-y,z
loop_
_atom_site_type_symbol
_atom_site_label
_atom_site_fract_x
_atom_site_fract_y
_atom_site_fract_z
Si Si1 0.214973 0.891792 0.218908
Si Si2 0.392016 0.397795 0.073071
Si Si3 0.211584 0.108407 0.589897
Si Si4 0.613397 0.247884 0.616766
Si Si5 0.388272 0.391116 0.693867
Si Si6 0.614068 0.108859 0.097046
Si Si7 0.767895 0.822402 0.098080
O O1 0.315257 0.836076 0.333720
O O2 0.145736 0.870666 0.236927
O O3 0.232000 0.000000 0.231821
O O4 0.162702 0.859756 0.072045
O O5 0.414662 0.500000 0.066542
O O6 0.498812 0.355852 0.205730
O O7 0.319531 0.399453 0.088395
O O8 0.133498 0.167873 0.569353
O O9 0.191059 0.135565 0.463698
O O10 0.317410 0.128548 0.744508
O O11 0.196467 0.000000 0.584908
O O12 0.500000 0.220640 0.500000
O O13 0.649325 0.283348 0.751206
O O14 0.390309 0.500000 0.687577
O O15 0.674288 0.148263 0.068457
O O16 0.611957 0.000000 0.083527
O O17 0.500000 0.139479 0.000000
O O18 0.750000 0.750000 0.000000
#
# Coordination Sequence:
#
# PCOD9187610 Si02
#       7
#     8   8   8   8   8   8   8
#     4  10  21  38  56  81 119 160 199 240 281 339
#     4  10  19  35  60  85 112 152 195 239 294 345
#     4   9  19  37  60  88 116 143 186 246 302 349
#     4  11  23  39  57  82 117 152 196 242 292 352
#     4   9  18  35  59  87 115 147 193 243 293 350
#     4   9  19  38  61  84 115 154 194 237 293 353
#     4  11  21  38  55  85 118 148 190 245 288 348
#
# _framework density 19.405764999999999
#
# number of rings (size 3 to 8) (size 9 to 14) (size 15 to 20)
#    0.000    2.143    1.429    1.714    0.000    3.429 
#    7.714    0.000    0.000    0.000    0.000    0.000 
#    0.000    0.000    0.000    0.000    0.000    0.000 
#
# Total GULP energy -156003.078322 kJ/mol
# GULP energy per Si atom -5571.538511 kJ/mol
# Density = 1.936160 g / cm^3
# Si number density = 19.405765 Si / 1000 Ang^3
#
#
#
# Elastic Constant Matrix: (Units=GPa)
#
#
# Indices 1 2 3 4 5 6 
#
# 1 131.5511 20.5203 85.4789 0.0000 4.1580 0.0000
# 2 20.5203 47.5790 21.5319 0.0000 4.3044 0.0000
# 3 85.4789 21.5319 101.3096 0.0000 14.9503 0.0000
# 4 0.0000 0.0000 0.0000 17.7953 0.0000 3.9592
# 5 4.1580 4.3044 14.9503 0.0000 38.8038 0.0000
# 6 0.0000 0.0000 0.0000 3.9592 0.0000 24.3623
#
#
#
# Elastic Compliance Matrix: (Units=1/GPa)
#
#
# Indices 1 2 3 4 5 6 
#
# 1 0.017447 -0.001061 -0.015095 0.000000 0.004064 0.000000
# 2 -0.001061 0.023338 -0.003923 0.000000 -0.000964 0.000000
# 3 -0.015095 -0.003923 0.024533 0.000000 -0.007399 0.000000
# 4 0.000000 0.000000 0.000000 0.058303 0.000000 -0.009475
# 5 0.004064 -0.000964 -0.007399 0.000000 0.028293 0.000000
# 6 0.000000 0.000000 0.000000 -0.009475 0.000000 0.042587
#
#
# Mechanical properties :
#
#
# Convention : Reuss Voigt Hill
#
# Bulk Modulus (GPa) = 39.74563 59.50021 49.62292
# Shear Modulus (GPa) = 20.57246 26.38620 23.47933
#
# Velocity S-wave (km/s) = 3.25948 3.69142 3.48216
# Velocity P-wave (km/s) = 5.88994 6.99260 6.46482
#
# Compressibility (1/GPa) = 0.02516000
#
# Stress axis : x y z
#
# Youngs Moduli (GPa) = 57.31626 42.84920 40.76214
#
# Poissons Ratio (x) = 0.04547 0.61530
# Poissons Ratio (y) = 0.06082 0.15989
# Poissons Ratio (z) = 0.86519 0.16808
#
# Static dielectric constant tensor:
#      x y z
#    x 1.668350 0.000000 -0.003590 
#    y 0.000000 1.742990 0.000000 
#    z -0.003590 0.000000 1.715480 
# 
# From -- ./inp_files/226589.got.cif
#   From: 2010.05.17/outbox.cif.g08.bks.cpg/sg12_114_cif.got.tgz:226589.got - 2010.06.03 13:09:07.
