data_PCOD9187735
_publ_section_title
;
Structure prediction by ZEFSAII (Michael W. Deem and Ramdas Pophale) SiO2 
 PCOD9187735
Probable space group: C 2/M
;
_chemical_formula_sum "Si O2"
_cell_formula_units_Z 48
_cell_length_a 26.631879
_cell_length_b 15.053773
_cell_length_c 22.552173
_cell_angle_alpha 90.000000
_cell_angle_beta 162.566884
_cell_angle_gamma 90.000000
_cell_volume 2708.732885
_symmetry_space_group_name_H-M "C 2/M"
_symmetry_group_IT_number 12
_symmetry_cell_setting 'monoclinic'
loop_
_space_group_symop_operation_xyz
x,y,z
-x,y,-z
-x,-y,-z
x,-y,z
1/2+x,1/2+y,z
1/2-x,1/2+y,-z
1/2-x,1/2-y,-z
1/2+x,1/2-y,z
loop_
_atom_site_type_symbol
_atom_site_label
_atom_site_fract_x
_atom_site_fract_y
_atom_site_fract_z
Si Si1 0.948410 0.256151 0.007030
Si Si2 0.313746 0.100218 0.317411
Si Si3 0.939177 0.265251 0.196041
Si Si4 0.991154 0.396991 0.150022
Si Si5 0.349509 0.597273 0.605178
Si Si6 0.280265 0.848105 0.415027
O O1 0.913873 0.339348 0.009994
O O2 0.115401 0.210571 0.220164
O O3 0.807056 0.179343 0.841706
O O4 0.000000 0.287610 0.000000
O O5 0.500000 0.110734 0.500000
O O6 0.312848 0.105647 0.388436
O O7 0.253726 0.000000 0.233568
O O8 0.937326 0.347326 0.148871
O O9 0.025907 0.179663 0.262991
O O10 0.057155 0.291456 0.383952
O O11 0.750000 0.250000 0.000000
O O12 0.945056 0.500000 0.095862
O O13 0.194895 0.392436 0.384813
O O14 0.427967 0.500000 0.684870
O O15 0.267043 0.599246 0.578058
#
# Coordination Sequence:
#
# PCOD9187735 Si02
#       6
#     8   8   8   8   8   8
#     4  10  20  36  60  82 112 154 193 235 282 341
#     4  10  23  38  57  89 122 152 190 237 296 351
#     4  11  22  36  59  86 121 150 186 243 300 344
#     4  10  20  38  59  83 112 148 196 239 280 344
#     4  10  19  35  61  84 110 148 193 238 288 347
#     4  10  19  37  58  84 115 151 194 236 284 345
#
# _framework density 17.720462999999999
#
# number of rings (size 3 to 8) (size 9 to 14) (size 15 to 20)
#    0.000    1.833    3.333    1.500    2.333    5.333 
#    0.000    0.000    0.000    0.500    0.000    0.000 
#    0.000    0.000    0.000    0.000    0.000    0.000 
#
# Total GULP energy -133705.711734 kJ/mol
# GULP energy per Si atom -5571.071322 kJ/mol
# Density = 1.768013 g / cm^3
# Si number density = 17.720463 Si / 1000 Ang^3
#
#
#
# Elastic Constant Matrix: (Units=GPa)
#
#
# Indices 1 2 3 4 5 6 
#
# 1 66.8230 65.1198 40.1352 0.0105 -5.1406 0.0032
# 2 65.1198 145.1920 61.4185 0.0210 0.2526 0.0135
# 3 40.1352 61.4185 93.1906 0.0271 2.4369 0.0184
# 4 0.0105 0.0210 0.0271 11.1744 0.0146 -13.0455
# 5 -5.1406 0.2526 2.4369 0.0146 30.9924 0.0087
# 6 0.0032 0.0135 0.0184 -13.0455 0.0087 11.4854
#
#
#
# Elastic Compliance Matrix: (Units=1/GPa)
#
#
# Indices 1 2 3 4 5 6 
#
# 1 0.029230 -0.010725 -0.005661 -0.000032 0.005381 -0.000026
# 2 -0.010725 0.013490 -0.004231 0.000027 -0.001556 0.000025
# 3 -0.005661 -0.004231 0.016014 0.000132 -0.002164 0.000133
# 4 -0.000032 0.000027 0.000132 -0.274485 0.000200 -0.311769
# 5 0.005381 -0.001556 -0.002164 0.000200 0.033341 0.000206
# 6 -0.000026 0.000025 0.000133 -0.311769 0.000206 -0.267052
#
#
# Mechanical properties :
#
#
# Convention : Reuss Voigt Hill
#
# Bulk Modulus (GPa) = 57.14263 70.95028 64.04645
# Shear Modulus (GPa) = -12.42568 19.96591 3.77012
#
# Velocity S-wave (km/s) = -2.65090 3.36030 1.46019
# Velocity P-wave (km/s) = 4.79030 7.42839 6.25012
#
# Compressibility (1/GPa) = 0.01750007
#
# Stress axis : x y z
#
# Youngs Moduli (GPa) = 34.21085 74.12854 62.44467
#
# Poissons Ratio (x) = 0.79500 0.35353
# Poissons Ratio (y) = 0.36690 0.26422
# Poissons Ratio (z) = 0.19368 0.31366
#
# Static dielectric constant tensor:
#      x y z
#    x 1.631230 0.000000 -0.028960 
#    y 0.000000 1.627880 0.000000 
#    z -0.028960 0.000000 1.598240 
# 
# From -- ./inp_files/85142.got.cif
#   From: 2010.05.17/outbox.cif.g08.bks.cpg/sg12_43_cif.got.tgz:85142.got - 2010.06.03 13:09:07.
