data_PCOD9187251
_publ_section_title
;
Structure prediction by ZEFSAII (Michael W. Deem and Ramdas Pophale) SiO2 
 PCOD9187251
Probable space group: C 2/M
;
_chemical_formula_sum "Si O2"
_cell_formula_units_Z 48
_cell_length_a 10.245683
_cell_length_b 19.959569
_cell_length_c 14.559817
_cell_angle_alpha 90.000000
_cell_angle_beta 133.204338
_cell_angle_gamma 90.000000
_cell_volume 2170.330872
_symmetry_space_group_name_H-M "C 2/M"
_symmetry_group_IT_number 12
_symmetry_cell_setting 'monoclinic'
loop_
_space_group_symop_operation_xyz
x,y,z
-x,y,-z
-x,-y,-z
x,-y,z
1/2+x,1/2+y,z
1/2-x,1/2+y,-z
1/2-x,1/2-y,-z
1/2+x,1/2-y,z
loop_
_atom_site_type_symbol
_atom_site_label
_atom_site_fract_x
_atom_site_fract_y
_atom_site_fract_z
Si Si1 0.718078 0.803075 0.607474
Si Si2 0.804657 0.177562 0.859623
Si Si3 0.716157 0.074463 0.954764
Si Si4 0.691241 0.347097 0.541908
Si Si5 0.218664 0.676789 0.109985
Si Si6 0.802014 0.427342 0.750318
O O1 0.500000 0.808228 0.500000
O O2 0.790273 0.819352 0.743206
O O3 0.765802 0.725749 0.607527
O O4 0.798425 0.846579 0.562832
O O5 0.723491 0.109238 0.859516
O O6 0.714215 0.246892 0.852772
O O7 0.000000 0.177742 0.000000
O O8 0.507901 0.067421 0.879104
O O9 0.797589 0.000000 0.998709
O O10 0.785102 0.130877 0.058471
O O11 0.500000 0.351993 0.500000
O O12 0.796713 0.406729 0.641699
O O13 0.269122 0.634516 0.224321
O O14 0.000000 0.681876 0.000000
O O15 0.715786 0.500000 0.725040
#
# Coordination Sequence:
#
# PCOD9187251 Si02
#       6
#     8   8   8   8   8   8
#     4  10  21  40  62  88 127 169 203 250 319 379
#     4  11  22  37  60  92 118 157 209 264 304 366
#     4  10  21  36  56  84 122 167 201 248 321 383
#     4  10  21  37  59  87 120 165 208 256 313 370
#     4   9  18  34  54  84 115 149 195 254 309 361
#     4  10  19  35  58  84 119 158 207 260 310 369
#
# _framework density 22.116444000000001
#
# number of rings (size 3 to 8) (size 9 to 14) (size 15 to 20)
#    0.000    2.000    1.667    2.000    0.000    4.000 
#    3.000    0.833    0.000    3.000    0.000    0.000 
#    0.000    0.000    0.000    0.000    0.000    0.000 
#
# Total GULP energy -133898.368680 kJ/mol
# GULP energy per Si atom -5579.098695 kJ/mol
# Density = 2.206611 g / cm^3
# Si number density = 22.116444 Si / 1000 Ang^3
#
#
#
# Elastic Constant Matrix: (Units=GPa)
#
#
# Indices 1 2 3 4 5 6 
#
# 1 52.1538 35.1152 37.2582 -0.0001 -4.9113 0.0000
# 2 35.1152 82.4041 18.0196 0.0000 -10.6361 0.0000
# 3 37.2582 18.0196 133.1694 -0.0001 -24.3780 0.0000
# 4 -0.0001 0.0000 -0.0001 -4.2601 -0.0001 4.3479
# 5 -4.9113 -10.6361 -24.3780 -0.0001 38.9321 0.0001
# 6 0.0000 0.0000 0.0000 4.3479 0.0001 11.2272
#
#
#
# Elastic Compliance Matrix: (Units=1/GPa)
#
#
# Indices 1 2 3 4 5 6 
#
# 1 0.033586 -0.013057 -0.008479 -0.000001 -0.004640 0.000000
# 2 -0.013057 0.017830 0.002067 0.000000 0.004519 0.000000
# 3 -0.008479 0.002067 0.010741 0.000000 0.006221 0.000000
# 4 -0.000001 0.000000 0.000000 -0.168240 -0.000001 0.065153
# 5 -0.004640 0.004519 0.006221 -0.000001 0.030230 0.000000
# 6 0.000000 0.000000 0.000000 0.065153 0.000000 0.063838
#
#
# Mechanical properties :
#
#
# Convention : Reuss Voigt Hill
#
# Bulk Modulus (GPa) = 43.06666 49.83480 46.45073
# Shear Modulus (GPa) = 144.25065 21.00212 82.62639
#
# Velocity S-wave (km/s) = 8.08485 3.08493 6.11889
# Velocity P-wave (km/s) = 10.32802 5.93893 8.42434
#
# Compressibility (1/GPa) = 0.02321982
#
# Stress axis : x y z
#
# Youngs Moduli (GPa) = 29.77458 56.08417 93.10543
#
# Poissons Ratio (x) = 0.73227 0.78946
# Poissons Ratio (y) = 0.38876 -0.19250
# Poissons Ratio (z) = 0.25246 -0.11595
#
# Static dielectric constant tensor:
#      x y z
#    x 1.899580 0.000000 0.022080 
#    y 0.000000 1.836410 0.000000 
#    z 0.022080 0.000000 1.854520 
# 
# From -- ./inp_files/133406.got.cif
#   From: 2010.05.17/outbox.cif.g08.bks.cpg/sg12_67_cif.got.tgz:133406.got - 2010.06.03 13:09:07.
