data_PCOD9187663
_publ_section_title
;
Structure prediction by ZEFSAII (Michael W. Deem and Ramdas Pophale) SiO2 
 PCOD9187663
Probable space group: C 2/M
;
_chemical_formula_sum "Si O2"
_cell_formula_units_Z 48
_cell_length_a 18.300019
_cell_length_b 14.274897
_cell_length_c 17.701902
_cell_angle_alpha 90.000000
_cell_angle_beta 27.960612
_cell_angle_gamma 90.000000
_cell_volume 2168.162252
_symmetry_space_group_name_H-M "C 2/M"
_symmetry_group_IT_number 12
_symmetry_cell_setting 'monoclinic'
loop_
_space_group_symop_operation_xyz
x,y,z
-x,y,-z
-x,-y,-z
x,-y,z
1/2+x,1/2+y,z
1/2-x,1/2+y,-z
1/2-x,1/2-y,-z
1/2+x,1/2-y,z
loop_
_atom_site_type_symbol
_atom_site_label
_atom_site_fract_x
_atom_site_fract_y
_atom_site_fract_z
Si Si1 0.211326 0.500000 0.738771
Si Si2 0.800910 0.603666 0.458069
Si Si3 0.271673 0.204299 0.087044
Si Si4 0.851478 0.601225 0.579841
Si Si5 0.847035 0.500000 0.034983
Si Si6 0.514006 0.278184 0.758201
Si Si7 0.186580 0.799819 0.337547
O O1 0.239443 0.500000 0.804588
O O2 0.276000 0.398408 0.656335
O O3 0.028605 0.500000 0.889391
O O4 0.805729 0.500000 0.419571
O O5 0.893335 0.600512 0.453320
O O6 0.625634 0.633638 0.641499
O O7 0.875941 0.687102 0.342736
O O8 0.307296 0.096757 0.030304
O O9 0.106140 0.229216 0.202027
O O10 0.264348 0.203530 0.183830
O O11 0.403216 0.271461 0.932236
O O12 0.770471 0.500000 0.667724
O O13 0.766959 0.700767 0.667867
O O14 0.000000 0.602455 0.500000
O O15 0.000000 0.799569 0.500000
#
# Coordination Sequence:
#
# PCOD9187663 Si02
#       7
#     4   8   8   8   4   8   8
#     4   9  19  34  54  88 117 156 191 244 298 354
#     4  10  22  40  63  90 117 152 202 251 296 353
#     4  10  22  39  58  86 120 161 200 240 295 359
#     4   9  18  34  58  84 113 148 189 240 297 349
#     4   9  20  36  56  82 118 157 195 237 300 352
#     4  10  22  40  60  86 120 157 200 245 295 348
#     4  10  19  35  60  87 122 156 197 250 302 356
#
# _framework density 22.138563999999999
#
# number of rings (size 3 to 8) (size 9 to 14) (size 15 to 20)
#    0.000    2.333    0.000    2.250    4.667    0.000 
#    0.000    0.833    0.000    2.000    0.000    0.000 
#    0.000    0.000    0.000    0.000    0.000    0.000 
#
# Total GULP energy -133938.750587 kJ/mol
# GULP energy per Si atom -5580.781274 kJ/mol
# Density = 2.208818 g / cm^3
# Si number density = 22.138564 Si / 1000 Ang^3
#
#
#
# Elastic Constant Matrix: (Units=GPa)
#
#
# Indices 1 2 3 4 5 6 
#
# 1 54.4413 19.3946 9.3001 -0.0009 0.1735 0.0006
# 2 19.3946 187.7928 18.3655 -0.0008 -5.0104 0.0008
# 3 9.3001 18.3655 35.4273 -0.0002 -11.0479 0.0005
# 4 -0.0009 -0.0008 -0.0002 21.4242 0.0009 6.3426
# 5 0.1735 -5.0104 -11.0479 0.0009 25.4735 -0.0009
# 6 0.0006 0.0008 0.0005 6.3426 -0.0009 28.9256
#
#
#
# Elastic Compliance Matrix: (Units=1/GPa)
#
#
# Indices 1 2 3 4 5 6 
#
# 1 0.019843 -0.001611 -0.005221 0.000001 -0.002716 -0.000001
# 2 -0.001611 0.005741 -0.002541 0.000000 0.000038 0.000000
# 3 -0.005221 -0.002541 0.035582 -0.000001 0.014968 0.000000
# 4 0.000001 0.000000 -0.000001 0.049917 -0.000002 -0.010945
# 5 -0.002716 0.000038 0.014968 -0.000002 0.045774 0.000002
# 6 -0.000001 0.000000 0.000000 -0.010945 0.000002 0.036971
#
#
# Mechanical properties :
#
#
# Convention : Reuss Voigt Hill
#
# Bulk Modulus (GPa) = 23.57398 41.30907 32.44153
# Shear Modulus (GPa) = 22.05413 30.53808 26.29610
#
# Velocity S-wave (km/s) = 3.15967 3.71807 3.45018
# Velocity P-wave (km/s) = 4.89722 6.09359 5.52787
#
# Compressibility (1/GPa) = 0.04241966
#
# Stress axis : x y z
#
# Youngs Moduli (GPa) = 50.39580 174.18679 28.10374
#
# Poissons Ratio (x) = 0.28065 0.14672
# Poissons Ratio (y) = 0.08120 0.07142
# Poissons Ratio (z) = 0.26311 0.44266
#
# Static dielectric constant tensor:
#      x y z
#    x 1.842220 0.000000 0.028020 
#    y 0.000000 1.859740 0.000000 
#    z 0.028020 0.000000 1.791350 
# 
# From -- ./inp_files/278066.got.cif
#   From: 2010.05.17/outbox.cif.g08.bks.cpg/sg12_140_cif.got.tgz:278066.got - 2010.06.03 13:09:07.
