data_PCOD9187719
_publ_section_title
;
Structure prediction by ZEFSAII (Michael W. Deem and Ramdas Pophale) SiO2 
 PCOD9187719
Probable space group: C 2/M
;
_chemical_formula_sum "Si O2"
_cell_formula_units_Z 56
_cell_length_a 20.530682
_cell_length_b 26.853997
_cell_length_c 5.582387
_cell_angle_alpha 90.000000
_cell_angle_beta 118.793850
_cell_angle_gamma 90.000000
_cell_volume 2697.205270
_symmetry_space_group_name_H-M "C 2/M"
_symmetry_group_IT_number 12
_symmetry_cell_setting 'monoclinic'
loop_
_space_group_symop_operation_xyz
x,y,z
-x,y,-z
-x,-y,-z
x,-y,z
1/2+x,1/2+y,z
1/2-x,1/2+y,-z
1/2-x,1/2-y,-z
1/2+x,1/2-y,z
loop_
_atom_site_type_symbol
_atom_site_label
_atom_site_fract_x
_atom_site_fract_y
_atom_site_fract_z
Si Si1 0.080250 0.705316 0.546791
Si Si2 0.587205 0.439892 0.691010
Si Si3 0.785349 0.770157 0.315830
Si Si4 0.807385 0.640322 0.938543
Si Si5 0.347864 0.558358 0.693098
Si Si6 0.798157 0.555331 0.288596
Si Si7 0.077571 0.395331 0.243349
O O1 0.129952 0.750564 0.534632
O O2 0.133898 0.678968 0.836775
O O3 0.066115 0.659066 0.341853
O O4 0.000000 0.721228 0.500000
O O5 0.500000 0.431300 0.500000
O O6 0.599691 0.500000 0.724354
O O7 0.628310 0.421423 0.522983
O O8 0.613957 0.420200 0.997752
O O9 0.750000 0.750000 0.500000
O O10 0.750000 0.750000 0.000000
O O11 0.761637 0.827726 0.277637
O O12 0.780037 0.600024 0.079333
O O13 0.859033 0.613332 0.839577
O O14 0.370569 0.500000 0.724593
O O15 0.260333 0.559083 0.596836
O O16 0.788666 0.500000 0.168545
O O17 0.883368 0.565882 0.509753
O O18 0.000000 0.412571 0.000000
#
# Coordination Sequence:
#
# PCOD9187719 Si02
#       7
#     8   8   8   8   8   8   8
#     4  10  19  35  60  94 128 161 202 258 329 412
#     4   9  16  28  50  79 105 131 178 254 328 380
#     4  10  20  36  61  97 129 162 205 252 325 402
#     4  10  21  37  60  86 125 166 209 269 320 392
#     4   9  18  32  50  75 109 147 198 258 315 373
#     4  10  24  39  55  84 122 176 233 281 328 376
#     4  11  21  36  61  87 122 167 218 276 332 386
#
# _framework density 20.762231
#
# number of rings (size 3 to 8) (size 9 to 14) (size 15 to 20)
#    0.000    2.143    2.857    0.429    2.000    2.571 
#    0.000    0.714    0.000    0.857    0.000    0.000 
#    0.000    0.000    0.000    0.000    0.000    0.000 
#
# Total GULP energy -156067.168129 kJ/mol
# GULP energy per Si atom -5573.827433 kJ/mol
# Density = 2.071497 g / cm^3
# Si number density = 20.762231 Si / 1000 Ang^3
#
#
#
# Elastic Constant Matrix: (Units=GPa)
#
#
# Indices 1 2 3 4 5 6 
#
# 1 123.7173 41.7372 42.6433 0.0000 -4.6706 0.0000
# 2 41.7372 61.2290 18.4587 0.0000 8.0995 0.0000
# 3 42.6433 18.4587 98.4353 0.0000 9.5277 0.0000
# 4 0.0000 0.0000 0.0000 31.1725 0.0000 -29.5723
# 5 -4.6706 8.0995 9.5277 0.0000 34.0847 0.0000
# 6 0.0000 0.0000 0.0000 -29.5723 0.0000 60.2986
#
#
#
# Elastic Compliance Matrix: (Units=1/GPa)
#
#
# Indices 1 2 3 4 5 6 
#
# 1 0.012386 -0.007755 -0.004373 0.000000 0.004762 0.000000
# 2 -0.007755 0.022534 -0.000252 0.000000 -0.006347 0.000000
# 3 -0.004373 -0.000252 0.012491 0.000000 -0.004031 0.000000
# 4 0.000000 0.000000 0.000000 0.059991 0.000000 0.029421
# 5 0.004762 -0.006347 -0.004031 0.000000 0.032626 0.000000
# 6 0.000000 0.000000 0.000000 0.029421 0.000000 0.031013
#
#
# Mechanical properties :
#
#
# Convention : Reuss Voigt Hill
#
# Bulk Modulus (GPa) = 44.14596 54.34001 49.24298
# Shear Modulus (GPa) = 24.58822 37.14730 30.86776
#
# Velocity S-wave (km/s) = 3.44506 4.23445 3.85999
# Velocity P-wave (km/s) = 6.09372 7.08074 6.60569
#
# Compressibility (1/GPa) = 0.02265213
#
# Stress axis : x y z
#
# Youngs Moduli (GPa) = 80.73623 44.37787 80.06066
#
# Poissons Ratio (x) = 0.34414 0.35007
# Poissons Ratio (y) = 0.62609 0.02016
# Poissons Ratio (z) = 0.35302 0.01117
#
# Static dielectric constant tensor:
#      x y z
#    x 1.726540 0.000000 -0.032630 
#    y 0.000000 1.715280 0.000000 
#    z -0.032630 0.000000 1.845850 
# 
# From -- ./inp_files/22367.got.cif
#   From: 2010.05.17/outbox.cif.g08.bks.cpg/sg12_12_cif.got.tgz:22367.got - 2010.06.03 13:09:07.
