data_PCOD9187929
_publ_section_title
;
Structure prediction by ZEFSAII (Michael W. Deem and Ramdas Pophale) SiO2 
 PCOD9187929
Probable space group: C 2/M
;
_chemical_formula_sum "Si O2"
_cell_formula_units_Z 42
_cell_length_a 16.669242
_cell_length_b 16.112935
_cell_length_c 6.926307
_cell_angle_alpha 90.000000
_cell_angle_beta 108.557295
_cell_angle_gamma 90.000000
_cell_volume 1763.612935
_symmetry_space_group_name_H-M "C 2/M"
_symmetry_group_IT_number 12
_symmetry_cell_setting 'monoclinic'
loop_
_space_group_symop_operation_xyz
x,y,z
-x,y,-z
-x,-y,-z
x,-y,z
1/2+x,1/2+y,z
1/2-x,1/2+y,-z
1/2-x,1/2-y,-z
1/2+x,1/2-y,z
loop_
_atom_site_type_symbol
_atom_site_label
_atom_site_fract_x
_atom_site_fract_y
_atom_site_fract_z
Si Si1 0.500000 0.500000 0.000000
Si Si2 0.246725 0.341041 0.901864
Si Si3 0.399191 0.354490 0.716599
Si Si4 0.769127 0.905186 0.331341
Si Si5 0.592523 0.835050 0.244320
Si Si6 0.573006 0.097558 0.788394
O O1 0.462096 0.426336 0.827929
O O2 0.319252 0.355506 0.802449
O O3 0.152228 0.356875 0.750978
O O4 0.250000 0.250000 0.000000
O O5 0.264966 0.401094 0.096987
O O6 0.357709 0.371546 0.477171
O O7 0.432595 0.260925 0.756894
O O8 0.691834 0.850062 0.353036
O O9 0.757205 0.000000 0.387111
O O10 0.525769 0.884565 0.323552
O O11 0.583304 0.869696 0.018400
O O12 0.587450 0.000000 0.789696
#
# Coordination Sequence:
#
# PCOD9187929 Si02
#       6
#     2   8   8   8   8   8
#     4  12  28  44  70  96 140 186 228 284 342 396
#     4  11  23  41  70  97 133 176 225 274 338 411
#     4  12  25  45  67  97 134 182 229 280 336 407
#     4  11  23  42  68 102 135 180 224 284 342 402
#     4  10  19  37  65  92 133 171 223 272 337 402
#     4  10  19  35  63 100 129 170 216 280 340 397
#
# _framework density 23.814747000000001
#
# number of rings (size 3 to 8) (size 9 to 14) (size 15 to 20)
#    0.000    1.143    4.762    5.714    2.667    0.000 
#    0.000    2.857    0.000    2.286    0.000    0.000 
#    0.000    0.000    0.000    0.000    0.000    0.000 
#
# Total GULP energy -117208.337949 kJ/mol
# GULP energy per Si atom -5581.349426 kJ/mol
# Density = 2.376054 g / cm^3
# Si number density = 23.814747 Si / 1000 Ang^3
#
#
#
# Elastic Constant Matrix: (Units=GPa)
#
#
# Indices 1 2 3 4 5 6 
#
# 1 24.6075 -10.2538 -1.8715 0.0000 -8.1950 0.0000
# 2 -10.2538 159.6625 -29.7012 0.0000 15.4171 0.0000
# 3 -1.8715 -29.7012 51.4699 0.0000 16.0307 0.0000
# 4 0.0000 0.0000 0.0000 32.8618 0.0000 17.5016
# 5 -8.1950 15.4171 16.0307 0.0000 43.0439 0.0000
# 6 0.0000 0.0000 0.0000 17.5016 0.0000 23.2702
#
#
#
# Elastic Compliance Matrix: (Units=1/GPa)
#
#
# Indices 1 2 3 4 5 6 
#
# 1 0.044066 0.002229 0.000593 0.000000 0.007371 0.000000
# 2 0.002229 0.008016 0.006186 0.000000 -0.004751 0.000000
# 3 0.000593 0.006186 0.026782 0.000000 -0.012077 0.000000
# 4 0.000000 0.000000 0.000000 0.050765 0.000000 -0.038180
# 5 0.007371 -0.004751 -0.012077 0.000000 0.030835 0.000000
# 6 0.000000 0.000000 0.000000 -0.038180 0.000000 0.071689
#
#
# Mechanical properties :
#
#
# Convention : Reuss Voigt Hill
#
# Bulk Modulus (GPa) = 10.32214 16.89853 13.61034
# Shear Modulus (GPa) = 20.28968 38.33960 29.31464
#
# Velocity S-wave (km/s) = 2.92204 4.01672 3.51229
# Velocity P-wave (km/s) = 3.96587 5.35007 4.70911
#
# Compressibility (1/GPa) = 0.09687909
#
# Stress axis : x y z
#
# Youngs Moduli (GPa) = 22.69303 124.75246 37.33876
#
# Poissons Ratio (x) = -0.27802 -0.02213
# Poissons Ratio (y) = -0.05057 -0.23099
# Poissons Ratio (z) = -0.01345 -0.77176
#
# Static dielectric constant tensor:
#      x y z
#    x 1.976840 0.000000 0.095550 
#    y 0.000000 1.860580 0.000000 
#    z 0.095550 0.000000 2.201000 
# 
# From -- ./inp_files/73740.got.cif
#   From: 2010.05.17/outbox.cif.g08.bks.cpg/sg12_37_cif.got.tgz:73740.got - 2010.06.03 13:09:07.
