data_PCOD9187894
_publ_section_title
;
Structure prediction by ZEFSAII (Michael W. Deem and Ramdas Pophale) SiO2 
 PCOD9187894
Probable space group: C 2/M
;
_chemical_formula_sum "Si O2"
_cell_formula_units_Z 48
_cell_length_a 14.257342
_cell_length_b 20.893549
_cell_length_c 9.464348
_cell_angle_alpha 90.000000
_cell_angle_beta 125.792839
_cell_angle_gamma 90.000000
_cell_volume 2286.839341
_symmetry_space_group_name_H-M "C 2/M"
_symmetry_group_IT_number 12
_symmetry_cell_setting 'monoclinic'
loop_
_space_group_symop_operation_xyz
x,y,z
-x,y,-z
-x,-y,-z
x,-y,z
1/2+x,1/2+y,z
1/2-x,1/2+y,-z
1/2-x,1/2-y,-z
1/2+x,1/2-y,z
loop_
_atom_site_type_symbol
_atom_site_label
_atom_site_fract_x
_atom_site_fract_y
_atom_site_fract_z
Si Si1 0.209377 0.924085 0.430482
Si Si2 0.872804 0.573513 0.317055
Si Si3 0.044490 0.928208 0.700461
Si Si4 0.419662 0.819332 0.136012
Si Si5 0.329334 0.826946 0.738953
Si Si6 0.880866 0.792746 0.307857
O O1 0.276004 0.906250 0.345737
O O2 0.071493 0.912436 0.311927
O O3 0.270927 0.888191 0.613969
O O4 0.224485 0.000000 0.462526
O O5 0.849402 0.500000 0.255879
O O6 0.881431 0.620531 0.194439
O O7 0.000000 0.575321 0.500000
O O8 0.000000 0.934107 0.500000
O O9 0.123375 0.864995 0.761465
O O10 0.088242 0.000000 0.779029
O O11 0.558674 0.810610 0.253472
O O12 0.374260 0.756795 0.175131
O O13 0.376935 0.831596 0.940220
O O14 0.220904 0.780436 0.668696
O O15 0.000000 0.787284 0.500000
#
# Coordination Sequence:
#
# PCOD9187894 Si02
#       6
#     8   8   8   8   8   8
#     4  10  19  35  62  91 118 154 202 252 292 349
#     4  10  20  36  57  84 120 161 202 242 289 351
#     4   9  17  33  58  91 118 142 195 258 297 335
#     4  11  25  39  57  87 129 161 192 246 306 364
#     4  11  23  40  58  88 120 159 200 245 302 360
#     4  11  22  38  62  89 115 156 205 247 302 345
#
# _framework density 20.989671000000001
#
# number of rings (size 3 to 8) (size 9 to 14) (size 15 to 20)
#    0.000    1.667    5.000    1.000    0.000    2.667 
#    0.000    1.667    0.000    0.000    0.000    5.833 
#    0.000    0.000    0.000    0.000    0.000    0.000 
#
# Total GULP energy -133879.400772 kJ/mol
# GULP energy per Si atom -5578.308366 kJ/mol
# Density = 2.094190 g / cm^3
# Si number density = 20.989671 Si / 1000 Ang^3
#
#
#
# Elastic Constant Matrix: (Units=GPa)
#
#
# Indices 1 2 3 4 5 6 
#
# 1 152.3045 20.0258 15.1546 0.0000 -13.6194 0.0000
# 2 20.0258 87.4700 30.0871 0.0000 -18.0524 0.0000
# 3 15.1546 30.0871 43.9360 0.0000 -5.7297 0.0000
# 4 0.0000 0.0000 0.0000 3.4430 0.0000 -1.9320
# 5 -13.6194 -18.0524 -5.7297 0.0000 32.0331 0.0000
# 6 0.0000 0.0000 0.0000 -1.9320 0.0000 21.8637
#
#
#
# Elastic Compliance Matrix: (Units=1/GPa)
#
#
# Indices 1 2 3 4 5 6 
#
# 1 0.007021 -0.000510 -0.001762 0.000000 0.002383 0.000000
# 2 -0.000510 0.016570 -0.010220 0.000000 0.007293 0.000000
# 3 -0.001762 -0.010220 0.030223 0.000000 -0.001103 0.000000
# 4 0.000000 0.000000 0.000000 0.305595 0.000000 0.027004
# 5 0.002383 0.007293 -0.001103 0.000000 0.036144 0.000000
# 6 0.000000 0.000000 0.000000 0.027004 0.000000 0.048124
#
#
# Mechanical properties :
#
#
# Convention : Reuss Voigt Hill
#
# Bulk Modulus (GPa) = 34.68537 46.02726 40.35632
# Shear Modulus (GPa) = 10.45435 26.03085 18.24260
#
# Velocity S-wave (km/s) = 2.23417 3.52543 2.95129
# Velocity P-wave (km/s) = 4.81832 6.20868 5.55715
#
# Compressibility (1/GPa) = 0.02883060
#
# Stress axis : x y z
#
# Youngs Moduli (GPa) = 142.42578 60.35101 33.08752
#
# Poissons Ratio (x) = 0.03075 0.05830
# Poissons Ratio (y) = 0.07258 0.33815
# Poissons Ratio (z) = 0.25096 0.61678
#
# Static dielectric constant tensor:
#      x y z
#    x 1.816000 0.000000 0.025520 
#    y 0.000000 1.747830 0.000000 
#    z 0.025520 0.000000 1.745600 
# 
# From -- ./inp_files/51462.got.cif
#   From: 2010.05.17/outbox.cif.g08.bks.cpg/sg12_26_cif.got.tgz:51462.got - 2010.06.03 13:09:07.
