data_PCOD9187003
_publ_section_title
;
Structure prediction by ZEFSAII (Michael W. Deem and Ramdas Pophale) SiO2 
 PCOD9187003
Probable space group: C 2/M
;
_chemical_formula_sum "Si O2"
_cell_formula_units_Z 58
_cell_length_a 18.783966
_cell_length_b 10.322655
_cell_length_c 17.755834
_cell_angle_alpha 90.000000
_cell_angle_beta 112.063264
_cell_angle_gamma 90.000000
_cell_volume 3190.741279
_symmetry_space_group_name_H-M "C 2/M"
_symmetry_group_IT_number 12
_symmetry_cell_setting 'monoclinic'
loop_
_space_group_symop_operation_xyz
x,y,z
-x,y,-z
-x,-y,-z
x,-y,z
1/2+x,1/2+y,z
1/2-x,1/2+y,-z
1/2-x,1/2-y,-z
1/2+x,1/2-y,z
loop_
_atom_site_type_symbol
_atom_site_label
_atom_site_fract_x
_atom_site_fract_y
_atom_site_fract_z
Si Si1 0.971063 0.851478 0.070797
Si Si2 0.802657 0.648120 0.209186
Si Si3 0.523211 0.770463 0.385498
Si Si4 0.182606 0.149802 0.493568
Si Si5 0.500000 0.000000 0.500000
Si Si6 0.031697 0.351036 0.799807
Si Si7 0.208879 0.856051 0.032676
Si Si8 0.359315 0.353674 0.347278
O O1 0.989950 0.752022 0.144815
O O2 0.997820 0.000000 0.096500
O O3 0.879498 0.855564 0.024091
O O4 0.000000 0.810939 0.000000
O O5 0.804451 0.500000 0.238732
O O6 0.877595 0.662856 0.185146
O O7 0.728089 0.667795 0.127969
O O8 0.813444 0.749960 0.279523
O O9 0.603010 0.694697 0.424019
O O10 0.510767 0.822865 0.295945
O O11 0.449352 0.680801 0.374695
O O12 0.519386 0.886643 0.444225
O O13 0.250000 0.250000 0.500000
O O14 0.165995 0.155462 0.576369
O O15 0.201506 0.000000 0.481671
O O16 0.018626 0.500000 0.817756
O O17 0.240591 0.000000 0.029731
O O18 0.250000 0.750000 0.000000
O O19 0.346229 0.500000 0.315002
#
# Coordination Sequence:
#
# PCOD9187003 Si02
#       8
#     8   8   8   8   2   8   8   8
#     4  10  22  39  58  81 116 158 199 239 293 358
#     4   9  19  33  56  86 115 145 190 243 291 348
#     4  11  22  38  65  91 121 154 204 243 299 357
#     4  11  25  41  60  85 121 159 196 243 297 358
#     4  12  20  36  70  96 114 164 196 248 294 368
#     4  10  20  35  58  90 118 146 193 248 291 346
#     4  10  19  35  57  82 112 147 189 239 289 344
#     4  10  21  38  60  87 118 149 194 247 294 347
#
# _framework density 18.177593999999999
#
# number of rings (size 3 to 8) (size 9 to 14) (size 15 to 20)
#    0.000    1.793    3.448    0.414    1.931    5.241 
#    2.483    0.000    0.000    0.000    0.000    0.000 
#    0.000    0.000    0.000    0.000    0.000    0.000 
#
# Total GULP energy -161536.567139 kJ/mol
# GULP energy per Si atom -5570.226453 kJ/mol
# Density = 1.813622 g / cm^3
# Si number density = 18.177594 Si / 1000 Ang^3
#
#
#
# Elastic Constant Matrix: (Units=GPa)
#
#
# Indices 1 2 3 4 5 6 
#
# 1 38.5276 39.2917 28.1959 0.0000 -4.9405 0.0000
# 2 39.2917 130.9380 75.4173 0.0000 -4.8902 0.0000
# 3 28.1959 75.4173 98.9137 0.0000 -4.0751 0.0000
# 4 0.0000 0.0000 0.0000 34.5808 0.0000 -9.9017
# 5 -4.9405 -4.8902 -4.0751 0.0000 20.5099 0.0000
# 6 0.0000 0.0000 0.0000 -9.9017 0.0000 21.0405
#
#
#
# Elastic Compliance Matrix: (Units=1/GPa)
#
#
# Indices 1 2 3 4 5 6 
#
# 1 0.039021 -0.009299 -0.003768 0.000000 0.006434 0.000000
# 2 -0.009299 0.015862 -0.009458 0.000000 -0.000337 0.000000
# 3 -0.003768 -0.009458 0.018415 0.000000 0.000496 0.000000
# 4 0.000000 0.000000 0.000000 0.033421 0.000000 0.015728
# 5 0.006434 -0.000337 0.000496 0.000000 0.050325 0.000000
# 6 0.000000 0.000000 0.000000 0.015728 0.000000 0.054929
#
#
# Mechanical properties :
#
#
# Convention : Reuss Voigt Hill
#
# Bulk Modulus (GPa) = 35.39838 61.57655 48.48746
# Shear Modulus (GPa) = 18.76596 23.59121 21.17858
#
# Velocity S-wave (km/s) = 3.21653 3.60643 3.41705
# Velocity P-wave (km/s) = 5.77154 7.16173 6.50388
#
# Compressibility (1/GPa) = 0.02824988
#
# Stress axis : x y z
#
# Youngs Moduli (GPa) = 25.62700 63.04266 54.30242
#
# Poissons Ratio (x) = 0.58621 0.20463
# Poissons Ratio (y) = 0.23830 0.51357
# Poissons Ratio (z) = 0.09657 0.59623
#
# Static dielectric constant tensor:
#      x y z
#    x 1.143520 0.000000 0.270660 
#    y 0.000000 1.626320 0.000000 
#    z 0.270660 0.000000 1.492730 
# 
# From -- ./inp_files/281581.got.cif
#   From: 2010.05.17/outbox.cif.g08.bks.cpg/sg12_141_cif.got.tgz:281581.got - 2010.06.03 13:09:07.
