data_PCOD9187208
_publ_section_title
;
Structure prediction by ZEFSAII (Michael W. Deem and Ramdas Pophale) SiO2 
 PCOD9187208
Probable space group: C 2/M
;
_chemical_formula_sum "Si O2"
_cell_formula_units_Z 52
_cell_length_a 8.890930
_cell_length_b 24.832554
_cell_length_c 21.997763
_cell_angle_alpha 90.000000
_cell_angle_beta 148.063464
_cell_angle_gamma 90.000000
_cell_volume 2569.129626
_symmetry_space_group_name_H-M "C 2/M"
_symmetry_group_IT_number 12
_symmetry_cell_setting 'monoclinic'
loop_
_space_group_symop_operation_xyz
x,y,z
-x,y,-z
-x,-y,-z
x,-y,z
1/2+x,1/2+y,z
1/2-x,1/2+y,-z
1/2-x,1/2-y,-z
1/2+x,1/2-y,z
loop_
_atom_site_type_symbol
_atom_site_label
_atom_site_fract_x
_atom_site_fract_y
_atom_site_fract_z
Si Si1 0.500000 0.866188 0.500000
Si Si2 0.196277 0.059217 0.862797
Si Si3 0.939830 0.061042 0.321535
Si Si4 0.248634 0.730872 0.238838
Si Si5 0.327751 0.319710 0.133139
Si Si6 0.276443 0.147058 0.670459
Si Si7 0.866245 0.683759 0.577519
O O1 0.476035 0.831624 0.430322
O O2 0.776779 0.903448 0.588771
O O3 0.220689 0.061824 0.797997
O O4 0.071674 0.117964 0.836409
O O5 0.056518 0.000000 0.827626
O O6 0.500000 0.057704 0.000000
O O7 0.759698 0.089104 0.312340
O O8 0.014896 0.000000 0.362109
O O9 0.321773 0.702713 0.200459
O O10 0.119054 0.687253 0.241161
O O11 0.534814 0.757754 0.365465
O O12 0.024147 0.779848 0.161051
O O13 0.000000 0.317926 0.000000
O O14 0.433102 0.147983 0.660152
O O15 0.962442 0.171321 0.548555
#
# Coordination Sequence:
#
# PCOD9187208 Si02
#       7
#     4   8   8   8   8   8   8
#     4  10  21  36  56  84 112 144 191 240 290 344
#     4   9  18  34  57  83 110 144 189 235 275 327
#     4  10  19  35  58  83 113 149 192 240 286 340
#     4  12  21  37  56  83 115 150 186 235 288 340
#     4  11  23  37  57  86 117 151 192 237 291 344
#     4  10  21  37  52  83 114 148 188 230 288 348
#     4  10  22  35  56  80 113 147 188 230 286 346
#
# _framework density 20.240317000000001
#
# number of rings (size 3 to 8) (size 9 to 14) (size 15 to 20)
#    0.000    1.692    3.077    2.077    2.154    1.231 
#    0.000    6.923    0.000    0.923    0.000    0.000 
#    0.000   18.769    0.000    0.000    0.000    0.000 
#
# Total GULP energy -144979.439645 kJ/mol
# GULP energy per Si atom -5576.132294 kJ/mol
# Density = 2.019425 g / cm^3
# Si number density = 20.240317 Si / 1000 Ang^3
#
#
#
# Elastic Constant Matrix: (Units=GPa)
#
#
# Indices 1 2 3 4 5 6 
#
# 1 84.0256 40.7551 27.8309 -0.0008 -15.9381 -0.0018
# 2 40.7551 128.6470 35.8060 0.0008 -9.1467 0.0023
# 3 27.8309 35.8060 74.2623 0.0048 -13.2575 0.0162
# 4 -0.0008 0.0008 0.0048 33.0447 0.0019 13.0941
# 5 -15.9381 -9.1467 -13.2575 0.0019 28.7661 0.0062
# 6 -0.0018 0.0023 0.0162 13.0941 0.0062 69.8459
#
#
#
# Elastic Compliance Matrix: (Units=1/GPa)
#
#
# Indices 1 2 3 4 5 6 
#
# 1 0.015908 -0.003750 -0.003043 0.000000 0.006219 0.000001
# 2 -0.003750 0.009885 -0.003455 0.000000 -0.000527 0.000000
# 3 -0.003043 -0.003455 0.017189 -0.000001 0.005137 -0.000004
# 4 0.000000 0.000000 -0.000001 0.032691 -0.000001 -0.006129
# 5 0.006219 -0.000527 0.005137 -0.000001 0.040409 -0.000004
# 6 0.000001 0.000000 -0.000004 -0.006129 -0.000004 0.015466
#
#
# Mechanical properties :
#
#
# Convention : Reuss Voigt Hill
#
# Bulk Modulus (GPa) = 44.47318 55.07987 49.77652
# Shear Modulus (GPa) = 31.34009 38.50086 34.92048
#
# Velocity S-wave (km/s) = 3.93924 4.36614 4.15817
# Velocity P-wave (km/s) = 6.53532 7.25876 6.90652
#
# Compressibility (1/GPa) = 0.02248546
#
# Stress axis : x y z
#
# Youngs Moduli (GPa) = 62.86247 101.15876 58.17608
#
# Poissons Ratio (x) = 0.37938 0.17704
# Poissons Ratio (y) = 0.23576 0.20099
# Poissons Ratio (z) = 0.19130 0.34949
#
# Static dielectric constant tensor:
#      x y z
#    x 1.720410 0.000000 -0.000110 
#    y 0.000000 1.761820 0.000000 
#    z -0.000110 0.000000 1.751910 
# 
# From -- ./inp_files/302369.got.cif
#   From: 2010.05.17/outbox.cif.g08.bks.cpg/sg12_152_cif.got.tgz:302369.got - 2010.06.03 13:09:07.
