data_PCOD9187304
_publ_section_title
;
Structure prediction by ZEFSAII (Michael W. Deem and Ramdas Pophale) SiO2 
 PCOD9187304
Probable space group: C 2/M
;
_chemical_formula_sum "Si O2"
_cell_formula_units_Z 58
_cell_length_a 21.449803
_cell_length_b 7.850599
_cell_length_c 17.273814
_cell_angle_alpha 90.000000
_cell_angle_beta 84.260682
_cell_angle_gamma 90.000000
_cell_volume 2894.221906
_symmetry_space_group_name_H-M "C 2/M"
_symmetry_group_IT_number 12
_symmetry_cell_setting 'monoclinic'
loop_
_space_group_symop_operation_xyz
x,y,z
-x,y,-z
-x,-y,-z
x,-y,z
1/2+x,1/2+y,z
1/2-x,1/2+y,-z
1/2-x,1/2-y,-z
1/2+x,1/2-y,z
loop_
_atom_site_type_symbol
_atom_site_label
_atom_site_fract_x
_atom_site_fract_y
_atom_site_fract_z
Si Si1 0.712326 0.304895 0.380108
Si Si2 0.432920 0.294982 0.037612
Si Si3 0.853259 0.293206 0.372143
Si Si4 0.184393 0.203327 0.048458
Si Si5 0.087919 0.301849 0.475147
Si Si6 0.000000 0.000000 0.500000
Si Si7 0.724828 0.194689 0.208625
Si Si8 0.134308 0.296248 0.803063
O O1 0.708752 0.500000 0.407785
O O2 0.781411 0.234563 0.392375
O O3 0.654269 0.207308 0.423155
O O4 0.710205 0.301717 0.286936
O O5 0.433401 0.500000 0.030631
O O6 0.417491 0.253137 0.128362
O O7 0.500000 0.230808 0.000000
O O8 0.374768 0.229988 0.993010
O O9 0.850642 0.500000 0.372068
O O10 0.896806 0.246180 0.438007
O O11 0.875916 0.238435 0.284311
O O12 0.186429 0.264875 0.136526
O O13 0.180839 0.000000 0.049986
O O14 0.250000 0.250000 0.000000
O O15 0.067249 0.500000 0.474828
O O16 0.041616 0.154549 0.452544
O O17 0.798269 0.222768 0.180223
O O18 0.715314 0.000000 0.232185
O O19 0.140421 0.500000 0.801711
#
# Coordination Sequence:
#
# PCOD9187304 Si02
#       8
#     8   8   8   8   8   2   8   8
#     4  10  19  37  62  95 130 154 196 258 320 367
#     4  10  22  39  57  81 116 157 201 248 306 365
#     4   8  18  35  61  93 125 155 193 255 319 372
#     4  11  21  35  58  84 115 154 200 253 303 364
#     4  11  22  42  65  90 125 167 213 257 304 368
#     4  12  26  44  60  90 120 176 224 246 298 370
#     4  11  21  34  55  89 122 158 198 242 307 370
#     4  10  19  35  58  87 119 153 196 248 305 364
#
# _framework density 20.039929000000001
#
# number of rings (size 3 to 8) (size 9 to 14) (size 15 to 20)
#    0.000    1.793    2.069    3.931    0.000    0.828 
#    7.448    1.379    3.034    1.655    0.000    0.000 
#    0.000    0.000    0.000    0.000    0.000    0.000 
#
# Total GULP energy -161646.645054 kJ/mol
# GULP energy per Si atom -5574.022243 kJ/mol
# Density = 1.999432 g / cm^3
# Si number density = 20.039929 Si / 1000 Ang^3
#
#
#
# Elastic Constant Matrix: (Units=GPa)
#
#
# Indices 1 2 3 4 5 6 
#
# 1 92.5126 16.3999 40.2821 0.0000 -17.6639 0.0000
# 2 16.3999 80.8747 2.2483 0.0000 -0.3641 0.0000
# 3 40.2821 2.2483 73.1177 0.0000 -10.1179 0.0000
# 4 0.0000 0.0000 0.0000 23.3414 0.0000 -12.2809
# 5 -17.6639 -0.3641 -10.1179 0.0000 22.2502 0.0000
# 6 0.0000 0.0000 0.0000 -12.2809 0.0000 11.7236
#
#
#
# Elastic Compliance Matrix: (Units=1/GPa)
#
#
# Indices 1 2 3 4 5 6 
#
# 1 0.016535 -0.003096 -0.007689 0.000000 0.009580 0.000000
# 2 -0.003096 0.012955 0.001064 0.000000 -0.001762 0.000000
# 3 -0.007689 0.001064 0.018182 0.000000 0.002181 0.000000
# 4 0.000000 0.000000 0.000000 0.095449 0.000000 0.099987
# 5 0.009580 -0.001762 0.002181 0.000000 0.053512 0.000000
# 6 0.000000 0.000000 0.000000 0.099987 0.000000 0.190038
#
#
# Mechanical properties :
#
#
# Convention : Reuss Voigt Hill
#
# Bulk Modulus (GPa) = 35.42437 40.48508 37.95473
# Shear Modulus (GPa) = 12.03302 23.96803 18.00053
#
# Velocity S-wave (km/s) = 2.45307 3.46209 3.00030
# Velocity P-wave (km/s) = 5.07333 6.01893 5.56625
#
# Compressibility (1/GPa) = 0.02822915
#
# Stress axis : x y z
#
# Youngs Moduli (GPa) = 60.47710 77.18939 55.00071
#
# Poissons Ratio (x) = 0.23899 0.42289
# Poissons Ratio (y) = 0.18725 -0.05849
# Poissons Ratio (z) = 0.46499 -0.08209
#
# Static dielectric constant tensor:
#      x y z
#    x 1.725670 0.000000 0.018560 
#    y 0.000000 1.712020 0.000000 
#    z 0.018560 0.000000 1.713210 
# 
# From -- ./inp_files/275476.got.cif
#   From: 2010.05.17/outbox.cif.g08.bks.cpg/sg12_138_cif.got.tgz:275476.got - 2010.06.03 13:09:07.
