data_PCOD9187793
_publ_section_title
;
Structure prediction by ZEFSAII (Michael W. Deem and Ramdas Pophale) SiO2 
 PCOD9187793
Probable space group: C 2/M
;
_chemical_formula_sum "Si O2"
_cell_formula_units_Z 56
_cell_length_a 24.085976
_cell_length_b 14.539194
_cell_length_c 14.200846
_cell_angle_alpha 90.000000
_cell_angle_beta 144.517817
_cell_angle_gamma 90.000000
_cell_volume 2886.578941
_symmetry_space_group_name_H-M "C 2/M"
_symmetry_group_IT_number 12
_symmetry_cell_setting 'monoclinic'
loop_
_space_group_symop_operation_xyz
x,y,z
-x,y,-z
-x,-y,-z
x,-y,z
1/2+x,1/2+y,z
1/2-x,1/2+y,-z
1/2-x,1/2-y,-z
1/2+x,1/2-y,z
loop_
_atom_site_type_symbol
_atom_site_label
_atom_site_fract_x
_atom_site_fract_y
_atom_site_fract_z
Si Si1 0.506749 0.603219 0.643749
Si Si2 0.653495 0.230851 0.808192
Si Si3 0.299126 0.670257 0.293935
Si Si4 0.378052 0.105862 0.072245
Si Si5 0.064092 0.900911 0.242929
Si Si6 0.263848 0.158771 0.579557
Si Si7 0.469503 0.808230 0.853826
O O1 0.539155 0.500000 0.662119
O O2 0.578933 0.685067 0.718152
O O3 0.401386 0.622113 0.454664
O O4 0.492658 0.604813 0.736821
O O5 0.678488 0.235075 0.731928
O O6 0.750000 0.250000 0.000000
O O7 0.617846 0.141261 0.814241
O O8 0.225686 0.618741 0.122105
O O9 0.249211 0.678153 0.326892
O O10 0.404189 0.000000 0.102113
O O11 0.451491 0.167012 0.113591
O O12 0.175760 0.902948 0.426379
O O13 0.047530 0.802619 0.170879
O O14 0.040265 0.000000 0.164768
O O15 0.250000 0.250000 0.500000
O O16 0.372042 0.134540 0.704111
O O17 0.500000 0.833992 0.000000
#
# Coordination Sequence:
#
# PCOD9187793 Si02
#       7
#     8   8   8   8   8   8   8
#     4  10  19  35  61  90 114 142 184 236 293 346
#     4  10  22  37  57  82 117 153 185 240 297 347
#     4  10  20  37  60  87 115 149 189 244 298 339
#     4  11  23  39  57  85 119 158 201 244 291 347
#     4   9  19  35  58  85 115 148 190 238 287 343
#     4   9  19  35  57  87 116 155 189 231 289 352
#     4  11  20  36  59  82 120 157 195 236 294 350
#
# _framework density 19.400127000000001
#
# number of rings (size 3 to 8) (size 9 to 14) (size 15 to 20)
#    0.000    2.000    2.857    0.857    0.000    5.143 
#    0.000    0.000    0.000    5.143    0.000    0.000 
#    0.000    0.000    0.000    0.000    0.000    0.000 
#
# Total GULP energy -155895.963883 kJ/mol
# GULP energy per Si atom -5567.712996 kJ/mol
# Density = 1.935597 g / cm^3
# Si number density = 19.400127 Si / 1000 Ang^3
#
#
#
# Elastic Constant Matrix: (Units=GPa)
#
#
# Indices 1 2 3 4 5 6 
#
# 1 38.3275 14.7988 12.3837 0.0000 4.6333 0.0000
# 2 14.7988 83.3085 15.9142 0.0000 2.3575 0.0000
# 3 12.3837 15.9142 57.5013 0.0000 13.7834 0.0000
# 4 0.0000 0.0000 0.0000 13.6986 0.0000 0.8910
# 5 4.6333 2.3575 13.7834 0.0000 36.0035 0.0000
# 6 0.0000 0.0000 0.0000 0.8910 0.0000 1.6350
#
#
#
# Elastic Compliance Matrix: (Units=1/GPa)
#
#
# Indices 1 2 3 4 5 6 
#
# 1 0.029486 -0.004281 -0.004760 0.000000 -0.001692 0.000000
# 2 -0.004281 0.013306 -0.002955 0.000000 0.000811 0.000000
# 3 -0.004760 -0.002955 0.020965 0.000000 -0.007220 0.000000
# 4 0.000000 0.000000 0.000000 0.075682 0.000000 -0.041243
# 5 -0.001692 0.000811 -0.007220 0.000000 0.030704 0.000000
# 6 0.000000 0.000000 0.000000 -0.041243 0.000000 0.634094
#
#
# Mechanical properties :
#
#
# Convention : Reuss Voigt Hill
#
# Bulk Modulus (GPa) = 25.14770 29.48120 27.31445
# Shear Modulus (GPa) = 5.94189 19.33680 12.63935
#
# Velocity S-wave (km/s) = 1.75199 3.16054 2.55524
# Velocity P-wave (km/s) = 4.13321 5.34304 4.77658
#
# Compressibility (1/GPa) = 0.03976507
#
# Stress axis : x y z
#
# Youngs Moduli (GPa) = 33.91406 75.15675 47.69967
#
# Poissons Ratio (x) = 0.32173 0.22705
# Poissons Ratio (y) = 0.14518 0.14095
# Poissons Ratio (z) = 0.16143 0.22208
#
# Static dielectric constant tensor:
#      x y z
#    x 1.719570 0.000000 0.019890 
#    y 0.000000 1.631010 0.000000 
#    z 0.019890 0.000000 1.657330 
# 
# From -- ./inp_files/246602.got.cif
#   From: 2010.05.17/outbox.cif.g08.bks.cpg/sg12_124_cif.got.tgz:246602.got - 2010.06.03 13:09:07.
