data_PCOD9187358
_publ_section_title
;
Structure prediction by ZEFSAII (Michael W. Deem and Ramdas Pophale) SiO2 
 PCOD9187358
Probable space group: C 2/M
;
_chemical_formula_sum "Si O2"
_cell_formula_units_Z 64
_cell_length_a 24.951720
_cell_length_b 7.754034
_cell_length_c 15.981499
_cell_angle_alpha 90.000000
_cell_angle_beta 88.990632
_cell_angle_gamma 90.000000
_cell_volume 3091.564458
_symmetry_space_group_name_H-M "C 2/M"
_symmetry_group_IT_number 12
_symmetry_cell_setting 'monoclinic'
loop_
_space_group_symop_operation_xyz
x,y,z
-x,y,-z
-x,-y,-z
x,-y,z
1/2+x,1/2+y,z
1/2-x,1/2+y,-z
1/2-x,1/2-y,-z
1/2+x,1/2-y,z
loop_
_atom_site_type_symbol
_atom_site_label
_atom_site_fract_x
_atom_site_fract_y
_atom_site_fract_z
Si Si1 0.880089 0.300982 0.655030
Si Si2 0.110237 0.207489 0.657347
Si Si3 0.061142 0.292817 0.003043
Si Si4 0.504283 0.299470 0.400401
Si Si5 0.187067 0.705213 0.500773
Si Si6 0.363967 0.708658 0.156683
Si Si7 0.750126 0.293295 0.902968
Si Si8 0.866454 0.287988 0.842815
O O1 0.862374 0.500000 0.664018
O O2 0.941751 0.294724 0.626343
O O3 0.843691 0.223674 0.581265
O O4 0.878205 0.226950 0.748585
O O5 0.154887 0.243981 0.585647
O O6 0.122577 0.270156 0.750409
O O7 0.051534 0.272466 0.632578
O O8 0.106464 0.000000 0.660461
O O9 0.058357 0.500000 0.010636
O O10 0.094377 0.255249 0.917659
O O11 0.093603 0.229748 0.084228
O O12 0.000000 0.227138 0.000000
O O13 0.500000 0.297252 0.500000
O O14 0.510005 0.500000 0.373564
O O15 0.183089 0.500000 0.496757
O O16 0.250000 0.750000 0.500000
O O17 0.362566 0.500000 0.159032
O O18 0.304774 0.773700 0.134765
O O19 0.749816 0.500000 0.892810
O O20 0.806066 0.231379 0.864465
O O21 0.750000 0.250000 0.000000
O O22 0.868533 0.500000 0.844287
#
# Coordination Sequence:
#
# PCOD9187358 Si02
#       8
#     8   8   8   8   8   8   8   8
#     4  10  22  38  60  86 112 149 194 234 278 337
#     4  10  22  40  60  83 116 155 191 231 286 345
#     4  10  21  37  57  81 113 152 188 229 283 338
#     4  10  20  37  60  84 114 149 186 235 290 335
#     4  11  24  40  60  86 117 153 192 236 285 337
#     4  10  22  37  58  85 112 150 190 231 284 337
#     4  10  19  35  59  81 107 143 187 233 282 332
#     4   9  19  36  56  81 112 146 184 230 282 333
#
# _framework density 20.701491999999998
#
# number of rings (size 3 to 8) (size 9 to 14) (size 15 to 20)
#    0.000    2.000    2.500    0.375    3.500    2.000 
#    0.000    1.250    0.000    0.000    0.000    0.000 
#    0.000    0.000    0.000    0.000    0.000    0.000 
#
# Total GULP energy -178619.402333 kJ/mol
# GULP energy per Si atom -5581.856323 kJ/mol
# Density = 2.065437 g / cm^3
# Si number density = 20.701492 Si / 1000 Ang^3
#
#
#
# Elastic Constant Matrix: (Units=GPa)
#
#
# Indices 1 2 3 4 5 6 
#
# 1 202.1042 2.8921 114.8349 0.0000 17.5786 0.0000
# 2 2.8921 28.9120 7.5607 0.0000 5.2495 0.0000
# 3 114.8349 7.5607 193.8106 0.0000 13.6110 0.0000
# 4 0.0000 0.0000 0.0000 13.2284 0.0000 -13.2348
# 5 17.5786 5.2495 13.6110 0.0000 40.3811 0.0000
# 6 0.0000 0.0000 0.0000 -13.2348 0.0000 10.2417
#
#
#
# Elastic Compliance Matrix: (Units=1/GPa)
#
#
# Indices 1 2 3 4 5 6 
#
# 1 0.007604 0.000739 -0.004399 0.000000 -0.001924 0.000000
# 2 0.000739 0.035719 -0.001519 0.000000 -0.004453 0.000000
# 3 -0.004399 -0.001519 0.007863 0.000000 -0.000538 0.000000
# 4 0.000000 0.000000 0.000000 -0.258122 0.000000 -0.333556
# 5 -0.001924 -0.004453 -0.000538 0.000000 0.026362 0.000000
# 6 0.000000 0.000000 0.000000 -0.333556 0.000000 -0.333394
#
#
# Mechanical properties :
#
#
# Convention : Reuss Voigt Hill
#
# Bulk Modulus (GPa) = 24.49221 75.04470 49.76846
# Shear Modulus (GPa) = -10.20409 32.73950 11.26771
#
# Velocity S-wave (km/s) = -2.22258 3.98113 2.33554
# Velocity P-wave (km/s) = 2.29572 7.58037 5.60055
#
# Compressibility (1/GPa) = 0.04082931
#
# Stress axis : x y z
#
# Youngs Moduli (GPa) = 131.50243 27.99596 127.17114
#
# Poissons Ratio (x) = -0.02069 0.55948
# Poissons Ratio (y) = -0.09719 0.19312
# Poissons Ratio (z) = 0.57854 0.04251
#
# Static dielectric constant tensor:
#      x y z
#    x 1.744940 0.000000 0.031960 
#    y 0.000000 1.784980 0.000000 
#    z 0.031960 0.000000 1.727430 
# 
# From -- ./inp_files/238605.got.cif
#   From: 2010.05.17/outbox.cif.g08.bks.cpg/sg12_120_cif.got.tgz:238605.got - 2010.06.03 13:09:07.
