data_PCOD9187891
_publ_section_title
;
Structure prediction by ZEFSAII (Michael W. Deem and Ramdas Pophale) SiO2 
 PCOD9187891
Probable space group: C 2/M
;
_chemical_formula_sum "Si O2"
_cell_formula_units_Z 56
_cell_length_a 18.691227
_cell_length_b 13.420995
_cell_length_c 12.074780
_cell_angle_alpha 90.000000
_cell_angle_beta 103.763563
_cell_angle_gamma 90.000000
_cell_volume 2942.041420
_symmetry_space_group_name_H-M "C 2/M"
_symmetry_group_IT_number 12
_symmetry_cell_setting 'monoclinic'
loop_
_space_group_symop_operation_xyz
x,y,z
-x,y,-z
-x,-y,-z
x,-y,z
1/2+x,1/2+y,z
1/2-x,1/2+y,-z
1/2-x,1/2-y,-z
1/2+x,1/2-y,z
loop_
_atom_site_type_symbol
_atom_site_label
_atom_site_fract_x
_atom_site_fract_y
_atom_site_fract_z
Si Si1 0.677432 0.618086 0.994431
Si Si2 0.929765 0.759060 0.176734
Si Si3 0.426967 0.615605 0.399367
Si Si4 0.283556 0.882719 0.823246
Si Si5 0.954881 0.387347 0.869869
Si Si6 0.289673 0.742344 0.398687
Si Si7 0.699866 0.882989 0.785907
O O1 0.660939 0.500000 0.987862
O O2 0.604524 0.680690 0.939807
O O3 0.734997 0.638143 0.914638
O O4 0.723373 0.640751 0.122460
O O5 0.936788 0.835870 0.281487
O O6 0.866809 0.678428 0.184444
O O7 0.004565 0.698300 0.184548
O O8 0.500000 0.617971 0.500000
O O9 0.403487 0.500000 0.379372
O O10 0.366415 0.684192 0.436313
O O11 0.370308 0.865298 0.867434
O O12 0.254377 0.821858 0.708530
O O13 0.273861 0.000000 0.798267
O O14 0.958319 0.500000 0.821231
O O15 0.000000 0.391220 0.000000
O O16 0.250000 0.750000 0.500000
O O17 0.298072 0.848265 0.340409
O O18 0.687430 0.000000 0.795146
#
# Coordination Sequence:
#
# PCOD9187891 Si02
#       7
#     8   8   8   8   8   8   8
#     4  10  19  35  62  91 115 147 194 241 289 346
#     4  11  20  34  61  86 116 150 195 234 288 346
#     4  10  22  41  63  85 112 151 199 246 290 341
#     4  10  20  37  60  86 115 149 194 239 285 343
#     4  10  22  36  55  86 123 155 183 227 288 351
#     4  11  24  38  61  84 114 153 200 240 289 347
#     4  10  21  35  56  88 120 147 186 240 294 344
#
# _framework density 19.034400999999999
#
# number of rings (size 3 to 8) (size 9 to 14) (size 15 to 20)
#    0.000    1.714    2.857    2.571    4.000    3.429 
#    0.000    0.000    0.000    3.857    0.000    0.000 
#    0.000    0.000    0.000    0.000    0.000    0.000 
#
# Total GULP energy -156382.223368 kJ/mol
# GULP energy per Si atom -5585.079406 kJ/mol
# Density = 1.899108 g / cm^3
# Si number density = 19.034401 Si / 1000 Ang^3
#
#
#
# Elastic Constant Matrix: (Units=GPa)
#
#
# Indices 1 2 3 4 5 6 
#
# 1 55.7280 15.9475 13.4381 0.0000 12.5506 0.0000
# 2 15.9475 99.1019 26.9262 0.0000 2.9039 0.0000
# 3 13.4381 26.9262 63.4742 0.0000 1.7256 0.0000
# 4 0.0000 0.0000 0.0000 19.5744 0.0000 4.5779
# 5 12.5506 2.9039 1.7256 0.0000 32.4788 0.0000
# 6 0.0000 0.0000 0.0000 4.5779 0.0000 22.9333
#
#
#
# Elastic Compliance Matrix: (Units=1/GPa)
#
#
# Indices 1 2 3 4 5 6 
#
# 1 0.021147 -0.002278 -0.003299 0.000000 -0.007793 0.000000
# 2 -0.002278 0.011670 -0.004470 0.000000 0.000075 0.000000
# 3 -0.003299 -0.004470 0.018330 0.000000 0.000700 0.000000
# 4 0.000000 0.000000 0.000000 0.053589 0.000000 -0.010697
# 5 -0.007793 0.000075 0.000700 0.000000 0.033757 0.000000
# 6 0.000000 0.000000 0.000000 -0.010697 0.000000 0.045740
#
#
# Mechanical properties :
#
#
# Convention : Reuss Voigt Hill
#
# Bulk Modulus (GPa) = 32.20375 36.76975 34.48675
# Shear Modulus (GPa) = 23.29086 25.79679 24.54383
#
# Velocity S-wave (km/s) = 3.50182 3.68540 3.59478
# Velocity P-wave (km/s) = 5.77112 6.12119 5.94873
#
# Compressibility (1/GPa) = 0.03105228
#
# Stress axis : x y z
#
# Youngs Moduli (GPa) = 47.28875 85.69296 54.55561
#
# Poissons Ratio (x) = 0.19524 0.17996
# Poissons Ratio (y) = 0.10774 0.24386
# Poissons Ratio (z) = 0.15599 0.38305
#
# Static dielectric constant tensor:
#      x y z
#    x 1.673750 0.000000 0.001290 
#    y 0.000000 1.696930 0.000000 
#    z 0.001290 0.000000 1.642770 
# 
# From -- ./inp_files/156160.got.cif
#   From: 2010.05.17/outbox.cif.g08.bks.cpg/sg12_79_cif.got.tgz:156160.got - 2010.06.03 13:09:07.
