data_PCOD9187002
_publ_section_title
;
Structure prediction by ZEFSAII (Michael W. Deem and Ramdas Pophale) SiO2 
 PCOD9187002
Probable space group: C 2/M
;
_chemical_formula_sum "Si O2"
_cell_formula_units_Z 48
_cell_length_a 22.768486
_cell_length_b 11.865877
_cell_length_c 7.123296
_cell_angle_alpha 90.000000
_cell_angle_beta 117.536876
_cell_angle_gamma 90.000000
_cell_volume 1706.468554
_symmetry_space_group_name_H-M "C 2/M"
_symmetry_group_IT_number 12
_symmetry_cell_setting 'monoclinic'
loop_
_space_group_symop_operation_xyz
x,y,z
-x,y,-z
-x,-y,-z
x,-y,z
1/2+x,1/2+y,z
1/2-x,1/2+y,-z
1/2-x,1/2-y,-z
1/2+x,1/2-y,z
loop_
_atom_site_type_symbol
_atom_site_label
_atom_site_fract_x
_atom_site_fract_y
_atom_site_fract_z
Si Si1 0.742279 0.621328 0.924473
Si Si2 0.084505 0.348491 0.444532
Si Si3 0.219384 0.622754 0.428855
Si Si4 0.567958 0.123692 0.869013
Si Si5 0.937884 0.873269 0.044127
Si Si6 0.588942 0.383692 0.576915
O O1 0.756009 0.500000 0.046755
O O2 0.785724 0.617644 0.802155
O O3 0.664995 0.616870 0.758039
O O4 0.750000 0.750000 0.000000
O O5 0.151316 0.383110 0.442355
O O6 0.088275 0.370740 0.676198
O O7 0.083441 0.215348 0.427269
O O8 0.012832 0.381399 0.260942
O O9 0.255006 0.500000 0.525515
O O10 0.250000 0.750000 0.500000
O O11 0.588559 0.241693 0.000770
O O12 0.587056 0.000000 0.972723
O O13 0.951240 0.873611 0.289287
O O14 0.904564 0.000000 0.969778
O O15 0.000000 0.875196 0.000000
O O16 0.576010 0.500000 0.460196
#
# Coordination Sequence:
#
# PCOD9187002 Si02
#       6
#     8   8   8   8   8   8
#     4  10  22  40  56  80 113 149 188 234 286 341
#     4  10  19  35  57  82 112 146 183 229 286 336
#     4  11  22  37  59  85 113 146 191 238 282 337
#     4  10  20  34  54  83 115 145 178 229 285 334
#     4   9  19  35  54  77 106 146 189 227 272 332
#     4   9  18  35  56  77 110 147 185 234 283 333
#
# _framework density 28.128267000000001
#
# number of rings (size 3 to 8) (size 9 to 14) (size 15 to 20)
#    0.000    2.167    1.667    2.000    0.000    3.000 
#    0.000    4.167    0.000    0.000    0.000    0.000 
#    0.000    0.000    0.000    0.000    0.000    0.000 
#
# Total GULP energy -133995.068619 kJ/mol
# GULP energy per Si atom -5583.127859 kJ/mol
# Density = 2.806425 g / cm^3
# Si number density = 28.128267 Si / 1000 Ang^3
#
#
#
# Elastic Constant Matrix: (Units=GPa)
#
#
# Indices 1 2 3 4 5 6 
#
# 1 167.6397 56.7222 43.3791 0.0000 -26.3624 0.0000
# 2 56.7222 397.4718 50.2983 0.0000 6.8657 0.0000
# 3 43.3791 50.2983 83.8064 0.0000 -22.0234 0.0000
# 4 0.0000 0.0000 0.0000 17.3419 0.0000 15.3544
# 5 -26.3624 6.8657 -22.0234 0.0000 41.9063 0.0000
# 6 0.0000 0.0000 0.0000 15.3544 0.0000 27.2047
#
#
#
# Elastic Compliance Matrix: (Units=1/GPa)
#
#
# Indices 1 2 3 4 5 6 
#
# 1 0.007423 -0.000813 -0.002427 0.000000 0.003527 0.000000
# 2 -0.000813 0.002897 -0.001830 0.000000 -0.001948 0.000000
# 3 -0.002427 -0.001830 0.016202 0.000000 0.007288 0.000000
# 4 0.000000 0.000000 0.000000 0.115262 0.000000 -0.065054
# 5 0.003527 -0.001948 0.007288 0.000000 0.030231 0.000000
# 6 0.000000 0.000000 0.000000 -0.065054 0.000000 0.073475
#
#
# Mechanical properties :
#
#
# Convention : Reuss Voigt Hill
#
# Bulk Modulus (GPa) = 61.04355 105.52411 83.28383
# Shear Modulus (GPa) = 19.15038 50.52513 34.83775
#
# Velocity S-wave (km/s) = 2.61209 4.24281 3.52310
# Velocity P-wave (km/s) = 5.55395 7.84848 6.79871
#
# Compressibility (1/GPa) = 0.01638175
#
# Stress axis : x y z
#
# Youngs Moduli (GPa) = 134.71491 345.16933 61.72099
#
# Poissons Ratio (x) = 0.28065 0.14982
# Poissons Ratio (y) = 0.10953 0.11293
# Poissons Ratio (z) = 0.32700 0.63158
#
# Static dielectric constant tensor:
#      x y z
#    x 2.413110 0.000000 0.064650 
#    y 0.000000 2.293150 0.000000 
#    z 0.064650 0.000000 2.191570 
# 
# From -- ./inp_files/94525.got.cif
#   From: 2010.05.17/outbox.cif.g08.bks.cpg/sg12_48_cif.got.tgz:94525.got - 2010.06.03 13:09:07.
