data_PCOD9187912
_publ_section_title
;
Structure prediction by ZEFSAII (Michael W. Deem and Ramdas Pophale) SiO2 
 PCOD9187912
Probable space group: C 2/M
;
_chemical_formula_sum "Si O2"
_cell_formula_units_Z 48
_cell_length_a 14.687900
_cell_length_b 18.667432
_cell_length_c 14.755300
_cell_angle_alpha 90.000000
_cell_angle_beta 143.334570
_cell_angle_gamma 90.000000
_cell_volume 2415.846980
_symmetry_space_group_name_H-M "C 2/M"
_symmetry_group_IT_number 12
_symmetry_cell_setting 'monoclinic'
loop_
_space_group_symop_operation_xyz
x,y,z
-x,y,-z
-x,-y,-z
x,-y,z
1/2+x,1/2+y,z
1/2-x,1/2+y,-z
1/2-x,1/2-y,-z
1/2+x,1/2-y,z
loop_
_atom_site_type_symbol
_atom_site_label
_atom_site_fract_x
_atom_site_fract_y
_atom_site_fract_z
Si Si1 0.145615 0.229216 0.683655
Si Si2 0.420433 0.833030 0.797916
Si Si3 0.241453 0.335383 0.505358
Si Si4 0.813677 0.580535 0.066556
Si Si5 0.059560 0.616110 0.638483
Si Si6 0.449045 0.688016 0.187937
O O1 0.305054 0.190606 0.785163
O O2 0.163567 0.315514 0.694760
O O3 0.101896 0.210289 0.751511
O O4 0.000000 0.212585 0.500000
O O5 0.299799 0.862354 0.626746
O O6 0.555485 0.891125 0.898814
O O7 0.503859 0.759695 0.829372
O O8 0.250000 0.250000 0.500000
O O9 0.397527 0.358029 0.675123
O O10 0.096494 0.350227 0.449187
O O11 0.766196 0.500000 0.004157
O O12 0.873455 0.579541 0.218569
O O13 0.681111 0.639607 0.958465
O O14 0.000000 0.577746 0.500000
#
# Coordination Sequence:
#
# PCOD9187912 Si02
#       6
#     8   8   8   8   8   8
#     4  11  18  32  66  99 119 143 197 268 308 352
#     4  10  20  36  61  92 120 156 205 248 299 360
#     4   9  14  31  56  86 122 144 189 250 297 356
#     4  11  25  42  57  82 130 172 201 244 303 362
#     4  10  19  35  62  93 117 154 200 256 311 361
#     4  11  19  37  60  91 123 155 202 252 309 353
#
# _framework density 19.868808000000001
#
# number of rings (size 3 to 8) (size 9 to 14) (size 15 to 20)
#    0.000    1.667    6.667    3.500    0.000    1.000 
#    0.000    7.500    0.000    8.000    0.000    0.000 
#    0.000    0.000    0.000    0.000    0.000    0.000 
#
# Total GULP energy -133603.861871 kJ/mol
# GULP energy per Si atom -5566.827578 kJ/mol
# Density = 1.982359 g / cm^3
# Si number density = 19.868808 Si / 1000 Ang^3
#
#
#
# Elastic Constant Matrix: (Units=GPa)
#
#
# Indices 1 2 3 4 5 6 
#
# 1 78.2417 12.3198 17.2042 0.0001 -5.2323 0.0001
# 2 12.3198 61.0585 31.4531 0.0000 -2.9380 0.0000
# 3 17.2042 31.4531 75.9521 0.0001 9.9986 0.0001
# 4 0.0001 0.0000 0.0001 1.4732 0.0001 -4.6747
# 5 -5.2323 -2.9380 9.9986 0.0001 26.4864 0.0001
# 6 0.0001 0.0000 0.0001 -4.6747 0.0001 3.3257
#
#
#
# Elastic Compliance Matrix: (Units=1/GPa)
#
#
# Indices 1 2 3 4 5 6 
#
# 1 0.013907 -0.000932 -0.003275 0.000001 0.003880 0.000000
# 2 -0.000932 0.021782 -0.009579 0.000000 0.005848 0.000000
# 3 -0.003275 -0.009579 0.019046 0.000000 -0.008899 0.000000
# 4 0.000001 0.000000 0.000000 -0.196169 0.000001 -0.275737
# 5 0.003880 0.005848 -0.008899 0.000001 0.042530 0.000001
# 6 0.000000 0.000000 0.000000 -0.275737 0.000001 -0.086895
#
#
# Mechanical properties :
#
#
# Convention : Reuss Voigt Hill
#
# Bulk Modulus (GPa) = 36.81469 37.46740 37.14105
# Shear Modulus (GPa) = -33.51843 16.54207 -8.48818
#
# Velocity S-wave (km/s) = -4.11175 2.88855 -2.06915
# Velocity P-wave (km/s) = 1.99321 5.47935 3.60905
#
# Compressibility (1/GPa) = 0.02716307
#
# Stress axis : x y z
#
# Youngs Moduli (GPa) = 71.90474 45.91038 52.50367
#
# Poissons Ratio (x) = 0.04281 0.17194
# Poissons Ratio (y) = 0.06704 0.50292
# Poissons Ratio (z) = 0.23548 0.43976
#
# Static dielectric constant tensor:
#      x y z
#    x 1.729410 0.000000 -0.043830 
#    y 0.000000 1.692410 0.000000 
#    z -0.043830 0.000000 1.808270 
# 
# From -- ./inp_files/216474.got.cif
#   From: 2010.05.17/outbox.cif.g08.bks.cpg/sg12_109_cif.got.tgz:216474.got - 2010.06.03 13:09:07.
