data_PCOD9187360
_publ_section_title
;
Structure prediction by ZEFSAII (Michael W. Deem and Ramdas Pophale) SiO2 
 PCOD9187360
Probable space group: C 2/M
;
_chemical_formula_sum "Si O2"
_cell_formula_units_Z 40
_cell_length_a 30.564662
_cell_length_b 15.669525
_cell_length_c 5.273627
_cell_angle_alpha 90.000000
_cell_angle_beta 123.658105
_cell_angle_gamma 90.000000
_cell_volume 2102.305535
_symmetry_space_group_name_H-M "C 2/M"
_symmetry_group_IT_number 12
_symmetry_cell_setting 'monoclinic'
loop_
_space_group_symop_operation_xyz
x,y,z
-x,y,-z
-x,-y,-z
x,-y,z
1/2+x,1/2+y,z
1/2-x,1/2+y,-z
1/2-x,1/2-y,-z
1/2+x,1/2-y,z
loop_
_atom_site_type_symbol
_atom_site_label
_atom_site_fract_x
_atom_site_fract_y
_atom_site_fract_z
Si Si1 0.310102 0.242827 0.266220
Si Si2 0.058781 0.132346 0.639802
Si Si3 0.376348 0.099408 0.682889
Si Si4 0.125741 0.905093 0.357599
Si Si5 0.094808 0.683098 0.718136
O O1 0.325187 0.160347 0.484704
O O2 0.333028 0.328538 0.467267
O O3 0.347147 0.225065 0.140545
O O4 0.250000 0.250000 0.000000
O O5 0.084665 0.101643 0.460210
O O6 0.058080 0.235366 0.620061
O O7 0.000000 0.100943 0.500000
O O8 0.095050 0.108089 0.995467
O O9 0.411912 0.128068 0.557893
O O10 0.363962 0.000000 0.633591
O O11 0.404080 0.125822 0.031186
O O12 0.149425 0.000000 0.437336
#
# Coordination Sequence:
#
# PCOD9187360 Si02
#       5
#     8   8   8   8   8
#     4   9  21  38  59  81 118 152 192 232 294 337
#     4  11  21  39  63  85 115 157 193 234 294 350
#     4  10  19  35  59  81 109 145 188 230 281 336
#     4  11  23  39  56  88 122 151 193 243 283 338
#     4   9  19  37  56  83 113 146 185 237 282 333
#
# _framework density 19.026729
#
# number of rings (size 3 to 8) (size 9 to 14) (size 15 to 20)
#    1.200    0.800    2.000    1.800    0.000    4.000 
#    0.000    0.000    0.000    3.600    0.000    0.000 
#    0.000    0.000    0.000    0.000    0.000    0.000 
#
# Total GULP energy -111421.684661 kJ/mol
# GULP energy per Si atom -5571.084233 kJ/mol
# Density = 1.898342 g / cm^3
# Si number density = 19.026729 Si / 1000 Ang^3
#
#
#
# Elastic Constant Matrix: (Units=GPa)
#
#
# Indices 1 2 3 4 5 6 
#
# 1 49.6585 10.4455 26.1552 0.0000 -10.2807 0.0000
# 2 10.4455 172.9606 28.1556 0.0000 -5.7824 0.0000
# 3 26.1552 28.1556 62.0860 0.0000 -28.2877 0.0000
# 4 0.0000 0.0000 0.0000 19.8519 0.0000 -34.0538
# 5 -10.2807 -5.7824 -28.2877 0.0000 39.4097 0.0000
# 6 0.0000 0.0000 0.0000 -34.0538 0.0000 55.9197
#
#
#
# Elastic Compliance Matrix: (Units=1/GPa)
#
#
# Indices 1 2 3 4 5 6 
#
# 1 0.025962 0.000303 -0.011841 0.000000 -0.001682 0.000000
# 2 0.000303 0.006320 -0.003767 0.000000 -0.001698 0.000000
# 3 -0.011841 -0.003767 0.031420 0.000000 0.018911 0.000000
# 4 0.000000 0.000000 0.000000 -1.128551 0.000000 -0.687261
# 5 -0.001682 -0.001698 0.018911 0.000000 0.038260 0.000000
# 6 0.000000 0.000000 0.000000 -0.687261 0.000000 -0.400643
#
#
# Mechanical properties :
#
#
# Convention : Reuss Voigt Hill
#
# Bulk Modulus (GPa) = 30.21933 46.02421 38.12177
# Shear Modulus (GPa) = -3.60857 37.69952 17.04547
#
# Velocity S-wave (km/s) = -1.37866 4.45612 2.99636
# Velocity P-wave (km/s) = 3.65825 7.12164 5.66130
#
# Compressibility (1/GPa) = 0.03309140
#
# Stress axis : x y z
#
# Youngs Moduli (GPa) = 38.51745 158.23158 31.82706
#
# Poissons Ratio (x) = -0.04801 0.37688
# Poissons Ratio (y) = -0.01169 0.11990
# Poissons Ratio (z) = 0.45610 0.59611
#
# Static dielectric constant tensor:
#      x y z
#    x 1.669180 0.000000 -0.016590 
#    y 0.000000 1.691320 0.000000 
#    z -0.016590 0.000000 1.636920 
# 
# From -- ./inp_files/27839.got.cif
#   From: 2010.05.17/outbox.cif.g08.bks.cpg/sg12_14_cif.got.tgz:27839.got - 2010.06.03 13:09:07.
