data_PCOD9187738
_publ_section_title
;
Structure prediction by ZEFSAII (Michael W. Deem and Ramdas Pophale) SiO2 
 PCOD9187738
Probable space group: C 2/M
;
_chemical_formula_sum "Si O2"
_cell_formula_units_Z 56
_cell_length_a 18.141222
_cell_length_b 10.946509
_cell_length_c 16.368512
_cell_angle_alpha 90.000000
_cell_angle_beta 64.401096
_cell_angle_gamma 90.000000
_cell_volume 2931.441641
_symmetry_space_group_name_H-M "C 2/M"
_symmetry_group_IT_number 12
_symmetry_cell_setting 'monoclinic'
loop_
_space_group_symop_operation_xyz
x,y,z
-x,y,-z
-x,-y,-z
x,-y,z
1/2+x,1/2+y,z
1/2-x,1/2+y,-z
1/2-x,1/2-y,-z
1/2+x,1/2-y,z
loop_
_atom_site_type_symbol
_atom_site_label
_atom_site_fract_x
_atom_site_fract_y
_atom_site_fract_z
Si Si1 0.189382 0.353079 0.992640
Si Si2 0.460813 0.859489 0.666788
Si Si3 0.259841 0.257291 0.618695
Si Si4 0.164861 0.354821 0.811881
Si Si5 0.584896 0.367777 0.409394
Si Si6 0.854328 0.631606 0.453927
Si Si7 0.484573 0.854702 0.848106
O O1 0.204059 0.500000 0.006707
O O2 0.188827 0.345644 0.894766
O O3 0.250000 0.250000 0.000000
O O4 0.098549 0.317493 0.067485
O O5 0.410895 0.749151 0.651580
O O6 0.549642 0.852784 0.581358
O O7 0.476027 0.834487 0.755280
O O8 0.430696 0.000000 0.672574
O O9 0.223019 0.276835 0.725138
O O10 0.334353 0.354627 0.573632
O O11 0.185750 0.277395 0.591213
O O12 0.306556 0.139631 0.561905
O O13 0.170712 0.500000 0.786320
O O14 0.071482 0.311216 0.841185
O O15 0.500000 0.364550 0.500000
O O16 0.587928 0.500000 0.365552
O O17 0.843489 0.500000 0.419490
O O18 0.488135 0.000000 0.858686
#
# Coordination Sequence:
#
# PCOD9187738 Si02
#       7
#     8   8   8   8   8   8   8
#     4  10  22  39  61  90 118 147 183 233 289 341
#     4  10  20  37  59  81 108 147 190 234 281 330
#     4  11  21  35  55  81 112 151 188 235 279 334
#     4  10  19  35  61  85 108 146 196 239 277 329
#     4  11  23  36  50  77 116 154 186 227 281 338
#     4  10  20  36  57  81 110 148 193 239 281 325
#     4   9  18  36  61  86 110 140 189 242 280 322
#
# _framework density 19.103228000000001
#
# number of rings (size 3 to 8) (size 9 to 14) (size 15 to 20)
#    0.000    1.857    2.857    1.714    2.000    2.571 
#    0.000    0.714    0.000    3.429    0.000    0.000 
#    0.000    0.000    0.000    0.000    0.000    0.000 
#
# Total GULP energy -155919.068259 kJ/mol
# GULP energy per Si atom -5568.538152 kJ/mol
# Density = 1.905975 g / cm^3
# Si number density = 19.103228 Si / 1000 Ang^3
#
#
#
# Elastic Constant Matrix: (Units=GPa)
#
#
# Indices 1 2 3 4 5 6 
#
# 1 86.2157 34.0258 36.6454 0.0000 -3.5632 0.0000
# 2 34.0258 79.2176 33.8021 0.0000 16.2805 0.0000
# 3 36.6454 33.8021 92.1731 0.0000 -10.7489 0.0000
# 4 0.0000 0.0000 0.0000 21.3004 0.0000 1.6626
# 5 -3.5632 16.2805 -10.7489 0.0000 21.8596 0.0000
# 6 0.0000 0.0000 0.0000 1.6626 0.0000 19.9770
#
#
#
# Elastic Compliance Matrix: (Units=1/GPa)
#
#
# Indices 1 2 3 4 5 6 
#
# 1 0.015823 -0.006699 -0.003131 0.000000 0.006029 0.000000
# 2 -0.006699 0.024124 -0.008917 0.000000 -0.023444 0.000000
# 3 -0.003131 -0.008917 0.017057 0.000000 0.014519 0.000000
# 4 0.000000 0.000000 0.000000 0.047255 0.000000 -0.003933
# 5 0.006029 -0.023444 0.014519 0.000000 0.071329 0.000000
# 6 0.000000 0.000000 0.000000 -0.003933 0.000000 0.050385
#
#
# Mechanical properties :
#
#
# Convention : Reuss Voigt Hill
#
# Bulk Modulus (GPa) = 51.25840 51.83921 51.54881
# Shear Modulus (GPa) = 18.52054 22.83626 20.67840
#
# Velocity S-wave (km/s) = 3.11705 3.46123 3.29364
# Velocity P-wave (km/s) = 6.31231 6.57029 6.44259
#
# Compressibility (1/GPa) = 0.01950900
#
# Stress axis : x y z
#
# Youngs Moduli (GPa) = 63.20043 41.45214 58.62650
#
# Poissons Ratio (x) = 0.27771 0.18354
# Poissons Ratio (y) = 0.42341 0.52279
# Poissons Ratio (z) = 0.19786 0.36964
#
# Static dielectric constant tensor:
#      x y z
#    x 1.705770 0.000000 0.002610 
#    y 0.000000 1.694870 0.000000 
#    z 0.002610 0.000000 1.693090 
# 
# From -- ./inp_files/223174.got.cif
#   From: 2010.05.17/outbox.cif.g08.bks.cpg/sg12_112_cif.got.tgz:223174.got - 2010.06.03 13:09:07.
