data_PCOD9187878
_publ_section_title
;
Structure prediction by ZEFSAII (Michael W. Deem and Ramdas Pophale) SiO2 
 PCOD9187878
Probable space group: C 2/M
;
_chemical_formula_sum "Si O2"
_cell_formula_units_Z 42
_cell_length_a 19.171880
_cell_length_b 7.381071
_cell_length_c 12.285771
_cell_angle_alpha 90.000000
_cell_angle_beta 111.719013
_cell_angle_gamma 90.000000
_cell_volume 1615.127484
_symmetry_space_group_name_H-M "C 2/M"
_symmetry_group_IT_number 12
_symmetry_cell_setting 'monoclinic'
loop_
_space_group_symop_operation_xyz
x,y,z
-x,y,-z
-x,-y,-z
x,-y,z
1/2+x,1/2+y,z
1/2-x,1/2+y,-z
1/2-x,1/2-y,-z
1/2+x,1/2-y,z
loop_
_atom_site_type_symbol
_atom_site_label
_atom_site_fract_x
_atom_site_fract_y
_atom_site_fract_z
Si Si1 0.167092 0.778540 0.578186
Si Si2 0.500000 0.000000 0.000000
Si Si3 0.205537 0.294549 0.186841
Si Si4 0.055913 0.216285 0.688956
Si Si5 0.893867 0.203676 0.055544
Si Si6 0.105883 0.219499 0.321138
O O1 0.233826 0.714225 0.694733
O O2 0.091140 0.720679 0.596674
O O3 0.162427 0.722465 0.450349
O O4 0.169941 0.000000 0.578266
O O5 0.549149 0.843565 0.963941
O O6 0.228452 0.500000 0.175848
O O7 0.181099 0.207206 0.060249
O O8 0.131157 0.296235 0.220631
O O9 0.975930 0.280531 0.686314
O O10 0.046753 0.000000 0.669007
O O11 0.114391 0.247029 0.821376
O O12 0.925641 0.000000 0.069924
O O13 0.106347 0.000000 0.312666
#
# Coordination Sequence:
#
# PCOD9187878 Si02
#       6
#     8   2   8   8   8   8
#     4   9  19  36  60  89 122 166 214 257 320 382
#     4  12  22  40  64  94 134 160 204 262 308 374
#     4  11  22  37  58  88 129 169 208 262 313 376
#     4   9  19  36  61  91 122 160 210 265 316 379
#     4  11  23  39  63  95 129 168 207 257 315 373
#     4  10  19  35  62  89 118 160 212 268 321 375
#
# _framework density 26.00414
#
# number of rings (size 3 to 8) (size 9 to 14) (size 15 to 20)
#    0.000    1.905    0.952    3.143    0.000    4.571 
#    0.000    0.952    6.286    1.143    0.000    0.000 
#    0.000    0.000    0.000    0.000    0.000    0.000 
#
# Total GULP energy -117281.721278 kJ/mol
# GULP energy per Si atom -5584.843870 kJ/mol
# Density = 2.594495 g / cm^3
# Si number density = 26.004140 Si / 1000 Ang^3
#
#
#
# Elastic Constant Matrix: (Units=GPa)
#
#
# Indices 1 2 3 4 5 6 
#
# 1 55.0735 -16.7843 9.0026 0.0000 1.3595 0.0000
# 2 -16.7843 121.9719 6.5090 0.0000 -6.5163 0.0000
# 3 9.0026 6.5090 131.8769 0.0000 6.3651 0.0000
# 4 0.0000 0.0000 0.0000 9.1664 0.0000 5.0678
# 5 1.3595 -6.5163 6.3651 0.0000 37.3525 0.0000
# 6 0.0000 0.0000 0.0000 5.0678 0.0000 12.8050
#
#
#
# Elastic Compliance Matrix: (Units=1/GPa)
#
#
# Indices 1 2 3 4 5 6 
#
# 1 0.019224 0.002724 -0.001448 0.000000 0.000022 0.000000
# 2 0.002724 0.008692 -0.000689 0.000000 0.001535 0.000000
# 3 -0.001448 -0.000689 0.007783 0.000000 -0.001394 0.000000
# 4 0.000000 0.000000 0.000000 0.139651 0.000000 -0.055270
# 5 0.000022 0.001535 -0.001394 0.000000 0.027276 0.000000
# 6 0.000000 0.000000 0.000000 -0.055270 0.000000 0.099969
#
#
# Mechanical properties :
#
#
# Convention : Reuss Voigt Hill
#
# Bulk Modulus (GPa) = 27.12028 34.04189 30.58108
# Shear Modulus (GPa) = 15.93816 32.54444 24.24130
#
# Velocity S-wave (km/s) = 2.47839 3.54151 3.05652
# Velocity P-wave (km/s) = 4.31760 5.46282 4.92362
#
# Compressibility (1/GPa) = 0.03687278
#
# Stress axis : x y z
#
# Youngs Moduli (GPa) = 52.01891 115.04594 128.48606
#
# Poissons Ratio (x) = -0.31336 0.18603
# Poissons Ratio (y) = -0.14169 0.08853
# Poissons Ratio (z) = 0.07531 0.07927
#
# Static dielectric constant tensor:
#      x y z
#    x 2.076390 0.000000 0.106590 
#    y 0.000000 2.013780 0.000000 
#    z 0.106590 0.000000 2.032880 
# 
# From -- ./inp_files/162988.got.cif
#   From: 2010.05.17/outbox.cif.g08.bks.cpg/sg12_82_cif.got.tgz:162988.got - 2010.06.03 13:09:07.
