data_PCOD9187512
_publ_section_title
;
Structure prediction by ZEFSAII (Michael W. Deem and Ramdas Pophale) SiO2 
 PCOD9187512
Probable space group: C 2/M
;
_chemical_formula_sum "Si O2"
_cell_formula_units_Z 58
_cell_length_a 12.525558
_cell_length_b 14.445369
_cell_length_c 23.977624
_cell_angle_alpha 90.000000
_cell_angle_beta 49.579844
_cell_angle_gamma 90.000000
_cell_volume 3302.885743
_symmetry_space_group_name_H-M "C 2/M"
_symmetry_group_IT_number 12
_symmetry_cell_setting 'monoclinic'
loop_
_space_group_symop_operation_xyz
x,y,z
-x,y,-z
-x,-y,-z
x,-y,z
1/2+x,1/2+y,z
1/2-x,1/2+y,-z
1/2-x,1/2-y,-z
1/2+x,1/2-y,z
loop_
_atom_site_type_symbol
_atom_site_label
_atom_site_fract_x
_atom_site_fract_y
_atom_site_fract_z
Si Si1 0.500000 0.500000 0.500000
Si Si2 0.456197 0.605242 0.732153
Si Si3 0.154442 0.100657 0.349891
Si Si4 0.720204 0.357639 0.019021
Si Si5 0.397812 0.761580 0.246639
Si Si6 0.910540 0.797604 0.118417
Si Si7 0.160128 0.396845 0.138077
Si Si8 0.664191 0.103650 0.897228
O O1 0.566752 0.579286 0.434894
O O2 0.505103 0.500000 0.726106
O O3 0.443254 0.620015 0.670428
O O4 0.549635 0.681204 0.730564
O O5 0.299251 0.611654 0.810991
O O6 0.269345 0.179954 0.314176
O O7 0.224982 0.000000 0.312324
O O8 0.551189 0.359279 0.071609
O O9 0.775110 0.388648 0.060647
O O10 0.750000 0.250000 0.000000
O O11 0.797339 0.403034 0.941017
O O12 0.363930 0.718328 0.197822
O O13 0.526442 0.831651 0.191614
O O14 0.790420 0.847810 0.124328
O O15 0.928621 0.693914 0.085820
O O16 0.135548 0.500000 0.168321
O O17 0.602609 0.000000 0.910406
#
# Coordination Sequence:
#
# PCOD9187512 Si02
#       8
#     2   8   8   8   8   8   8   8
#     4   8  20  40  64 104 118 152 186 222 292 360
#     4  10  19  35  59  87 117 151 193 235 280 353
#     4   9  19  37  65  87 125 148 184 231 283 349
#     4  12  22  40  54  72 113 153 198 262 299 350
#     4  12  20  38  61  89 114 157 197 244 293 342
#     4  12  22  38  56  76 112 151 197 250 297 341
#     4  12  26  38  54  81 113 151 208 253 305 351
#     4  11  22  37  56  81 105 148 202 248 293 349
#
# _framework density 17.560402
#
# number of rings (size 3 to 8) (size 9 to 14) (size 15 to 20)
#    0.414    0.552    6.897    1.241    0.000    2.759 
#    0.000    1.379    0.000    0.000    0.000    0.483 
#    0.000    0.000    0.000    0.000    0.000    0.000 
#
# Total GULP energy -161687.444619 kJ/mol
# GULP energy per Si atom -5575.429125 kJ/mol
# Density = 1.752043 g / cm^3
# Si number density = 17.560402 Si / 1000 Ang^3
#
#
#
# Elastic Constant Matrix: (Units=GPa)
#
#
# Indices 1 2 3 4 5 6 
#
# 1 60.7400 32.5798 48.2801 0.0000 10.3378 0.0000
# 2 32.5798 110.5110 35.1309 0.0000 7.3091 0.0000
# 3 48.2801 35.1309 127.6483 0.0000 13.0087 0.0000
# 4 0.0000 0.0000 0.0000 -17.1320 0.0000 24.8971
# 5 10.3378 7.3091 13.0087 0.0000 7.3837 0.0000
# 6 0.0000 0.0000 0.0000 24.8971 0.0000 2.5913
#
#
#
# Elastic Compliance Matrix: (Units=1/GPa)
#
#
# Indices 1 2 3 4 5 6 
#
# 1 0.028530 -0.004620 -0.007209 0.000000 -0.022671 0.000000
# 2 -0.004620 0.010896 -0.000989 0.000000 -0.002575 0.000000
# 3 -0.007209 -0.000989 0.011828 0.000000 -0.009767 0.000000
# 4 0.000000 0.000000 0.000000 -0.003901 0.000000 0.037481
# 5 -0.022671 -0.002575 -0.009767 0.000000 0.186932 0.000000
# 6 0.000000 0.000000 0.000000 0.037481 0.000000 0.025791
#
#
# Mechanical properties :
#
#
# Convention : Reuss Voigt Hill
#
# Bulk Modulus (GPa) = 39.03434 58.98677 49.01056
# Shear Modulus (GPa) = 16.99227 10.76249 13.87738
#
# Velocity S-wave (km/s) = 3.11408 2.47833 2.81422
# Velocity P-wave (km/s) = 5.93353 6.46941 6.20726
#
# Compressibility (1/GPa) = 0.02561847
#
# Stress axis : x y z
#
# Youngs Moduli (GPa) = 35.05022 91.78081 84.54361
#
# Poissons Ratio (x) = 0.42402 0.60949
# Poissons Ratio (y) = 0.16193 0.08360
# Poissons Ratio (z) = 0.25268 0.09076
#
# Static dielectric constant tensor:
#      x y z
#    x 1.621250 0.000000 -0.004160 
#    y 0.000000 1.553520 0.000000 
#    z -0.004160 0.000000 1.583020 
# 
# From -- ./inp_files/305392.got.cif
#   From: 2010.05.17/outbox.cif.g08.bks.cpg/sg12_153_cif.got.tgz:305392.got - 2010.06.03 13:09:07.
