data_PCOD9187455
_publ_section_title
;
Structure prediction by ZEFSAII (Michael W. Deem and Ramdas Pophale) SiO2 
 PCOD9187455
Probable space group: C 2/M
;
_chemical_formula_sum "Si O2"
_cell_formula_units_Z 56
_cell_length_a 23.292554
_cell_length_b 7.588207
_cell_length_c 17.873323
_cell_angle_alpha 90.000000
_cell_angle_beta 129.748043
_cell_angle_gamma 90.000000
_cell_volume 2428.907221
_symmetry_space_group_name_H-M "C 2/M"
_symmetry_group_IT_number 12
_symmetry_cell_setting 'monoclinic'
loop_
_space_group_symop_operation_xyz
x,y,z
-x,y,-z
-x,-y,-z
x,-y,z
1/2+x,1/2+y,z
1/2-x,1/2+y,-z
1/2-x,1/2-y,-z
1/2+x,1/2-y,z
loop_
_atom_site_type_symbol
_atom_site_label
_atom_site_fract_x
_atom_site_fract_y
_atom_site_fract_z
Si Si1 0.331657 0.198391 0.535303
Si Si2 0.669034 0.704379 0.745400
Si Si3 0.332505 0.713418 0.838899
Si Si4 0.602109 0.286558 0.255146
Si Si5 0.076779 0.701411 0.528810
Si Si6 0.665740 0.711360 0.906443
Si Si7 0.555287 0.284945 0.943845
O O1 0.250000 0.250000 0.500000
O O2 0.383713 0.210362 0.651797
O O3 0.377886 0.283065 0.504306
O O4 0.318709 0.000000 0.498180
O O5 0.646330 0.500000 0.721547
O O6 0.758490 0.715443 0.815274
O O7 0.633751 0.799408 0.645474
O O8 0.647225 0.778491 0.808256
O O9 0.329886 0.500000 0.840242
O O10 0.335754 0.763120 0.754515
O O11 0.406445 0.768909 0.946405
O O12 0.601892 0.500000 0.262389
O O13 0.525633 0.230348 0.151629
O O14 0.056397 0.500000 0.489470
O O15 0.000000 0.780251 0.500000
O O16 0.658004 0.500000 0.896459
O O17 0.611683 0.773593 0.926210
O O18 0.750000 0.750000 0.000000
O O19 0.552249 0.500000 0.944577
#
# Coordination Sequence:
#
# PCOD9187455 Si02
#       7
#     8   8   8   8   8   8   8
#     4  11  24  43  65  89 117 154 200 247 300 358
#     4  11  23  36  57  89 119 149 190 240 293 343
#     4  10  19  35  59  85 115 158 198 228 275 345
#     4  10  21  36  60  89 115 148 193 241 288 341
#     4  10  24  45  65  86 115 155 202 248 297 358
#     4  10  20  35  55  83 116 152 191 231 278 338
#     4   9  18  34  56  82 115 151 190 233 276 333
#
# _framework density 23.055637000000001
#
# number of rings (size 3 to 8) (size 9 to 14) (size 15 to 20)
#    0.000    1.857    1.429    2.143    2.000    7.714 
#    0.000    1.429    0.000    1.714    0.000    0.000 
#    0.000    0.000    0.000    0.000    0.000    0.000 
#
# Total GULP energy -156313.830978 kJ/mol
# GULP energy per Si atom -5582.636821 kJ/mol
# Density = 2.300316 g / cm^3
# Si number density = 23.055637 Si / 1000 Ang^3
#
#
#
# Elastic Constant Matrix: (Units=GPa)
#
#
# Indices 1 2 3 4 5 6 
#
# 1 148.2948 7.8441 49.0769 0.0000 -21.9012 0.0000
# 2 7.8441 49.4524 -7.8031 0.0000 -3.3157 0.0000
# 3 49.0769 -7.8031 122.3135 0.0000 -23.4515 0.0000
# 4 0.0000 0.0000 0.0000 5.7205 0.0000 7.7450
# 5 -21.9012 -3.3157 -23.4515 0.0000 49.1597 0.0000
# 6 0.0000 0.0000 0.0000 7.7450 0.0000 11.2800
#
#
#
# Elastic Compliance Matrix: (Units=1/GPa)
#
#
# Indices 1 2 3 4 5 6 
#
# 1 0.008117 -0.001614 -0.002958 0.000000 0.002096 0.000000
# 2 -0.001614 0.020967 0.002332 0.000001 0.001808 0.000000
# 3 -0.002958 0.002332 0.010224 0.000000 0.003717 0.000000
# 4 0.000000 0.000001 0.000000 2.483149 0.000000 -1.704960
# 5 0.002096 0.001808 0.003717 0.000000 0.023171 0.000000
# 6 0.000000 0.000000 0.000000 -1.704960 0.000000 1.259298
#
#
# Mechanical properties :
#
#
# Convention : Reuss Voigt Hill
#
# Bulk Modulus (GPa) = 28.71287 46.47740 37.59513
# Shear Modulus (GPa) = 1.30855 31.29489 16.30172
#
# Velocity S-wave (km/s) = 0.75419 3.68824 2.66195
# Velocity P-wave (km/s) = 3.63857 6.19193 5.07835
#
# Compressibility (1/GPa) = 0.03482759
#
# Stress axis : x y z
#
# Youngs Moduli (GPa) = 123.19523 47.69508 97.80972
#
# Poissons Ratio (x) = 0.07697 0.28932
# Poissons Ratio (y) = 0.19880 -0.22806
# Poissons Ratio (z) = 0.36440 -0.11121
#
# Static dielectric constant tensor:
#      x y z
#    x 1.916010 0.000000 -0.017460 
#    y 0.000000 1.899640 0.000000 
#    z -0.017460 0.000000 1.831480 
# 
# From -- ./inp_files/288472.got.cif
#   From: 2010.05.17/outbox.cif.g08.bks.cpg/sg12_145_cif.got.tgz:288472.got - 2010.06.03 13:09:07.
