data_PCOD9187174
_publ_section_title
;
Structure prediction by ZEFSAII (Michael W. Deem and Ramdas Pophale) SiO2 
 PCOD9187174
Probable space group: C 2/M
;
_chemical_formula_sum "Si O2"
_cell_formula_units_Z 56
_cell_length_a 29.826625
_cell_length_b 8.749784
_cell_length_c 12.213987
_cell_angle_alpha 90.000000
_cell_angle_beta 110.162587
_cell_angle_gamma 90.000000
_cell_volume 2992.224549
_symmetry_space_group_name_H-M "C 2/M"
_symmetry_group_IT_number 12
_symmetry_cell_setting 'monoclinic'
loop_
_space_group_symop_operation_xyz
x,y,z
-x,y,-z
-x,-y,-z
x,-y,z
1/2+x,1/2+y,z
1/2-x,1/2+y,-z
1/2-x,1/2-y,-z
1/2+x,1/2-y,z
loop_
_atom_site_type_symbol
_atom_site_label
_atom_site_fract_x
_atom_site_fract_y
_atom_site_fract_z
Si Si1 0.516517 0.184689 0.216573
Si Si2 0.790611 0.818315 0.383393
Si Si3 0.816267 0.683355 0.633959
Si Si4 0.951285 0.685548 0.518930
Si Si5 0.364538 0.816775 0.291338
Si Si6 0.599635 0.815718 0.128128
Si Si7 0.410262 0.681582 0.115349
O O1 0.544959 0.229068 0.351026
O O2 0.548682 0.225208 0.139300
O O3 0.464418 0.257246 0.174494
O O4 0.510920 0.000000 0.212950
O O5 0.816647 0.762013 0.516137
O O6 0.734786 0.780008 0.353775
O O7 0.814989 0.739373 0.300432
O O8 0.794825 0.000000 0.377210
O O9 0.818438 0.500000 0.617898
O O10 0.859339 0.725121 0.750264
O O11 0.950338 0.500000 0.515918
O O12 0.905723 0.736818 0.411562
O O13 0.000000 0.734437 0.500000
O O14 0.378287 0.750804 0.185311
O O15 0.365631 0.000000 0.287431
O O16 0.600433 0.000000 0.115070
O O17 0.606483 0.737735 0.017654
O O18 0.409843 0.500000 0.121596
#
# Coordination Sequence:
#
# PCOD9187174 Si02
#       7
#     8   8   8   8   8   8   8
#     4  10  19  35  58  82 107 143 189 232 272 325
#     4  10  20  35  59  91 122 144 173 225 285 334
#     4   9  19  38  62  87 114 147 186 226 270 328
#     4   9  16  30  55  82 106 136 181 229 266 313
#     4  11  21  37  60  82 110 150 193 228 272 332
#     4  10  21  38  60  81 105 146 199 236 266 321
#     4  12  25  38  52  77 115 150 185 232 287 336
#
# _framework density 18.715171000000002
#
# number of rings (size 3 to 8) (size 9 to 14) (size 15 to 20)
#    0.000    1.857    1.429    3.429    0.000    5.714 
#    0.000    4.286    0.000    0.000    0.000    0.000 
#    0.000    0.000    0.000    0.000    0.000    0.000 
#
# Total GULP energy -156425.577533 kJ/mol
# GULP energy per Si atom -5586.627769 kJ/mol
# Density = 1.867257 g / cm^3
# Si number density = 18.715171 Si / 1000 Ang^3
#
#
#
# Elastic Constant Matrix: (Units=GPa)
#
#
# Indices 1 2 3 4 5 6 
#
# 1 102.2363 45.0711 51.5407 0.0000 -33.5200 0.0000
# 2 45.0711 47.9581 37.9942 0.0000 -17.7502 0.0000
# 3 51.5407 37.9942 90.7027 0.0000 -26.6141 0.0000
# 4 0.0000 0.0000 0.0000 20.5890 0.0000 -6.7216
# 5 -33.5200 -17.7502 -26.6141 0.0000 27.0005 0.0000
# 6 0.0000 0.0000 0.0000 -6.7216 0.0000 24.5087
#
#
#
# Elastic Compliance Matrix: (Units=1/GPa)
#
#
# Indices 1 2 3 4 5 6 
#
# 1 0.022011 -0.012682 -0.002284 0.000000 0.016738 0.000000
# 2 -0.012682 0.040895 -0.009363 0.000000 0.001912 0.000000
# 3 -0.002284 -0.009363 0.019144 0.000000 0.009878 0.000000
# 4 0.000000 0.000000 0.000000 0.053346 0.000000 0.014630
# 5 0.016738 0.001912 0.009878 0.000000 0.068809 0.000000
# 6 0.000000 0.000000 0.000000 0.014630 0.000000 0.044814
#
#
# Mechanical properties :
#
#
# Convention : Reuss Voigt Hill
#
# Bulk Modulus (GPa) = 29.94761 56.67879 43.31320
# Shear Modulus (GPa) = 16.19122 21.50571 18.84847
#
# Velocity S-wave (km/s) = 2.94452 3.39352 3.17696
# Velocity P-wave (km/s) = 5.25326 6.76057 6.05401
#
# Compressibility (1/GPa) = 0.03339165
#
# Stress axis : x y z
#
# Youngs Moduli (GPa) = 45.43124 24.45267 52.23615
#
# Poissons Ratio (x) = 0.31010 0.11932
# Poissons Ratio (y) = 0.57614 0.48911
# Poissons Ratio (z) = 0.10378 0.22896
#
# Static dielectric constant tensor:
#      x y z
#    x 1.646420 0.000000 0.004010 
#    y 0.000000 1.630810 0.000000 
#    z 0.004010 0.000000 1.635600 
# 
# From -- ./inp_files/186833.got.cif
#   From: 2010.05.17/outbox.cif.g08.bks.cpg/sg12_94_cif.got.tgz:186833.got - 2010.06.03 13:09:07.
