data_PCOD9187849
_publ_section_title
;
Structure prediction by ZEFSAII (Michael W. Deem and Ramdas Pophale) SiO2 
 PCOD9187849
Probable space group: C 2/M
;
_chemical_formula_sum "Si O2"
_cell_formula_units_Z 44
_cell_length_a 12.976157
_cell_length_b 15.839762
_cell_length_c 32.100663
_cell_angle_alpha 90.000000
_cell_angle_beta 159.580233
_cell_angle_gamma 90.000000
_cell_volume 2301.992871
_symmetry_space_group_name_H-M "C 2/M"
_symmetry_group_IT_number 12
_symmetry_cell_setting 'monoclinic'
loop_
_space_group_symop_operation_xyz
x,y,z
-x,y,-z
-x,-y,-z
x,-y,z
1/2+x,1/2+y,z
1/2-x,1/2+y,-z
1/2-x,1/2-y,-z
1/2+x,1/2-y,z
loop_
_atom_site_type_symbol
_atom_site_label
_atom_site_fract_x
_atom_site_fract_y
_atom_site_fract_z
Si Si1 0.856599 0.830012 0.222995
Si Si2 0.744102 0.854653 0.790208
Si Si3 0.881789 0.500000 0.769009
Si Si4 0.818689 0.174693 0.113927
Si Si5 0.219080 0.354728 0.945723
Si Si6 0.144851 0.000000 0.365815
Si Si7 0.698810 0.000000 0.360642
O O1 0.880014 0.741211 0.256226
O O2 0.923848 0.810854 0.200631
O O3 0.515409 0.852855 0.104890
O O4 0.042631 0.912018 0.305941
O O5 0.942841 0.870077 0.824632
O O6 0.480533 0.918289 0.693425
O O7 0.964235 0.869117 0.913120
O O8 0.563088 0.500000 0.671556
O O9 0.810928 0.500000 0.693430
O O10 0.079764 0.421174 0.860597
O O11 0.768252 0.264131 0.071683
O O12 0.500000 0.131495 0.000000
O O13 0.500000 0.000000 0.500000
O O14 0.000000 0.000000 0.500000
#
# Coordination Sequence:
#
# PCOD9187849 Si02
#       7
#     8   8   4   8   8   4   4
#     4  10  20  37  60  92 126 155 193 250 304 365
#     4  11  22  38  63  91 128 160 197 249 305 366
#     4  10  23  40  64  85 117 164 201 255 305 347
#     4  11  18  33  61  93 130 155 177 243 318 376
#     4  10  19  35  61  97 123 150 198 241 313 377
#     4  10  24  43  63  86 115 160 220 255 280 349
#     4  12  29  45  57  84 122 164 217 251 280 354
#
# _framework density 19.113873000000002
#
# number of rings (size 3 to 8) (size 9 to 14) (size 15 to 20)
#    0.000    1.455    3.636    2.727    0.000    3.636 
#    0.000    0.909    0.000    8.727    0.000    0.000 
#    0.000    0.000    0.000    0.000    0.000    0.000 
#
# Total GULP energy -122689.507065 kJ/mol
# GULP energy per Si atom -5576.795776 kJ/mol
# Density = 1.907037 g / cm^3
# Si number density = 19.113873 Si / 1000 Ang^3
#
#
#
# Elastic Constant Matrix: (Units=GPa)
#
#
# Indices 1 2 3 4 5 6 
#
# 1 148.8609 31.6350 54.1635 -0.0007 0.6194 0.0010
# 2 31.6350 90.7102 79.1164 0.0049 5.9709 -0.0004
# 3 54.1635 79.1164 134.3665 0.0070 13.9362 -0.0054
# 4 -0.0007 0.0049 0.0070 27.8688 -0.0067 10.3887
# 5 0.6194 5.9709 13.9362 -0.0067 19.6755 0.0005
# 6 0.0010 -0.0004 -0.0054 10.3887 0.0005 22.2146
#
#
#
# Elastic Compliance Matrix: (Units=1/GPa)
#
#
# Indices 1 2 3 4 5 6 
#
# 1 0.007959 0.000158 -0.003530 0.000002 0.002202 -0.000002
# 2 0.000158 0.022807 -0.013787 0.000002 0.002839 -0.000004
# 3 -0.003530 -0.013787 0.017849 -0.000007 -0.008347 0.000008
# 4 0.000002 0.000002 -0.000007 0.043459 0.000020 -0.020324
# 5 0.002202 0.002839 -0.008347 0.000020 0.055806 -0.000013
# 6 -0.000002 -0.000004 0.000008 -0.020324 -0.000013 0.054520
#
#
# Mechanical properties :
#
#
# Convention : Reuss Voigt Hill
#
# Bulk Modulus (GPa) = 69.94312 78.19639 74.06975
# Shear Modulus (GPa) = 20.70530 27.88662 24.29596
#
# Velocity S-wave (km/s) = 3.29486 3.82379 3.56914
# Velocity P-wave (km/s) = 7.15172 7.77784 7.47134
#
# Compressibility (1/GPa) = 0.01429733
#
# Stress axis : x y z
#
# Youngs Moduli (GPa) = 125.63971 43.84561 56.02535
#
# Poissons Ratio (x) = -0.00692 0.19775
# Poissons Ratio (y) = -0.01984 0.77244
# Poissons Ratio (z) = 0.44347 0.60451
#
# Static dielectric constant tensor:
#      x y z
#    x 1.703820 0.000000 -0.001020 
#    y 0.000000 1.685480 0.000000 
#    z -0.001020 0.000000 1.652540 
# 
# From -- ./inp_files/374408.got.cif
#   From: 2010.05.17/outbox.cif.g08.bks.cpg/sg12_188_cif.got.tgz:374408.got - 2010.06.03 13:09:07.
