data_PCOD9187702
_publ_section_title
;
Structure prediction by ZEFSAII (Michael W. Deem and Ramdas Pophale) SiO2 
 PCOD9187702
Probable space group: C 2/M
;
_chemical_formula_sum "Si O2"
_cell_formula_units_Z 48
_cell_length_a 17.395017
_cell_length_b 14.786289
_cell_length_c 9.213613
_cell_angle_alpha 90.000000
_cell_angle_beta 78.513100
_cell_angle_gamma 90.000000
_cell_volume 2322.345929
_symmetry_space_group_name_H-M "C 2/M"
_symmetry_group_IT_number 12
_symmetry_cell_setting 'monoclinic'
loop_
_space_group_symop_operation_xyz
x,y,z
-x,y,-z
-x,-y,-z
x,-y,z
1/2+x,1/2+y,z
1/2-x,1/2+y,-z
1/2-x,1/2-y,-z
1/2+x,1/2-y,z
loop_
_atom_site_type_symbol
_atom_site_label
_atom_site_fract_x
_atom_site_fract_y
_atom_site_fract_z
Si Si1 0.989174 0.723191 0.174706
Si Si2 0.244501 0.144789 0.959743
Si Si3 0.080157 0.900445 0.874377
Si Si4 0.140932 0.282594 0.300201
Si Si5 0.235924 0.901774 0.283637
Si Si6 0.606803 0.102338 0.588871
O O1 0.932229 0.810376 0.215769
O O2 0.953443 0.637762 0.268682
O O3 0.072701 0.742906 0.213986
O O4 0.000000 0.707092 0.000000
O O5 0.158107 0.114786 0.941159
O O6 0.302906 0.143699 0.800995
O O7 0.250000 0.250000 0.000000
O O8 0.264806 0.098517 0.104521
O O9 0.086555 0.000000 0.801828
O O10 0.000000 0.902096 0.000000
O O11 0.185264 0.189070 0.319772
O O12 0.106571 0.329488 0.454896
O O13 0.308445 0.895455 0.365570
O O14 0.196090 0.000000 0.322063
O O15 0.590238 0.000000 0.549459
#
# Coordination Sequence:
#
# PCOD9187702 Si02
#       6
#     8   8   8   8   8   8
#     4  11  22  40  64  88 118 157 200 248 298 356
#     4  10  19  35  60  90 123 158 200 244 287 345
#     4  10  20  35  59  92 126 157 193 242 300 357
#     4  11  23  39  61  88 122 158 197 248 303 358
#     4  10  20  37  62  89 118 153 197 246 295 353
#     4  11  25  43  61  84 118 159 202 250 305 362
#
# _framework density 20.668755000000001
#
# number of rings (size 3 to 8) (size 9 to 14) (size 15 to 20)
#    0.000    1.500    0.000    8.500    0.000    5.000 
#    0.000    2.500    0.000    2.000    0.000    0.000 
#    0.000    0.000    0.000    0.000    0.000    0.000 
#
# Total GULP energy -133945.857518 kJ/mol
# GULP energy per Si atom -5581.077397 kJ/mol
# Density = 2.062171 g / cm^3
# Si number density = 20.668755 Si / 1000 Ang^3
#
#
#
# Elastic Constant Matrix: (Units=GPa)
#
#
# Indices 1 2 3 4 5 6 
#
# 1 48.1836 2.3835 24.4716 0.0000 19.6629 0.0000
# 2 2.3835 101.7766 24.2835 0.0000 -10.1422 0.0000
# 3 24.4716 24.2835 77.7170 0.0000 -0.9431 0.0000
# 4 0.0000 0.0000 0.0000 19.1288 0.0000 -4.1797
# 5 19.6629 -10.1422 -0.9431 0.0000 27.4168 0.0000
# 6 0.0000 0.0000 0.0000 -4.1797 0.0000 18.7926
#
#
#
# Elastic Compliance Matrix: (Units=1/GPa)
#
#
# Indices 1 2 3 4 5 6 
#
# 1 0.038609 -0.000813 -0.012248 0.000000 -0.028412 0.000000
# 2 -0.000813 0.011049 -0.003141 0.000000 0.004562 0.000000
# 3 -0.012248 -0.003141 0.017805 0.000000 0.008235 0.000000
# 4 0.000000 0.000000 0.000000 0.054947 0.000000 0.012221
# 5 -0.028412 0.004562 0.008235 0.000000 0.058822 0.000000
# 6 0.000000 0.000000 0.000000 0.012221 0.000000 0.055931
#
#
# Mechanical properties :
#
#
# Convention : Reuss Voigt Hill
#
# Bulk Modulus (GPa) = 28.52334 36.66157 32.59245
# Shear Modulus (GPa) = 17.77758 24.83688 21.30723
#
# Velocity S-wave (km/s) = 2.93596 3.47026 3.21423
# Velocity P-wave (km/s) = 5.03223 5.81663 5.43859
#
# Compressibility (1/GPa) = 0.03505900
#
# Stress axis : x y z
#
# Youngs Moduli (GPa) = 25.90051 90.50996 56.16346
#
# Poissons Ratio (x) = 0.07360 0.68789
# Poissons Ratio (y) = 0.02106 0.17640
# Poissons Ratio (z) = 0.31723 0.28428
#
# Static dielectric constant tensor:
#      x y z
#    x 1.793020 0.000000 -0.020420 
#    y 0.000000 1.772730 0.000000 
#    z -0.020420 0.000000 1.752790 
# 
# From -- ./inp_files/73648.got.cif
#   From: 2010.05.17/outbox.cif.g08.bks.cpg/sg12_37_cif.got.tgz:73648.got - 2010.06.03 13:09:07.
