data_PCOD9187330
_publ_section_title
;
Structure prediction by ZEFSAII (Michael W. Deem and Ramdas Pophale) SiO2 
 PCOD9187330
Probable space group: C 2/M
;
_chemical_formula_sum "Si O2"
_cell_formula_units_Z 48
_cell_length_a 9.940511
_cell_length_b 17.424487
_cell_length_c 16.901427
_cell_angle_alpha 90.000000
_cell_angle_beta 129.783020
_cell_angle_gamma 90.000000
_cell_volume 2249.680304
_symmetry_space_group_name_H-M "C 2/M"
_symmetry_group_IT_number 12
_symmetry_cell_setting 'monoclinic'
loop_
_space_group_symop_operation_xyz
x,y,z
-x,y,-z
-x,-y,-z
x,-y,z
1/2+x,1/2+y,z
1/2-x,1/2+y,-z
1/2-x,1/2-y,-z
1/2+x,1/2-y,z
loop_
_atom_site_type_symbol
_atom_site_label
_atom_site_fract_x
_atom_site_fract_y
_atom_site_fract_z
Si Si1 0.213385 0.910359 0.888447
Si Si2 0.826675 0.914414 0.312320
Si Si3 0.426353 0.797260 0.069699
Si Si4 0.146773 0.830201 0.195632
Si Si5 0.053231 0.749078 0.608803
Si Si6 0.500004 0.142831 0.728442
O O1 0.238108 0.901959 0.802898
O O2 0.024980 0.873411 0.839582
O O3 0.209888 0.000000 0.905187
O O4 0.364511 0.870484 0.996564
O O5 0.461461 0.817532 0.173583
O O6 0.945297 0.840454 0.375799
O O7 0.906025 0.000000 0.345681
O O8 0.583988 0.736943 0.110871
O O9 0.250000 0.750000 0.000000
O O10 0.251040 0.783410 0.302288
O O11 0.303160 0.884341 0.221776
O O12 0.952281 0.701247 0.638945
O O13 0.000000 0.732109 0.500000
O O14 0.162795 0.589471 0.311169
#
# Coordination Sequence:
#
# PCOD9187330 Si02
#       6
#     8   8   8   8   8   8
#     4  10  23  41  63  91 135 181 206 247 328 398
#     4  11  24  42  61  95 137 165 206 270 326 375
#     4  10  19  35  58  90 126 162 210 253 309 367
#     4   9  21  39  63  94 124 164 218 278 301 369
#     4  10  22  42  71  94 120 167 225 264 323 382
#     4  10  21  39  61  95 124 162 215 272 308 370
#
# _framework density 21.336365000000001
#
# number of rings (size 3 to 8) (size 9 to 14) (size 15 to 20)
#    1.000    1.000    1.667    2.000    0.000    7.000 
#    0.000    2.500    0.000    1.000    0.000    0.000 
#    0.000    0.000    0.000    0.000    0.000    0.000 
#
# Total GULP energy -133650.717392 kJ/mol
# GULP energy per Si atom -5568.779891 kJ/mol
# Density = 2.128780 g / cm^3
# Si number density = 21.336365 Si / 1000 Ang^3
#
#
#
# Elastic Constant Matrix: (Units=GPa)
#
#
# Indices 1 2 3 4 5 6 
#
# 1 113.2944 36.5930 19.3983 0.0000 -7.1992 0.0000
# 2 36.5930 115.9382 25.3702 0.0000 -13.6545 0.0000
# 3 19.3983 25.3702 71.5243 0.0000 -24.3172 0.0000
# 4 0.0000 0.0000 0.0000 15.8465 0.0000 -5.0044
# 5 -7.1992 -13.6545 -24.3172 0.0000 34.4575 0.0000
# 6 0.0000 0.0000 0.0000 -5.0044 0.0000 20.2056
#
#
#
# Elastic Compliance Matrix: (Units=1/GPa)
#
#
# Indices 1 2 3 4 5 6 
#
# 1 0.010025 -0.002800 -0.001830 0.000000 -0.000306 0.000000
# 2 -0.002800 0.010218 -0.002220 0.000000 0.001898 0.000000
# 3 -0.001830 -0.002220 0.019519 0.000000 0.012513 0.000000
# 4 0.000000 0.000000 0.000000 0.068460 0.000000 0.016956
# 5 -0.000306 0.001898 0.012513 0.000000 0.038540 0.000000
# 6 0.000000 0.000000 0.000000 0.016956 0.000000 0.053691
#
#
# Mechanical properties :
#
#
# Convention : Reuss Voigt Hill
#
# Bulk Modulus (GPa) = 38.36873 51.49775 44.93324
# Shear Modulus (GPa) = 22.43765 28.72827 25.58296
#
# Velocity S-wave (km/s) = 3.24638 3.67338 3.46646
# Velocity P-wave (km/s) = 5.66337 6.49462 6.09319
#
# Compressibility (1/GPa) = 0.02606289
#
# Stress axis : x y z
#
# Youngs Moduli (GPa) = 99.75372 97.86440 51.23147
#
# Poissons Ratio (x) = 0.27399 0.09375
# Poissons Ratio (y) = 0.27928 0.11374
# Poissons Ratio (z) = 0.18254 0.21726
#
# Static dielectric constant tensor:
#      x y z
#    x 1.859780 0.000000 0.025930 
#    y 0.000000 1.795090 0.000000 
#    z 0.025930 0.000000 1.772920 
# 
# From -- ./inp_files/361286.got.cif
#   From: 2010.05.17/outbox.cif.g08.bks.cpg/sg12_181_cif.got.tgz:361286.got - 2010.06.03 13:09:07.
