data_PCOD9187563
_publ_section_title
;
Structure prediction by ZEFSAII (Michael W. Deem and Ramdas Pophale) SiO2 
 PCOD9187563
Probable space group: C 2/M
;
_chemical_formula_sum "Si O2"
_cell_formula_units_Z 56
_cell_length_a 16.709404
_cell_length_b 18.125826
_cell_length_c 14.009288
_cell_angle_alpha 90.000000
_cell_angle_beta 137.959658
_cell_angle_gamma 90.000000
_cell_volume 2841.352366
_symmetry_space_group_name_H-M "C 2/M"
_symmetry_group_IT_number 12
_symmetry_cell_setting 'monoclinic'
loop_
_space_group_symop_operation_xyz
x,y,z
-x,y,-z
-x,-y,-z
x,-y,z
1/2+x,1/2+y,z
1/2-x,1/2+y,-z
1/2-x,1/2-y,-z
1/2+x,1/2-y,z
loop_
_atom_site_type_symbol
_atom_site_label
_atom_site_fract_x
_atom_site_fract_y
_atom_site_fract_z
Si Si1 0.544345 0.584546 0.737533
Si Si2 0.877249 0.704507 0.845109
Si Si3 0.695933 0.272576 0.851891
Si Si4 0.959705 0.277308 0.565374
Si Si5 0.065266 0.134796 0.157885
Si Si6 0.301958 0.643065 0.460033
Si Si7 0.309414 0.084559 0.442495
O O1 0.581889 0.500000 0.765521
O O2 0.645707 0.643854 0.802930
O O3 0.502899 0.604887 0.809146
O O4 0.426298 0.597125 0.566844
O O5 0.793055 0.735862 0.854855
O O6 0.915427 0.776619 0.817556
O O7 0.794218 0.649928 0.710000
O O8 0.000000 0.674126 0.000000
O O9 0.578150 0.223521 0.732302
O O10 0.750000 0.250000 0.000000
O O11 0.856439 0.225842 0.517533
O O12 0.909608 0.357732 0.502915
O O13 0.000000 0.242996 0.500000
O O14 0.194396 0.096731 0.273931
O O15 0.000000 0.121152 0.000000
O O16 0.235161 0.610902 0.492602
O O17 0.346032 0.000000 0.476059
#
# Coordination Sequence:
#
# PCOD9187563 Si02
#       7
#     8   8   8   8   8   8   8
#     4  10  23  39  63  93 124 163 204 252 308 359
#     4  11  22  36  63  95 116 153 208 259 302 358
#     4  11  23  40  64  92 122 159 203 258 308 363
#     4  11  21  38  62  89 118 156 209 254 304 356
#     4  10  19  35  59  91 124 156 206 255 303 358
#     4  10  20  38  63  88 118 158 209 251 287 358
#     4  11  23  36  57  89 127 166 200 244 310 374
#
# _framework density 19.708925000000001
#
# number of rings (size 3 to 8) (size 9 to 14) (size 15 to 20)
#    0.000    1.429    2.857    3.857    6.000    1.429 
#    0.000    2.857    0.000    2.143    0.000    0.000 
#    0.000    0.000    0.000    0.000    0.000    0.000 
#
# Total GULP energy -156329.138013 kJ/mol
# GULP energy per Si atom -5583.183500 kJ/mol
# Density = 1.966407 g / cm^3
# Si number density = 19.708925 Si / 1000 Ang^3
#
#
#
# Elastic Constant Matrix: (Units=GPa)
#
#
# Indices 1 2 3 4 5 6 
#
# 1 41.8513 14.2659 14.8974 0.0000 11.3106 0.0000
# 2 14.2659 93.6850 11.7693 0.0000 6.1705 0.0000
# 3 14.8974 11.7693 138.5264 0.0000 3.5324 0.0000
# 4 0.0000 0.0000 0.0000 18.1546 0.0000 3.9738
# 5 11.3106 6.1705 3.5324 0.0000 24.3555 0.0000
# 6 0.0000 0.0000 0.0000 3.9738 0.0000 5.2054
#
#
#
# Elastic Compliance Matrix: (Units=1/GPa)
#
#
# Indices 1 2 3 4 5 6 
#
# 1 0.029282 -0.003323 -0.002551 0.000000 -0.012387 0.000000
# 2 -0.003323 0.011334 -0.000574 0.000000 -0.001245 0.000000
# 3 -0.002551 -0.000574 0.007536 0.000000 0.000237 0.000000
# 4 0.000000 0.000000 0.000000 0.066133 0.000000 -0.050486
# 5 -0.012387 -0.001245 0.000237 0.000000 0.047092 0.000000
# 6 0.000000 0.000000 0.000000 -0.050486 0.000000 0.230650
#
#
# Mechanical properties :
#
#
# Convention : Reuss Voigt Hill
#
# Bulk Modulus (GPa) = 28.36276 39.54754 33.95515
# Shear Modulus (GPa) = 11.99977 25.08511 18.54244
#
# Velocity S-wave (km/s) = 2.47016 3.57147 3.07060
# Velocity P-wave (km/s) = 4.74949 6.09234 5.46234
#
# Compressibility (1/GPa) = 0.03525750
#
# Stress axis : x y z
#
# Youngs Moduli (GPa) = 34.15019 88.22904 132.69848
#
# Poissons Ratio (x) = 0.29316 0.33850
# Poissons Ratio (y) = 0.11347 0.07615
# Poissons Ratio (z) = 0.08711 0.05063
#
# Static dielectric constant tensor:
#      x y z
#    x 1.701720 0.000000 -0.003890 
#    y 0.000000 1.686100 0.000000 
#    z -0.003890 0.000000 1.734390 
# 
# From -- ./inp_files/226594.got.cif
#   From: 2010.05.17/outbox.cif.g08.bks.cpg/sg12_114_cif.got.tgz:226594.got - 2010.06.03 13:09:07.
