data_PCOD9187139
_publ_section_title
;
Structure prediction by ZEFSAII (Michael W. Deem and Ramdas Pophale) SiO2 
 PCOD9187139
Probable space group: C 2/M
;
_chemical_formula_sum "Si O2"
_cell_formula_units_Z 64
_cell_length_a 8.931112
_cell_length_b 15.055119
_cell_length_c 28.497384
_cell_angle_alpha 90.000000
_cell_angle_beta 132.043616
_cell_angle_gamma 90.000000
_cell_volume 2845.576570
_symmetry_space_group_name_H-M "C 2/M"
_symmetry_group_IT_number 12
_symmetry_cell_setting 'monoclinic'
loop_
_space_group_symop_operation_xyz
x,y,z
-x,y,-z
-x,-y,-z
x,-y,z
1/2+x,1/2+y,z
1/2-x,1/2+y,-z
1/2-x,1/2-y,-z
1/2+x,1/2-y,z
loop_
_atom_site_type_symbol
_atom_site_label
_atom_site_fract_x
_atom_site_fract_y
_atom_site_fract_z
Si Si1 0.644369 0.855906 0.849792
Si Si2 0.508993 0.100028 0.923331
Si Si3 0.839446 0.591887 0.249680
Si Si4 0.430159 0.739565 0.687032
Si Si5 0.480723 0.286266 0.596900
Si Si6 0.429165 0.395884 0.039347
Si Si7 0.638972 0.894024 0.481724
Si Si8 0.063411 0.165308 0.812468
O O1 0.586716 0.903059 0.885675
O O2 0.591639 0.901936 0.789885
O O3 0.531972 0.762584 0.827349
O O4 0.887937 0.844785 0.897956
O O5 0.289416 0.141198 0.874320
O O6 0.486228 0.000000 0.936075
O O7 0.699412 0.139271 0.992442
O O8 0.911540 0.500000 0.286277
O O9 0.598547 0.597323 0.202099
O O10 0.913083 0.681032 0.289038
O O11 0.399446 0.691890 0.631590
O O12 0.220476 0.789185 0.652437
O O13 0.518187 0.680063 0.747573
O O14 0.433740 0.184679 0.569435
O O15 0.365492 0.357365 0.540305
O O16 0.432520 0.500000 0.054787
O O17 0.500000 0.394840 0.000000
O O18 0.500000 0.886466 0.500000
O O19 0.635431 0.000000 0.467599
#
# Coordination Sequence:
#
# PCOD9187139 Si02
#       8
#     8   8   8   8   8   8   8   8
#     4  10  19  35  58  80 107 147 193 244 299 357
#     4  10  20  36  57  79 107 148 196 241 292 360
#     4  11  23  38  57  84 118 153 197 251 300 352
#     4  11  23  41  62  87 122 167 201 236 299 345
#     4  11  22  43  67  93 131 166 198 252 290 341
#     4   8  15  30  53  79 106 140 187 242 298 354
#     4  10  22  41  69 101 130 165 202 241 297 351
#     4  11  23  38  55  81 119 153 191 241 302 354
#
# _framework density 22.491047999999999
#
# number of rings (size 3 to 8) (size 9 to 14) (size 15 to 20)
#    0.000    1.750    2.500    3.750    1.750    1.500 
#    0.000    3.750    0.000    2.250    0.000    0.000 
#    0.000    0.000    0.000    0.000    0.000    0.000 
#
# Total GULP energy -178382.108095 kJ/mol
# GULP energy per Si atom -5574.440878 kJ/mol
# Density = 2.243986 g / cm^3
# Si number density = 22.491048 Si / 1000 Ang^3
#
#
#
# Elastic Constant Matrix: (Units=GPa)
#
#
# Indices 1 2 3 4 5 6 
#
# 1 41.9357 0.6855 0.0125 0.0000 16.5747 0.0000
# 2 0.6855 99.0941 16.6284 0.0000 4.8744 0.0000
# 3 0.0125 16.6284 66.1924 0.0000 12.9031 0.0000
# 4 0.0000 0.0000 0.0000 170.0861 0.0000 52.4727
# 5 16.5747 4.8744 12.9031 0.0000 41.2812 0.0000
# 6 0.0000 0.0000 0.0000 52.4727 0.0000 20.7866
#
#
#
# Elastic Compliance Matrix: (Units=1/GPa)
#
#
# Indices 1 2 3 4 5 6 
#
# 1 0.028693 0.000005 0.002385 0.000000 -0.012267 0.000000
# 2 0.000005 0.010543 -0.002562 0.000000 -0.000446 0.000000
# 3 0.002385 -0.002562 0.016908 0.000000 -0.005940 0.000000
# 4 0.000000 0.000000 0.000000 0.026577 0.000000 -0.067089
# 5 -0.012267 -0.000446 -0.005940 0.000000 0.031058 0.000000
# 6 0.000000 0.000000 0.000000 -0.067089 0.000000 0.217465
#
#
# Mechanical properties :
#
#
# Convention : Reuss Voigt Hill
#
# Bulk Modulus (GPa) = 17.92102 26.87500 22.39801
# Shear Modulus (GPa) = 14.27797 59.09052 36.68425
#
# Velocity S-wave (km/s) = 2.52232 5.13127 4.04302
# Velocity P-wave (km/s) = 4.05809 6.86161 5.63693
#
# Compressibility (1/GPa) = 0.05580039
#
# Stress axis : x y z
#
# Youngs Moduli (GPa) = 34.85118 94.84809 59.14218
#
# Poissons Ratio (x) = -0.00045 -0.14103
# Poissons Ratio (y) = -0.00017 0.15150
# Poissons Ratio (z) = -0.08310 0.24296
#
# Static dielectric constant tensor:
#      x y z
#    x 1.872310 0.000000 0.031080 
#    y 0.000000 1.832020 0.000000 
#    z 0.031080 0.000000 1.858530 
# 
# From -- ./inp_files/372588.got.cif
#   From: 2010.05.17/outbox.cif.g08.bks.cpg/sg12_187_cif.got.tgz:372588.got - 2010.06.03 13:09:07.
