data_PCOD9187142
_publ_section_title
;
Structure prediction by ZEFSAII (Michael W. Deem and Ramdas Pophale) SiO2 
 PCOD9187142
Probable space group: C 2/M
;
_chemical_formula_sum "Si O2"
_cell_formula_units_Z 64
_cell_length_a 19.497401
_cell_length_b 7.500682
_cell_length_c 30.996197
_cell_angle_alpha 90.000000
_cell_angle_beta 142.174532
_cell_angle_gamma 90.000000
_cell_volume 2779.900592
_symmetry_space_group_name_H-M "C 2/M"
_symmetry_group_IT_number 12
_symmetry_cell_setting 'monoclinic'
loop_
_space_group_symop_operation_xyz
x,y,z
-x,y,-z
-x,-y,-z
x,-y,z
1/2+x,1/2+y,z
1/2-x,1/2+y,-z
1/2-x,1/2-y,-z
1/2+x,1/2-y,z
loop_
_atom_site_type_symbol
_atom_site_label
_atom_site_fract_x
_atom_site_fract_y
_atom_site_fract_z
Si Si1 0.958269 0.715324 0.342714
Si Si2 0.618852 0.286743 0.929635
Si Si3 0.519082 0.705091 0.056947
Si Si4 0.802219 0.797224 0.663590
Si Si5 0.570344 0.781417 0.576136
Si Si6 0.809377 0.288416 0.574555
Si Si7 0.772584 0.207030 0.185100
Si Si8 0.447110 0.281351 0.199049
O O1 0.958267 0.500000 0.342254
O O2 0.976708 0.772351 0.400999
O O3 0.844734 0.776838 0.264405
O O4 0.063347 0.777161 0.367010
O O5 0.601879 0.500000 0.920164
O O6 0.548061 0.216991 0.935525
O O7 0.580933 0.223618 0.863516
O O8 0.750000 0.250000 0.000000
O O9 0.478766 0.500000 0.033731
O O10 0.651943 0.706026 0.130199
O O11 0.500000 0.786989 0.000000
O O12 0.698596 0.717334 0.637648
O O13 0.761320 0.797627 0.593616
O O14 0.926632 0.719393 0.727494
O O15 0.814348 0.000000 0.685259
O O16 0.500000 0.720859 0.500000
O O17 0.571660 0.000000 0.575405
O O18 0.808181 0.500000 0.580687
O O19 0.750000 0.250000 0.500000
O O20 0.853092 0.278447 0.186738
O O21 0.751000 0.000000 0.165010
O O22 0.445705 0.500000 0.200725
#
# Coordination Sequence:
#
# PCOD9187142 Si02
#       8
#     8   8   8   8   8   8   8   8
#     4  10  21  37  58  84 112 148 194 239 286 341
#     4  10  21  38  61  87 117 152 192 232 277 334
#     4  10  22  39  61  90 121 152 188 233 285 337
#     4  10  19  35  58  80 110 148 189 237 285 338
#     4   9  18  33  56  83 108 142 190 238 283 338
#     4  11  22  36  57  84 114 149 191 240 291 344
#     4  11  22  37  58  84 116 152 191 236 284 337
#     4   9  19  35  56  82 110 150 193 229 278 337
#
# _framework density 23.022404999999999
#
# number of rings (size 3 to 8) (size 9 to 14) (size 15 to 20)
#    0.000    2.000    1.250    2.250    1.750    3.250 
#    0.000    1.875    0.000    1.500    0.000    0.000 
#    0.000    0.000    0.000    0.000    0.000    0.000 
#
# Total GULP energy -178802.697706 kJ/mol
# GULP energy per Si atom -5587.584303 kJ/mol
# Density = 2.297000 g / cm^3
# Si number density = 23.022405 Si / 1000 Ang^3
#
#
#
# Elastic Constant Matrix: (Units=GPa)
#
#
# Indices 1 2 3 4 5 6 
#
# 1 129.8333 3.0775 30.8772 0.0001 -3.9669 -0.0001
# 2 3.0775 66.9608 -11.3824 -0.0002 -0.5542 -0.0004
# 3 30.8772 -11.3824 108.8535 0.0001 -6.7447 -0.0002
# 4 0.0001 -0.0002 0.0001 14.2251 0.0001 -2.0462
# 5 -3.9669 -0.5542 -6.7447 0.0001 43.4385 0.0000
# 6 -0.0001 -0.0004 -0.0002 -2.0462 0.0000 -5.2031
#
#
#
# Elastic Compliance Matrix: (Units=1/GPa)
#
#
# Indices 1 2 3 4 5 6 
#
# 1 0.008307 -0.000789 -0.002416 0.000000 0.000373 0.000000
# 2 -0.000789 0.015288 0.001848 0.000000 0.000410 -0.000001
# 3 -0.002416 0.001848 0.010151 0.000000 0.001379 0.000000
# 4 0.000000 0.000000 0.000000 0.066534 0.000000 -0.026166
# 5 0.000373 0.000410 0.001379 0.000000 0.023275 0.000000
# 6 0.000000 -0.000001 0.000000 -0.026166 0.000000 -0.181903
#
#
# Mechanical properties :
#
#
# Convention : Reuss Voigt Hill
#
# Bulk Modulus (GPa) = 32.22581 38.97692 35.60137
# Shear Modulus (GPa) = -110.39638 29.36380 -40.51629
#
# Velocity S-wave (km/s) = -6.93223 3.57521 -4.19962
# Velocity P-wave (km/s) = 7.07435 5.83177 2.83168
#
# Compressibility (1/GPa) = 0.03103103
#
# Stress axis : x y z
#
# Youngs Moduli (GPa) = 120.38317 65.41119 98.51664
#
# Poissons Ratio (x) = 0.05163 0.23799
# Poissons Ratio (y) = 0.09502 -0.18205
# Poissons Ratio (z) = 0.29081 -0.12087
#
# Static dielectric constant tensor:
#      x y z
#    x 1.834600 0.000000 -0.001400 
#    y 0.000000 1.896020 0.000000 
#    z -0.001400 0.000000 1.831250 
# 
# From -- ./inp_files/378529.got.cif
#   From: 2010.05.17/outbox.cif.g08.bks.cpg/sg12_190_cif.got.tgz:378529.got - 2010.06.03 13:09:07.
