data_PCOD9187527
_publ_section_title
;
Structure prediction by ZEFSAII (Michael W. Deem and Ramdas Pophale) SiO2 
 PCOD9187527
Probable space group: C 2/M
;
_chemical_formula_sum "Si O2"
_cell_formula_units_Z 40
_cell_length_a 17.181690
_cell_length_b 12.882507
_cell_length_c 9.866907
_cell_angle_alpha 90.000000
_cell_angle_beta 69.678801
_cell_angle_gamma 90.000000
_cell_volume 2048.043797
_symmetry_space_group_name_H-M "C 2/M"
_symmetry_group_IT_number 12
_symmetry_cell_setting 'monoclinic'
loop_
_space_group_symop_operation_xyz
x,y,z
-x,y,-z
-x,-y,-z
x,-y,z
1/2+x,1/2+y,z
1/2-x,1/2+y,-z
1/2-x,1/2-y,-z
1/2+x,1/2-y,z
loop_
_atom_site_type_symbol
_atom_site_label
_atom_site_fract_x
_atom_site_fract_y
_atom_site_fract_z
Si Si1 0.351183 0.706636 0.797834
Si Si2 0.584518 0.890010 0.862086
Si Si3 0.555127 0.500000 0.334084
Si Si4 0.815631 0.188262 0.128591
Si Si5 0.927883 0.000000 0.157952
Si Si6 0.519031 0.882623 0.330094
O O1 0.387803 0.603382 0.706735
O O2 0.277590 0.776579 0.777381
O O3 0.424911 0.790407 0.760813
O O4 0.320042 0.668143 0.964348
O O5 0.634732 0.793053 0.877918
O O6 0.561063 0.882689 0.718265
O O7 0.628075 0.000000 0.861331
O O8 0.500000 0.891294 0.000000
O O9 0.500000 0.500000 0.500000
O O10 0.485751 0.500000 0.255960
O O11 0.866071 0.098105 0.175059
O O12 0.000000 0.000000 0.000000
O O13 0.500000 0.866217 0.500000
O O14 0.555456 0.000000 0.293685
#
# Coordination Sequence:
#
# PCOD9187527 Si02
#       6
#     8   8   4   8   4   8
#     4  11  23  39  63  95 127 161 207 266 318 361
#     4  10  19  35  59  88 116 158 201 247 301 369
#     4  12  26  46  68  94 132 179 219 258 320 401
#     4  11  23  37  65  96 127 155 211 271 313 363
#     4  12  22  44  68  94 128 174 223 256 317 397
#     4  10  21  38  60  86 120 160 200 243 303 379
#
# _framework density 19.530830999999999
#
# number of rings (size 3 to 8) (size 9 to 14) (size 15 to 20)
#    0.000    1.200    4.000    2.400    2.800    0.000 
#    0.000    4.000    0.000    0.000    0.000    0.000 
#    0.000    0.000    0.000    0.000    0.000    0.000 
#
# Total GULP energy -111487.574725 kJ/mol
# GULP energy per Si atom -5574.378736 kJ/mol
# Density = 1.948638 g / cm^3
# Si number density = 19.530831 Si / 1000 Ang^3
#
#
#
# Elastic Constant Matrix: (Units=GPa)
#
#
# Indices 1 2 3 4 5 6 
#
# 1 63.0551 30.5098 21.0204 0.0000 -5.9376 0.0000
# 2 30.5098 131.2029 14.7311 0.0000 -25.5892 0.0000
# 3 21.0204 14.7311 81.1587 0.0000 14.0907 0.0000
# 4 0.0000 0.0000 0.0000 21.7326 0.0000 -2.5537
# 5 -5.9376 -25.5892 14.0907 0.0000 28.5309 0.0000
# 6 0.0000 0.0000 0.0000 -2.5537 0.0000 44.5171
#
#
#
# Elastic Compliance Matrix: (Units=1/GPa)
#
#
# Indices 1 2 3 4 5 6 
#
# 1 0.019469 -0.003243 -0.005089 0.000000 0.003656 0.000000
# 2 -0.003243 0.010728 -0.002910 0.000000 0.010384 0.000000
# 3 -0.005089 -0.002910 0.016193 0.000000 -0.011667 0.000000
# 4 0.000000 0.000000 0.000000 0.046326 0.000000 0.002657
# 5 0.003656 0.010384 -0.011667 0.000000 0.050886 0.000000
# 6 0.000000 0.000000 0.000000 0.002657 0.000000 0.022616
#
#
# Mechanical properties :
#
#
# Convention : Reuss Voigt Hill
#
# Bulk Modulus (GPa) = 41.82941 45.32658 43.57800
# Shear Modulus (GPa) = 25.42322 32.89980 29.16151
#
# Velocity S-wave (km/s) = 3.61182 4.10873 3.86826
# Velocity P-wave (km/s) = 6.23356 6.76513 6.50477
#
# Compressibility (1/GPa) = 0.02390662
#
# Stress axis : x y z
#
# Youngs Moduli (GPa) = 51.36388 93.21489 61.75373
#
# Poissons Ratio (x) = 0.30228 0.31425
# Poissons Ratio (y) = 0.16656 0.17972
# Poissons Ratio (z) = 0.26138 0.27128
#
# Static dielectric constant tensor:
#      x y z
#    x 1.762960 0.000000 -0.001460 
#    y 0.000000 1.691560 0.000000 
#    z -0.001460 0.000000 1.702250 
# 
# From -- ./inp_files/153330.got.cif
#   From: 2010.05.17/outbox.cif.g08.bks.cpg/sg12_77_cif.got.tgz:153330.got - 2010.06.03 13:09:07.
