data_PCOD9187422
_publ_section_title
;
Structure prediction by ZEFSAII (Michael W. Deem and Ramdas Pophale) SiO2 
 PCOD9187422
Probable space group: C 2/M
;
_chemical_formula_sum "Si O2"
_cell_formula_units_Z 64
_cell_length_a 15.781221
_cell_length_b 7.733179
_cell_length_c 23.165008
_cell_angle_alpha 90.000000
_cell_angle_beta 94.897317
_cell_angle_gamma 90.000000
_cell_volume 2816.713900
_symmetry_space_group_name_H-M "C 2/M"
_symmetry_group_IT_number 12
_symmetry_cell_setting 'monoclinic'
loop_
_space_group_symop_operation_xyz
x,y,z
-x,y,-z
-x,-y,-z
x,-y,z
1/2+x,1/2+y,z
1/2-x,1/2+y,-z
1/2-x,1/2-y,-z
1/2+x,1/2-y,z
loop_
_atom_site_type_symbol
_atom_site_label
_atom_site_fract_x
_atom_site_fract_y
_atom_site_fract_z
Si Si1 0.199196 0.291902 0.816716
Si Si2 0.429656 0.703877 0.421323
Si Si3 0.386418 0.712200 0.548307
Si Si4 0.655712 0.800317 0.261995
Si Si5 0.972775 0.698312 0.937063
Si Si6 0.744178 0.802341 0.621623
Si Si7 0.988370 0.712342 0.188421
Si Si8 0.282856 0.295048 0.938802
O O1 0.205103 0.500000 0.809727
O O2 0.274414 0.210489 0.784430
O O3 0.215467 0.253214 0.885007
O O4 0.104326 0.237914 0.794427
O O5 0.440654 0.500000 0.428812
O O6 0.398409 0.766887 0.482659
O O7 0.525304 0.768452 0.415138
O O8 0.350098 0.729157 0.374755
O O9 0.381453 0.500000 0.549908
O O10 0.301418 0.779002 0.574008
O O11 0.696943 0.707767 0.318870
O O12 0.567301 0.729278 0.231817
O O13 0.642796 0.000000 0.277594
O O14 0.005784 0.500000 0.939948
O O15 0.001752 0.773046 0.877417
O O16 0.870970 0.700841 0.930898
O O17 0.000000 0.779198 0.000000
O O18 0.728286 0.000000 0.605848
O O19 0.992572 0.500000 0.187056
O O20 0.299493 0.500000 0.936743
O O21 0.250000 0.250000 0.000000
#
# Coordination Sequence:
#
# PCOD9187422 Si02
#       8
#     8   8   8   8   8   8   8   8
#     4  10  21  40  62  84 111 147 186 234 290 343
#     4   9  17  35  60  86 116 153 194 235 283 340
#     4   8  17  34  58  85 118 155 190 234 287 339
#     4  11  23  40  59  81 110 150 196 242 284 340
#     4  10  19  35  59  84 114 149 185 229 286 348
#     4  11  22  36  55  83 117 152 192 238 288 339
#     4   9  19  37  60  82 109 145 186 229 285 347
#     4  11  22  35  56  85 119 150 186 231 284 347
#
# _framework density 22.721513000000002
#
# number of rings (size 3 to 8) (size 9 to 14) (size 15 to 20)
#    0.000    2.125    1.250    3.000    0.000    3.750 
#    0.000    7.500    0.000    0.000    0.000    0.000 
#    0.000    0.000    0.000    0.000    0.000    0.000 
#
# Total GULP energy -178695.543173 kJ/mol
# GULP energy per Si atom -5584.235724 kJ/mol
# Density = 2.266980 g / cm^3
# Si number density = 22.721513 Si / 1000 Ang^3
#
#
#
# Elastic Constant Matrix: (Units=GPa)
#
#
# Indices 1 2 3 4 5 6 
#
# 1 120.0432 2.6883 1.9131 0.0000 29.1366 0.0000
# 2 2.6883 35.4515 -1.0902 0.0000 3.0438 0.0000
# 3 1.9131 -1.0902 23.6596 0.0000 18.4030 0.0000
# 4 0.0000 0.0000 0.0000 7.5320 0.0000 -3.1885
# 5 29.1366 3.0438 18.4030 0.0000 34.6616 0.0000
# 6 0.0000 0.0000 0.0000 -3.1885 0.0000 2.2024
#
#
#
# Elastic Compliance Matrix: (Units=1/GPa)
#
#
# Indices 1 2 3 4 5 6 
#
# 1 0.012175 0.000882 0.012055 0.000000 -0.016712 0.000000
# 2 0.000882 0.028918 0.006496 0.000000 -0.006730 0.000000
# 3 0.012055 0.006496 0.085033 0.000000 -0.055851 0.000000
# 4 0.000000 0.000000 0.000000 0.342937 0.000000 0.496477
# 5 -0.016712 -0.006730 -0.055851 0.000000 0.073143 0.000000
# 6 0.000000 0.000000 0.000000 0.496477 0.000000 1.172811
#
#
# Mechanical properties :
#
#
# Convention : Reuss Voigt Hill
#
# Bulk Modulus (GPa) = 6.06085 20.68631 13.37358
# Shear Modulus (GPa) = 2.88826 20.58874 11.73850
#
# Velocity S-wave (km/s) = 1.12868 3.01347 2.27540
# Velocity P-wave (km/s) = 2.09088 4.60783 3.57798
#
# Compressibility (1/GPa) = 0.16499338
#
# Stress axis : x y z
#
# Youngs Moduli (GPa) = 82.13662 34.58029 11.76017
#
# Poissons Ratio (x) = -0.03051 -0.14177
# Poissons Ratio (y) = -0.07248 -0.07639
# Poissons Ratio (z) = -0.99019 -0.22463
#
# Static dielectric constant tensor:
#      x y z
#    x 1.810800 0.000000 0.053180 
#    y 0.000000 1.870940 0.000000 
#    z 0.053180 0.000000 1.811440 
# 
# From -- ./inp_files/338829.got.cif
#   From: 2010.05.17/outbox.cif.g08.bks.cpg/sg12_170_cif.got.tgz:338829.got - 2010.06.03 13:09:07.
