data_PCOD9187917
_publ_section_title
;
Structure prediction by ZEFSAII (Michael W. Deem and Ramdas Pophale) SiO2 
 PCOD9187917
Probable space group: C 2/M
;
_chemical_formula_sum "Si O2"
_cell_formula_units_Z 48
_cell_length_a 16.628599
_cell_length_b 16.641279
_cell_length_c 15.529907
_cell_angle_alpha 90.000000
_cell_angle_beta 25.752182
_cell_angle_gamma 90.000000
_cell_volume 1867.155833
_symmetry_space_group_name_H-M "C 2/M"
_symmetry_group_IT_number 12
_symmetry_cell_setting 'monoclinic'
loop_
_space_group_symop_operation_xyz
x,y,z
-x,y,-z
-x,-y,-z
x,-y,z
1/2+x,1/2+y,z
1/2-x,1/2+y,-z
1/2-x,1/2-y,-z
1/2+x,1/2-y,z
loop_
_atom_site_type_symbol
_atom_site_label
_atom_site_fract_x
_atom_site_fract_y
_atom_site_fract_z
Si Si1 0.804930 0.364876 0.070801
Si Si2 0.923073 0.175521 0.349054
Si Si3 0.811625 0.500000 0.948585
Si Si4 0.082386 0.194245 0.010131
Si Si5 0.517495 0.180273 0.586118
Si Si6 0.114972 0.000000 0.569902
Si Si7 0.026386 0.500000 0.575651
Si Si8 0.224532 0.500000 0.772978
O O1 0.629289 0.332260 0.190506
O O2 0.728576 0.419200 0.221251
O O3 0.901148 0.423793 0.910066
O O4 0.922644 0.291143 0.988629
O O5 0.968241 0.175140 0.204713
O O6 0.879395 0.257573 0.446901
O O7 0.822516 0.090832 0.465534
O O8 0.853497 0.500000 0.808476
O O9 0.596227 0.500000 0.186277
O O10 0.297202 0.171707 0.817974
O O11 0.000000 0.161578 0.000000
O O12 0.500000 0.205077 0.500000
O O13 0.604076 0.090865 0.512128
O O14 0.168876 0.000000 0.418086
O O15 0.000000 0.500000 0.500000
O O16 0.000000 0.500000 0.000000
#
# Coordination Sequence:
#
# PCOD9187917 Si02
#       8
#     8   8   4   8   8   4   4   4
#     4   9  19  35  63  90 126 164 212 266 333 401
#     4  10  21  38  64  95 123 167 222 267 315 396
#     4   9  16  32  59  94 116 166 214 272 315 383
#     4  11  22  39  62  89 127 171 219 274 328 380
#     4  10  21  37  63  92 123 167 217 272 324 392
#     4  10  22  36  66  96 132 166 220 267 325 391
#     4  10  19  35  62  93 125 164 221 272 316 370
#     4  11  23  38  62  99 136 170 202 278 352 402
#
# _framework density 25.707550000000001
#
# number of rings (size 3 to 8) (size 9 to 14) (size 15 to 20)
#    0.000    2.000    0.000    6.000    4.667    4.667 
#    0.000    2.500   18.333    0.000    0.000    0.000 
#    0.000    0.000    0.000    0.000    0.000    0.000 
#
# Total GULP energy -133795.599815 kJ/mol
# GULP energy per Si atom -5574.816659 kJ/mol
# Density = 2.564904 g / cm^3
# Si number density = 25.707550 Si / 1000 Ang^3
#
#
#
# Elastic Constant Matrix: (Units=GPa)
#
#
# Indices 1 2 3 4 5 6 
#
# 1 108.9814 24.9279 73.9340 0.0007 34.8552 -0.0042
# 2 24.9279 166.5696 26.0297 -0.0112 35.1970 0.0071
# 3 73.9340 26.0297 161.7571 -0.0173 39.7914 0.0073
# 4 0.0007 -0.0112 -0.0173 3.5524 0.0088 13.3057
# 5 34.8552 35.1970 39.7914 0.0088 62.2136 -0.0039
# 6 -0.0042 0.0071 0.0073 13.3057 -0.0039 23.9464
#
#
#
# Elastic Compliance Matrix: (Units=1/GPa)
#
#
# Indices 1 2 3 4 5 6 
#
# 1 0.014329 -0.000379 -0.005419 0.000030 -0.004348 -0.000013
# 2 -0.000379 0.006833 -0.000033 -0.000037 -0.003632 0.000018
# 3 -0.005419 -0.000033 0.009390 -0.000065 -0.002951 0.000032
# 4 0.000030 -0.000037 -0.000065 -0.260361 0.000092 0.144668
# 5 -0.004348 -0.003632 -0.002951 0.000092 0.022452 -0.000046
# 6 -0.000013 0.000018 0.000032 0.144668 -0.000046 -0.038624
#
#
# Mechanical properties :
#
#
# Convention : Reuss Voigt Hill
#
# Bulk Modulus (GPa) = 52.93519 76.34348 64.63934
# Shear Modulus (GPa) = -21.92769 38.77025 8.42128
#
# Velocity S-wave (km/s) = -2.92373 3.88767 1.81188
# Velocity P-wave (km/s) = 3.03948 7.06494 5.43837
#
# Compressibility (1/GPa) = 0.01889102
#
# Stress axis : x y z
#
# Youngs Moduli (GPa) = 69.78677 146.35139 106.49331
#
# Poissons Ratio (x) = 0.05546 0.57709
# Poissons Ratio (y) = 0.02645 0.00349
# Poissons Ratio (z) = 0.37817 0.00480
#
# Static dielectric constant tensor:
#      x y z
#    x 2.119210 0.000000 -0.047460 
#    y 0.000000 2.212780 0.000010 
#    z -0.047460 0.000010 2.028130 
# 
# From -- ./inp_files/226800.got.cif
#   From: 2010.05.17/outbox.cif.g08.bks.cpg/sg12_114_cif.got.tgz:226800.got - 2010.06.03 13:09:07.
