data_PCOD9187837
_publ_section_title
;
Structure prediction by ZEFSAII (Michael W. Deem and Ramdas Pophale) SiO2 
 PCOD9187837
Probable space group: C 2/M
;
_chemical_formula_sum "Si O2"
_cell_formula_units_Z 64
_cell_length_a 9.026806
_cell_length_b 16.122744
_cell_length_c 18.920251
_cell_angle_alpha 90.000000
_cell_angle_beta 102.272433
_cell_angle_gamma 90.000000
_cell_volume 2690.669088
_symmetry_space_group_name_H-M "C 2/M"
_symmetry_group_IT_number 12
_symmetry_cell_setting 'monoclinic'
loop_
_space_group_symop_operation_xyz
x,y,z
-x,y,-z
-x,-y,-z
x,-y,z
1/2+x,1/2+y,z
1/2-x,1/2+y,-z
1/2-x,1/2-y,-z
1/2+x,1/2-y,z
loop_
_atom_site_type_symbol
_atom_site_label
_atom_site_fract_x
_atom_site_fract_y
_atom_site_fract_z
Si Si1 0.985399 0.755224 0.840873
Si Si2 0.838255 0.833851 0.027715
Si Si3 0.272375 0.410680 0.797911
Si Si4 0.995833 0.352849 0.702246
Si Si5 0.316045 0.910854 0.472571
Si Si6 0.574718 0.909503 0.919943
Si Si7 0.417961 0.757449 0.419024
Si Si8 0.298187 0.413007 0.377379
O O1 0.114156 0.815529 0.886953
O O2 0.001520 0.711717 0.767017
O O3 0.980043 0.676383 0.896097
O O4 0.855625 0.823379 0.816669
O O5 0.750000 0.750000 0.000000
O O6 0.707189 0.898548 0.992571
O O7 0.000000 0.844944 0.000000
O O8 0.355781 0.500000 0.801383
O O9 0.153240 0.401627 0.722272
O O10 0.170367 0.414921 0.857700
O O11 0.982687 0.307051 0.626702
O O12 0.849665 0.410387 0.687338
O O13 0.500000 0.911236 0.500000
O O14 0.288577 0.824549 0.429066
O O15 0.245444 0.911099 0.543586
O O16 0.275279 0.000000 0.435258
O O17 0.498371 0.000000 0.919935
O O18 0.500000 0.734988 0.500000
O O19 0.375766 0.674354 0.374403
O O20 0.381545 0.500000 0.373622
#
# Coordination Sequence:
#
# PCOD9187837 Si02
#       8
#     8   8   8   8   8   8   8   8
#     4  10  21  37  58  89 125 159 197 252 316 355
#     4  10  19  35  61  93 127 165 205 262 314 375
#     4  10  20  36  59  88 118 151 202 252 298 360
#     4  11  22  38  58  84 115 161 198 251 301 365
#     4   9  17  32  57  87 110 133 181 242 292 340
#     4   9  19  35  61  94 120 158 209 251 296 363
#     4  11  22  38  61  83 117 150 200 245 301 364
#     4  11  22  38  60  85 114 152 194 244 303 364
#
# _framework density 23.785903999999999
#
# number of rings (size 3 to 8) (size 9 to 14) (size 15 to 20)
#    0.000    1.875    3.750    1.500    0.000    2.000 
#    0.000    0.625    0.000    9.000    0.000    0.000 
#    0.000    0.000    0.000    0.000    0.000    0.000 
#
# Total GULP energy -178206.836092 kJ/mol
# GULP energy per Si atom -5568.963628 kJ/mol
# Density = 2.373177 g / cm^3
# Si number density = 23.785904 Si / 1000 Ang^3
#
#
#
# Elastic Constant Matrix: (Units=GPa)
#
#
# Indices 1 2 3 4 5 6 
#
# 1 33.5119 39.2005 12.2189 0.0000 8.5282 0.0000
# 2 39.2005 200.4237 25.1749 0.0000 24.5837 0.0000
# 3 12.2189 25.1749 96.6282 0.0000 12.4591 0.0000
# 4 0.0000 0.0000 0.0000 61.2434 0.0000 0.0573
# 5 8.5282 24.5837 12.4591 0.0000 30.6415 0.0000
# 6 0.0000 0.0000 0.0000 0.0573 0.0000 20.6176
#
#
#
# Elastic Compliance Matrix: (Units=1/GPa)
#
#
# Indices 1 2 3 4 5 6 
#
# 1 0.040095 -0.006955 -0.002679 0.000000 -0.004490 0.000000
# 2 -0.006955 0.006819 -0.000466 0.000000 -0.003346 0.000000
# 3 -0.002679 -0.000466 0.011255 0.000000 -0.003457 0.000000
# 4 0.000000 0.000000 0.000000 0.016328 0.000000 -0.000045
# 5 -0.004490 -0.003346 -0.003457 0.000000 0.037975 0.000000
# 6 0.000000 0.000000 0.000000 -0.000045 0.000000 0.048502
#
#
# Mechanical properties :
#
#
# Convention : Reuss Voigt Hill
#
# Bulk Modulus (GPa) = 26.33723 53.75027 40.04375
# Shear Modulus (GPa) = 25.79581 39.43179 32.61380
#
# Velocity S-wave (km/s) = 3.29675 4.07600 3.70691
# Velocity P-wave (km/s) = 5.05846 6.69315 5.93238
#
# Compressibility (1/GPa) = 0.03796907
#
# Stress axis : x y z
#
# Youngs Moduli (GPa) = 24.94072 146.65851 88.85104
#
# Poissons Ratio (x) = 1.01999 0.23805
# Poissons Ratio (y) = 0.17346 0.04137
# Poissons Ratio (z) = 0.06682 0.06829
#
# Static dielectric constant tensor:
#      x y z
#    x 1.989230 0.000000 0.027960 
#    y 0.000000 1.999330 0.000000 
#    z 0.027960 0.000000 1.934040 
# 
# From -- ./inp_files/305481.got.cif
#   From: 2010.05.17/outbox.cif.g08.bks.cpg/sg12_153_cif.got.tgz:305481.got - 2010.06.03 13:09:07.
