data_PCOD9187590
_publ_section_title
;
Structure prediction by ZEFSAII (Michael W. Deem and Ramdas Pophale) SiO2 
 PCOD9187590
Probable space group: C 2/M
;
_chemical_formula_sum "Si O2"
_cell_formula_units_Z 56
_cell_length_a 20.646823
_cell_length_b 7.531225
_cell_length_c 19.234126
_cell_angle_alpha 90.000000
_cell_angle_beta 119.711568
_cell_angle_gamma 90.000000
_cell_volume 2597.627480
_symmetry_space_group_name_H-M "C 2/M"
_symmetry_group_IT_number 12
_symmetry_cell_setting 'monoclinic'
loop_
_space_group_symop_operation_xyz
x,y,z
-x,y,-z
-x,-y,-z
x,-y,z
1/2+x,1/2+y,z
1/2-x,1/2+y,-z
1/2-x,1/2-y,-z
1/2+x,1/2-y,z
loop_
_atom_site_type_symbol
_atom_site_label
_atom_site_fract_x
_atom_site_fract_y
_atom_site_fract_z
Si Si1 0.539433 0.281914 0.814775
Si Si2 0.874386 0.204512 0.727213
Si Si3 0.918050 0.290606 0.440781
Si Si4 0.143338 0.785105 0.743710
Si Si5 0.067195 0.786802 0.986488
Si Si6 0.686141 0.789957 0.159802
Si Si7 0.731970 0.213207 0.570127
O O1 0.538511 0.500000 0.814801
O O2 0.455381 0.219119 0.753980
O O3 0.596848 0.225986 0.786074
O O4 0.560654 0.223695 0.903879
O O5 0.861768 0.207897 0.803198
O O6 0.800806 0.284187 0.652836
O O7 0.877337 0.000000 0.705362
O O8 0.922137 0.500000 0.459922
O O9 0.895781 0.271223 0.348444
O O10 0.848220 0.216284 0.447611
O O11 0.000000 0.214811 0.500000
O O12 0.229071 0.723199 0.791935
O O13 0.144600 0.000000 0.745152
O O14 0.060560 0.000000 0.980821
O O15 0.144534 0.743137 0.065411
O O16 0.000000 0.719440 0.000000
O O17 0.687434 0.000000 0.173162
O O18 0.750000 0.250000 0.500000
O O19 0.729229 0.000000 0.579315
#
# Coordination Sequence:
#
# PCOD9187590 Si02
#       7
#     8   8   8   8   8   8   8
#     4   9  19  36  58  83 109 141 192 238 269 324
#     4  10  19  37  61  81 106 150 196 229 270 329
#     4  10  22  40  59  82 115 151 185 229 282 336
#     4  10  22  39  58  82 113 150 187 229 279 333
#     4  10  19  35  60  84 108 148 193 230 274 331
#     4  11  22  35  55  84 117 147 180 231 286 331
#     4  10  22  37  58  86 115 146 186 232 278 332
#
# _framework density 21.558133000000002
#
# number of rings (size 3 to 8) (size 9 to 14) (size 15 to 20)
#    0.000    2.000    2.857    0.429    2.000    2.857 
#    0.000    1.429    0.000    0.000    0.000    0.000 
#    0.000    0.000    0.000    0.000    0.000    0.000 
#
# Total GULP energy -156436.670974 kJ/mol
# GULP energy per Si atom -5587.023963 kJ/mol
# Density = 2.150907 g / cm^3
# Si number density = 21.558133 Si / 1000 Ang^3
#
#
#
# Elastic Constant Matrix: (Units=GPa)
#
#
# Indices 1 2 3 4 5 6 
#
# 1 117.2074 -11.7627 51.2698 0.0000 3.0757 0.0000
# 2 -11.7627 50.9483 -15.7734 -0.0001 3.5308 -0.0002
# 3 51.2698 -15.7734 118.9279 0.0000 14.0155 0.0000
# 4 0.0000 -0.0001 0.0000 56.6640 0.0000 29.6870
# 5 3.0757 3.5308 14.0155 0.0000 41.9925 0.0000
# 6 0.0000 -0.0002 0.0000 29.6870 0.0000 39.8682
#
#
#
# Elastic Compliance Matrix: (Units=1/GPa)
#
#
# Indices 1 2 3 4 5 6 
#
# 1 0.010587 0.001004 -0.004507 0.000000 0.000644 0.000000
# 2 0.001004 0.020870 0.002655 0.000000 -0.002714 0.000000
# 3 -0.004507 0.002655 0.011129 0.000000 -0.003607 0.000000
# 4 0.000000 0.000000 0.000000 0.028937 0.000000 -0.021547
# 5 0.000644 -0.002714 -0.003607 0.000000 0.025199 0.000000
# 6 0.000000 0.000000 0.000000 -0.021547 0.000000 0.041127
#
#
# Mechanical properties :
#
#
# Convention : Reuss Voigt Hill
#
# Bulk Modulus (GPa) = 24.45576 37.17235 30.81406
# Shear Modulus (GPa) = 32.64270 45.26161 38.95215
#
# Velocity S-wave (km/s) = 3.89546 4.58702 4.25531
# Velocity P-wave (km/s) = 5.62152 6.73310 6.20226
#
# Compressibility (1/GPa) = 0.04089016
#
# Stress axis : x y z
#
# Youngs Moduli (GPa) = 94.45368 47.91644 89.85848
#
# Poissons Ratio (x) = -0.04813 0.40498
# Poissons Ratio (y) = -0.09487 -0.23856
# Poissons Ratio (z) = 0.42569 -0.12721
#
# Static dielectric constant tensor:
#      x y z
#    x 1.771780 0.000000 0.023560 
#    y 0.000000 1.817500 0.000000 
#    z 0.023560 0.000000 1.750950 
# 
# From -- ./inp_files/280948.got.cif
#   From: 2010.05.17/outbox.cif.g08.bks.cpg/sg12_141_cif.got.tgz:280948.got - 2010.06.03 13:09:07.
