data_PCOD9187968
_publ_section_title
;
Structure prediction by ZEFSAII (Michael W. Deem and Ramdas Pophale) SiO2 
 PCOD9187968
Probable space group: C 2/M
;
_chemical_formula_sum "Si O2"
_cell_formula_units_Z 48
_cell_length_a 12.751928
_cell_length_b 14.198595
_cell_length_c 12.022068
_cell_angle_alpha 90.000000
_cell_angle_beta 120.186220
_cell_angle_gamma 90.000000
_cell_volume 1881.538156
_symmetry_space_group_name_H-M "C 2/M"
_symmetry_group_IT_number 12
_symmetry_cell_setting 'monoclinic'
loop_
_space_group_symop_operation_xyz
x,y,z
-x,y,-z
-x,-y,-z
x,-y,z
1/2+x,1/2+y,z
1/2-x,1/2+y,-z
1/2-x,1/2-y,-z
1/2+x,1/2-y,z
loop_
_atom_site_type_symbol
_atom_site_label
_atom_site_fract_x
_atom_site_fract_y
_atom_site_fract_z
Si Si1 0.917727 0.110508 0.057197
Si Si2 0.790512 0.702547 0.171580
Si Si3 0.525631 0.610248 0.364782
Si Si4 0.265625 0.390677 0.264095
Si Si5 0.458015 0.109936 0.684846
Si Si6 0.772523 0.386016 0.405446
O O1 0.975130 0.118663 0.209873
O O2 0.903415 0.000000 0.029953
O O3 0.789080 0.156039 0.965395
O O4 0.000000 0.148803 0.000000
O O5 0.745257 0.808524 0.166056
O O6 0.766492 0.653922 0.278936
O O7 0.932349 0.679098 0.227246
O O8 0.546486 0.500000 0.400634
O O9 0.405556 0.634758 0.373573
O O10 0.660147 0.651442 0.420482
O O11 0.270569 0.500000 0.228113
O O12 0.156969 0.386056 0.293701
O O13 0.398324 0.133687 0.534493
O O14 0.500468 0.000000 0.705967
O O15 0.762639 0.500000 0.393822
#
# Coordination Sequence:
#
# PCOD9187968 Si02
#       6
#     8   8   8   8   8   8
#     4  10  19  35  64 101 133 159 204 271 326 372
#     4  12  23  37  68  97 128 165 218 265 319 379
#     4   9  19  39  64  91 126 168 214 259 313 375
#     4  10  25  46  63  89 134 177 214 261 318 382
#     4  10  23  43  64  94 134 171 207 257 326 388
#     4  10  20  38  67  99 129 164 211 268 319 375
#
# _framework density 25.511042
#
# number of rings (size 3 to 8) (size 9 to 14) (size 15 to 20)
#    0.000    1.833    1.667    2.000    2.333    3.333 
#    3.000    4.167    0.000    6.500    0.000    0.000 
#    0.000    0.000    0.000    0.000    0.000    0.000 
#
# Total GULP energy -134234.170045 kJ/mol
# GULP energy per Si atom -5593.090419 kJ/mol
# Density = 2.545298 g / cm^3
# Si number density = 25.511042 Si / 1000 Ang^3
#
#
#
# Elastic Constant Matrix: (Units=GPa)
#
#
# Indices 1 2 3 4 5 6 
#
# 1 171.6870 27.7095 30.7703 0.0000 6.6683 0.0000
# 2 27.7095 123.3389 38.9022 0.0000 5.6599 0.0000
# 3 30.7703 38.9022 90.0068 0.0000 13.7165 0.0000
# 4 0.0000 0.0000 0.0000 -111.8618 0.0000 1.9903
# 5 6.6683 5.6599 13.7165 0.0000 33.4634 0.0000
# 6 0.0000 0.0000 0.0000 1.9903 0.0000 39.7878
#
#
#
# Elastic Compliance Matrix: (Units=1/GPa)
#
#
# Indices 1 2 3 4 5 6 
#
# 1 0.006286 -0.000851 -0.001719 0.000000 -0.000404 0.000000
# 2 -0.000851 0.009503 -0.003837 0.000000 0.000135 0.000000
# 3 -0.001719 -0.003837 0.014085 0.000000 -0.004782 0.000000
# 4 0.000000 0.000000 0.000000 -0.008932 0.000000 0.000447
# 5 -0.000404 0.000135 -0.004782 0.000000 0.031901 0.000000
# 6 0.000000 0.000000 0.000000 0.000447 0.000000 0.025111
#
#
# Mechanical properties :
#
#
# Convention : Reuss Voigt Hill
#
# Bulk Modulus (GPa) = 58.62103 64.42186 61.52144
# Shear Modulus (GPa) = 51.83723 11.45458 31.64591
#
# Velocity S-wave (km/s) = 4.51261 2.12127 3.52586
# Velocity P-wave (km/s) = 7.08379 5.59527 6.38307
#
# Compressibility (1/GPa) = 0.01705872
#
# Stress axis : x y z
#
# Youngs Moduli (GPa) = 159.08882 105.23011 70.99680
#
# Poissons Ratio (x) = 0.08959 0.12207
# Poissons Ratio (y) = 0.13544 0.27240
# Poissons Ratio (z) = 0.27354 0.40375
#
# Static dielectric constant tensor:
#      x y z
#    x 2.094410 0.000000 -0.028680 
#    y 0.000000 2.010010 0.000000 
#    z -0.028680 0.000000 2.005940 
# 
# From -- ./inp_files/205136.got.cif
#   From: 2010.05.17/outbox.cif.g08.bks.cpg/sg12_103_cif.got.tgz:205136.got - 2010.06.03 13:09:07.
