data_PCOD9187766
_publ_section_title
;
Structure prediction by ZEFSAII (Michael W. Deem and Ramdas Pophale) SiO2 
 PCOD9187766
Probable space group: C 2/M
;
_chemical_formula_sum "Si O2"
_cell_formula_units_Z 52
_cell_length_a 14.117151
_cell_length_b 11.468875
_cell_length_c 21.194041
_cell_angle_alpha 90.000000
_cell_angle_beta 46.886641
_cell_angle_gamma 90.000000
_cell_volume 2504.991532
_symmetry_space_group_name_H-M "C 2/M"
_symmetry_group_IT_number 12
_symmetry_cell_setting 'monoclinic'
loop_
_space_group_symop_operation_xyz
x,y,z
-x,y,-z
-x,-y,-z
x,-y,z
1/2+x,1/2+y,z
1/2-x,1/2+y,-z
1/2-x,1/2-y,-z
1/2+x,1/2-y,z
loop_
_atom_site_type_symbol
_atom_site_label
_atom_site_fract_x
_atom_site_fract_y
_atom_site_fract_z
Si Si1 0.377600 0.132584 0.692812
Si Si2 0.947502 0.369624 0.886964
Si Si3 0.743732 0.633824 0.878723
Si Si4 0.071560 0.200975 0.528577
Si Si5 0.302175 0.374826 0.404281
Si Si6 0.581821 0.631875 0.778032
Si Si7 0.000000 0.297515 0.000000
O O1 0.354993 0.163209 0.776746
O O2 0.470229 0.215476 0.611174
O O3 0.231717 0.134884 0.731952
O O4 0.427392 0.000000 0.666810
O O5 0.997059 0.500000 0.843316
O O6 0.805747 0.360894 0.919853
O O7 0.015855 0.248918 0.834186
O O8 0.956609 0.367466 0.958146
O O9 0.705239 0.500000 0.883214
O O10 0.621867 0.716491 0.926950
O O11 0.193599 0.276710 0.449175
O O12 0.132714 0.125872 0.556773
O O13 0.000000 0.148694 0.500000
O O14 0.237965 0.500000 0.421861
O O15 0.409860 0.360416 0.301447
O O16 0.531176 0.500000 0.818027
#
# Coordination Sequence:
#
# PCOD9187766 Si02
#       7
#     8   8   8   8   8   8   4
#     4  10  19  35  61  88 115 154 207 254 294 349
#     4  11  24  42  63  92 128 160 197 248 308 367
#     4  10  22  39  63  91 121 160 206 252 299 360
#     4  11  21  35  59  85 121 159 198 247 305 358
#     4  10  22  38  58  87 120 158 205 253 298 354
#     4  10  20  39  65  90 120 161 211 254 294 355
#     4  12  22  40  64  90 125 158 199 246 307 366
#
# _framework density 20.758552999999999
#
# number of rings (size 3 to 8) (size 9 to 14) (size 15 to 20)
#    0.000    1.538    3.077    2.308    0.000    1.538 
#    0.000    5.385    0.000    0.000    0.000    0.000 
#    0.000    0.000    0.000    0.000    0.000    0.000 
#
# Total GULP energy -144995.881301 kJ/mol
# GULP energy per Si atom -5576.764665 kJ/mol
# Density = 2.071131 g / cm^3
# Si number density = 20.758553 Si / 1000 Ang^3
#
#
#
# Elastic Constant Matrix: (Units=GPa)
#
#
# Indices 1 2 3 4 5 6 
#
# 1 96.1795 11.1251 6.8103 0.0000 26.9796 0.0000
# 2 11.1251 117.0569 33.0616 0.0000 -6.1441 0.0000
# 3 6.8103 33.0616 46.9917 0.0000 15.5266 0.0000
# 4 0.0000 0.0000 0.0000 58.9887 0.0000 -26.0288
# 5 26.9796 -6.1441 15.5266 0.0000 36.8022 0.0000
# 6 0.0000 0.0000 0.0000 -26.0288 0.0000 25.3450
#
#
#
# Elastic Compliance Matrix: (Units=1/GPa)
#
#
# Indices 1 2 3 4 5 6 
#
# 1 0.014022 -0.003259 0.004458 0.000000 -0.012705 0.000000
# 2 -0.003259 0.012578 -0.011457 0.000000 0.009323 0.000000
# 3 0.004458 -0.011457 0.035332 0.000000 -0.020088 0.000000
# 4 0.000000 0.000000 0.000000 0.031000 0.000000 0.031837
# 5 -0.012705 0.009323 -0.020088 0.000000 0.046517 0.000000
# 6 0.000000 0.000000 0.000000 0.031837 0.000000 0.072151
#
#
# Mechanical properties :
#
#
# Convention : Reuss Voigt Hill
#
# Bulk Modulus (GPa) = 24.14473 40.24691 32.19582
# Shear Modulus (GPa) = 20.33160 38.17593 29.25377
#
# Velocity S-wave (km/s) = 3.13298 4.29306 3.75806
# Velocity P-wave (km/s) = 4.97433 6.63355 5.86293
#
# Compressibility (1/GPa) = 0.04141691
#
# Stress axis : x y z
#
# Youngs Moduli (GPa) = 71.31504 79.50444 28.30269
#
# Poissons Ratio (x) = 0.25908 -0.12618
# Poissons Ratio (y) = 0.23240 0.32427
# Poissons Ratio (z) = -0.31794 0.91091
#
# Static dielectric constant tensor:
#      x y z
#    x 1.756110 0.000000 0.062910 
#    y 0.000000 1.748650 0.000000 
#    z 0.062910 0.000000 1.764630 
# 
# From -- ./inp_files/309785.got.cif
#   From: 2010.05.17/outbox.cif.g08.bks.cpg/sg12_155_cif.got.tgz:309785.got - 2010.06.03 13:09:07.
