data_PCOD9187983
_publ_section_title
;
Structure prediction by ZEFSAII (Michael W. Deem and Ramdas Pophale) SiO2 
 PCOD9187983
Probable space group: C 2/M
;
_chemical_formula_sum "Si O2"
_cell_formula_units_Z 52
_cell_length_a 19.260570
_cell_length_b 12.020024
_cell_length_c 23.093927
_cell_angle_alpha 90.000000
_cell_angle_beta 149.420940
_cell_angle_gamma 90.000000
_cell_volume 2719.924695
_symmetry_space_group_name_H-M "C 2/M"
_symmetry_group_IT_number 12
_symmetry_cell_setting 'monoclinic'
loop_
_space_group_symop_operation_xyz
x,y,z
-x,y,-z
-x,-y,-z
x,-y,z
1/2+x,1/2+y,z
1/2-x,1/2+y,-z
1/2-x,1/2-y,-z
1/2+x,1/2-y,z
loop_
_atom_site_type_symbol
_atom_site_label
_atom_site_fract_x
_atom_site_fract_y
_atom_site_fract_z
Si Si1 0.027090 0.500000 0.621413
Si Si2 0.615439 0.873543 0.239738
Si Si3 0.162033 0.000000 0.194366
Si Si4 0.370115 0.255233 0.870106
Si Si5 0.770069 0.000000 0.628625
Si Si6 0.383490 0.804914 0.234482
Si Si7 0.652228 0.274790 0.376383
Si Si8 0.801923 0.624501 0.053076
O O1 0.174311 0.500000 0.697309
O O2 0.031698 0.391775 0.665611
O O3 0.895140 0.500000 0.486297
O O4 0.644949 0.807166 0.201918
O O5 0.669601 0.813175 0.336404
O O6 0.452315 0.877245 0.132828
O O7 0.665754 0.000000 0.271844
O O8 0.107924 0.886112 0.128500
O O9 0.148079 0.000000 0.252889
O O10 0.233151 0.249106 0.810370
O O11 0.500000 0.213946 0.000000
O O12 0.810660 0.107749 0.622844
O O13 0.495838 0.727103 0.285632
O O14 0.313346 0.870216 0.131049
O O15 0.750000 0.250000 0.500000
O O16 0.739972 0.500000 0.994119
O O17 0.750000 0.750000 0.000000
#
# Coordination Sequence:
#
# PCOD9187983 Si02
#       8
#     4   8   4   8   4   8   8   8
#     4  10  19  35  65  88 120 166 199 246 316 376
#     4  10  23  42  63  84 122 166 205 250 306 381
#     4  10  22  38  58 100 128 152 197 264 309 361
#     4  11  22  41  64  89 123 165 206 251 309 366
#     4  12  21  39  65  92 124 159 205 259 316 366
#     4  10  21  39  58  90 124 158 208 255 307 377
#     4  11  23  39  64  92 121 160 205 256 313 370
#     4  10  20  38  61  88 119 160 211 261 318 374
#
# _framework density 19.118176999999999
#
# number of rings (size 3 to 8) (size 9 to 14) (size 15 to 20)
#    0.000    1.538    3.846    1.385    2.154    0.308 
#   11.077    0.769    0.000    0.923    0.000    0.000 
#    0.000    0.000    0.000    0.000    0.000    0.000 
#
# Total GULP energy -144993.710239 kJ/mol
# GULP energy per Si atom -5576.681163 kJ/mol
# Density = 1.907466 g / cm^3
# Si number density = 19.118177 Si / 1000 Ang^3
#
#
#
# Elastic Constant Matrix: (Units=GPa)
#
#
# Indices 1 2 3 4 5 6 
#
# 1 118.4971 38.4285 34.3272 -0.0002 -16.9801 -0.0001
# 2 38.4285 130.4008 35.8482 -0.0003 -6.9883 -0.0002
# 3 34.3272 35.8482 80.3153 0.0001 -15.2052 -0.0001
# 4 -0.0002 -0.0003 0.0001 49.2398 -0.0001 0.0878
# 5 -16.9801 -6.9883 -15.2052 -0.0001 24.7620 0.0000
# 6 -0.0001 -0.0002 -0.0001 0.0878 0.0000 16.2522
#
#
#
# Elastic Compliance Matrix: (Units=1/GPa)
#
#
# Indices 1 2 3 4 5 6 
#
# 1 0.010618 -0.002136 -0.002626 0.000000 0.005066 0.000000
# 2 -0.002136 0.009171 -0.003358 0.000000 -0.000938 0.000000
# 3 -0.002626 -0.003358 0.016466 0.000000 0.007363 0.000000
# 4 0.000000 0.000000 0.000000 0.020309 0.000000 -0.000110
# 5 0.005066 -0.000938 0.007363 0.000000 0.048115 0.000000
# 6 0.000000 0.000000 0.000000 -0.000110 0.000000 0.061531
#
#
# Mechanical properties :
#
#
# Convention : Reuss Voigt Hill
#
# Bulk Modulus (GPa) = 49.96127 60.71342 55.33735
# Shear Modulus (GPa) = 26.43804 32.75808 29.59806
#
# Velocity S-wave (km/s) = 3.72274 4.14388 3.93894
# Velocity P-wave (km/s) = 6.68341 7.39740 7.04945
#
# Compressibility (1/GPa) = 0.02001550
#
# Stress axis : x y z
#
# Youngs Moduli (GPa) = 94.17700 109.03967 60.73090
#
# Poissons Ratio (x) = 0.23288 0.15947
# Poissons Ratio (y) = 0.20114 0.20395
# Poissons Ratio (z) = 0.24730 0.36618
#
# Static dielectric constant tensor:
#      x y z
#    x 1.665380 0.000000 0.001510 
#    y 0.000000 1.681220 0.000000 
#    z 0.001510 0.000000 1.689960 
# 
# From -- ./inp_files/315820.got.cif
#   From: 2010.05.17/outbox.cif.g08.bks.cpg/sg12_158_cif.got.tgz:315820.got - 2010.06.03 13:09:07.
