data_PCOD9187013
_publ_section_title
;
Structure prediction by ZEFSAII (Michael W. Deem and Ramdas Pophale) SiO2 
 PCOD9187013
Probable space group: C 2/M
;
_chemical_formula_sum "Si O2"
_cell_formula_units_Z 56
_cell_length_a 18.622933
_cell_length_b 14.297838
_cell_length_c 12.168634
_cell_angle_alpha 90.000000
_cell_angle_beta 56.261536
_cell_angle_gamma 90.000000
_cell_volume 2694.418658
_symmetry_space_group_name_H-M "C 2/M"
_symmetry_group_IT_number 12
_symmetry_cell_setting 'monoclinic'
loop_
_space_group_symop_operation_xyz
x,y,z
-x,y,-z
-x,-y,-z
x,-y,z
1/2+x,1/2+y,z
1/2-x,1/2+y,-z
1/2-x,1/2-y,-z
1/2+x,1/2-y,z
loop_
_atom_site_type_symbol
_atom_site_label
_atom_site_fract_x
_atom_site_fract_y
_atom_site_fract_z
Si Si1 0.499106 0.392483 0.274878
Si Si2 0.278365 0.891998 0.540231
Si Si3 0.304626 0.396913 0.149627
Si Si4 0.851944 0.798439 0.521726
Si Si5 0.949044 0.754177 0.941834
Si Si6 0.818798 0.101258 0.763393
Si Si7 0.193701 0.655396 0.048422
O O1 0.473584 0.500000 0.276762
O O2 0.442589 0.347544 0.419380
O O3 0.491080 0.326102 0.176412
O O4 0.599329 0.390933 0.225207
O O5 0.225466 0.889536 0.699617
O O6 0.216268 0.853431 0.497279
O O7 0.350207 0.811030 0.493097
O O8 0.304749 0.000000 0.498793
O O9 0.344311 0.500000 0.097390
O O10 0.221488 0.390411 0.139191
O O11 0.372417 0.317737 0.058206
O O12 0.823603 0.817232 0.670577
O O13 0.904019 0.682830 0.895541
O O14 0.000000 0.710152 0.000000
O O15 0.826437 0.000000 0.699809
O O16 0.734008 0.102951 0.909644
O O17 0.250000 0.750000 0.000000
#
# Coordination Sequence:
#
# PCOD9187013 Si02
#       7
#     8   8   8   8   8   8   8
#     4  11  22  35  54  86 120 154 195 245 305 361
#     4  10  22  38  60  87 114 155 203 242 291 354
#     4  10  19  36  61  85 113 149 197 248 292 347
#     4  11  22  37  57  85 123 157 190 243 300 357
#     4  11  22  34  54  88 124 154 189 244 308 362
#     4  11  21  36  59  86 115 154 202 249 298 357
#     4  10  19  35  57  82 115 156 198 238 290 359
#
# _framework density 20.783704
#
# number of rings (size 3 to 8) (size 9 to 14) (size 15 to 20)
#    0.000    1.429    2.857    5.143    0.000    4.571 
#    0.000    0.000    0.000    5.143    0.000    0.000 
#    0.000    0.000    0.000    0.000    0.000    0.000 
#
# Total GULP energy -156340.652963 kJ/mol
# GULP energy per Si atom -5583.594749 kJ/mol
# Density = 2.073640 g / cm^3
# Si number density = 20.783704 Si / 1000 Ang^3
#
#
#
# Elastic Constant Matrix: (Units=GPa)
#
#
# Indices 1 2 3 4 5 6 
#
# 1 51.5103 3.5720 1.9749 0.0000 12.5610 0.0000
# 2 3.5720 91.6007 0.5080 0.0000 -6.0718 0.0000
# 3 1.9749 0.5080 50.3005 0.0000 9.2075 0.0000
# 4 0.0000 0.0000 0.0000 28.1130 0.0000 2.5971
# 5 12.5610 -6.0718 9.2075 0.0000 29.3026 0.0000
# 6 0.0000 0.0000 0.0000 2.5971 0.0000 11.7126
#
#
#
# Elastic Compliance Matrix: (Units=1/GPa)
#
#
# Indices 1 2 3 4 5 6 
#
# 1 0.021926 -0.001525 0.000990 0.000000 -0.010026 0.000000
# 2 -0.001525 0.011190 -0.000634 0.000000 0.003172 0.000000
# 3 0.000990 -0.000634 0.021167 0.000000 -0.007207 0.000000
# 4 0.000000 0.000000 0.000000 0.036315 0.000000 -0.008052
# 5 -0.010026 0.003172 -0.007207 0.000000 0.041346 0.000000
# 6 0.000000 0.000000 0.000000 -0.008052 0.000000 0.087163
#
#
# Mechanical properties :
#
#
# Convention : Reuss Voigt Hill
#
# Bulk Modulus (GPa) = 19.25083 22.83568 21.04325
# Shear Modulus (GPa) = 20.94143 26.31610 23.62877
#
# Velocity S-wave (km/s) = 3.17770 3.56222 3.37544
# Velocity P-wave (km/s) = 4.76930 5.28491 5.03372
#
# Compressibility (1/GPa) = 0.05194582
#
# Stress axis : x y z
#
# Youngs Moduli (GPa) = 45.60729 89.36422 47.24273
#
# Poissons Ratio (x) = 0.13629 -0.04676
# Poissons Ratio (y) = 0.06955 0.02994
# Poissons Ratio (z) = -0.04514 0.05663
#
# Static dielectric constant tensor:
#      x y z
#    x 1.767130 0.000000 0.002260 
#    y 0.000000 1.900270 0.000000 
#    z 0.002260 0.000000 1.742810 
# 
# From -- ./inp_files/156521.got.cif
#   From: 2010.05.17/outbox.cif.g08.bks.cpg/sg12_79_cif.got.tgz:156521.got - 2010.06.03 13:09:07.
