data_PCOD9187553
_publ_section_title
;
Structure prediction by ZEFSAII (Michael W. Deem and Ramdas Pophale) SiO2 
 PCOD9187553
Probable space group: C 2/M
;
_chemical_formula_sum "Si O2"
_cell_formula_units_Z 50
_cell_length_a 32.514832
_cell_length_b 8.075418
_cell_length_c 31.346377
_cell_angle_alpha 90.000000
_cell_angle_beta 162.724137
_cell_angle_gamma 90.000000
_cell_volume 2444.276383
_symmetry_space_group_name_H-M "C 2/M"
_symmetry_group_IT_number 12
_symmetry_cell_setting 'monoclinic'
loop_
_space_group_symop_operation_xyz
x,y,z
-x,y,-z
-x,-y,-z
x,-y,z
1/2+x,1/2+y,z
1/2-x,1/2+y,-z
1/2-x,1/2-y,-z
1/2+x,1/2-y,z
loop_
_atom_site_type_symbol
_atom_site_label
_atom_site_fract_x
_atom_site_fract_y
_atom_site_fract_z
Si Si1 0.381911 0.312242 0.425965
Si Si2 0.837590 0.301029 0.627276
Si Si3 0.693941 0.306005 0.312596
Si Si4 0.154754 0.303981 0.945011
Si Si5 0.000000 0.500000 0.500000
Si Si6 0.377018 0.695590 0.993999
Si Si7 0.639405 0.193245 0.115536
O O1 0.441532 0.500000 0.483416
O O2 0.299553 0.291879 0.388140
O O3 0.263852 0.294477 0.272311
O O4 0.476027 0.150982 0.511802
O O5 0.837322 0.500000 0.631959
O O6 0.750000 0.250000 0.500000
O O7 0.774392 0.218201 0.606634
O O8 0.997203 0.241491 0.782353
O O9 0.696420 0.500000 0.302965
O O10 0.536461 0.240707 0.150827
O O11 0.149862 0.500000 0.938577
O O12 0.194258 0.258945 0.033151
O O13 0.250000 0.250000 0.000000
O O14 0.384298 0.500000 0.006353
O O15 0.321977 0.732642 0.892140
O O16 0.611010 0.000000 0.079403
O O17 0.500000 0.265371 0.000000
#
# Coordination Sequence:
#
# PCOD9187553 Si02
#       7
#     8   8   8   8   2   8   8
#     4  11  23  40  63  88 119 163 207 251 304 364
#     4  10  21  37  60  90 119 153 201 259 309 364
#     4  10  19  35  59  90 120 154 198 251 305 364
#     4  10  21  38  60  85 121 159 198 243 307 373
#     4  12  26  44  58  78 120 168 218 246 300 354
#     4  10  20  32  57  91 124 154 193 241 303 370
#     4  10  20  34  58  91 123 148 189 250 308 357
#
# _framework density 20.455952
#
# number of rings (size 3 to 8) (size 9 to 14) (size 15 to 20)
#    0.000    1.760    2.400    2.160    1.120    3.520 
#    0.000    1.600    3.520    3.840    0.000    0.000 
#    0.000    0.000    0.000    0.000    0.000    0.000 
#
# Total GULP energy -139237.424936 kJ/mol
# GULP energy per Si atom -5569.496997 kJ/mol
# Density = 2.040939 g / cm^3
# Si number density = 20.455952 Si / 1000 Ang^3
#
#
#
# Elastic Constant Matrix: (Units=GPa)
#
#
# Indices 1 2 3 4 5 6 
#
# 1 183.4033 29.1324 30.9273 -0.0008 12.3852 -0.0002
# 2 29.1324 92.4589 12.9256 0.0016 14.9349 0.0005
# 3 30.9273 12.9256 20.0564 0.0012 -4.1295 -0.0001
# 4 -0.0008 0.0016 0.0012 11.0340 0.0006 0.4978
# 5 12.3852 14.9349 -4.1295 0.0006 35.4473 -0.0001
# 6 -0.0002 0.0005 -0.0001 0.4978 -0.0001 39.3603
#
#
#
# Elastic Compliance Matrix: (Units=1/GPa)
#
#
# Indices 1 2 3 4 5 6 
#
# 1 0.007965 0.000036 -0.013198 0.000002 -0.004336 0.000000
# 2 0.000036 0.013302 -0.010024 0.000000 -0.006785 0.000000
# 3 -0.013198 -0.010024 0.080419 -0.000009 0.018204 0.000001
# 4 0.000002 0.000000 -0.000009 0.090681 -0.000003 -0.001147
# 5 -0.004336 -0.006785 0.018204 -0.000003 0.034705 0.000000
# 6 0.000000 0.000000 0.000001 -0.001147 0.000000 0.025421
#
#
# Mechanical properties :
#
#
# Convention : Reuss Voigt Hill
#
# Bulk Modulus (GPa) = 18.07907 49.09879 33.58893
# Shear Modulus (GPa) = 15.75776 32.03054 23.89415
#
# Velocity S-wave (km/s) = 2.77849 3.96135 3.42142
# Velocity P-wave (km/s) = 4.37613 6.70652 5.66250
#
# Compressibility (1/GPa) = 0.05531258
#
# Stress axis : x y z
#
# Youngs Moduli (GPa) = 125.54665 75.17848 12.43485
#
# Poissons Ratio (x) = -0.00268 0.16412
# Poissons Ratio (y) = -0.00448 0.12465
# Poissons Ratio (z) = 1.65697 0.75362
#
# Static dielectric constant tensor:
#      x y z
#    x 1.769020 0.000000 0.034210 
#    y 0.000000 1.792590 0.000000 
#    z 0.034210 0.000000 1.769260 
# 
# From -- ./inp_files/180163.got.cif
#   From: 2010.05.17/outbox.cif.g08.bks.cpg/sg12_91_cif.got.tgz:180163.got - 2010.06.03 13:09:07.
