data_PCOD9187584
_publ_section_title
;
Structure prediction by ZEFSAII (Michael W. Deem and Ramdas Pophale) SiO2 
 PCOD9187584
Probable space group: C 2/M
;
_chemical_formula_sum "Si O2"
_cell_formula_units_Z 64
_cell_length_a 29.843864
_cell_length_b 14.210196
_cell_length_c 11.119299
_cell_angle_alpha 90.000000
_cell_angle_beta 143.422918
_cell_angle_gamma 90.000000
_cell_volume 2810.014846
_symmetry_space_group_name_H-M "C 2/M"
_symmetry_group_IT_number 12
_symmetry_cell_setting 'monoclinic'
loop_
_space_group_symop_operation_xyz
x,y,z
-x,y,-z
-x,-y,-z
x,-y,z
1/2+x,1/2+y,z
1/2-x,1/2+y,-z
1/2-x,1/2-y,-z
1/2+x,1/2-y,z
loop_
_atom_site_type_symbol
_atom_site_label
_atom_site_fract_x
_atom_site_fract_y
_atom_site_fract_z
Si Si1 0.769020 0.647878 0.987658
Si Si2 0.533474 0.605833 0.208152
Si Si3 0.310000 0.400115 0.963515
Si Si4 0.694950 0.110824 0.204496
Si Si5 0.593791 0.727899 0.978469
Si Si6 0.855181 0.610637 0.514352
Si Si7 0.934519 0.389478 0.444156
Si Si8 0.832976 0.203577 0.611625
O O1 0.708266 0.593299 0.935720
O O2 0.854047 0.620491 0.205872
O O3 0.750000 0.750000 0.000000
O O4 0.766476 0.631041 0.841273
O O5 0.525521 0.500000 0.238665
O O6 0.618710 0.636189 0.371895
O O7 0.500000 0.606859 0.000000
O O8 0.487953 0.683906 0.184404
O O9 0.340958 0.500000 0.985350
O O10 0.364592 0.316372 0.046024
O O11 0.228287 0.385908 0.725200
O O12 0.613200 0.161561 0.023159
O O13 0.748135 0.168148 0.410991
O O14 0.691056 0.000000 0.220163
O O15 0.638084 0.688046 0.191066
O O16 0.867092 0.500000 0.575280
O O17 0.914983 0.638910 0.539245
O O18 0.853945 0.690943 0.612629
O O19 0.952151 0.500000 0.493779
O O20 0.000000 0.346886 0.500000
#
# Coordination Sequence:
#
# PCOD9187584 Si02
#       8
#     8   8   8   8   8   8   8   8
#     4  11  20  38  58  81 123 154 191 236 297 358
#     4   9  20  39  62  82 108 152 201 247 287 337
#     4  10  19  35  60  83 109 147 199 245 280 332
#     4  12  24  37  58  90 125 157 187 241 313 362
#     4  11  22  39  59  87 112 151 207 251 283 344
#     4   9  18  33  55  85 117 153 192 238 292 344
#     4   9  18  34  57  84 110 148 201 241 274 333
#     4  11  22  40  58  86 122 155 198 241 298 361
#
# _framework density 22.775680000000001
#
# number of rings (size 3 to 8) (size 9 to 14) (size 15 to 20)
#    0.000    1.750    2.500    3.750    0.000    3.000 
#    0.000    1.875    0.000    2.250    0.000    2.625 
#    0.000    0.000    0.000    0.000    0.000    0.000 
#
# Total GULP energy -178569.780787 kJ/mol
# GULP energy per Si atom -5580.305650 kJ/mol
# Density = 2.272384 g / cm^3
# Si number density = 22.775680 Si / 1000 Ang^3
#
#
#
# Elastic Constant Matrix: (Units=GPa)
#
#
# Indices 1 2 3 4 5 6 
#
# 1 128.2338 19.7567 14.9974 0.0000 10.0680 0.0000
# 2 19.7567 128.8345 -3.9796 0.0000 8.8736 0.0000
# 3 14.9974 -3.9796 17.0743 0.0000 2.9140 0.0000
# 4 0.0000 0.0000 0.0000 23.2239 0.0000 3.5542
# 5 10.0680 8.8736 2.9140 0.0000 36.2713 0.0000
# 6 0.0000 0.0000 0.0000 3.5542 0.0000 27.7547
#
#
#
# Elastic Compliance Matrix: (Units=1/GPa)
#
#
# Indices 1 2 3 4 5 6 
#
# 1 0.009101 -0.001542 -0.008097 0.000000 -0.001498 0.000000
# 2 -0.001542 0.008239 0.003595 0.000000 -0.001876 0.000000
# 3 -0.008097 0.003595 0.067206 0.000000 -0.004031 0.000000
# 4 0.000000 0.000000 0.000000 0.043920 0.000000 -0.005624
# 5 -0.001498 -0.001876 -0.004031 0.000000 0.028769 0.000000
# 6 0.000000 0.000000 0.000000 -0.005624 0.000000 0.036750
#
#
# Mechanical properties :
#
#
# Convention : Reuss Voigt Hill
#
# Bulk Modulus (GPa) = 13.80146 37.29905 25.55025
# Shear Modulus (GPa) = 21.71787 33.67452 27.69619
#
# Velocity S-wave (km/s) = 3.09132 3.84934 3.49096
# Velocity P-wave (km/s) = 4.33758 6.01405 5.24325
#
# Compressibility (1/GPa) = 0.07245611
#
# Stress axis : x y z
#
# Youngs Moduli (GPa) = 109.88356 121.37807 14.87964
#
# Poissons Ratio (x) = 0.18723 0.12049
# Poissons Ratio (y) = 0.16949 -0.05350
# Poissons Ratio (z) = 0.88977 -0.43639
#
# Static dielectric constant tensor:
#      x y z
#    x 1.886440 0.000000 -0.030550 
#    y 0.000000 1.793000 0.000000 
#    z -0.030550 0.000000 1.852740 
# 
# From -- ./inp_files/189496.got.cif
#   From: 2010.05.17/outbox.cif.g08.bks.cpg/sg12_95_cif.got.tgz:189496.got - 2010.06.03 13:09:07.
