data_PCOD9187391
_publ_section_title
;
Structure prediction by ZEFSAII (Michael W. Deem and Ramdas Pophale) SiO2 
 PCOD9187391
Probable space group: C 2/M
;
_chemical_formula_sum "Si O2"
_cell_formula_units_Z 48
_cell_length_a 11.801349
_cell_length_b 24.214315
_cell_length_c 16.708733
_cell_angle_alpha 90.000000
_cell_angle_beta 143.719011
_cell_angle_gamma 90.000000
_cell_volume 2825.416634
_symmetry_space_group_name_H-M "C 2/M"
_symmetry_group_IT_number 12
_symmetry_cell_setting 'monoclinic'
loop_
_space_group_symop_operation_xyz
x,y,z
-x,y,-z
-x,-y,-z
x,-y,z
1/2+x,1/2+y,z
1/2-x,1/2+y,-z
1/2-x,1/2-y,-z
1/2+x,1/2-y,z
loop_
_atom_site_type_symbol
_atom_site_label
_atom_site_fract_x
_atom_site_fract_y
_atom_site_fract_z
Si Si1 0.642879 0.500000 0.189890
Si Si2 0.315721 0.821012 0.116983
Si Si3 0.000000 0.096125 0.000000
Si Si4 0.215409 0.305151 0.089319
Si Si5 0.563774 0.500000 0.331431
Si Si6 0.561382 0.386562 0.668725
Si Si7 0.942025 0.500000 0.655173
Si Si8 0.309607 0.886228 0.649014
O O1 0.544691 0.554674 0.098062
O O2 0.618171 0.500000 0.270042
O O3 0.859815 0.500000 0.280134
O O4 0.269412 0.759527 0.120679
O O5 0.532966 0.838563 0.257852
O O6 0.177349 0.864662 0.080862
O O7 0.280409 0.822940 0.001292
O O8 0.359693 0.340573 0.225896
O O9 0.000000 0.312285 0.000000
O O10 0.451055 0.445163 0.293411
O O11 0.762014 0.500000 0.493153
O O12 0.701501 0.390272 0.672133
O O13 0.351287 0.376063 0.510641
O O14 0.915764 0.444268 0.691510
#
# Coordination Sequence:
#
# PCOD9187391 Si02
#       8
#     4   8   4   8   4   8   4   8
#     4  11  21  34  55  83 117 150 182 224 275 334
#     4  11  22  38  60  82 113 150 187 230 277 330
#     4  11  22  36  56  84 116 147 186 228 276 331
#     4  11  22  38  60  83 111 149 189 230 280 329
#     4  10  21  37  55  82 115 145 183 231 274 333
#     4  10  21  39  59  84 113 143 188 233 278 327
#     4  10  19  35  59  83 111 150 184 217 283 338
#     4  10  20  37  62  84 111 147 184 232 278 327
#
# _framework density 16.988645000000002
#
# number of rings (size 3 to 8) (size 9 to 14) (size 15 to 20)
#    0.000    1.500    4.167    1.750    0.000    2.667 
#    0.000    0.417    0.000    0.000    0.000    0.000 
#    0.000    0.000    0.000    0.000    0.000    0.000 
#
# Total GULP energy -133970.558303 kJ/mol
# GULP energy per Si atom -5582.106596 kJ/mol
# Density = 1.694998 g / cm^3
# Si number density = 16.988645 Si / 1000 Ang^3
#
#
#
# Elastic Constant Matrix: (Units=GPa)
#
#
# Indices 1 2 3 4 5 6 
#
# 1 64.3327 32.6900 37.7735 -0.0002 3.3964 -0.0001
# 2 32.6900 107.1649 63.3534 -0.0001 -5.0066 -0.0001
# 3 37.7735 63.3534 73.0239 -0.0002 -2.6725 0.0000
# 4 -0.0002 -0.0001 -0.0002 37.3514 -0.0003 11.3293
# 5 3.3964 -5.0066 -2.6725 -0.0003 32.2269 -0.0001
# 6 -0.0001 -0.0001 0.0000 11.3293 -0.0001 15.5021
#
#
#
# Elastic Compliance Matrix: (Units=1/GPa)
#
#
# Indices 1 2 3 4 5 6 
#
# 1 0.022686 -0.000139 -0.011738 0.000000 -0.003386 0.000000
# 2 -0.000139 0.019240 -0.016561 0.000000 0.001630 0.000000
# 3 -0.011738 -0.016561 0.034189 0.000000 0.001499 0.000000
# 4 0.000000 0.000000 0.000000 0.034398 0.000000 -0.025139
# 5 -0.003386 0.001630 0.001499 0.000000 0.031764 0.000000
# 6 0.000000 0.000000 0.000000 -0.025139 0.000000 0.082879
#
#
# Mechanical properties :
#
#
# Convention : Reuss Voigt Hill
#
# Bulk Modulus (GPa) = 51.97832 56.90614 54.44223
# Shear Modulus (GPa) = 17.33434 24.39638 20.86536
#
# Velocity S-wave (km/s) = 3.19775 3.79362 3.50836
# Velocity P-wave (km/s) = 6.65556 7.26347 6.96615
#
# Compressibility (1/GPa) = 0.01923879
#
# Stress axis : x y z
#
# Youngs Moduli (GPa) = 44.08056 51.97411 29.24959
#
# Poissons Ratio (x) = 0.00723 0.34333
# Poissons Ratio (y) = 0.00613 0.48440
# Poissons Ratio (z) = 0.51742 0.86073
#
# Static dielectric constant tensor:
#      x y z
#    x 1.549110 0.000000 0.003690 
#    y 0.000000 1.550780 0.000000 
#    z 0.003690 0.000000 1.563940 
# 
# From -- ./inp_files/51528.got.cif
#   From: 2010.05.17/outbox.cif.g08.bks.cpg/sg12_26_cif.got.tgz:51528.got - 2010.06.03 13:09:07.
