data_PCOD9187920
_publ_section_title
;
Structure prediction by ZEFSAII (Michael W. Deem and Ramdas Pophale) SiO2 
 PCOD9187920
Probable space group: C 2/M
;
_chemical_formula_sum "Si O2"
_cell_formula_units_Z 56
_cell_length_a 10.891804
_cell_length_b 22.563218
_cell_length_c 11.522880
_cell_angle_alpha 90.000000
_cell_angle_beta 110.690851
_cell_angle_gamma 90.000000
_cell_volume 2649.146052
_symmetry_space_group_name_H-M "C 2/M"
_symmetry_group_IT_number 12
_symmetry_cell_setting 'monoclinic'
loop_
_space_group_symop_operation_xyz
x,y,z
-x,y,-z
-x,-y,-z
x,-y,z
1/2+x,1/2+y,z
1/2-x,1/2+y,-z
1/2-x,1/2-y,-z
1/2+x,1/2-y,z
loop_
_atom_site_type_symbol
_atom_site_label
_atom_site_fract_x
_atom_site_fract_y
_atom_site_fract_z
Si Si1 0.905307 0.716822 0.275790
Si Si2 0.354111 0.885780 0.442992
Si Si3 0.107276 0.930781 0.225448
Si Si4 0.568945 0.936480 0.899089
Si Si5 0.111840 0.154649 0.775251
Si Si6 0.797263 0.155104 0.940741
Si Si7 0.136717 0.366013 0.293369
O O1 0.877386 0.674892 0.377287
O O2 0.931291 0.785574 0.304500
O O3 0.773211 0.707562 0.154412
O O4 0.035022 0.689206 0.258870
O O5 0.500000 0.913354 0.500000
O O6 0.245185 0.923057 0.339260
O O7 0.309967 0.871829 0.558755
O O8 0.123986 0.888677 0.118421
O O9 0.991018 0.899198 0.259214
O O10 0.081064 0.000000 0.192942
O O11 0.675613 0.885933 0.937000
O O12 0.458537 0.920700 0.768744
O O13 0.631144 0.000000 0.894460
O O14 0.500000 0.938064 0.000000
O O15 0.249114 0.137469 0.762193
O O16 0.130706 0.172234 0.917332
#
# Coordination Sequence:
#
# PCOD9187920 Si02
#       7
#     8   8   8   8   8   8   8
#     4   9  22  40  64  92 126 164 221 266 314 383
#     4   9  21  46  68  95 123 164 222 269 316 379
#     4  11  26  44  64  94 132 175 219 261 321 394
#     4  10  19  35  62  94 126 162 211 267 314 373
#     4  12  24  39  62  95 131 174 203 266 329 387
#     4  10  21  41  62  91 128 171 218 259 316 381
#     4  10  22  40  63  96 125 164 213 269 325 376
#
# _framework density 21.138887
#
# number of rings (size 3 to 8) (size 9 to 14) (size 15 to 20)
#    0.000    1.857    1.429    2.143    4.000    4.286 
#    7.714    0.714    0.000    0.000    0.000    0.000 
#    0.000    0.000    0.000    0.000    0.000    0.000 
#
# Total GULP energy -156278.908126 kJ/mol
# GULP energy per Si atom -5581.389576 kJ/mol
# Density = 2.109077 g / cm^3
# Si number density = 21.138887 Si / 1000 Ang^3
#
#
#
# Elastic Constant Matrix: (Units=GPa)
#
#
# Indices 1 2 3 4 5 6 
#
# 1 72.2588 21.2913 23.1521 0.0000 -11.4085 0.0000
# 2 21.2913 90.6449 -5.0521 0.0000 -5.6689 0.0000
# 3 23.1521 -5.0521 81.5446 0.0000 -1.2875 0.0000
# 4 0.0000 0.0000 0.0000 8.0994 0.0000 0.8410
# 5 -11.4085 -5.6689 -1.2875 0.0000 27.1480 0.0000
# 6 0.0000 0.0000 0.0000 0.8410 0.0000 9.1244
#
#
#
# Elastic Compliance Matrix: (Units=1/GPa)
#
#
# Indices 1 2 3 4 5 6 
#
# 1 0.017691 -0.004047 -0.005173 0.000000 0.006344 0.000000
# 2 -0.004047 0.012147 0.001916 0.000000 0.000927 0.000000
# 3 -0.005173 0.001916 0.013833 0.000000 -0.001118 0.000000
# 4 0.000000 0.000000 0.000000 0.124660 0.000000 -0.011491
# 5 0.006344 0.000927 -0.001118 0.000000 0.039642 0.000000
# 6 0.000000 0.000000 0.000000 -0.011491 0.000000 0.110655
#
#
# Mechanical properties :
#
#
# Convention : Reuss Voigt Hill
#
# Bulk Modulus (GPa) = 34.40773 35.91452 35.16113
# Shear Modulus (GPa) = 14.58052 22.54482 18.56267
#
# Velocity S-wave (km/s) = 2.62916 3.26929 2.96654
# Velocity P-wave (km/s) = 5.05262 5.59264 5.32947
#
# Compressibility (1/GPa) = 0.02906324
#
# Stress axis : x y z
#
# Youngs Moduli (GPa) = 56.52677 82.32216 72.29033
#
# Poissons Ratio (x) = 0.33315 0.37398
# Poissons Ratio (y) = 0.22876 -0.13852
# Poissons Ratio (z) = 0.29243 -0.15775
#
# Static dielectric constant tensor:
#      x y z
#    x 1.768440 0.000000 0.004950 
#    y 0.000000 1.748060 0.000000 
#    z 0.004950 0.000000 1.794780 
# 
# From -- ./inp_files/133983.got.cif
#   From: 2010.05.17/outbox.cif.g08.bks.cpg/sg12_67_cif.got.tgz:133983.got - 2010.06.03 13:09:07.
