data_PCOD9187380
_publ_section_title
;
Structure prediction by ZEFSAII (Michael W. Deem and Ramdas Pophale) SiO2 
 PCOD9187380
Probable space group: C 2/M
;
_chemical_formula_sum "Si O2"
_cell_formula_units_Z 40
_cell_length_a 12.078253
_cell_length_b 23.765696
_cell_length_c 10.329393
_cell_angle_alpha 90.000000
_cell_angle_beta 37.689305
_cell_angle_gamma 90.000000
_cell_volume 1812.759618
_symmetry_space_group_name_H-M "C 2/M"
_symmetry_group_IT_number 12
_symmetry_cell_setting 'monoclinic'
loop_
_space_group_symop_operation_xyz
x,y,z
-x,y,-z
-x,-y,-z
x,-y,z
1/2+x,1/2+y,z
1/2-x,1/2+y,-z
1/2-x,1/2-y,-z
1/2+x,1/2-y,z
loop_
_atom_site_type_symbol
_atom_site_label
_atom_site_fract_x
_atom_site_fract_y
_atom_site_fract_z
Si Si1 0.812316 0.619840 0.424632
Si Si2 0.289728 0.000000 0.542080
Si Si3 0.709053 0.677525 0.268323
Si Si4 0.732607 0.000000 0.134268
Si Si5 0.740898 0.121643 0.054194
Si Si6 0.721246 0.803845 0.310819
O O1 0.732669 0.558586 0.529503
O O2 0.799202 0.635780 0.287425
O O3 0.734110 0.668707 0.591180
O O4 0.023309 0.617787 0.264191
O O5 0.511390 0.000000 0.331793
O O6 0.230645 0.000000 0.746279
O O7 0.500000 0.678611 0.500000
O O8 0.782176 0.740219 0.227975
O O9 0.720480 0.655486 0.112100
O O10 0.803882 0.942844 0.003800
O O11 0.797526 0.156112 0.128226
O O12 0.500000 0.803025 0.500000
#
# Coordination Sequence:
#
# PCOD9187380 Si02
#       6
#     8   4   8   4   8   8
#     4  10  19  35  59  83 104 134 177 225 269 309
#     4   9  16  31  59  86 102 124 173 232 273 306
#     4  11  23  36  49  77 117 149 174 207 258 320
#     4   9  16  31  59  86 102 124 173 232 273 306
#     4  10  19  35  59  83 104 134 177 225 269 309
#     4   9  18  34  58  81 104 137 180 223 262 308
#
# _framework density 22.065805999999998
#
# number of rings (size 3 to 8) (size 9 to 14) (size 15 to 20)
#    0.000    2.200    2.000    1.800    0.000    0.800 
#    0.000    8.000    0.000    1.200    0.000    0.000 
#    0.000    0.000    0.000    0.000    0.000    0.000 
#
# Total GULP energy -111757.668799 kJ/mol
# GULP energy per Si atom -5587.883440 kJ/mol
# Density = 2.201558 g / cm^3
# Si number density = 22.065806 Si / 1000 Ang^3
#
#
#
# Elastic Constant Matrix: (Units=GPa)
#
#
# Indices 1 2 3 4 5 6 
#
# 1 35.2098 3.8477 5.3149 0.0000 2.8830 0.0000
# 2 3.8477 166.1257 54.5585 0.0000 11.3553 0.0000
# 3 5.3149 54.5585 101.7995 0.0000 20.1592 0.0000
# 4 0.0000 0.0000 0.0000 -2.1358 0.0000 7.6716
# 5 2.8830 11.3553 20.1592 0.0000 34.0573 0.0000
# 6 0.0000 0.0000 0.0000 7.6716 0.0000 10.5633
#
#
#
# Elastic Compliance Matrix: (Units=1/GPa)
#
#
# Indices 1 2 3 4 5 6 
#
# 1 0.028724 -0.000203 -0.001045 0.000000 -0.001745 0.000000
# 2 -0.000203 0.007307 -0.003882 0.000000 -0.000122 0.000000
# 3 -0.001045 -0.003882 0.013236 0.000000 -0.006452 0.000000
# 4 0.000000 0.000000 0.000000 -0.129747 0.000000 0.094229
# 5 -0.001745 -0.000122 -0.006452 0.000000 0.033370 0.000000
# 6 0.000000 0.000000 0.000000 0.094229 0.000000 0.026234
#
#
# Mechanical properties :
#
#
# Convention : Reuss Voigt Hill
#
# Bulk Modulus (GPa) = 25.63601 47.84193 36.73897
# Shear Modulus (GPa) = 2096.27466 24.45789 1060.36627
#
# Velocity S-wave (km/s) = 30.85568 3.33289 21.94517
# Velocity P-wave (km/s) = 35.79209 6.04478 25.66723
#
# Compressibility (1/GPa) = 0.03900763
#
# Stress axis : x y z
#
# Youngs Moduli (GPa) = 34.81406 136.84871 75.55269
#
# Poissons Ratio (x) = 0.02773 0.07899
# Poissons Ratio (y) = 0.00706 0.29327
# Poissons Ratio (z) = 0.03640 0.53120
#
# Static dielectric constant tensor:
#      x y z
#    x 2.023030 0.000000 -0.026640 
#    y 0.000000 1.818850 0.000000 
#    z -0.026640 0.000000 1.798650 
# 
# From -- ./inp_files/50450.got.cif
#   From: 2010.05.17/outbox.cif.g08.bks.cpg/sg12_26_cif.got.tgz:50450.got - 2010.06.03 13:09:07.
