data_PCOD9187576
_publ_section_title
;
Structure prediction by ZEFSAII (Michael W. Deem and Ramdas Pophale) SiO2 
 PCOD9187576
Probable space group: C 2/M
;
_chemical_formula_sum "Si O2"
_cell_formula_units_Z 44
_cell_length_a 27.349112
_cell_length_b 7.596322
_cell_length_c 23.989198
_cell_angle_alpha 90.000000
_cell_angle_beta 20.316586
_cell_angle_gamma 90.000000
_cell_volume 1730.417780
_symmetry_space_group_name_H-M "C 2/M"
_symmetry_group_IT_number 12
_symmetry_cell_setting 'monoclinic'
loop_
_space_group_symop_operation_xyz
x,y,z
-x,y,-z
-x,-y,-z
x,-y,z
1/2+x,1/2+y,z
1/2-x,1/2+y,-z
1/2-x,1/2-y,-z
1/2+x,1/2-y,z
loop_
_atom_site_type_symbol
_atom_site_label
_atom_site_fract_x
_atom_site_fract_y
_atom_site_fract_z
Si Si1 0.350895 0.711849 0.137964
Si Si2 0.893610 0.199359 0.782456
Si Si3 0.433428 0.791116 0.509962
Si Si4 0.390590 0.702799 0.966389
Si Si5 0.318519 0.800367 0.485792
Si Si6 0.130349 0.500000 0.718151
O O1 0.351565 0.500000 0.144628
O O2 0.222774 0.779556 0.311517
O O3 0.334636 0.739611 0.089473
O O4 0.500000 0.782494 0.000000
O O5 0.970853 0.206821 0.639467
O O6 0.012052 0.285918 0.694992
O O7 0.740147 0.280045 0.936145
O O8 0.874799 0.000000 0.820838
O O9 0.500000 0.779834 0.500000
O O10 0.427600 0.000000 0.501412
O O11 0.441108 0.500000 0.911141
O O12 0.512672 0.845059 0.829936
O O13 0.250000 0.750000 0.500000
O O14 0.248835 0.845543 0.403114
O O15 0.281565 0.000000 0.539106
#
# Coordination Sequence:
#
# PCOD9187576 Si02
#       6
#     8   8   8   8   8   4
#     4   9  19  34  57  90 138 187 238 287 342 408
#     4  12  24  43  70 103 145 189 246 298 349 424
#     4  10  19  35  59  93 132 188 244 287 342 404
#     4  11  23  44  69 101 146 192 232 288 354 418
#     4  12  26  51  81 106 139 177 231 298 362 427
#     4  12  26  46  73 109 141 178 229 287 351 441
#
# _framework density 25.427385000000001
#
# number of rings (size 3 to 8) (size 9 to 14) (size 15 to 20)
#    0.000    1.091    4.545    2.182    2.545    0.364 
#    1.636    1.364    0.000    0.000    0.000    0.000 
#    0.000    0.000    0.000    0.000    0.000    0.000 
#
# Total GULP energy -122687.231801 kJ/mol
# GULP energy per Si atom -5576.692355 kJ/mol
# Density = 2.536951 g / cm^3
# Si number density = 25.427385 Si / 1000 Ang^3
#
#
#
# Elastic Constant Matrix: (Units=GPa)
#
#
# Indices 1 2 3 4 5 6 
#
# 1 109.3771 14.6063 12.0511 0.0080 -14.4449 -0.0008
# 2 14.6063 192.8392 45.5316 -0.0195 -5.4252 -0.0011
# 3 12.0511 45.5316 130.1724 -0.0137 -28.8763 0.0002
# 4 0.0080 -0.0195 -0.0137 29.4940 -0.0028 -8.7357
# 5 -14.4449 -5.4252 -28.8763 -0.0028 39.5437 0.0013
# 6 -0.0008 -0.0011 0.0002 -8.7357 0.0013 16.9013
#
#
#
# Elastic Compliance Matrix: (Units=1/GPa)
#
#
# Indices 1 2 3 4 5 6 
#
# 1 0.009685 -0.000662 0.000119 -0.000003 0.003534 -0.000001
# 2 -0.000662 0.005719 -0.002170 0.000004 -0.001042 0.000002
# 3 0.000119 -0.002170 0.009992 0.000004 0.007043 0.000001
# 4 -0.000003 0.000004 0.000004 0.040034 0.000005 0.020692
# 5 0.003534 -0.001042 0.007043 0.000005 0.031579 0.000000
# 6 -0.000001 0.000002 0.000001 0.020692 0.000000 0.069862
#
#
# Mechanical properties :
#
#
# Convention : Reuss Voigt Hill
#
# Bulk Modulus (GPa) = 50.07742 64.08518 57.08130
# Shear Modulus (GPa) = 27.94010 41.20114 34.57062
#
# Velocity S-wave (km/s) = 3.31844 4.02972 3.69125
# Velocity P-wave (km/s) = 5.86684 6.84905 6.37688
#
# Compressibility (1/GPa) = 0.01996908
#
# Stress axis : x y z
#
# Youngs Moduli (GPa) = 103.25580 174.85807 100.07535
#
# Poissons Ratio (x) = 0.11579 -0.01190
# Poissons Ratio (y) = 0.06838 0.21719
# Poissons Ratio (z) = -0.01228 0.37948
#
# Static dielectric constant tensor:
#      x y z
#    x 1.986040 0.000010 -0.036420 
#    y 0.000010 1.937010 0.000020 
#    z -0.036420 0.000020 1.954570 
# 
# From -- ./inp_files/370505.got.cif
#   From: 2010.05.17/outbox.cif.g08.bks.cpg/sg12_186_cif.got.tgz:370505.got - 2010.06.03 13:09:07.
