data_PCOD9187595
_publ_section_title
;
Structure prediction by ZEFSAII (Michael W. Deem and Ramdas Pophale) SiO2 
 PCOD9187595
Probable space group: C 2/M
;
_chemical_formula_sum "Si O2"
_cell_formula_units_Z 64
_cell_length_a 29.418698
_cell_length_b 7.617060
_cell_length_c 13.051539
_cell_angle_alpha 90.000000
_cell_angle_beta 84.352793
_cell_angle_gamma 90.000000
_cell_volume 2910.446635
_symmetry_space_group_name_H-M "C 2/M"
_symmetry_group_IT_number 12
_symmetry_cell_setting 'monoclinic'
loop_
_space_group_symop_operation_xyz
x,y,z
-x,y,-z
-x,-y,-z
x,-y,z
1/2+x,1/2+y,z
1/2-x,1/2+y,-z
1/2-x,1/2-y,-z
1/2+x,1/2-y,z
loop_
_atom_site_type_symbol
_atom_site_label
_atom_site_fract_x
_atom_site_fract_y
_atom_site_fract_z
Si Si1 0.133214 0.214163 0.858682
Si Si2 0.933519 0.703433 0.753530
Si Si3 0.298780 0.711254 0.539935
Si Si4 0.377944 0.715447 0.368738
Si Si5 0.167505 0.795729 0.253421
Si Si6 0.479943 0.708031 0.398291
Si Si7 0.302767 0.710707 0.974206
Si Si8 0.949666 0.787576 0.984338
O O1 0.136944 0.273073 0.741419
O O2 0.134828 0.000000 0.855839
O O3 0.170406 0.277062 0.932133
O O4 0.085068 0.265166 0.919365
O O5 0.930615 0.500000 0.729430
O O6 0.887235 0.787955 0.720070
O O7 0.934148 0.729196 0.875626
O O8 0.980983 0.770950 0.695986
O O9 0.302705 0.500000 0.543937
O O10 0.250000 0.750000 0.500000
O O11 0.340692 0.773309 0.459808
O O12 0.306445 0.779977 0.653845
O O13 0.378281 0.500000 0.368740
O O14 0.429704 0.775630 0.380416
O O15 0.179495 0.718811 0.139146
O O16 0.180820 0.000000 0.244824
O O17 0.500000 0.781927 0.500000
O O18 0.473445 0.500000 0.414973
O O19 0.310244 0.500000 0.971295
O O20 0.250000 0.750000 0.000000
O O21 0.950073 0.000000 0.981118
O O22 0.000000 0.724565 0.000000
#
# Coordination Sequence:
#
# PCOD9187595 Si02
#       8
#     8   8   8   8   8   8   8   8
#     4   9  17  32  54  82 112 143 183 237 283 327
#     4  12  24  36  56  88 124 155 187 242 306 352
#     4  10  22  39  62  88 115 149 189 240 291 343
#     4   9  18  34  57  86 113 143 192 240 283 337
#     4  10  21  41  62  82 114 156 203 240 278 351
#     4  10  20  37  62  86 111 153 204 245 284 345
#     4  10  21  36  57  82 111 147 190 240 291 342
#     4  10  19  35  60  84 111 154 201 238 281 346
#
# _framework density 21.989751999999999
#
# number of rings (size 3 to 8) (size 9 to 14) (size 15 to 20)
#    0.000    2.000    1.250    2.625    1.750    5.500 
#    0.000    0.625    0.000    1.500    0.000    0.000 
#    0.000    0.000    0.000    0.000    0.000    0.000 
#
# Total GULP energy -178801.618059 kJ/mol
# GULP energy per Si atom -5587.550564 kJ/mol
# Density = 2.193970 g / cm^3
# Si number density = 21.989752 Si / 1000 Ang^3
#
#
#
# Elastic Constant Matrix: (Units=GPa)
#
#
# Indices 1 2 3 4 5 6 
#
# 1 127.4196 -0.3654 67.6797 0.0000 6.0636 0.0000
# 2 -0.3654 40.6228 10.7384 0.0000 5.7767 0.0000
# 3 67.6797 10.7384 159.0112 0.0000 19.0496 0.0000
# 4 0.0000 0.0000 0.0000 -4.1973 0.0000 8.0918
# 5 6.0636 5.7767 19.0496 0.0000 35.2102 0.0000
# 6 0.0000 0.0000 0.0000 8.0918 0.0000 9.5697
#
#
#
# Elastic Compliance Matrix: (Units=1/GPa)
#
#
# Indices 1 2 3 4 5 6 
#
# 1 0.010211 0.001210 -0.004484 0.000000 0.000469 0.000000
# 2 0.001210 0.025598 -0.001835 0.000000 -0.003416 0.000000
# 3 -0.004484 -0.001835 0.008761 0.000000 -0.003666 0.000000
# 4 0.000000 0.000000 0.000000 -0.090585 0.000000 0.076595
# 5 0.000469 -0.003416 -0.003666 0.000000 0.030864 0.000000
# 6 0.000000 0.000000 0.000000 0.076595 0.000000 0.039731
#
#
# Mechanical properties :
#
#
# Convention : Reuss Voigt Hill
#
# Bulk Modulus (GPa) = 29.10927 53.68433 41.39680
# Shear Modulus (GPa) = 108.11319 24.71657 66.41488
#
# Velocity S-wave (km/s) = 7.01940 3.35625 5.50166
# Velocity P-wave (km/s) = 8.88608 6.28376 7.69571
#
# Compressibility (1/GPa) = 0.03435331
#
# Stress axis : x y z
#
# Youngs Moduli (GPa) = 97.93413 39.06504 114.14836
#
# Poissons Ratio (x) = -0.04729 0.51184
# Poissons Ratio (y) = -0.11855 0.20943
# Poissons Ratio (z) = 0.43914 0.07167
#
# Static dielectric constant tensor:
#      x y z
#    x 1.761460 0.000000 0.005980 
#    y 0.000000 1.835990 0.000000 
#    z 0.005980 0.000000 1.798960 
# 
# From -- ./inp_files/187490.got.cif
#   From: 2010.05.17/outbox.cif.g08.bks.cpg/sg12_94_cif.got.tgz:187490.got - 2010.06.03 13:09:07.
