data_PCOD9187892
_publ_section_title
;
Structure prediction by ZEFSAII (Michael W. Deem and Ramdas Pophale) SiO2 
 PCOD9187892
Probable space group: C 2/M
;
_chemical_formula_sum "Si O2"
_cell_formula_units_Z 64
_cell_length_a 15.227862
_cell_length_b 18.421555
_cell_length_c 19.253193
_cell_angle_alpha 90.000000
_cell_angle_beta 39.955808
_cell_angle_gamma 90.000000
_cell_volume 3468.454220
_symmetry_space_group_name_H-M "C 2/M"
_symmetry_group_IT_number 12
_symmetry_cell_setting 'monoclinic'
loop_
_space_group_symop_operation_xyz
x,y,z
-x,y,-z
-x,-y,-z
x,-y,z
1/2+x,1/2+y,z
1/2-x,1/2+y,-z
1/2-x,1/2-y,-z
1/2+x,1/2-y,z
loop_
_atom_site_type_symbol
_atom_site_label
_atom_site_fract_x
_atom_site_fract_y
_atom_site_fract_z
Si Si1 0.781850 0.170339 0.512776
Si Si2 0.283955 0.416938 0.375228
Si Si3 0.386801 0.416318 0.821298
Si Si4 0.922545 0.206363 0.695552
Si Si5 0.318802 0.916157 0.927724
Si Si6 0.540701 0.801582 0.752407
Si Si7 0.278696 0.302337 0.270152
Si Si8 0.343680 0.579090 0.117634
O O1 0.750000 0.250000 0.500000
O O2 0.757129 0.109332 0.469721
O O3 0.678610 0.161475 0.638687
O O4 0.944050 0.175272 0.424672
O O5 0.242403 0.500000 0.388857
O O6 0.449417 0.411799 0.263327
O O7 0.218995 0.355943 0.365293
O O8 0.360478 0.500000 0.817658
O O9 0.356617 0.360088 0.778144
O O10 0.294489 0.399787 0.944586
O O11 0.826426 0.246252 0.699547
O O12 0.969499 0.262370 0.728808
O O13 0.440234 0.858175 0.849890
O O14 0.246434 0.913275 0.896553
O O15 0.364201 0.000000 0.911044
O O16 0.595453 0.740577 0.771751
O O17 0.322156 0.356241 0.183085
O O18 0.312725 0.500000 0.169148
O O19 0.500000 0.578346 0.000000
#
# Coordination Sequence:
#
# PCOD9187892 Si02
#       8
#     8   8   8   8   8   8   8   8
#     4   9  18  39  58  79 116 154 194 235 287 340
#     4  10  19  35  62  91 116 150 194 241 293 347
#     4   9  18  37  61  83 114 153 198 242 287 338
#     4  10  21  37  58  87 111 153 197 242 292 345
#     4  10  21  38  59  83 120 161 189 239 300 351
#     4  11  22  39  57  83 121 155 197 235 292 355
#     4  12  21  35  58  88 119 150 188 245 293 346
#     4  10  21  35  54  86 123 155 192 236 293 356
#
# _framework density 18.452023000000001
#
# number of rings (size 3 to 8) (size 9 to 14) (size 15 to 20)
#    0.000    1.875    5.000    1.125    0.000    4.500 
#    0.000    0.625    0.000    4.500    0.000    4.375 
#    0.000    0.000    0.000    0.000    0.000    0.000 
#
# Total GULP energy -178475.493075 kJ/mol
# GULP energy per Si atom -5577.359159 kJ/mol
# Density = 1.841003 g / cm^3
# Si number density = 18.452023 Si / 1000 Ang^3
#
#
#
# Elastic Constant Matrix: (Units=GPa)
#
#
# Indices 1 2 3 4 5 6 
#
# 1 65.3115 48.5492 3.6155 0.0000 1.5040 -0.0004
# 2 48.5492 105.6356 48.2212 0.0000 9.8018 -0.0003
# 3 3.6155 48.2212 90.6209 0.0000 7.0026 -0.0013
# 4 0.0000 0.0000 0.0000 34.6575 0.0000 -6.0793
# 5 1.5040 9.8018 7.0026 0.0000 6.0274 0.0006
# 6 -0.0004 -0.0003 -0.0013 -6.0793 0.0006 147.4770
#
#
#
# Elastic Compliance Matrix: (Units=1/GPa)
#
#
# Indices 1 2 3 4 5 6 
#
# 1 0.027088 -0.016741 0.006862 0.000000 0.012493 0.000000
# 2 -0.016741 0.023999 -0.010337 0.000000 -0.022839 0.000000
# 3 0.006862 -0.010337 0.016584 0.000000 -0.004169 0.000000
# 4 0.000000 0.000000 0.000000 0.029064 0.000000 0.001198
# 5 0.012493 -0.022839 -0.004169 0.000000 0.204775 -0.000001
# 6 0.000000 0.000000 0.000000 0.001198 -0.000001 0.006830
#
#
# Mechanical properties :
#
#
# Convention : Reuss Voigt Hill
#
# Bulk Modulus (GPa) = 36.71302 51.37108 44.04205
# Shear Modulus (GPa) = 13.97223 48.37785 31.17504
#
# Velocity S-wave (km/s) = 2.75475 5.12592 4.11483
# Velocity P-wave (km/s) = 5.48250 7.93311 6.81880
#
# Compressibility (1/GPa) = 0.02723829
#
# Stress axis : x y z
#
# Youngs Moduli (GPa) = 36.91640 41.66888 60.29877
#
# Poissons Ratio (x) = 0.69759 -0.41378
# Poissons Ratio (y) = 0.61802 0.62333
# Poissons Ratio (z) = -0.25333 0.43075
#
# Static dielectric constant tensor:
#      x y z
#    x 1.648050 0.000000 -0.002750 
#    y 0.000000 1.650630 0.000000 
#    z -0.002750 0.000000 1.639090 
# 
# From -- ./inp_files/271720.got.cif
#   From: 2010.05.17/outbox.cif.g08.bks.cpg/sg12_136_cif.got.tgz:271720.got - 2010.06.03 13:09:07.
