data_PCOD9187215
_publ_section_title
;
Structure prediction by ZEFSAII (Michael W. Deem and Ramdas Pophale) SiO2 
 PCOD9187215
Probable space group: C 2/M
;
_chemical_formula_sum "Si O2"
_cell_formula_units_Z 64
_cell_length_a 19.407839
_cell_length_b 8.734932
_cell_length_c 30.168844
_cell_angle_alpha 90.000000
_cell_angle_beta 42.631697
_cell_angle_gamma 90.000000
_cell_volume 3463.902103
_symmetry_space_group_name_H-M "C 2/M"
_symmetry_group_IT_number 12
_symmetry_cell_setting 'monoclinic'
loop_
_space_group_symop_operation_xyz
x,y,z
-x,y,-z
-x,-y,-z
x,-y,z
1/2+x,1/2+y,z
1/2-x,1/2+y,-z
1/2-x,1/2-y,-z
1/2+x,1/2-y,z
loop_
_atom_site_type_symbol
_atom_site_label
_atom_site_fract_x
_atom_site_fract_y
_atom_site_fract_z
Si Si1 0.101740 0.683148 0.926701
Si Si2 0.925639 0.818527 0.410892
Si Si3 0.635153 0.820667 0.283070
Si Si4 0.313853 0.821206 0.845450
Si Si5 0.138147 0.184643 0.812717
Si Si6 0.824806 0.186548 0.367322
Si Si7 0.901035 0.684619 0.519706
Si Si8 0.517150 0.684789 0.782948
O O1 0.103482 0.500000 0.925174
O O2 0.204463 0.742625 0.901279
O O3 0.105175 0.744069 0.874826
O O4 0.000000 0.734882 0.000000
O O5 0.041407 0.780626 0.342542
O O6 0.856527 0.765398 0.402021
O O7 0.904840 0.736123 0.466960
O O8 0.911481 0.000000 0.422909
O O9 0.652892 0.806543 0.221949
O O10 0.743693 0.776713 0.252595
O O11 0.613986 0.000000 0.303251
O O12 0.404370 0.747592 0.830339
O O13 0.304076 0.000000 0.859954
O O14 0.067716 0.230512 0.805341
O O15 0.135722 0.000000 0.818655
O O16 0.709903 0.234200 0.409958
O O17 0.909353 0.237711 0.292000
O O18 0.826771 0.000000 0.366162
O O19 0.903340 0.500000 0.520232
O O20 0.000000 0.740587 0.500000
O O21 0.514264 0.500000 0.782636
#
# Coordination Sequence:
#
# PCOD9187215 Si02
#       8
#     8   8   8   8   8   8   8   8
#     4  10  21  38  61  86 115 153 192 228 271 328
#     4  11  21  34  54  77 106 140 179 227 281 333
#     4   9  18  33  53  79 107 139 184 226 268 327
#     4  10  20  35  57  86 116 146 186 231 272 324
#     4   9  20  35  57  86 116 149 184 232 281 325
#     4   9  19  35  55  79 105 141 183 224 276 335
#     4  10  22  38  57  76 101 141 185 230 281 338
#     4  10  19  35  58  83 117 149 182 229 284 340
#
# _framework density 18.476272999999999
#
# number of rings (size 3 to 8) (size 9 to 14) (size 15 to 20)
#    0.000    2.250    1.250    2.250    1.750    3.750 
#    0.000    1.875    0.000    0.000    0.000    0.000 
#    0.000    0.000    0.000    0.000    0.000    0.000 
#
# Total GULP energy -178594.414691 kJ/mol
# GULP energy per Si atom -5581.075459 kJ/mol
# Density = 1.843422 g / cm^3
# Si number density = 18.476273 Si / 1000 Ang^3
#
#
#
# Elastic Constant Matrix: (Units=GPa)
#
#
# Indices 1 2 3 4 5 6 
#
# 1 155.6080 22.6099 50.1616 0.0000 -28.5682 0.0003
# 2 22.6099 8.3798 11.7729 0.0002 -6.3364 0.0004
# 3 50.1616 11.7729 86.0749 -0.0001 -26.7732 0.0001
# 4 0.0000 0.0002 -0.0001 23.1174 0.0000 3.9120
# 5 -28.5682 -6.3364 -26.7732 0.0000 25.3636 -0.0001
# 6 0.0003 0.0004 0.0001 3.9120 -0.0001 18.1720
#
#
#
# Elastic Compliance Matrix: (Units=1/GPa)
#
#
# Indices 1 2 3 4 5 6 
#
# 1 0.011509 -0.024856 -0.001797 0.000000 0.004857 0.000000
# 2 -0.024856 0.211168 -0.009970 -0.000001 0.014234 -0.000004
# 3 -0.001797 -0.009970 0.018795 0.000000 0.015326 0.000000
# 4 0.000000 -0.000001 0.000000 0.044893 0.000000 -0.009664
# 5 0.004857 0.014234 0.015326 0.000000 0.064630 0.000000
# 6 0.000000 -0.000004 0.000000 -0.009664 0.000000 0.057110
#
#
# Mechanical properties :
#
#
# Convention : Reuss Voigt Hill
#
# Bulk Modulus (GPa) = 5.94432 46.57240 26.25836
# Shear Modulus (GPa) = 9.30360 24.36518 16.83439
#
# Velocity S-wave (km/s) = 2.24641 3.63537 3.02178
# Velocity P-wave (km/s) = 3.15480 6.54848 5.13981
#
# Compressibility (1/GPa) = 0.16822776
#
# Stress axis : x y z
#
# Youngs Moduli (GPa) = 86.89033 4.73556 53.20447
#
# Poissons Ratio (x) = 0.11771 0.09559
# Poissons Ratio (y) = 2.15971 0.53045
# Poissons Ratio (z) = 0.15610 0.04721
#
# Static dielectric constant tensor:
#      x y z
#    x 1.639390 0.000000 -0.013530 
#    y 0.000000 1.628880 0.000000 
#    z -0.013530 0.000000 1.623710 
# 
# From -- ./inp_files/378202.got.cif
#   From: 2010.05.17/outbox.cif.g08.bks.cpg/sg12_190_cif.got.tgz:378202.got - 2010.06.03 13:09:07.
