data_PCOD9187915
_publ_section_title
;
Structure prediction by ZEFSAII (Michael W. Deem and Ramdas Pophale) SiO2 
 PCOD9187915
Probable space group: C 2/M
;
_chemical_formula_sum "Si O2"
_cell_formula_units_Z 64
_cell_length_a 14.778915
_cell_length_b 17.761365
_cell_length_c 17.465514
_cell_angle_alpha 90.000000
_cell_angle_beta 134.828669
_cell_angle_gamma 90.000000
_cell_volume 3251.472272
_symmetry_space_group_name_H-M "C 2/M"
_symmetry_group_IT_number 12
_symmetry_cell_setting 'monoclinic'
loop_
_space_group_symop_operation_xyz
x,y,z
-x,y,-z
-x,-y,-z
x,-y,z
1/2+x,1/2+y,z
1/2-x,1/2+y,-z
1/2-x,1/2-y,-z
1/2+x,1/2-y,z
loop_
_atom_site_type_symbol
_atom_site_label
_atom_site_fract_x
_atom_site_fract_y
_atom_site_fract_z
Si Si1 0.455188 0.221229 0.838834
Si Si2 0.257557 0.089059 0.230167
Si Si3 0.471835 0.845592 0.568693
Si Si4 0.945129 0.216123 0.661649
Si Si5 0.235450 0.811209 0.826257
Si Si6 0.158179 0.589700 0.986065
Si Si7 0.665250 0.329476 0.030835
Si Si8 0.780522 0.083458 0.615594
O O1 0.442239 0.243695 0.742962
O O2 0.323211 0.211155 0.806483
O O3 0.536315 0.143642 0.896419
O O4 0.536461 0.289016 0.926414
O O5 0.397684 0.127488 0.313384
O O6 0.169467 0.122289 0.111142
O O7 0.207099 0.100860 0.286289
O O8 0.272826 0.000000 0.228365
O O9 0.500000 0.817745 0.500000
O O10 0.410673 0.778995 0.580008
O O11 0.368784 0.910985 0.494528
O O12 0.854506 0.145173 0.612702
O O13 0.085976 0.186525 0.723506
O O14 0.250348 0.743962 0.897695
O O15 0.292682 0.885182 0.900690
O O16 0.136714 0.500000 0.966626
O O17 0.267865 0.618902 0.993060
O O18 0.829311 0.000000 0.631474
#
# Coordination Sequence:
#
# PCOD9187915 Si02
#       8
#     8   8   8   8   8   8   8   8
#     4  11  23  39  63  87 124 166 208 256 297 355
#     4  10  19  35  62  93 124 159 201 251 314 374
#     4  10  21  39  65  96 119 154 204 262 312 369
#     4  12  22  41  65  93 120 159 212 250 307 374
#     4  11  22  38  60  83 118 163 207 255 298 351
#     4  11  21  36  57  84 123 169 209 249 296 350
#     4  11  18  37  57  91 122 160 203 251 301 355
#     4  10  23  40  60  90 127 159 195 257 324 373
#
# _framework density 19.683391
#
# number of rings (size 3 to 8) (size 9 to 14) (size 15 to 20)
#    0.000    1.250    3.750    4.125    1.750    3.000 
#    0.000    0.625    0.000    4.875    0.000    0.000 
#    0.000    0.000    0.000    0.000    0.000    0.000 
#
# Total GULP energy -178757.181624 kJ/mol
# GULP energy per Si atom -5586.161926 kJ/mol
# Density = 1.963859 g / cm^3
# Si number density = 19.683391 Si / 1000 Ang^3
#
#
#
# Elastic Constant Matrix: (Units=GPa)
#
#
# Indices 1 2 3 4 5 6 
#
# 1 116.1999 59.4170 39.4377 0.0000 5.0578 0.0000
# 2 59.4170 126.8819 27.8783 0.0000 -5.5233 0.0000
# 3 39.4377 27.8783 55.9505 0.0000 -2.9508 0.0000
# 4 0.0000 0.0000 0.0000 17.5278 0.0000 -1.5318
# 5 5.0578 -5.5233 -2.9508 0.0000 17.4024 0.0000
# 6 0.0000 0.0000 0.0000 -1.5318 0.0000 25.9359
#
#
#
# Elastic Compliance Matrix: (Units=1/GPa)
#
#
# Indices 1 2 3 4 5 6 
#
# 1 0.014262 -0.005276 -0.007801 0.000000 -0.007142 0.000000
# 2 -0.005276 0.010877 -0.001451 0.000000 0.004739 0.000000
# 3 -0.007801 -0.001451 0.024408 0.000000 0.005945 0.000000
# 4 0.000000 0.000000 0.000000 0.057348 0.000000 0.003387
# 5 -0.007142 0.004739 0.005945 0.000000 0.062051 0.000000
# 6 0.000000 0.000000 0.000000 0.003387 0.000000 0.038757
#
#
# Mechanical properties :
#
#
# Convention : Reuss Voigt Hill
#
# Bulk Modulus (GPa) = 48.79952 61.38869 55.09411
# Shear Modulus (GPa) = 20.52643 23.65985 22.09314
#
# Velocity S-wave (km/s) = 3.23279 3.47078 3.35390
# Velocity P-wave (km/s) = 6.22741 6.87877 6.56118
#
# Compressibility (1/GPa) = 0.02049200
#
# Stress axis : x y z
#
# Youngs Moduli (GPa) = 70.11719 91.93749 40.97014
#
# Poissons Ratio (x) = 0.48502 0.31960
# Poissons Ratio (y) = 0.36991 0.05945
# Poissons Ratio (z) = 0.54697 0.13341
#
# Static dielectric constant tensor:
#      x y z
#    x 1.719280 0.000000 0.014570 
#    y 0.000000 1.682100 0.000000 
#    z 0.014570 0.000000 1.705970 
# 
# From -- ./inp_files/271767.got.cif
#   From: 2010.05.17/outbox.cif.g08.bks.cpg/sg12_136_cif.got.tgz:271767.got - 2010.06.03 13:09:07.
