data_PCOD9187880
_publ_section_title
;
Structure prediction by ZEFSAII (Michael W. Deem and Ramdas Pophale) SiO2 
 PCOD9187880
Probable space group: C 2/M
;
_chemical_formula_sum "Si O2"
_cell_formula_units_Z 48
_cell_length_a 27.818039
_cell_length_b 15.380980
_cell_length_c 11.939150
_cell_angle_alpha 90.000000
_cell_angle_beta 25.856444
_cell_angle_gamma 90.000000
_cell_volume 2227.859315
_symmetry_space_group_name_H-M "C 2/M"
_symmetry_group_IT_number 12
_symmetry_cell_setting 'monoclinic'
loop_
_space_group_symop_operation_xyz
x,y,z
-x,y,-z
-x,-y,-z
x,-y,z
1/2+x,1/2+y,z
1/2-x,1/2+y,-z
1/2-x,1/2-y,-z
1/2+x,1/2-y,z
loop_
_atom_site_type_symbol
_atom_site_label
_atom_site_fract_x
_atom_site_fract_y
_atom_site_fract_z
Si Si1 0.620552 0.903917 0.615559
Si Si2 0.243053 0.901112 0.895587
Si Si3 0.954020 0.771210 0.721851
Si Si4 0.386867 0.904520 0.808115
Si Si5 0.543204 0.709480 0.758717
Si Si6 0.184928 0.160676 0.649256
O O1 0.665662 0.898922 0.393476
O O2 0.557759 0.811724 0.762575
O O3 0.727142 0.900846 0.474684
O O4 0.566627 0.000000 0.741358
O O5 0.296320 0.880761 0.904270
O O6 0.201694 0.000000 0.987758
O O7 0.146398 0.837208 0.065954
O O8 0.906447 0.675336 0.849333
O O9 0.000000 0.770125 0.500000
O O10 0.046103 0.794872 0.619093
O O11 0.500000 0.912209 0.500000
O O12 0.363892 0.000000 0.904739
O O13 0.631820 0.649687 0.637322
O O14 0.422636 0.676818 0.048773
O O15 0.250000 0.250000 0.500000
#
# Coordination Sequence:
#
# PCOD9187880 Si02
#       6
#     8   8   8   8   8   8
#     4  10  19  35  62  90 114 150 196 245 296 349
#     4  10  20  35  54  81 117 154 194 239 286 349
#     4  11  21  34  56  86 113 155 194 237 289 359
#     4   9  18  32  51  78 113 146 185 235 285 339
#     4  10  20  36  58  86 115 151 194 240 289 348
#     4   9  19  38  58  80 115 155 186 236 294 343
#
# _framework density 21.545347
#
# number of rings (size 3 to 8) (size 9 to 14) (size 15 to 20)
#    0.000    2.167    1.667    2.500    0.000    2.333 
#    0.000    9.167    0.000    0.000    0.000    0.000 
#    0.000    0.000    0.000    0.000    0.000    0.000 
#
# Total GULP energy -133830.822707 kJ/mol
# GULP energy per Si atom -5576.284279 kJ/mol
# Density = 2.149631 g / cm^3
# Si number density = 21.545347 Si / 1000 Ang^3
#
#
#
# Elastic Constant Matrix: (Units=GPa)
#
#
# Indices 1 2 3 4 5 6 
#
# 1 125.8914 5.9540 7.4895 0.0000 -2.2732 0.0000
# 2 5.9540 53.9401 -2.2357 0.0000 -7.3750 0.0000
# 3 7.4895 -2.2357 17.0775 0.0000 -2.6321 0.0000
# 4 0.0000 0.0000 0.0000 14.4997 0.0000 -2.0892
# 5 -2.2732 -7.3750 -2.6321 0.0000 27.4259 0.0000
# 6 0.0000 0.0000 0.0000 -2.0892 0.0000 116.8316
#
#
#
# Elastic Compliance Matrix: (Units=1/GPa)
#
#
# Indices 1 2 3 4 5 6 
#
# 1 0.008216 -0.001057 -0.003736 0.000000 0.000038 0.000000
# 2 -0.001057 0.019575 0.003881 0.000000 0.005549 0.000000
# 3 -0.003736 0.003881 0.061729 0.000000 0.006658 0.000000
# 4 0.000000 0.000000 0.000000 0.069145 0.000000 0.001236
# 5 0.000038 0.005549 0.006658 0.000000 0.038596 0.000000
# 6 0.000000 0.000000 0.000000 0.001236 0.000000 0.008581
#
#
# Mechanical properties :
#
#
# Convention : Reuss Voigt Hill
#
# Bulk Modulus (GPa) = 11.40267 24.36940 17.88604
# Shear Modulus (GPa) = 21.10612 44.13152 32.61882
#
# Velocity S-wave (km/s) = 3.13327 4.53073 3.89519
# Velocity P-wave (km/s) = 4.28880 6.22136 5.34318
#
# Compressibility (1/GPa) = 0.08769872
#
# Stress axis : x y z
#
# Youngs Moduli (GPa) = 121.70993 51.08497 16.19979
#
# Poissons Ratio (x) = 0.05397 0.06052
# Poissons Ratio (y) = 0.12859 -0.06287
# Poissons Ratio (z) = 0.45467 -0.19827
#
# Static dielectric constant tensor:
#      x y z
#    x 1.858590 0.000000 0.018220 
#    y 0.000000 1.795240 0.000000 
#    z 0.018220 0.000000 1.800550 
# 
# From -- ./inp_files/183676.got.cif
#   From: 2010.05.17/outbox.cif.g08.bks.cpg/sg12_92_cif.got.tgz:183676.got - 2010.06.03 13:09:07.
