data_PCOD9187850
_publ_section_title
;
Structure prediction by ZEFSAII (Michael W. Deem and Ramdas Pophale) SiO2 
 PCOD9187850
Probable space group: C 2/M
;
_chemical_formula_sum "Si O2"
_cell_formula_units_Z 58
_cell_length_a 21.623295
_cell_length_b 14.031985
_cell_length_c 9.476655
_cell_angle_alpha 90.000000
_cell_angle_beta 82.282502
_cell_angle_gamma 90.000000
_cell_volume 2849.340782
_symmetry_space_group_name_H-M "C 2/M"
_symmetry_group_IT_number 12
_symmetry_cell_setting 'monoclinic'
loop_
_space_group_symop_operation_xyz
x,y,z
-x,y,-z
-x,-y,-z
x,-y,z
1/2+x,1/2+y,z
1/2-x,1/2+y,-z
1/2-x,1/2-y,-z
1/2+x,1/2-y,z
loop_
_atom_site_type_symbol
_atom_site_label
_atom_site_fract_x
_atom_site_fract_y
_atom_site_fract_z
Si Si1 0.000000 0.000000 0.000000
Si Si2 0.900167 0.834653 0.043365
Si Si3 0.712985 0.895570 0.776482
Si Si4 0.877188 0.243822 0.322651
Si Si5 0.925965 0.605838 0.533674
Si Si6 0.660558 0.608557 0.420651
Si Si7 0.135377 0.723991 0.213022
Si Si8 0.244858 0.891274 0.912159
O O1 0.053251 0.082829 0.014925
O O2 0.922254 0.798185 0.190094
O O3 0.828510 0.871689 0.086719
O O4 0.893162 0.752863 0.928156
O O5 0.670916 0.806593 0.752541
O O6 0.767052 0.896564 0.643078
O O7 0.681126 0.000000 0.783583
O O8 0.742571 0.886356 0.923066
O O9 0.904398 0.318459 0.424741
O O10 0.849507 0.158341 0.425564
O O11 0.900047 0.500000 0.516531
O O12 0.903314 0.644910 0.691081
O O13 0.000000 0.601757 0.500000
O O14 0.635667 0.500000 0.423544
O O15 0.634136 0.680563 0.309881
O O16 0.205654 0.681776 0.172354
O O17 0.258498 0.000000 0.861789
#
# Coordination Sequence:
#
# PCOD9187850 Si02
#       8
#     2   8   8   8   8   8   8   8
#     4  12  32  44  64  98 142 200 226 280 330 402
#     4  12  25  45  67  97 140 178 237 277 337 394
#     4  10  19  35  61  98 136 167 210 275 354 402
#     4  11  23  40  64  94 130 172 229 283 328 407
#     4  10  24  47  68  93 133 177 219 276 348 418
#     4  10  22  37  58  90 132 174 216 266 342 402
#     4  11  22  41  72 100 127 173 232 280 338 406
#     4  11  21  39  68 104 137 172 217 290 349 404
#
# _framework density 20.355585000000001
#
# number of rings (size 3 to 8) (size 9 to 14) (size 15 to 20)
#    0.000    1.241    3.448    2.483    3.862    1.103 
#    0.000    2.759    0.000    4.966    0.000    0.000 
#    0.000    0.000    0.000    0.000    0.000    0.000 
#
# Total GULP energy -161638.351797 kJ/mol
# GULP energy per Si atom -5573.736269 kJ/mol
# Density = 2.030925 g / cm^3
# Si number density = 20.355585 Si / 1000 Ang^3
#
#
#
# Elastic Constant Matrix: (Units=GPa)
#
#
# Indices 1 2 3 4 5 6 
#
# 1 62.7553 31.9464 19.4989 0.0000 -13.1167 0.0000
# 2 31.9464 142.4866 45.3042 0.0000 -1.4225 0.0000
# 3 19.4989 45.3042 92.0210 0.0000 2.8972 0.0000
# 4 0.0000 0.0000 0.0000 23.2268 0.0000 -1.1764
# 5 -13.1167 -1.4225 2.8972 0.0000 10.8059 0.0000
# 6 0.0000 0.0000 0.0000 -1.1764 0.0000 65.0735
#
#
#
# Elastic Compliance Matrix: (Units=1/GPa)
#
#
# Indices 1 2 3 4 5 6 
#
# 1 0.026246 -0.004109 -0.004563 0.000000 0.032541 0.000000
# 2 -0.004109 0.009017 -0.003478 0.000000 -0.002868 0.000000
# 3 -0.004563 -0.003478 0.013852 0.000000 -0.009711 0.000000
# 4 0.000000 0.000000 0.000000 0.043093 0.000000 0.000779
# 5 0.032541 -0.002868 -0.009711 0.000000 0.134268 0.000000
# 6 0.000000 0.000000 0.000000 0.000779 0.000000 0.015381
#
#
# Mechanical properties :
#
#
# Convention : Reuss Voigt Hill
#
# Bulk Modulus (GPa) = 40.29898 54.52908 47.41403
# Shear Modulus (GPa) = 18.21969 33.18880 25.70425
#
# Velocity S-wave (km/s) = 2.99502 4.04227 3.55739
# Velocity P-wave (km/s) = 5.63921 6.97373 6.34167
#
# Compressibility (1/GPa) = 0.02481452
#
# Stress axis : x y z
#
# Youngs Moduli (GPa) = 38.10144 110.90536 72.19103
#
# Poissons Ratio (x) = 0.45568 0.32941
# Poissons Ratio (y) = 0.15655 0.25110
# Poissons Ratio (z) = 0.17386 0.38575
#
# Static dielectric constant tensor:
#      x y z
#    x 1.711570 0.000000 0.004870 
#    y 0.000000 1.766430 0.000000 
#    z 0.004870 0.000000 1.728980 
# 
# From -- ./inp_files/96342.got.cif
#   From: 2010.05.17/outbox.cif.g08.bks.cpg/sg12_49_cif.got.tgz:96342.got - 2010.06.03 13:09:07.
