data_PCOD9187761
_publ_section_title
;
Structure prediction by ZEFSAII (Michael W. Deem and Ramdas Pophale) SiO2 
 PCOD9187761
Probable space group: C 2/M
;
_chemical_formula_sum "Si O2"
_cell_formula_units_Z 56
_cell_length_a 20.973754
_cell_length_b 13.162382
_cell_length_c 8.724043
_cell_angle_alpha 90.000000
_cell_angle_beta 92.578202
_cell_angle_gamma 90.000000
_cell_volume 2405.961222
_symmetry_space_group_name_H-M "C 2/M"
_symmetry_group_IT_number 12
_symmetry_cell_setting 'monoclinic'
loop_
_space_group_symop_operation_xyz
x,y,z
-x,y,-z
-x,-y,-z
x,-y,z
1/2+x,1/2+y,z
1/2-x,1/2+y,-z
1/2-x,1/2-y,-z
1/2+x,1/2-y,z
loop_
_atom_site_type_symbol
_atom_site_label
_atom_site_fract_x
_atom_site_fract_y
_atom_site_fract_z
Si Si1 0.652064 0.816863 0.024771
Si Si2 0.211505 0.891323 0.010177
Si Si3 0.191456 0.612573 0.558501
Si Si4 0.917669 0.332797 0.678869
Si Si5 0.428666 0.613790 0.561882
Si Si6 0.540808 0.113056 0.846817
Si Si7 0.307004 0.661287 0.342797
O O1 0.712585 0.878851 0.974534
O O2 0.620145 0.864874 0.171762
O O3 0.678325 0.706984 0.076564
O O4 0.598416 0.811183 0.887287
O O5 0.196704 0.881150 0.827773
O O6 0.190571 0.000000 0.068771
O O7 0.196065 0.500000 0.628841
O O8 0.122982 0.624878 0.466580
O O9 0.247625 0.621254 0.437300
O O10 0.199478 0.715851 0.655741
O O11 0.919623 0.210488 0.670014
O O12 0.990808 0.366041 0.707084
O O13 0.500000 0.621192 0.500000
O O14 0.422075 0.500000 0.626998
O O15 0.373033 0.628901 0.429807
O O16 0.567529 0.000000 0.833324
O O17 0.500000 0.116284 0.000000
#
# Coordination Sequence:
#
# PCOD9187761 Si02
#       7
#     8   8   8   8   8   8   8
#     4  10  22  37  56  87 115 146 194 235 278 338
#     4  11  22  38  60  82 116 155 190 235 285 337
#     4  10  19  35  61  88 113 145 187 237 290 338
#     4  10  20  36  59  86 115 145 189 238 280 343
#     4  10  22  38  58  82 112 151 190 232 283 339
#     4   9  18  34  57  81 109 146 185 228 279 332
#     4  10  21  36  58  86 112 147 192 235 278 350
#
# _framework density 23.27552
#
# number of rings (size 3 to 8) (size 9 to 14) (size 15 to 20)
#    0.000    2.000    1.429    2.143    2.000    1.714 
#    0.000    3.571    0.000    4.714    0.000    0.000 
#    0.000    0.000    0.000    0.000    0.000    0.000 
#
# Total GULP energy -156581.686275 kJ/mol
# GULP energy per Si atom -5592.203081 kJ/mol
# Density = 2.322254 g / cm^3
# Si number density = 23.275520 Si / 1000 Ang^3
#
#
#
# Elastic Constant Matrix: (Units=GPa)
#
#
# Indices 1 2 3 4 5 6 
#
# 1 112.3393 17.9142 28.3907 0.0000 27.1827 0.0000
# 2 17.9142 156.3026 -5.5099 0.0000 7.8292 0.0000
# 3 28.3907 -5.5099 47.9681 0.0000 20.5327 0.0000
# 4 0.0000 0.0000 0.0000 11.1108 0.0000 6.2194
# 5 27.1827 7.8292 20.5327 0.0000 43.2113 0.0000
# 6 0.0000 0.0000 0.0000 6.2194 0.0000 8.2127
#
#
#
# Elastic Compliance Matrix: (Units=1/GPa)
#
#
# Indices 1 2 3 4 5 6 
#
# 1 0.011476 -0.001257 -0.004951 0.000000 -0.004639 0.000000
# 2 -0.001257 0.006689 0.002125 0.000000 -0.001430 0.000000
# 3 -0.004951 0.002125 0.028688 0.000000 -0.010902 0.000000
# 4 0.000000 0.000000 0.000000 0.156226 0.000000 -0.118308
# 5 -0.004639 -0.001430 -0.010902 0.000000 0.031500 0.000000
# 6 0.000000 0.000000 0.000000 -0.118308 0.000000 0.211355
#
#
# Mechanical properties :
#
#
# Convention : Reuss Voigt Hill
#
# Bulk Modulus (GPa) = 25.84954 44.24444 35.04699
# Shear Modulus (GPa) = 10.70674 30.89464 20.80069
#
# Velocity S-wave (km/s) = 2.14709 3.64723 2.99268
# Velocity P-wave (km/s) = 4.15652 6.06520 5.19920
#
# Compressibility (1/GPa) = 0.03868541
#
# Stress axis : x y z
#
# Youngs Moduli (GPa) = 87.14018 149.50986 34.85738
#
# Poissons Ratio (x) = 0.18800 0.17258
# Poissons Ratio (y) = 0.10957 -0.07407
# Poissons Ratio (z) = 0.43143 -0.31769
#
# Static dielectric constant tensor:
#      x y z
#    x 1.857850 0.000000 -0.004860 
#    y 0.000000 1.881590 0.000000 
#    z -0.004860 0.000000 1.872650 
# 
# From -- ./inp_files/165723.got.cif
#   From: 2010.05.17/outbox.cif.g08.bks.cpg/sg12_83_cif.got.tgz:165723.got - 2010.06.03 13:09:07.
