data_PCOD9187812
_publ_section_title
;
Structure prediction by ZEFSAII (Michael W. Deem and Ramdas Pophale) SiO2 
 PCOD9187812
Probable space group: C 2/M
;
_chemical_formula_sum "Si O2"
_cell_formula_units_Z 56
_cell_length_a 21.104274
_cell_length_b 14.425292
_cell_length_c 18.292353
_cell_angle_alpha 90.000000
_cell_angle_beta 147.515046
_cell_angle_gamma 90.000000
_cell_volume 2990.901139
_symmetry_space_group_name_H-M "C 2/M"
_symmetry_group_IT_number 12
_symmetry_cell_setting 'monoclinic'
loop_
_space_group_symop_operation_xyz
x,y,z
-x,y,-z
-x,-y,-z
x,-y,z
1/2+x,1/2+y,z
1/2-x,1/2+y,-z
1/2-x,1/2-y,-z
1/2+x,1/2-y,z
loop_
_atom_site_type_symbol
_atom_site_label
_atom_site_fract_x
_atom_site_fract_y
_atom_site_fract_z
Si Si1 0.416674 0.389861 0.192438
Si Si2 0.009243 0.391978 0.889271
Si Si3 0.354820 0.280714 0.548282
Si Si4 0.515840 0.102960 0.306906
Si Si5 0.752432 0.610512 0.692451
Si Si6 0.251906 0.103806 0.109293
Si Si7 0.256935 0.301472 0.164711
O O1 0.422695 0.500000 0.214104
O O2 0.544977 0.343247 0.315597
O O3 0.340669 0.338230 0.181076
O O4 0.347836 0.378894 0.048980
O O5 0.042230 0.500000 0.932278
O O6 0.972388 0.381454 0.768578
O O7 0.893594 0.372290 0.824284
O O8 0.123805 0.332522 0.016751
O O9 0.250000 0.250000 0.500000
O O10 0.418892 0.185110 0.588390
O O11 0.306921 0.337808 0.433127
O O12 0.377356 0.104187 0.189743
O O13 0.561747 0.000000 0.368600
O O14 0.734567 0.500000 0.670095
O O15 0.707556 0.650477 0.725198
O O16 0.257374 0.190299 0.168680
O O17 0.235312 0.000000 0.123948
#
# Coordination Sequence:
#
# PCOD9187812 Si02
#       7
#     8   8   8   8   8   8   8
#     4  11  22  37  62  94 121 153 199 252 301 348
#     4  10  19  35  61  91 119 151 194 245 298 354
#     4  12  24  39  59  84 120 165 198 238 291 354
#     4  10  19  37  63  88 112 149 202 251 291 345
#     4  11  25  40  57  88 127 162 196 238 293 362
#     4  10  21  38  64  92 115 147 200 258 300 344
#     4  12  21  37  63  90 123 157 194 245 306 357
#
# _framework density 18.723455000000001
#
# number of rings (size 3 to 8) (size 9 to 14) (size 15 to 20)
#    0.000    1.143    4.286    3.429    0.000    2.286 
#    0.000    2.143    0.000    3.429    0.000    0.000 
#    0.000    0.000    0.000    0.000    0.000    0.000 
#
# Total GULP energy -156431.431523 kJ/mol
# GULP energy per Si atom -5586.836840 kJ/mol
# Density = 1.868084 g / cm^3
# Si number density = 18.723455 Si / 1000 Ang^3
#
#
#
# Elastic Constant Matrix: (Units=GPa)
#
#
# Indices 1 2 3 4 5 6 
#
# 1 37.8353 30.2723 21.7048 0.0000 -0.9975 0.0000
# 2 30.2723 133.8617 57.6160 0.0000 -1.6193 0.0000
# 3 21.7048 57.6160 74.5449 0.0000 10.0851 0.0000
# 4 0.0000 0.0000 0.0000 30.9561 0.0000 7.1057
# 5 -0.9975 -1.6193 10.0851 0.0000 17.1328 0.0000
# 6 0.0000 0.0000 0.0000 7.1057 0.0000 23.8971
#
#
#
# Elastic Compliance Matrix: (Units=1/GPa)
#
#
# Indices 1 2 3 4 5 6 
#
# 1 0.034424 -0.004584 -0.007271 0.000000 0.005851 0.000000
# 2 -0.004584 0.012557 -0.009230 0.000000 0.006353 0.000000
# 3 -0.007271 -0.009230 0.024817 0.000000 -0.015904 0.000000
# 4 0.000000 0.000000 0.000000 0.034670 0.000000 -0.010309
# 5 0.005851 0.006353 -0.015904 0.000000 0.068670 0.000000
# 6 0.000000 0.000000 0.000000 -0.010309 0.000000 0.044911
#
#
# Mechanical properties :
#
#
# Convention : Reuss Voigt Hill
#
# Bulk Modulus (GPa) = 33.75312 51.71424 42.73368
# Shear Modulus (GPa) = 18.37587 23.50713 20.94150
#
# Velocity S-wave (km/s) = 3.13619 3.54714 3.34797
# Velocity P-wave (km/s) = 5.58395 6.66755 6.14966
#
# Compressibility (1/GPa) = 0.02962689
#
# Stress axis : x y z
#
# Youngs Moduli (GPa) = 29.04963 79.63963 40.29468
#
# Poissons Ratio (x) = 0.36510 0.29300
# Poissons Ratio (y) = 0.13317 0.37191
# Poissons Ratio (z) = 0.21123 0.73505
#
# Static dielectric constant tensor:
#      x y z
#    x 1.638910 0.000000 0.004340 
#    y 0.000000 1.669180 0.000000 
#    z 0.004340 0.000000 1.648250 
# 
# From -- ./inp_files/284517.got.cif
#   From: 2010.05.17/outbox.cif.g08.bks.cpg/sg12_143_cif.got.tgz:284517.got - 2010.06.03 13:09:07.
