data_PCOD9187431
_publ_section_title
;
Structure prediction by ZEFSAII (Michael W. Deem and Ramdas Pophale) SiO2 
 PCOD9187431
Probable space group: C 2/M
;
_chemical_formula_sum "Si O2"
_cell_formula_units_Z 64
_cell_length_a 15.926981
_cell_length_b 8.035610
_cell_length_c 26.034896
_cell_angle_alpha 90.000000
_cell_angle_beta 71.358530
_cell_angle_gamma 90.000000
_cell_volume 3157.217316
_symmetry_space_group_name_H-M "C 2/M"
_symmetry_group_IT_number 12
_symmetry_cell_setting 'monoclinic'
loop_
_space_group_symop_operation_xyz
x,y,z
-x,y,-z
-x,-y,-z
x,-y,z
1/2+x,1/2+y,z
1/2-x,1/2+y,-z
1/2-x,1/2-y,-z
1/2+x,1/2-y,z
loop_
_atom_site_type_symbol
_atom_site_label
_atom_site_fract_x
_atom_site_fract_y
_atom_site_fract_z
Si Si1 0.004838 0.196669 0.755523
Si Si2 0.944002 0.301042 0.367817
Si Si3 0.810028 0.299608 0.827215
Si Si4 0.374215 0.295548 0.174651
Si Si5 0.992531 0.804997 0.058472
Si Si6 0.818417 0.699059 0.942605
Si Si7 0.560075 0.200675 0.440245
Si Si8 0.247937 0.698762 0.560080
O O1 0.024763 0.267558 0.695748
O O2 0.071073 0.262596 0.786695
O O3 0.904514 0.230097 0.792507
O O4 0.018555 0.000000 0.749876
O O5 0.940078 0.500000 0.375518
O O6 0.844415 0.236304 0.397874
O O7 0.013657 0.237962 0.396991
O O8 0.816015 0.500000 0.823243
O O9 0.728053 0.245583 0.808016
O O10 0.788835 0.257400 0.890705
O O11 0.377561 0.500000 0.173608
O O12 0.422596 0.236611 0.113025
O O13 0.088555 0.787228 0.064918
O O14 0.969075 0.000000 0.056364
O O15 0.000000 0.729858 0.000000
O O16 0.831058 0.500000 0.942167
O O17 0.750000 0.750000 0.000000
O O18 0.500000 0.259295 0.500000
O O19 0.662221 0.245866 0.429369
O O20 0.556363 0.000000 0.440978
O O21 0.246191 0.500000 0.562559
O O22 0.250000 0.750000 0.500000
#
# Coordination Sequence:
#
# PCOD9187431 Si02
#       8
#     8   8   8   8   8   8   8   8
#     4  11  23  40  62  88 119 155 203 255 293 347
#     4  10  23  42  62  86 124 165 199 243 300 364
#     4  10  21  40  63  85 114 158 203 242 300 365
#     4   9  19  37  60  84 114 154 198 240 294 359
#     4  10  19  35  59  84 116 154 194 243 302 364
#     4  11  22  35  56  86 120 154 196 248 301 363
#     4  10  20  39  63  89 123 163 204 247 303 362
#     4  11  22  38  62  93 127 163 204 251 303 358
#
# _framework density 20.271014999999998
#
# number of rings (size 3 to 8) (size 9 to 14) (size 15 to 20)
#    0.000    1.750    2.500    1.875    0.000    5.500 
#    0.000    5.625    0.000    0.000    0.000    0.000 
#    0.000    0.000    0.000    0.000    0.000    0.000 
#
# Total GULP energy -178724.194224 kJ/mol
# GULP energy per Si atom -5585.131069 kJ/mol
# Density = 2.022488 g / cm^3
# Si number density = 20.271015 Si / 1000 Ang^3
#
#
#
# Elastic Constant Matrix: (Units=GPa)
#
#
# Indices 1 2 3 4 5 6 
#
# 1 166.8821 6.5205 70.2258 0.0000 16.7642 0.0000
# 2 6.5205 14.5310 10.9618 0.0000 4.6091 0.0000
# 3 70.2258 10.9618 133.2410 0.0000 14.9746 0.0000
# 4 0.0000 0.0000 0.0000 16.1657 0.0000 0.1511
# 5 16.7642 4.6091 14.9746 0.0000 30.8688 0.0000
# 6 0.0000 0.0000 0.0000 0.1511 0.0000 27.7360
#
#
#
# Elastic Compliance Matrix: (Units=1/GPa)
#
#
# Indices 1 2 3 4 5 6 
#
# 1 0.007864 0.000168 -0.003888 0.000000 -0.002410 0.000000
# 2 0.000168 0.075541 -0.005315 0.000000 -0.008792 0.000000
# 3 -0.003888 -0.005315 0.010222 0.000000 -0.002054 0.000000
# 4 0.000000 0.000000 0.000000 0.061863 0.000000 -0.000337
# 5 -0.002410 -0.008792 -0.002054 0.000000 0.036013 0.000000
# 6 0.000000 0.000000 0.000000 -0.000337 0.000000 0.036056
#
#
# Mechanical properties :
#
#
# Convention : Reuss Voigt Hill
#
# Bulk Modulus (GPa) = 13.23484 54.45225 33.84354
# Shear Modulus (GPa) = 18.46280 30.08382 24.27331
#
# Velocity S-wave (km/s) = 3.02122 3.85656 3.46416
# Velocity P-wave (km/s) = 4.32591 6.83748 5.72121
#
# Compressibility (1/GPa) = 0.07555816
#
# Stress axis : x y z
#
# Youngs Moduli (GPa) = 127.16616 13.23776 97.82475
#
# Poissons Ratio (x) = -0.00223 0.38031
# Poissons Ratio (y) = -0.02142 0.51998
# Poissons Ratio (z) = 0.49438 0.07036
#
# Static dielectric constant tensor:
#      x y z
#    x 1.706630 0.000000 0.008560 
#    y 0.000000 1.735770 0.000000 
#    z 0.008560 0.000000 1.701240 
# 
# From -- ./inp_files/359709.got.cif
#   From: 2010.05.17/outbox.cif.g08.bks.cpg/sg12_180_cif.got.tgz:359709.got - 2010.06.03 13:09:07.
