data_PCOD9187531
_publ_section_title
;
Structure prediction by ZEFSAII (Michael W. Deem and Ramdas Pophale) SiO2 
 PCOD9187531
Probable space group: C 2/M
;
_chemical_formula_sum "Si O2"
_cell_formula_units_Z 44
_cell_length_a 25.407719
_cell_length_b 10.651401
_cell_length_c 12.146979
_cell_angle_alpha 90.000000
_cell_angle_beta 48.080057
_cell_angle_gamma 90.000000
_cell_volume 2446.018679
_symmetry_space_group_name_H-M "C 2/M"
_symmetry_group_IT_number 12
_symmetry_cell_setting 'monoclinic'
loop_
_space_group_symop_operation_xyz
x,y,z
-x,y,-z
-x,-y,-z
x,-y,z
1/2+x,1/2+y,z
1/2-x,1/2+y,-z
1/2-x,1/2-y,-z
1/2+x,1/2-y,z
loop_
_atom_site_type_symbol
_atom_site_label
_atom_site_fract_x
_atom_site_fract_y
_atom_site_fract_z
Si Si1 0.675365 0.000000 0.196169
Si Si2 0.537495 0.246397 0.063355
Si Si3 0.399248 0.351442 0.363032
Si Si4 0.396963 0.000000 0.924072
Si Si5 0.312307 0.251508 0.680818
Si Si6 0.764374 0.000000 0.863951
Si Si7 0.674205 0.353074 0.764629
O O1 0.612504 0.000000 0.194356
O O2 0.674058 0.873963 0.268789
O O3 0.745809 0.000000 0.019892
O O4 0.478753 0.317708 0.216649
O O5 0.564400 0.122851 0.086587
O O6 0.500000 0.212389 0.000000
O O7 0.605435 0.329416 0.936451
O O8 0.392980 0.500000 0.391843
O O9 0.372139 0.278018 0.506963
O O10 0.350097 0.321374 0.325559
O O11 0.314842 0.000000 0.078329
O O12 0.302753 0.373772 0.771146
O O13 0.238991 0.228281 0.717890
O O14 0.693603 0.500000 0.741065
#
# Coordination Sequence:
#
# PCOD9187531 Si02
#       7
#     4   8   8   4   8   4   8
#     4  10  24  38  64  89 112 157 203 239 302 342
#     4  10  20  37  60  85 119 159 194 235 289 357
#     4  10  22  36  57  88 122 155 192 240 299 348
#     4  10  21  39  59  86 111 151 204 246 287 343
#     4  12  20  40  60  90 119 154 192 251 295 346
#     4  10  22  37  63  82 116 151 198 242 292 337
#     4  10  19  35  59  88 120 156 195 234 288 360
#
# _framework density 17.988415
#
# number of rings (size 3 to 8) (size 9 to 14) (size 15 to 20)
#    0.545    1.091    3.636    1.909    0.000    2.909 
#    0.000    2.727    2.000    1.091    0.000    0.000 
#    0.000    0.000    0.000    0.000    0.000    0.000 
#
# Total GULP energy -122739.107269 kJ/mol
# GULP energy per Si atom -5579.050330 kJ/mol
# Density = 1.794747 g / cm^3
# Si number density = 17.988415 Si / 1000 Ang^3
#
#
#
# Elastic Constant Matrix: (Units=GPa)
#
#
# Indices 1 2 3 4 5 6 
#
# 1 23.1572 14.0181 22.4665 0.0000 -0.9591 0.0000
# 2 14.0181 105.9674 48.0527 0.0000 21.4577 0.0000
# 3 22.4665 48.0527 135.1778 0.0000 14.8477 0.0000
# 4 0.0000 0.0000 0.0000 21.3060 0.0000 15.9572
# 5 -0.9591 21.4577 14.8477 0.0000 18.5029 0.0000
# 6 0.0000 0.0000 0.0000 15.9572 0.0000 14.5399
#
#
#
# Elastic Compliance Matrix: (Units=1/GPa)
#
#
# Indices 1 2 3 4 5 6 
#
# 1 0.057000 -0.007239 -0.008934 0.000000 0.018519 0.000000
# 2 -0.007239 0.014549 -0.002275 0.000000 -0.015422 0.000000
# 3 -0.008934 -0.002275 0.010366 0.000000 -0.006143 0.000000
# 4 0.000000 0.000000 0.000000 0.263619 0.000000 -0.289316
# 5 0.018519 -0.015422 -0.006143 0.000000 0.077820 0.000000
# 6 0.000000 0.000000 0.000000 -0.289316 0.000000 0.386295
#
#
# Mechanical properties :
#
#
# Convention : Reuss Voigt Hill
#
# Bulk Modulus (GPa) = 22.21283 48.15299 35.18291
# Shear Modulus (GPa) = 5.80348 22.85409 14.32878
#
# Velocity S-wave (km/s) = 1.79812 3.56826 2.82539
# Velocity P-wave (km/s) = 4.08487 6.61843 5.49954
#
# Compressibility (1/GPa) = 0.04501904
#
# Stress axis : x y z
#
# Youngs Moduli (GPa) = 17.54387 68.73383 96.47009
#
# Poissons Ratio (x) = 0.49756 0.86188
# Poissons Ratio (y) = 0.12700 0.21945
# Poissons Ratio (z) = 0.15674 0.15635
#
# Static dielectric constant tensor:
#      x y z
#    x 1.609350 0.000000 0.006460 
#    y 0.000000 1.583730 0.000000 
#    z 0.006460 0.000000 1.607570 
# 
# From -- ./inp_files/175144.got.cif
#   From: 2010.05.17/outbox.cif.g08.bks.cpg/sg12_88_cif.got.tgz:175144.got - 2010.06.03 13:09:07.
