data_PCOD9187515
_publ_section_title
;
Structure prediction by ZEFSAII (Michael W. Deem and Ramdas Pophale) SiO2 
 PCOD9187515
Probable space group: C 2/M
;
_chemical_formula_sum "Si O2"
_cell_formula_units_Z 64
_cell_length_a 14.715196
_cell_length_b 21.246009
_cell_length_c 31.279597
_cell_angle_alpha 90.000000
_cell_angle_beta 160.387795
_cell_angle_gamma 90.000000
_cell_volume 3282.419673
_symmetry_space_group_name_H-M "C 2/M"
_symmetry_group_IT_number 12
_symmetry_cell_setting 'monoclinic'
loop_
_space_group_symop_operation_xyz
x,y,z
-x,y,-z
-x,-y,-z
x,-y,z
1/2+x,1/2+y,z
1/2-x,1/2+y,-z
1/2-x,1/2-y,-z
1/2+x,1/2-y,z
loop_
_atom_site_type_symbol
_atom_site_label
_atom_site_fract_x
_atom_site_fract_y
_atom_site_fract_z
Si Si1 0.252437 0.572868 0.490795
Si Si2 0.170189 0.765949 0.759308
Si Si3 0.737935 0.751438 0.690815
Si Si4 0.317388 0.108286 0.700920
Si Si5 0.846836 0.115625 0.977686
Si Si6 0.328704 0.845198 0.462525
Si Si7 0.831399 0.264087 0.968916
Si Si8 0.116346 0.618202 0.746967
O O1 0.197138 0.500000 0.472771
O O2 0.532376 0.580982 0.588827
O O3 0.260321 0.608413 0.539336
O O4 0.020757 0.602520 0.358305
O O5 0.135945 0.764470 0.693224
O O6 0.135927 0.694172 0.760075
O O7 0.935050 0.809987 0.672798
O O8 0.468827 0.788789 0.905722
O O9 0.786448 0.684405 0.689489
O O10 0.521952 0.792413 0.569702
O O11 0.025659 0.786560 0.826234
O O12 0.551160 0.087914 0.838278
O O13 0.430626 0.093455 0.703829
O O14 0.799795 0.189734 0.964368
O O15 0.000000 0.110941 0.000000
O O16 0.075859 0.093088 0.111935
O O17 0.500000 0.874982 0.500000
O O18 0.000000 0.270832 0.000000
#
# Coordination Sequence:
#
# PCOD9187515 Si02
#       8
#     8   8   8   8   8   8   8   8
#     4  12  26  42  56  77 105 143 197 243 278 321
#     4  11  19  34  57  89 120 148 177 219 274 336
#     4  11  19  34  57  89 120 148 177 219 274 336
#     4  10  19  35  59  87 119 147 172 216 276 339
#     4   7  14  29  52  82 116 149 172 197 257 336
#     4  12  24  40  58  79 109 148 190 234 279 325
#     4   9  17  29  49  85 123 152 175 205 261 340
#     4  10  19  35  59  87 119 147 172 216 276 339
#
# _framework density 19.497810999999999
#
# number of rings (size 3 to 8) (size 9 to 14) (size 15 to 20)
#    0.000    1.750    2.500    5.625    0.000    1.250 
#    0.000    0.625    0.000    2.250    0.000    0.000 
#    0.000    5.000    0.000    0.000    0.000    0.000 
#
# Total GULP energy -178611.247611 kJ/mol
# GULP energy per Si atom -5581.601488 kJ/mol
# Density = 1.945343 g / cm^3
# Si number density = 19.497811 Si / 1000 Ang^3
#
#
#
# Elastic Constant Matrix: (Units=GPa)
#
#
# Indices 1 2 3 4 5 6 
#
# 1 43.0627 -2.4450 -22.3040 0.0054 -1.8084 -0.0043
# 2 -2.4450 37.5106 7.9457 0.0007 1.2320 0.0008
# 3 -22.3040 7.9457 83.9640 0.0228 1.8155 0.0056
# 4 0.0054 0.0007 0.0228 -2.8962 0.0004 2.1747
# 5 -1.8084 1.2320 1.8155 0.0004 25.8370 -0.0031
# 6 -0.0043 0.0008 0.0056 2.1747 -0.0031 -4.8617
#
#
#
# Elastic Compliance Matrix: (Units=1/GPa)
#
#
# Indices 1 2 3 4 5 6 
#
# 1 0.026978 0.000206 0.007117 0.000141 0.001378 0.000046
# 2 0.000206 0.027238 -0.002499 -0.000017 -0.001109 -0.000005
# 3 0.007117 -0.002499 0.014045 0.000196 -0.000370 0.000097
# 4 0.000141 -0.000017 0.000196 -0.519905 -0.000023 -0.232563
# 5 0.001378 -0.001109 -0.000370 -0.000023 0.038880 -0.000036
# 6 0.000046 -0.000005 0.000097 -0.232563 -0.000036 -0.309718
#
#
# Mechanical properties :
#
#
# Convention : Reuss Voigt Hill
#
# Bulk Modulus (GPa) = 12.83567 14.54787 13.69177
# Shear Modulus (GPa) = -7.08054 15.70518 4.31232
#
# Velocity S-wave (km/s) = -1.90770 2.84118 1.48879
# Velocity P-wave (km/s) = 1.32098 4.27090 3.16114
#
# Compressibility (1/GPa) = 0.07790787
#
# Stress axis : x y z
#
# Youngs Moduli (GPa) = 37.06773 36.71300 71.20067
#
# Poissons Ratio (x) = -0.00755 -0.50673
# Poissons Ratio (y) = -0.00762 0.17793
# Poissons Ratio (z) = -0.26381 0.09175
#
# Static dielectric constant tensor:
#      x y z
#    x 1.705400 0.000000 0.000050 
#    y 0.000000 1.665620 -0.000010 
#    z 0.000050 -0.000010 1.745040 
# 
# From -- ./inp_files/377108.got.cif
#   From: 2010.05.17/outbox.cif.g08.bks.cpg/sg12_189_cif.got.tgz:377108.got - 2010.06.03 13:09:07.
