data_PCOD9187786
_publ_section_title
;
Structure prediction by ZEFSAII (Michael W. Deem and Ramdas Pophale) SiO2 
 PCOD9187786
Probable space group: C 2/M
;
_chemical_formula_sum "Si O2"
_cell_formula_units_Z 40
_cell_length_a 13.016408
_cell_length_b 15.255473
_cell_length_c 18.137423
_cell_angle_alpha 90.000000
_cell_angle_beta 149.727290
_cell_angle_gamma 90.000000
_cell_volume 1815.612563
_symmetry_space_group_name_H-M "C 2/M"
_symmetry_group_IT_number 12
_symmetry_cell_setting 'monoclinic'
loop_
_space_group_symop_operation_xyz
x,y,z
-x,y,-z
-x,-y,-z
x,-y,z
1/2+x,1/2+y,z
1/2-x,1/2+y,-z
1/2-x,1/2-y,-z
1/2+x,1/2-y,z
loop_
_atom_site_type_symbol
_atom_site_label
_atom_site_fract_x
_atom_site_fract_y
_atom_site_fract_z
Si Si1 0.256617 0.097049 0.343252
Si Si2 0.067699 0.398349 0.269014
Si Si3 0.330364 0.892833 0.832352
Si Si4 0.874958 0.839939 0.578781
Si Si5 0.270441 0.603293 0.831574
O O1 0.500000 0.091990 0.500000
O O2 0.169783 0.128103 0.366314
O O3 0.228297 0.145946 0.248412
O O4 0.165273 0.000000 0.276988
O O5 0.014837 0.500000 0.224194
O O6 0.101421 0.363830 0.207623
O O7 0.265724 0.392615 0.444264
O O8 0.884251 0.358412 0.204134
O O9 0.115304 0.846882 0.715768
O O10 0.299123 0.000000 0.812901
O O11 0.500000 0.874020 0.000000
O O12 0.750000 0.750000 0.500000
O O13 0.203964 0.500000 0.781235
O O14 0.500000 0.603806 0.000000
#
# Coordination Sequence:
#
# PCOD9187786 Si02
#       5
#     8   8   8   8   8
#     4  10  19  35  61  89 119 155 208 264 312 373
#     4  10  20  40  65  91 123 163 216 268 319 380
#     4  10  23  43  70  98 125 163 218 277 323 373
#     4  12  25  40  61  90 129 172 211 257 317 393
#     4   9  18  32  58  95 125 152 194 259 327 376
#
# _framework density 22.031133000000001
#
# number of rings (size 3 to 8) (size 9 to 14) (size 15 to 20)
#    0.000    1.800    2.000    2.400    2.800    3.200 
#    0.000    2.000    0.000    0.000    0.000    0.000 
#    0.000    0.000    0.000    0.000    0.000    0.000 
#
# Total GULP energy -111579.472321 kJ/mol
# GULP energy per Si atom -5578.973616 kJ/mol
# Density = 2.198099 g / cm^3
# Si number density = 22.031133 Si / 1000 Ang^3
#
#
#
# Elastic Constant Matrix: (Units=GPa)
#
#
# Indices 1 2 3 4 5 6 
#
# 1 278.0727 38.6363 103.8972 -0.0008 -21.1554 -0.0001
# 2 38.6363 42.2445 8.1385 0.0024 3.5558 0.0002
# 3 103.8972 8.1385 121.6691 0.0003 0.6966 0.0018
# 4 -0.0008 0.0024 0.0003 6.9142 0.0013 13.2976
# 5 -21.1554 3.5558 0.6966 0.0013 32.1144 -0.0001
# 6 -0.0001 0.0002 0.0018 13.2976 -0.0001 5.6260
#
#
#
# Elastic Compliance Matrix: (Units=1/GPa)
#
#
# Indices 1 2 3 4 5 6 
#
# 1 0.006824 -0.005626 -0.005481 0.000001 0.005237 0.000001
# 2 -0.005626 0.028842 0.002915 0.000001 -0.006963 -0.000006
# 3 -0.005481 0.002915 0.012729 -0.000002 -0.004210 0.000000
# 4 0.000001 0.000001 -0.000002 -0.040790 0.000002 0.096411
# 5 0.005237 -0.006963 -0.004210 0.000002 0.035451 -0.000003
# 6 0.000001 -0.000006 0.000000 0.096411 -0.000003 -0.050130
#
#
# Mechanical properties :
#
#
# Convention : Reuss Voigt Hill
#
# Bulk Modulus (GPa) = 31.23999 82.59225 56.91612
# Shear Modulus (GPa) = 250.23155 28.35187 139.29171
#
# Velocity S-wave (km/s) = 10.66899 3.59123 7.96004
# Velocity P-wave (km/s) = 12.88335 7.40042 10.50588
#
# Compressibility (1/GPa) = 0.03201026
#
# Stress axis : x y z
#
# Youngs Moduli (GPa) = 146.53489 34.67168 78.56294
#
# Poissons Ratio (x) = 0.19507 0.43061
# Poissons Ratio (y) = 0.82445 -0.22902
# Poissons Ratio (z) = 0.80318 -0.10107
#
# Static dielectric constant tensor:
#      x y z
#    x 1.904280 0.000000 -0.057560 
#    y 0.000000 1.877470 0.000000 
#    z -0.057560 0.000000 1.750130 
# 
# From -- ./inp_files/46968.got.cif
#   From: 2010.05.17/outbox.cif.g08.bks.cpg/sg12_24_cif.got.tgz:46968.got - 2010.06.03 13:09:07.
