data_PCOD9187796
_publ_section_title
;
Structure prediction by ZEFSAII (Michael W. Deem and Ramdas Pophale) SiO2 
 PCOD9187796
Probable space group: C 2/M
;
_chemical_formula_sum "Si O2"
_cell_formula_units_Z 64
_cell_length_a 14.312606
_cell_length_b 12.952747
_cell_length_c 17.143570
_cell_angle_alpha 90.000000
_cell_angle_beta 95.487121
_cell_angle_gamma 90.000000
_cell_volume 3163.641256
_symmetry_space_group_name_H-M "C 2/M"
_symmetry_group_IT_number 12
_symmetry_cell_setting 'monoclinic'
loop_
_space_group_symop_operation_xyz
x,y,z
-x,y,-z
-x,-y,-z
x,-y,z
1/2+x,1/2+y,z
1/2-x,1/2+y,-z
1/2-x,1/2-y,-z
1/2+x,1/2-y,z
loop_
_atom_site_type_symbol
_atom_site_label
_atom_site_fract_x
_atom_site_fract_y
_atom_site_fract_z
Si Si1 0.843067 0.228699 0.815509
Si Si2 0.335846 0.384792 0.474283
Si Si3 0.783813 0.883169 0.287598
Si Si4 0.129889 0.340126 0.499647
Si Si5 0.043427 0.223273 0.772317
Si Si6 0.169890 0.619473 0.876189
Si Si7 0.493000 0.110660 0.362184
Si Si8 0.894096 0.619658 0.960433
O O1 0.791858 0.298171 0.745212
O O2 0.766878 0.147373 0.840827
O O3 0.866249 0.305669 0.888661
O O4 0.942553 0.185108 0.794042
O O5 0.373942 0.500000 0.491517
O O6 0.311818 0.374477 0.380572
O O7 0.238198 0.369245 0.512198
O O8 0.390906 0.282380 0.502265
O O9 0.878407 0.859837 0.245641
O O10 0.750440 0.000000 0.270656
O O11 0.078897 0.383735 0.571290
O O12 0.091125 0.382994 0.415381
O O13 0.092666 0.300924 0.837516
O O14 0.023882 0.295197 0.695909
O O15 0.143953 0.500000 0.860025
O O16 0.172924 0.632828 0.969761
O O17 0.484299 0.000000 0.320852
O O18 0.889943 0.500000 0.934648
O O19 0.000000 0.638308 0.000000
#
# Coordination Sequence:
#
# PCOD9187796 Si02
#       8
#     8   8   8   8   8   8   8   8
#     4  11  22  36  62  87 117 152 196 232 283 339
#     4  10  19  36  57  77 110 148 183 234 289 342
#     4  10  22  39  58  84 116 151 193 238 288 340
#     4  10  20  34  55  81 107 137 188 235 286 341
#     4  11  22  38  58  86 115 154 192 239 284 345
#     4  10  22  39  59  86 120 153 189 236 286 338
#     4  11  21  35  55  81 110 142 185 239 290 335
#     4  10  19  35  61  90 117 149 190 236 283 331
#
# _framework density 20.229852999999999
#
# number of rings (size 3 to 8) (size 9 to 14) (size 15 to 20)
#    0.000    1.625    2.500    3.375    0.000    3.000 
#    0.000    1.875    0.000    0.375    0.000    0.000 
#    0.000    0.000    0.000    0.000    0.000    0.000 
#
# Total GULP energy -178702.688336 kJ/mol
# GULP energy per Si atom -5584.459011 kJ/mol
# Density = 2.018381 g / cm^3
# Si number density = 20.229853 Si / 1000 Ang^3
#
#
#
# Elastic Constant Matrix: (Units=GPa)
#
#
# Indices 1 2 3 4 5 6 
#
# 1 81.1859 -9.8470 -12.6934 0.0000 -17.9189 0.0000
# 2 -9.8470 74.7581 -1.4762 0.0000 -0.8589 0.0000
# 3 -12.6934 -1.4762 42.4722 0.0000 -2.4666 0.0000
# 4 0.0000 0.0000 0.0000 8.6952 0.0000 17.7010
# 5 -17.9189 -0.8589 -2.4666 0.0000 23.6461 0.0000
# 6 0.0000 0.0000 0.0000 17.7010 0.0000 -26.6457
#
#
#
# Elastic Compliance Matrix: (Units=1/GPa)
#
#
# Indices 1 2 3 4 5 6 
#
# 1 0.016406 0.002425 0.005750 0.000000 0.013121 0.000000
# 2 0.002425 0.013751 0.001347 0.000000 0.002478 0.000000
# 3 0.005750 0.001347 0.025722 0.000000 0.007089 0.000000
# 4 0.000000 0.000000 0.000000 0.048890 0.000000 0.032478
# 5 0.013121 0.002478 0.007089 0.000000 0.053062 0.000000
# 6 0.000000 0.000000 0.000000 0.032478 0.000000 -0.015954
#
#
# Mechanical properties :
#
#
# Convention : Reuss Voigt Hill
#
# Bulk Modulus (GPa) = 13.34719 16.70922 15.02821
# Shear Modulus (GPa) = 33.82757 15.96796 24.89777
#
# Velocity S-wave (km/s) = 4.09364 2.81254 3.51200
# Velocity P-wave (km/s) = 5.38108 4.33876 4.88778
#
# Compressibility (1/GPa) = 0.07492214
#
# Stress axis : x y z
#
# Youngs Moduli (GPa) = 60.95178 72.72205 38.87771
#
# Poissons Ratio (x) = -0.17637 -0.22353
# Poissons Ratio (y) = -0.14783 -0.05236
# Poissons Ratio (z) = -0.35045 -0.09793
#
# Static dielectric constant tensor:
#      x y z
#    x 1.746020 0.000000 -0.014210 
#    y 0.000000 1.712390 0.000000 
#    z -0.014210 0.000000 1.697590 
# 
# From -- ./inp_files/269319.got.cif
#   From: 2010.05.17/outbox.cif.g08.bks.cpg/sg12_135_cif.got.tgz:269319.got - 2010.06.03 13:09:07.
