data_PCOD9187607
_publ_section_title
;
Structure prediction by ZEFSAII (Michael W. Deem and Ramdas Pophale) SiO2 
 PCOD9187607
Probable space group: C 2/M
;
_chemical_formula_sum "Si O2"
_cell_formula_units_Z 64
_cell_length_a 8.729751
_cell_length_b 19.287757
_cell_length_c 19.928837
_cell_angle_alpha 90.000000
_cell_angle_beta 114.261765
_cell_angle_gamma 90.000000
_cell_volume 3059.192907
_symmetry_space_group_name_H-M "C 2/M"
_symmetry_group_IT_number 12
_symmetry_cell_setting 'monoclinic'
loop_
_space_group_symop_operation_xyz
x,y,z
-x,y,-z
-x,-y,-z
x,-y,z
1/2+x,1/2+y,z
1/2-x,1/2+y,-z
1/2-x,1/2-y,-z
1/2+x,1/2-y,z
loop_
_atom_site_type_symbol
_atom_site_label
_atom_site_fract_x
_atom_site_fract_y
_atom_site_fract_z
Si Si1 0.137694 0.278918 0.920169
Si Si2 0.207151 0.198372 0.298779
Si Si3 0.772900 0.700579 0.824360
Si Si4 0.053923 0.270559 0.397435
Si Si5 0.135672 0.143055 0.568668
Si Si6 0.322549 0.422971 0.931403
Si Si7 0.345485 0.916980 0.732446
Si Si8 0.736648 0.076659 0.766520
O O1 0.140676 0.227746 0.855476
O O2 0.207922 0.356280 0.921703
O O3 0.941785 0.287918 0.897739
O O4 0.250000 0.250000 0.000000
O O5 0.233909 0.245931 0.238792
O O6 0.099655 0.239337 0.332895
O O7 0.388014 0.183503 0.364426
O O8 0.155708 0.124227 0.263315
O O9 0.787395 0.627361 0.787420
O O10 0.213135 0.317784 0.444307
O O11 0.984545 0.204395 0.424810
O O12 0.229499 0.105757 0.647898
O O13 0.000000 0.100774 0.500000
O O14 0.255147 0.500000 0.939008
O O15 0.337425 0.425047 0.854026
O O16 0.500000 0.413582 0.000000
O O17 0.543399 0.900134 0.750528
O O18 0.336702 0.000000 0.741338
O O19 0.717648 0.000000 0.735170
#
# Coordination Sequence:
#
# PCOD9187607 Si02
#       8
#     8   8   8   8   8   8   8   8
#     4  12  25  38  58  91 119 157 198 246 308 366
#     4  11  18  35  59  88 113 149 195 245 299 337
#     4  12  21  38  63  82 118 154 198 255 292 348
#     4  10  20  34  59  87 120 148 195 245 290 358
#     4  11  22  38  59  91 125 159 194 249 309 364
#     4  10  20  36  55  80 112 150 193 240 292 353
#     4  11  22  38  62  89 115 159 211 246 299 373
#     4  10  19  35  60  85 111 151 199 244 292 359
#
# _framework density 20.920549999999999
#
# number of rings (size 3 to 8) (size 9 to 14) (size 15 to 20)
#    0.000    1.125    6.250    2.250    0.000    0.250 
#    0.000    1.250    0.000    2.250    0.000    1.750 
#    0.000    0.000    0.000    0.000    0.000    0.000 
#
# Total GULP energy -178311.532418 kJ/mol
# GULP energy per Si atom -5572.235388 kJ/mol
# Density = 2.087293 g / cm^3
# Si number density = 20.920550 Si / 1000 Ang^3
#
#
#
# Elastic Constant Matrix: (Units=GPa)
#
#
# Indices 1 2 3 4 5 6 
#
# 1 43.3200 4.2395 12.1339 0.0000 15.6424 0.0000
# 2 4.2395 82.2434 -3.6203 0.0000 1.8376 0.0000
# 3 12.1339 -3.6203 90.5416 0.0000 28.7740 0.0000
# 4 0.0000 0.0000 0.0000 17.2474 0.0000 -2.8047
# 5 15.6424 1.8376 28.7740 0.0000 34.2300 0.0000
# 6 0.0000 0.0000 0.0000 -2.8047 0.0000 18.5868
#
#
#
# Elastic Compliance Matrix: (Units=1/GPa)
#
#
# Indices 1 2 3 4 5 6 
#
# 1 0.027761 -0.001128 0.000337 0.000000 -0.012909 0.000000
# 2 -0.001128 0.012279 0.000939 0.000000 -0.000933 0.000000
# 3 0.000337 0.000939 0.015149 0.000000 -0.012939 0.000000
# 4 0.000000 0.000000 0.000000 0.059438 0.000000 0.008969
# 5 -0.012909 -0.000933 -0.012939 0.000000 0.046040 0.000000
# 6 0.000000 0.000000 0.000000 0.008969 0.000000 0.055155
#
#
# Mechanical properties :
#
#
# Convention : Reuss Voigt Hill
#
# Bulk Modulus (GPa) = 18.02285 26.84569 22.43427
# Shear Modulus (GPa) = 21.36551 27.56964 24.46758
#
# Velocity S-wave (km/s) = 3.19920 3.63413 3.42357
# Velocity P-wave (km/s) = 4.72018 5.51989 5.13563
#
# Compressibility (1/GPa) = 0.05548513
#
# Stress axis : x y z
#
# Youngs Moduli (GPa) = 36.02127 81.43773 66.01136
#
# Poissons Ratio (x) = 0.09184 -0.02224
# Poissons Ratio (y) = 0.04062 -0.06196
# Poissons Ratio (z) = -0.01214 -0.07644
#
# Static dielectric constant tensor:
#      x y z
#    x 1.814720 0.000000 0.036250 
#    y 0.000000 1.795570 0.000000 
#    z 0.036250 0.000000 1.831810 
# 
# From -- ./inp_files/301739.got.cif
#   From: 2010.05.17/outbox.cif.g08.bks.cpg/sg12_151_cif.got.tgz:301739.got - 2010.06.03 13:09:07.
