data_PCOD9187621
_publ_section_title
;
Structure prediction by ZEFSAII (Michael W. Deem and Ramdas Pophale) SiO2 
 PCOD9187621
Probable space group: C 2/M
;
_chemical_formula_sum "Si O2"
_cell_formula_units_Z 48
_cell_length_a 21.099450
_cell_length_b 8.390261
_cell_length_c 21.810023
_cell_angle_alpha 90.000000
_cell_angle_beta 41.532802
_cell_angle_gamma 90.000000
_cell_volume 2560.048360
_symmetry_space_group_name_H-M "C 2/M"
_symmetry_group_IT_number 12
_symmetry_cell_setting 'monoclinic'
loop_
_space_group_symop_operation_xyz
x,y,z
-x,y,-z
-x,-y,-z
x,-y,z
1/2+x,1/2+y,z
1/2-x,1/2+y,-z
1/2-x,1/2-y,-z
1/2+x,1/2-y,z
loop_
_atom_site_type_symbol
_atom_site_label
_atom_site_fract_x
_atom_site_fract_y
_atom_site_fract_z
Si Si1 0.514069 0.194431 0.817129
Si Si2 0.416673 0.807226 0.012488
Si Si3 0.829046 0.690727 0.490994
Si Si4 0.723568 0.190682 0.213621
Si Si5 0.732717 0.809284 0.682379
Si Si6 0.529616 0.805199 0.288726
O O1 0.623551 0.245867 0.748991
O O2 0.478236 0.246212 0.776415
O O3 0.514706 0.000000 0.816916
O O4 0.448841 0.244982 0.921439
O O5 0.315977 0.741586 0.107874
O O6 0.411761 0.000000 0.016922
O O7 0.500000 0.760636 0.000000
O O8 0.828978 0.500000 0.489527
O O9 0.750000 0.750000 0.500000
O O10 0.799594 0.747063 0.579671
O O11 0.933755 0.745988 0.393539
O O12 0.734891 0.255454 0.274105
O O13 0.626192 0.248115 0.251902
O O14 0.720288 0.000000 0.219015
O O15 0.731789 0.000000 0.680874
O O16 0.530015 0.000000 0.288263
#
# Coordination Sequence:
#
# PCOD9187621 Si02
#       6
#     8   8   8   8   8   8
#     4   9  17  34  60  83 108 151 197 228 277 354
#     4  10  19  35  60  86 112 151 196 237 289 350
#     4  11  21  37  62  90 117 152 198 241 287 344
#     4  11  23  38  57  85 120 153 192 242 291 343
#     4  11  21  38  62  86 115 153 196 241 290 346
#     4   9  20  38  58  82 118 159 190 229 293 356
#
# _framework density 18.749645000000001
#
# number of rings (size 3 to 8) (size 9 to 14) (size 15 to 20)
#    0.000    1.833    3.333    1.500    0.000    1.667 
#    0.000    6.667    0.000    0.000    0.000    0.000 
#    0.000    0.000    0.000    0.000    0.000    0.000 
#
# Total GULP energy -134048.788216 kJ/mol
# GULP energy per Si atom -5585.366176 kJ/mol
# Density = 1.870697 g / cm^3
# Si number density = 18.749645 Si / 1000 Ang^3
#
#
#
# Elastic Constant Matrix: (Units=GPa)
#
#
# Indices 1 2 3 4 5 6 
#
# 1 176.2795 22.5353 107.8722 0.0002 -0.4392 -0.0001
# 2 22.5353 25.5297 26.9176 0.0003 -0.8050 -0.0004
# 3 107.8722 26.9176 195.6538 0.0001 10.5759 -0.0001
# 4 0.0002 0.0003 0.0001 32.0699 -0.0001 0.9166
# 5 -0.4392 -0.8050 10.5759 -0.0001 38.9265 0.0001
# 6 -0.0001 -0.0004 -0.0001 0.9166 0.0001 23.5148
#
#
#
# Elastic Compliance Matrix: (Units=1/GPa)
#
#
# Indices 1 2 3 4 5 6 
#
# 1 0.008826 -0.002980 -0.004524 0.000000 0.001267 0.000000
# 2 -0.002980 0.047104 -0.004961 0.000000 0.002288 0.000001
# 3 -0.004524 -0.004961 0.008420 0.000000 -0.002441 0.000000
# 4 0.000000 0.000000 0.000000 0.031217 0.000000 -0.001217
# 5 0.001267 0.002288 -0.002441 0.000000 0.026414 0.000000
# 6 0.000000 0.000001 0.000000 -0.001217 0.000000 0.042574
#
#
# Mechanical properties :
#
#
# Convention : Reuss Voigt Hill
#
# Bulk Modulus (GPa) = 25.36903 79.12368 52.24636
# Shear Modulus (GPa) = 24.67617 34.91144 29.79380
#
# Velocity S-wave (km/s) = 3.63173 4.31975 3.99059
# Velocity P-wave (km/s) = 5.58083 8.19585 7.01134
#
# Compressibility (1/GPa) = 0.03941814
#
# Stress axis : x y z
#
# Youngs Moduli (GPa) = 113.30667 21.22979 118.76386
#
# Poissons Ratio (x) = 0.06327 0.53734
# Poissons Ratio (y) = 0.33766 0.58919
# Poissons Ratio (z) = 0.51265 0.10532
#
# Static dielectric constant tensor:
#      x y z
#    x 1.624230 0.000000 -0.002240 
#    y 0.000000 1.657460 0.000000 
#    z -0.002240 0.000000 1.625750 
# 
# From -- ./inp_files/229952.got.cif
#   From: 2010.05.17/outbox.cif.g08.bks.cpg/sg12_115_cif.got.tgz:229952.got - 2010.06.03 13:09:07.
