data_PCOD9187263
_publ_section_title
;
Structure prediction by ZEFSAII (Michael W. Deem and Ramdas Pophale) SiO2 
 PCOD9187263
Probable space group: C 2/M
;
_chemical_formula_sum "Si O2"
_cell_formula_units_Z 64
_cell_length_a 19.886217
_cell_length_b 7.505936
_cell_length_c 21.088636
_cell_angle_alpha 90.000000
_cell_angle_beta 124.017816
_cell_angle_gamma 90.000000
_cell_volume 2609.087339
_symmetry_space_group_name_H-M "C 2/M"
_symmetry_group_IT_number 12
_symmetry_cell_setting 'monoclinic'
loop_
_space_group_symop_operation_xyz
x,y,z
-x,y,-z
-x,-y,-z
x,-y,z
1/2+x,1/2+y,z
1/2-x,1/2+y,-z
1/2-x,1/2-y,-z
1/2+x,1/2-y,z
loop_
_atom_site_type_symbol
_atom_site_label
_atom_site_fract_x
_atom_site_fract_y
_atom_site_fract_z
Si Si1 0.159111 0.206454 0.120201
Si Si2 0.660155 0.286083 0.979268
Si Si3 0.842650 0.782514 0.252749
Si Si4 0.123523 0.784840 0.236346
Si Si5 0.384982 0.795417 0.561722
Si Si6 0.542839 0.297613 0.583106
Si Si7 0.545837 0.717291 0.805337
Si Si8 0.243569 0.290975 0.403147
O O1 0.148824 0.284981 0.044674
O O2 0.254304 0.215026 0.187914
O O3 0.116996 0.282581 0.160814
O O4 0.133371 0.000000 0.102549
O O5 0.652758 0.500000 0.978819
O O6 0.750000 0.250000 0.000000
O O7 0.595006 0.223866 0.893615
O O8 0.904520 0.726764 0.229975
O O9 0.880884 0.720764 0.339463
O O10 0.839611 0.000000 0.252581
O O11 0.206866 0.732566 0.314430
O O12 0.046831 0.723592 0.237082
O O13 0.122471 0.000000 0.233703
O O14 0.468758 0.696585 0.594319
O O15 0.328896 0.789769 0.468897
O O16 0.325954 0.720804 0.585181
O O17 0.404126 0.000000 0.586565
O O18 0.500000 0.209510 0.500000
O O19 0.565646 0.500000 0.576030
O O20 0.545688 0.500000 0.804596
O O21 0.252154 0.500000 0.420211
#
# Coordination Sequence:
#
# PCOD9187263 Si02
#       8
#     8   8   8   8   8   8   8   8
#     4  10  22  36  55  86 118 148 184 236 291 337
#     4  10  19  35  58  85 115 149 189 231 281 338
#     4  10  20  36  58  81 110 153 196 232 279 341
#     4  10  21  37  56  83 116 148 187 235 287 340
#     4  10  21  37  57  82 109 145 189 237 289 338
#     4  10  22  37  54  81 115 151 192 236 284 337
#     4   9  18  34  59  84 109 148 193 232 276 336
#     4  10  21  37  58  81 110 147 189 233 284 343
#
# _framework density 24.529648999999999
#
# number of rings (size 3 to 8) (size 9 to 14) (size 15 to 20)
#    0.000    2.125    1.250    1.500    1.750    4.250 
#    0.000    3.750    0.000    0.000    0.000    2.625 
#    0.000    0.000    0.000    0.000    0.000    0.000 
#
# Total GULP energy -178959.034959 kJ/mol
# GULP energy per Si atom -5592.469842 kJ/mol
# Density = 2.447382 g / cm^3
# Si number density = 24.529649 Si / 1000 Ang^3
#
#
#
# Elastic Constant Matrix: (Units=GPa)
#
#
# Indices 1 2 3 4 5 6 
#
# 1 64.9438 -7.9411 -19.1749 0.0000 4.2883 0.0000
# 2 -7.9411 77.1107 -4.2582 0.0000 -5.6193 0.0000
# 3 -19.1749 -4.2582 116.7396 0.0000 -0.1858 0.0000
# 4 0.0000 0.0000 0.0000 11.1949 0.0000 3.4061
# 5 4.2883 -5.6193 -0.1858 0.0000 37.8943 0.0000
# 6 0.0000 0.0000 0.0000 3.4061 0.0000 10.0883
#
#
#
# Elastic Compliance Matrix: (Units=1/GPa)
#
#
# Indices 1 2 3 4 5 6 
#
# 1 0.016536 0.001740 0.002777 0.000000 -0.001600 0.000000
# 2 0.001740 0.013320 0.000774 0.000000 0.001782 0.000000
# 3 0.002777 0.000774 0.009050 0.000000 -0.000155 0.000000
# 4 0.000000 0.000000 0.000000 0.099553 0.000000 -0.033612
# 5 -0.001600 0.001782 -0.000155 0.000000 0.026834 0.000000
# 6 0.000000 0.000000 0.000000 -0.033612 0.000000 0.110472
#
#
# Mechanical properties :
#
#
# Convention : Reuss Voigt Hill
#
# Bulk Modulus (GPa) = 20.20649 21.78287 20.99468
# Shear Modulus (GPa) = 17.75065 31.18006 24.46535
#
# Velocity S-wave (km/s) = 2.69297 3.56914 3.16156
# Velocity P-wave (km/s) = 4.23379 5.08768 4.68025
#
# Compressibility (1/GPa) = 0.04948905
#
# Stress axis : x y z
#
# Youngs Moduli (GPa) = 60.47334 75.07414 110.49462
#
# Poissons Ratio (x) = -0.13061 -0.30685
# Poissons Ratio (y) = -0.10521 -0.08557
# Poissons Ratio (z) = -0.16794 -0.05814
#
# Static dielectric constant tensor:
#      x y z
#    x 1.945610 0.000000 -0.048960 
#    y 0.000000 1.934080 0.000000 
#    z -0.048960 0.000000 1.944090 
# 
# From -- ./inp_files/320152.got.cif
#   From: 2010.05.17/outbox.cif.g08.bks.cpg/sg12_161_cif.got.tgz:320152.got - 2010.06.03 13:09:07.
