data_PCOD9187519
_publ_section_title
;
Structure prediction by ZEFSAII (Michael W. Deem and Ramdas Pophale) SiO2 
 PCOD9187519
Probable space group: C 2/M
;
_chemical_formula_sum "Si O2"
_cell_formula_units_Z 40
_cell_length_a 9.404713
_cell_length_b 14.484826
_cell_length_c 17.439157
_cell_angle_alpha 90.000000
_cell_angle_beta 43.994551
_cell_angle_gamma 90.000000
_cell_volume 1650.109695
_symmetry_space_group_name_H-M "C 2/M"
_symmetry_group_IT_number 12
_symmetry_cell_setting 'monoclinic'
loop_
_space_group_symop_operation_xyz
x,y,z
-x,y,-z
-x,-y,-z
x,-y,z
1/2+x,1/2+y,z
1/2-x,1/2+y,-z
1/2-x,1/2-y,-z
1/2+x,1/2-y,z
loop_
_atom_site_type_symbol
_atom_site_label
_atom_site_fract_x
_atom_site_fract_y
_atom_site_fract_z
Si Si1 0.781286 0.708190 0.572983
Si Si2 0.682961 0.641088 0.035390
Si Si3 0.714936 0.901398 0.672778
Si Si4 0.338881 0.645422 0.789006
Si Si5 0.226726 0.363996 0.169793
O O1 0.750000 0.750000 0.500000
O O2 0.799721 0.801378 0.617113
O O3 0.583881 0.647688 0.675048
O O4 0.000000 0.659298 0.500000
O O5 0.737494 0.608692 0.099261
O O6 0.439823 0.619480 0.128216
O O7 0.750000 0.750000 0.000000
O O8 0.755654 0.604607 0.925429
O O9 0.720129 0.895539 0.763144
O O10 0.491222 0.901215 0.720706
O O11 0.811875 0.000000 0.615270
O O12 0.292671 0.753939 0.815019
#
# Coordination Sequence:
#
# PCOD9187519 Si02
#       5
#     8   8   8   8   8
#     4  11  22  40  65  91 113 155 204 255 305 363
#     4   9  17  31  58  89 120 154 207 256 286 337
#     4  11  24  40  59  90 126 159 195 249 313 368
#     4  10  19  35  59  87 119 156 203 250 296 357
#     4   9  18  34  58  87 118 162 206 243 291 354
#
# _framework density 24.240812999999999
#
# number of rings (size 3 to 8) (size 9 to 14) (size 15 to 20)
#    0.000    2.000    2.000    3.600    2.800    2.800 
#    0.000    5.000    0.000    1.200    0.000    0.000 
#    0.000    0.000    0.000    0.000    0.000    0.000 
#
# Total GULP energy -111436.309726 kJ/mol
# GULP energy per Si atom -5571.815486 kJ/mol
# Density = 2.418564 g / cm^3
# Si number density = 24.240813 Si / 1000 Ang^3
#
#
#
# Elastic Constant Matrix: (Units=GPa)
#
#
# Indices 1 2 3 4 5 6 
#
# 1 115.7942 5.4764 42.9053 -0.0004 -5.6500 0.0003
# 2 5.4764 90.3757 -12.0908 -0.0009 2.3474 0.0008
# 3 42.9053 -12.0908 60.8741 -0.0015 -0.0892 0.0013
# 4 -0.0004 -0.0009 -0.0015 -45.0322 0.0007 -12.9208
# 5 -5.6500 2.3474 -0.0892 0.0007 55.7238 -0.0005
# 6 0.0003 0.0008 0.0013 -12.9208 -0.0005 -19.3410
#
#
#
# Elastic Compliance Matrix: (Units=1/GPa)
#
#
# Indices 1 2 3 4 5 6 
#
# 1 0.012094 -0.001959 -0.008911 0.000000 0.001294 -0.000001
# 2 -0.001959 0.011697 0.003703 -0.000001 -0.000685 0.000001
# 3 -0.008911 0.003703 0.023442 -0.000002 -0.001022 0.000003
# 4 0.000000 -0.000001 -0.000002 -0.027472 0.000001 0.018353
# 5 0.001294 -0.000685 -0.001022 0.000001 0.018104 -0.000001
# 6 -0.000001 0.000001 0.000003 0.018353 -0.000001 -0.063965
#
#
# Mechanical properties :
#
#
# Convention : Reuss Voigt Hill
#
# Bulk Modulus (GPa) = 30.39651 37.73621 34.06636
# Shear Modulus (GPa) = -6245.17798 13.65367 -3115.76216
#
# Velocity S-wave (km/s) = -50.81240 2.37587 -35.89050
# Velocity P-wave (km/s) = 58.56592 4.80909 41.27251
#
# Compressibility (1/GPa) = 0.03289852
#
# Stress axis : x y z
#
# Youngs Moduli (GPa) = 82.68865 85.49371 42.65876
#
# Poissons Ratio (x) = 0.16745 0.38013
# Poissons Ratio (y) = 0.16195 -0.15795
# Poissons Ratio (z) = 0.73683 -0.31655
#
# Static dielectric constant tensor:
#      x y z
#    x 1.935870 0.000000 -0.027730 
#    y 0.000000 2.067830 0.000000 
#    z -0.027730 0.000000 2.002460 
# 
# From -- ./inp_files/256375.got.cif
#   From: 2010.05.17/outbox.cif.g08.bks.cpg/sg12_129_cif.got.tgz:256375.got - 2010.06.03 13:09:07.
