data_PCOD9187639
_publ_section_title
;
Structure prediction by ZEFSAII (Michael W. Deem and Ramdas Pophale) SiO2 
 PCOD9187639
Probable space group: C 2/M
;
_chemical_formula_sum "Si O2"
_cell_formula_units_Z 56
_cell_length_a 11.896339
_cell_length_b 28.797526
_cell_length_c 7.667884
_cell_angle_alpha 90.000000
_cell_angle_beta 65.118745
_cell_angle_gamma 90.000000
_cell_volume 2383.078408
_symmetry_space_group_name_H-M "C 2/M"
_symmetry_group_IT_number 12
_symmetry_cell_setting 'monoclinic'
loop_
_space_group_symop_operation_xyz
x,y,z
-x,y,-z
-x,-y,-z
x,-y,z
1/2+x,1/2+y,z
1/2-x,1/2+y,-z
1/2-x,1/2-y,-z
1/2+x,1/2-y,z
loop_
_atom_site_type_symbol
_atom_site_label
_atom_site_fract_x
_atom_site_fract_y
_atom_site_fract_z
Si Si1 0.399713 0.206705 0.722999
Si Si2 0.958435 0.390988 0.828004
Si Si3 0.196408 0.902310 0.083681
Si Si4 0.788830 0.197625 0.432235
Si Si5 0.559305 0.694657 0.153045
Si Si6 0.781347 0.398052 0.414033
Si Si7 0.453621 0.446268 0.328118
O O1 0.500000 0.211227 0.500000
O O2 0.444841 0.164381 0.810830
O O3 0.270357 0.191828 0.720164
O O4 0.386992 0.255572 0.827602
O O5 0.075474 0.408853 0.639654
O O6 0.819447 0.409520 0.888403
O O7 0.000000 0.399397 0.000000
O O8 0.149402 0.848878 0.117364
O O9 0.244703 0.915235 0.245926
O O10 0.070437 0.930572 0.136018
O O11 0.750000 0.250000 0.500000
O O12 0.726259 0.157845 0.586550
O O13 0.934489 0.189526 0.350220
O O14 0.500000 0.696449 0.000000
O O15 0.671288 0.416164 0.609232
O O16 0.500000 0.440164 0.500000
O O17 0.425009 0.500000 0.320666
#
# Coordination Sequence:
#
# PCOD9187639 Si02
#       7
#     8   8   8   8   8   8   8
#     4  12  23  36  55  81 116 161 202 249 288 344
#     4  10  21  38  56  84 117 156 194 242 296 347
#     4  10  21  36  60  84 118 155 193 246 300 346
#     4  12  22  35  55  83 113 155 205 243 286 346
#     4  12  25  38  55  82 117 158 203 247 297 349
#     4  10  19  35  60  86 118 154 198 240 294 355
#     4   9  18  35  62  94 120 148 193 247 299 353
#
# _framework density 23.499016999999998
#
# number of rings (size 3 to 8) (size 9 to 14) (size 15 to 20)
#    0.000    1.286    4.286    2.143    0.000    4.571 
#    0.000    0.714    0.000    4.714    0.000    2.000 
#    0.000    0.000    0.000    0.000    0.000    0.143 
#
# Total GULP energy -156448.421976 kJ/mol
# GULP energy per Si atom -5587.443642 kJ/mol
# Density = 2.344553 g / cm^3
# Si number density = 23.499017 Si / 1000 Ang^3
#
#
#
# Elastic Constant Matrix: (Units=GPa)
#
#
# Indices 1 2 3 4 5 6 
#
# 1 141.5886 24.1737 53.0979 0.0000 -40.6427 0.0000
# 2 24.1737 52.8551 13.0517 0.0000 -24.6973 0.0000
# 3 53.0979 13.0517 58.4910 0.0000 -44.7317 0.0000
# 4 0.0000 0.0000 0.0000 11.0690 0.0000 -0.3484
# 5 -40.6427 -24.6973 -44.7317 0.0000 65.7598 0.0000
# 6 0.0000 0.0000 0.0000 -0.3484 0.0000 15.2316
#
#
#
# Elastic Compliance Matrix: (Units=1/GPa)
#
#
# Indices 1 2 3 4 5 6 
#
# 1 0.011127 -0.003179 -0.010516 0.000000 -0.001470 0.000000
# 2 -0.003179 0.024122 0.006105 0.000000 0.011247 0.000000
# 3 -0.010516 0.006105 0.045987 0.000000 0.027075 0.000000
# 4 0.000000 0.000000 0.000000 0.090408 0.000000 0.002068
# 5 -0.001470 0.011247 0.027075 0.000000 0.036939 0.000000
# 6 0.000000 0.000000 0.000000 0.002068 0.000000 0.065700
#
#
# Mechanical properties :
#
#
# Convention : Reuss Voigt Hill
#
# Bulk Modulus (GPa) = 15.13904 48.17570 31.65737
# Shear Modulus (GPa) = 16.05228 29.25283 22.65255
#
# Velocity S-wave (km/s) = 2.61646 3.53208 3.10817
# Velocity P-wave (km/s) = 3.94769 6.09752 5.13634
#
# Compressibility (1/GPa) = 0.06605440
#
# Stress axis : x y z
#
# Youngs Moduli (GPa) = 89.86952 41.45661 21.74540
#
# Poissons Ratio (x) = 0.13181 0.22868
# Poissons Ratio (y) = 0.28573 -0.13276
# Poissons Ratio (z) = 0.94510 -0.25310
#
# Static dielectric constant tensor:
#      x y z
#    x 1.931520 0.000000 -0.050540 
#    y 0.000000 1.825280 0.000000 
#    z -0.050540 0.000000 2.019430 
# 
# From -- ./inp_files/54566.got.cif
#   From: 2010.05.17/outbox.cif.g08.bks.cpg/sg12_28_cif.got.tgz:54566.got - 2010.06.03 13:09:07.
