data_PCOD9187227
_publ_section_title
;
Structure prediction by ZEFSAII (Michael W. Deem and Ramdas Pophale) SiO2 
 PCOD9187227
Probable space group: C 2/M
;
_chemical_formula_sum "Si O2"
_cell_formula_units_Z 48
_cell_length_a 18.834007
_cell_length_b 20.997401
_cell_length_c 5.549527
_cell_angle_alpha 90.000000
_cell_angle_beta 109.597605
_cell_angle_gamma 90.000000
_cell_volume 2067.512253
_symmetry_space_group_name_H-M "C 2/M"
_symmetry_group_IT_number 12
_symmetry_cell_setting 'monoclinic'
loop_
_space_group_symop_operation_xyz
x,y,z
-x,y,-z
-x,-y,-z
x,-y,z
1/2+x,1/2+y,z
1/2-x,1/2+y,-z
1/2-x,1/2-y,-z
1/2+x,1/2-y,z
loop_
_atom_site_type_symbol
_atom_site_label
_atom_site_fract_x
_atom_site_fract_y
_atom_site_fract_z
Si Si1 0.475086 0.727964 0.223380
Si Si2 0.535438 0.125350 0.292082
Si Si3 0.307268 0.724347 0.873454
Si Si4 0.834115 0.077242 0.312577
Si Si5 0.089974 0.927350 0.107003
Si Si6 0.793263 0.649650 0.574140
O O1 0.500000 0.697355 0.500000
O O2 0.511338 0.799174 0.265376
O O3 0.500000 0.697559 0.000000
O O4 0.386168 0.727476 0.099798
O O5 0.500000 0.099108 0.500000
O O6 0.626199 0.118877 0.397289
O O7 0.500000 0.100387 0.000000
O O8 0.266367 0.663484 0.707414
O O9 0.315591 0.779160 0.681877
O O10 0.250000 0.750000 0.000000
O O11 0.883925 0.097872 0.602062
O O12 0.753836 0.111387 0.275960
O O13 0.825653 0.000000 0.301495
O O14 0.875610 0.095625 0.109883
O O15 0.118338 0.000000 0.146609
O O16 0.000000 0.930193 0.000000
#
# Coordination Sequence:
#
# PCOD9187227 Si02
#       6
#     8   8   8   8   8   8
#     4  10  19  36  57  81 112 155 200 243 292 367
#     4  10  19  35  58  84 111 160 207 243 296 375
#     4  11  23  38  62  90 122 164 207 260 317 378
#     4  10  22  39  64  95 126 164 211 263 316 374
#     4   9  18  37  66  91 119 164 213 255 309 379
#     4  11  24  38  62  93 126 165 208 264 321 377
#
# _framework density 23.216308000000001
#
# number of rings (size 3 to 8) (size 9 to 14) (size 15 to 20)
#    0.000    1.833    3.333    2.500    4.667    2.000 
#    0.000    0.833    3.667    1.000    0.000    0.000 
#    0.000    0.667    0.000    0.000    0.000    0.000 
#
# Total GULP energy -133912.193815 kJ/mol
# GULP energy per Si atom -5579.674742 kJ/mol
# Density = 2.316347 g / cm^3
# Si number density = 23.216308 Si / 1000 Ang^3
#
#
#
# Elastic Constant Matrix: (Units=GPa)
#
#
# Indices 1 2 3 4 5 6 
#
# 1 229.8052 8.0243 104.2331 0.0000 -3.2497 0.0000
# 2 8.0243 26.1283 16.0428 0.0000 6.0027 0.0000
# 3 104.2331 16.0428 208.0808 0.0000 -8.8234 0.0000
# 4 0.0000 0.0000 0.0000 11.8504 0.0000 -0.9378
# 5 -3.2497 6.0027 -8.8234 0.0000 47.0566 0.0000
# 6 0.0000 0.0000 0.0000 -0.9378 0.0000 20.9633
#
#
#
# Elastic Compliance Matrix: (Units=1/GPa)
#
#
# Indices 1 2 3 4 5 6 
#
# 1 0.005632 0.000042 -0.002831 0.000000 -0.000147 0.000000
# 2 0.000042 0.041781 -0.003496 0.000000 -0.005982 0.000000
# 3 -0.002831 -0.003496 0.006556 0.000000 0.001480 0.000000
# 4 0.000000 0.000000 0.000000 0.084685 0.000000 0.003788
# 5 -0.000147 -0.005982 0.001480 0.000000 0.022281 0.000000
# 6 0.000000 0.000000 0.000000 0.003788 0.000000 0.047872
#
#
# Mechanical properties :
#
#
# Convention : Reuss Voigt Hill
#
# Bulk Modulus (GPa) = 24.15477 80.06829 52.11153
# Shear Modulus (GPa) = 21.26066 38.35499 29.80782
#
# Velocity S-wave (km/s) = 3.02944 4.06898 3.58707
# Velocity P-wave (km/s) = 4.76062 7.52584 6.29689
#
# Compressibility (1/GPa) = 0.04139969
#
# Stress axis : x y z
#
# Youngs Moduli (GPa) = 177.56138 23.93447 152.53067
#
# Poissons Ratio (x) = -0.00101 0.43176
# Poissons Ratio (y) = -0.00750 0.53326
# Poissons Ratio (z) = 0.50261 0.08368
#
# Static dielectric constant tensor:
#      x y z
#    x 1.871660 0.000000 -0.015450 
#    y 0.000000 -3.139550 0.000000 
#    z -0.015450 0.000000 1.922340 
# 
# From -- ./inp_files/16948.got.cif
#   From: 2010.05.17/outbox.cif.g08.bks.cpg/sg12_9_cif.got.tgz:16948.got - 2010.06.03 13:09:07.
