data_PCOD9187199
_publ_section_title
;
Structure prediction by ZEFSAII (Michael W. Deem and Ramdas Pophale) SiO2 
 PCOD9187199
Probable space group: C 2/M
;
_chemical_formula_sum "Si O2"
_cell_formula_units_Z 40
_cell_length_a 16.261948
_cell_length_b 13.397396
_cell_length_c 7.979189
_cell_angle_alpha 90.000000
_cell_angle_beta 76.592967
_cell_angle_gamma 90.000000
_cell_volume 1691.031914
_symmetry_space_group_name_H-M "C 2/M"
_symmetry_group_IT_number 12
_symmetry_cell_setting 'monoclinic'
loop_
_space_group_symop_operation_xyz
x,y,z
-x,y,-z
-x,-y,-z
x,-y,z
1/2+x,1/2+y,z
1/2-x,1/2+y,-z
1/2-x,1/2-y,-z
1/2+x,1/2-y,z
loop_
_atom_site_type_symbol
_atom_site_label
_atom_site_fract_x
_atom_site_fract_y
_atom_site_fract_z
Si Si1 0.970250 0.679926 0.752498
Si Si2 0.131780 0.613211 0.522775
Si Si3 0.468507 0.613011 0.207599
Si Si4 0.683740 0.883493 0.966074
Si Si5 0.720881 0.308155 0.748171
O O1 0.066345 0.642102 0.699415
O O2 0.977389 0.799596 0.730019
O O3 0.924011 0.628415 0.618787
O O4 0.910620 0.651493 0.934856
O O5 0.157050 0.500000 0.531684
O O6 0.213780 0.673693 0.432029
O O7 0.477940 0.500000 0.267791
O O8 0.370715 0.647202 0.252647
O O9 0.500000 0.613784 0.000000
O O10 0.741974 0.865481 0.104506
O O11 0.685382 0.000000 0.922308
O O12 0.716748 0.806470 0.811460
#
# Coordination Sequence:
#
# PCOD9187199 Si02
#       5
#     8   8   8   8   8
#     4  10  19  36  58  86 111 143 189 231 275 339
#     4  10  20  38  63  84 111 149 187 233 283 331
#     4  11  22  37  55  81 117 155 185 225 282 334
#     4  10  19  35  58  83 110 145 190 238 275 321
#     4  10  20  36  55  83 111 149 189 228 276 339
#
# _framework density 23.654195999999999
#
# number of rings (size 3 to 8) (size 9 to 14) (size 15 to 20)
#    0.000    1.800    2.000    5.400    0.000    0.800 
#    0.000    7.000    0.000    0.000    0.000    0.000 
#    0.000    0.000    0.000    0.000    0.000    0.000 
#
# Total GULP energy -111862.774151 kJ/mol
# GULP energy per Si atom -5593.138708 kJ/mol
# Density = 2.360036 g / cm^3
# Si number density = 23.654196 Si / 1000 Ang^3
#
#
#
# Elastic Constant Matrix: (Units=GPa)
#
#
# Indices 1 2 3 4 5 6 
#
# 1 68.7111 30.9997 35.8766 0.0000 -17.7071 0.0000
# 2 30.9997 233.5227 45.1082 0.0000 -23.8918 0.0000
# 3 35.8766 45.1082 118.7488 0.0000 -26.6223 0.0000
# 4 0.0000 0.0000 0.0000 27.7291 0.0000 -1.4079
# 5 -17.7071 -23.8918 -26.6223 0.0000 45.6265 0.0000
# 6 0.0000 0.0000 0.0000 -1.4079 0.0000 43.2212
#
#
#
# Elastic Compliance Matrix: (Units=1/GPa)
#
#
# Indices 1 2 3 4 5 6 
#
# 1 0.018319 -0.001213 -0.004167 0.000000 0.004042 0.000000
# 2 -0.001213 0.004806 -0.001151 0.000000 0.001374 0.000000
# 3 -0.004167 -0.001151 0.011067 0.000000 0.004238 0.000000
# 4 0.000000 0.000000 0.000000 0.036123 0.000000 0.001177
# 5 0.004042 0.001374 0.004238 0.000000 0.026678 0.000000
# 6 0.000000 0.000000 0.000000 0.001177 0.000000 0.023175
#
#
# Mechanical properties :
#
#
# Convention : Reuss Voigt Hill
#
# Bulk Modulus (GPa) = 47.32798 71.66128 59.49463
# Shear Modulus (GPa) = 35.64427 43.91523 39.77975
#
# Velocity S-wave (km/s) = 3.88608 4.31345 4.10533
# Velocity P-wave (km/s) = 6.33934 7.42758 6.90493
#
# Compressibility (1/GPa) = 0.02112915
#
# Stress axis : x y z
#
# Youngs Moduli (GPa) = 54.58892 208.06296 90.35489
#
# Poissons Ratio (x) = 0.25242 0.37654
# Poissons Ratio (y) = 0.06623 0.10401
# Poissons Ratio (z) = 0.22749 0.23950
#
# Static dielectric constant tensor:
#      x y z
#    x 1.918130 0.000000 0.036470 
#    y 0.000000 1.874030 0.000000 
#    z 0.036470 0.000000 1.910020 
# 
# From -- ./inp_files/153293.got.cif
#   From: 2010.05.17/outbox.cif.g08.bks.cpg/sg12_77_cif.got.tgz:153293.got - 2010.06.03 13:09:07.
