data_PCOD9187023
_publ_section_title
;
Structure prediction by ZEFSAII (Michael W. Deem and Ramdas Pophale) SiO2 
 PCOD9187023
Probable space group: C 2/M
;
_chemical_formula_sum "Si O2"
_cell_formula_units_Z 64
_cell_length_a 22.960433
_cell_length_b 21.001478
_cell_length_c 9.126012
_cell_angle_alpha 90.000000
_cell_angle_beta 126.996662
_cell_angle_gamma 90.000000
_cell_volume 3514.622222
_symmetry_space_group_name_H-M "C 2/M"
_symmetry_group_IT_number 12
_symmetry_cell_setting 'monoclinic'
loop_
_space_group_symop_operation_xyz
x,y,z
-x,y,-z
-x,-y,-z
x,-y,z
1/2+x,1/2+y,z
1/2-x,1/2+y,-z
1/2-x,1/2-y,-z
1/2+x,1/2-y,z
loop_
_atom_site_type_symbol
_atom_site_label
_atom_site_fract_x
_atom_site_fract_y
_atom_site_fract_z
Si Si1 0.657242 0.310831 0.583689
Si Si2 0.763884 0.427706 0.767646
Si Si3 0.013737 0.786545 0.191473
Si Si4 0.011153 0.365985 0.190672
Si Si5 0.640360 0.711109 0.904886
Si Si6 0.863388 0.641294 0.133210
Si Si7 0.336115 0.071981 0.572398
Si Si8 0.282706 0.825352 0.294765
O O1 0.704800 0.374119 0.641280
O O2 0.584888 0.315134 0.376056
O O3 0.642126 0.302227 0.734670
O O4 0.698740 0.244233 0.611866
O O5 0.735757 0.500000 0.734067
O O6 0.823085 0.425779 0.726773
O O7 0.804382 0.406195 0.976389
O O8 0.023746 0.710010 0.222385
O O9 0.939242 0.806318 0.158299
O O10 0.000000 0.800349 0.000000
O O11 0.082636 0.405039 0.340004
O O12 0.942336 0.379306 0.192294
O O13 0.000000 0.378569 0.000000
O O14 0.649354 0.787024 0.947676
O O15 0.708424 0.679356 0.089630
O O16 0.846703 0.652320 0.278830
O O17 0.281099 0.121652 0.416105
O O18 0.323626 0.000000 0.503410
#
# Coordination Sequence:
#
# PCOD9187023 Si02
#       8
#     8   8   8   8   8   8   8   8
#     4  11  20  39  62  86 119 154 192 247 299 338
#     4  11  23  38  59  86 115 156 203 245 289 348
#     4  10  22  34  58  94 118 147 192 242 294 350
#     4  10  19  35  57  82 119 157 196 231 282 350
#     4  10  20  36  60  91 119 148 189 244 299 346
#     4  10  19  36  59  87 116 150 200 238 287 345
#     4  11  25  39  54  84 123 162 197 238 290 343
#     4  11  21  37  61  88 118 155 196 246 291 342
#
# _framework density 18.209638999999999
#
# number of rings (size 3 to 8) (size 9 to 14) (size 15 to 20)
#    0.000    1.500    5.000    1.125    1.750    2.250 
#    0.000    0.625    0.000    2.625    0.000    0.000 
#    0.000    0.000    0.000    0.000    0.000    0.000 
#
# Total GULP energy -178521.426961 kJ/mol
# GULP energy per Si atom -5578.794593 kJ/mol
# Density = 1.816819 g / cm^3
# Si number density = 18.209639 Si / 1000 Ang^3
#
#
#
# Elastic Constant Matrix: (Units=GPa)
#
#
# Indices 1 2 3 4 5 6 
#
# 1 59.8283 44.4810 13.9091 0.0000 13.2713 0.0000
# 2 44.4810 103.0954 48.1316 0.0000 6.8552 0.0000
# 3 13.9091 48.1316 76.9420 0.0000 19.3946 0.0000
# 4 0.0000 0.0000 0.0000 20.6310 0.0000 0.4314
# 5 13.2713 6.8552 19.3946 0.0000 21.2196 0.0000
# 6 0.0000 0.0000 0.0000 0.4314 0.0000 21.0528
#
#
#
# Elastic Compliance Matrix: (Units=1/GPa)
#
#
# Indices 1 2 3 4 5 6 
#
# 1 0.033105 -0.018083 0.011790 0.000000 -0.025639 0.000000
# 2 -0.018083 0.023906 -0.016359 0.000000 0.018538 0.000000
# 3 0.011790 -0.016359 0.028099 0.000000 -0.027771 0.000000
# 4 0.000000 0.000000 0.000000 0.048491 0.000000 -0.000994
# 5 -0.025639 0.018538 -0.027771 0.000000 0.082556 0.000000
# 6 0.000000 0.000000 0.000000 -0.000994 0.000000 0.047520
#
#
# Mechanical properties :
#
#
# Convention : Reuss Voigt Hill
#
# Bulk Modulus (GPa) = 25.12091 50.32323 37.72207
# Shear Modulus (GPa) = 15.51590 21.47026 18.49308
#
# Velocity S-wave (km/s) = 2.92219 3.43747 3.19025
# Velocity P-wave (km/s) = 5.02105 6.59169 5.85924
#
# Compressibility (1/GPa) = 0.03980748
#
# Stress axis : x y z
#
# Youngs Moduli (GPa) = 30.20683 41.82983 35.58836
#
# Poissons Ratio (x) = 0.75641 -0.41959
# Poissons Ratio (y) = 0.54623 0.58218
# Poissons Ratio (z) = -0.35614 0.68428
#
# Static dielectric constant tensor:
#      x y z
#    x 1.645820 0.000000 -0.007850 
#    y 0.000000 1.614940 0.000000 
#    z -0.007850 0.000000 1.624890 
# 
# From -- ./inp_files/77542.got.cif
#   From: 2010.05.17/outbox.cif.g08.bks.cpg/sg12_39_cif.got.tgz:77542.got - 2010.06.03 13:09:07.
