data_PCOD9187746
_publ_section_title
;
Structure prediction by ZEFSAII (Michael W. Deem and Ramdas Pophale) SiO2 
 PCOD9187746
Probable space group: C 2/M
;
_chemical_formula_sum "Si O2"
_cell_formula_units_Z 64
_cell_length_a 12.391542
_cell_length_b 13.369345
_cell_length_c 30.174074
_cell_angle_alpha 90.000000
_cell_angle_beta 35.168217
_cell_angle_gamma 90.000000
_cell_volume 2879.227893
_symmetry_space_group_name_H-M "C 2/M"
_symmetry_group_IT_number 12
_symmetry_cell_setting 'monoclinic'
loop_
_space_group_symop_operation_xyz
x,y,z
-x,y,-z
-x,-y,-z
x,-y,z
1/2+x,1/2+y,z
1/2-x,1/2+y,-z
1/2-x,1/2-y,-z
1/2+x,1/2-y,z
loop_
_atom_site_type_symbol
_atom_site_label
_atom_site_fract_x
_atom_site_fract_y
_atom_site_fract_z
Si Si1 0.646692 0.114193 0.025598
Si Si2 0.748470 0.114032 0.627737
Si Si3 0.656298 0.208879 0.575406
Si Si4 0.498926 0.686727 0.048809
Si Si5 0.890469 0.661583 0.195625
Si Si6 0.260283 0.198781 0.685516
Si Si7 0.873245 0.608797 0.799196
Si Si8 0.533883 0.387590 0.681015
O O1 0.587933 0.203287 0.013050
O O2 0.533544 0.147554 0.107707
O O3 0.603098 0.000000 0.028343
O O4 0.863856 0.127400 0.964755
O O5 0.783222 0.141083 0.565003
O O6 0.814732 0.198188 0.640178
O O7 0.520545 0.123590 0.710416
O O8 0.800063 0.000000 0.621475
O O9 0.750000 0.250000 0.500000
O O10 0.462238 0.153336 0.628099
O O11 0.609100 0.305283 0.621641
O O12 0.289889 0.688131 0.138535
O O13 0.500000 0.637595 0.000000
O O14 0.841769 0.768591 0.234674
O O15 0.691183 0.619221 0.246680
O O16 0.993013 0.609027 0.202608
O O17 0.121668 0.140268 0.699426
O O18 0.783082 0.500000 0.825291
O O19 0.591238 0.500000 0.650096
#
# Coordination Sequence:
#
# PCOD9187746 Si02
#       8
#     8   8   8   8   8   8   8   8
#     4  11  24  39  58  86 120 155 196 244 292 348
#     4   9  20  37  58  85 114 151 192 239 289 341
#     4  10  22  39  58  85 119 154 190 241 290 341
#     4  11  24  38  59  87 117 157 199 242 296 346
#     4  10  20  35  60  85 113 149 191 242 294 339
#     4   9  21  37  59  84 116 150 188 240 283 349
#     4  10  19  35  61  86 113 149 197 247 291 343
#     4  10  21  37  58  87 118 155 196 237 289 356
#
# _framework density 22.228182
#
# number of rings (size 3 to 8) (size 9 to 14) (size 15 to 20)
#    0.000    2.000    1.250    1.500    7.000    7.250 
#    0.000    1.250    0.000    0.750    0.000    0.000 
#    0.000    0.000    0.000    0.000    0.000    0.000 
#
# Total GULP energy -178600.780518 kJ/mol
# GULP energy per Si atom -5581.274391 kJ/mol
# Density = 2.217759 g / cm^3
# Si number density = 22.228182 Si / 1000 Ang^3
#
#
#
# Elastic Constant Matrix: (Units=GPa)
#
#
# Indices 1 2 3 4 5 6 
#
# 1 96.9129 12.2071 10.9332 0.0000 -18.0405 -0.0001
# 2 12.2071 72.3890 -12.2419 -0.0001 -14.8858 -0.0001
# 3 10.9332 -12.2419 36.9415 -0.0002 -12.7210 0.0001
# 4 0.0000 -0.0001 -0.0002 13.2321 -0.0001 -0.3542
# 5 -18.0405 -14.8858 -12.7210 -0.0001 28.7975 0.0000
# 6 -0.0001 -0.0001 0.0001 -0.3542 0.0000 11.5874
#
#
#
# Elastic Compliance Matrix: (Units=1/GPa)
#
#
# Indices 1 2 3 4 5 6 
#
# 1 0.011775 -0.001028 -0.001732 0.000000 0.006080 0.000000
# 2 -0.001028 0.018820 0.011404 0.000000 0.014122 0.000000
# 3 -0.001732 0.011404 0.038941 0.000001 0.022012 0.000000
# 4 0.000000 0.000000 0.000001 0.075635 0.000001 0.002312
# 5 0.006080 0.014122 0.022012 0.000001 0.055557 0.000000
# 6 0.000000 0.000000 0.000000 0.002312 0.000000 0.086371
#
#
# Mechanical properties :
#
#
# Convention : Reuss Voigt Hill
#
# Bulk Modulus (GPa) = 11.51756 25.33779 18.42767
# Shear Modulus (GPa) = 16.73613 23.74641 20.24127
#
# Velocity S-wave (km/s) = 2.74692 3.27203 3.02091
# Velocity P-wave (km/s) = 3.90558 5.06938 4.52505
#
# Compressibility (1/GPa) = 0.08682394
#
# Stress axis : x y z
#
# Youngs Moduli (GPa) = 84.92361 53.13449 25.67964
#
# Poissons Ratio (x) = 0.05464 0.04448
# Poissons Ratio (y) = 0.08733 -0.29285
# Poissons Ratio (z) = 0.14709 -0.60594
#
# Static dielectric constant tensor:
#      x y z
#    x 1.837910 0.000000 -0.000630 
#    y 0.000000 1.840130 0.000000 
#    z -0.000630 0.000000 1.829190 
# 
# From -- ./inp_files/374074.got.cif
#   From: 2010.05.17/outbox.cif.g08.bks.cpg/sg12_188_cif.got.tgz:374074.got - 2010.06.03 13:09:07.
