data_PCOD9187733
_publ_section_title
;
Structure prediction by ZEFSAII (Michael W. Deem and Ramdas Pophale) SiO2 
 PCOD9187733
Probable space group: C 2/M
;
_chemical_formula_sum "Si O2"
_cell_formula_units_Z 64
_cell_length_a 19.915942
_cell_length_b 7.946949
_cell_length_c 18.960689
_cell_angle_alpha 90.000000
_cell_angle_beta 88.981338
_cell_angle_gamma 90.000000
_cell_volume 3000.452468
_symmetry_space_group_name_H-M "C 2/M"
_symmetry_group_IT_number 12
_symmetry_cell_setting 'monoclinic'
loop_
_space_group_symop_operation_xyz
x,y,z
-x,y,-z
-x,-y,-z
x,-y,z
1/2+x,1/2+y,z
1/2-x,1/2+y,-z
1/2-x,1/2-y,-z
1/2+x,1/2-y,z
loop_
_atom_site_type_symbol
_atom_site_label
_atom_site_fract_x
_atom_site_fract_y
_atom_site_fract_z
Si Si1 0.178954 0.799338 0.923308
Si Si2 0.920290 0.296832 0.197555
Si Si3 0.913705 0.803673 0.642019
Si Si4 0.962196 0.305746 0.434211
Si Si5 0.719607 0.702513 0.425065
Si Si6 0.653741 0.206409 0.658779
Si Si7 0.171744 0.801754 0.083762
Si Si8 0.925903 0.302535 0.791940
O O1 0.119503 0.756665 0.871269
O O2 0.250476 0.726519 0.897095
O O3 0.186991 0.000000 0.926872
O O4 0.165557 0.736826 0.003367
O O5 0.921257 0.500000 0.199314
O O6 0.878222 0.238070 0.266933
O O7 0.997697 0.238902 0.198074
O O8 0.855032 0.736746 0.592072
O O9 0.894576 0.785728 0.723965
O O10 0.982421 0.704206 0.628165
O O11 0.926085 0.000000 0.626607
O O12 0.947731 0.500000 0.452767
O O13 0.894430 0.232564 0.403921
O O14 0.000000 0.225512 0.500000
O O15 0.716411 0.500000 0.422417
O O16 0.750000 0.750000 0.500000
O O17 0.771431 0.758198 0.363102
O O18 0.651664 0.000000 0.658844
O O19 0.120225 0.721623 0.139134
O O20 0.157957 0.000000 0.083705
O O21 0.929658 0.500000 0.775811
#
# Coordination Sequence:
#
# PCOD9187733 Si02
#       8
#     8   8   8   8   8   8   8   8
#     4  10  22  40  63  93 124 156 199 244 289 351
#     4  10  21  38  61  86 119 161 201 247 298 352
#     4  11  23  37  56  86 121 154 191 243 305 359
#     4  10  19  35  61  84 108 151 200 242 289 349
#     4  10  22  39  59  83 113 150 194 242 296 357
#     4   9  18  36  57  81 112 150 195 238 289 349
#     4  10  22  41  64  90 124 161 195 240 298 352
#     4  11  23  40  62  89 121 158 205 249 291 354
#
# _framework density 21.330117999999999
#
# number of rings (size 3 to 8) (size 9 to 14) (size 15 to 20)
#    0.000    1.875    1.250    2.250    1.750    5.250 
#    0.000    3.750    0.000    0.000    0.000    0.000 
#    0.000    0.000    0.000    0.000    0.000    0.000 
#
# Total GULP energy -178763.623714 kJ/mol
# GULP energy per Si atom -5586.363241 kJ/mol
# Density = 2.128157 g / cm^3
# Si number density = 21.330118 Si / 1000 Ang^3
#
#
#
# Elastic Constant Matrix: (Units=GPa)
#
#
# Indices 1 2 3 4 5 6 
#
# 1 74.6375 -0.1503 19.9913 0.0000 3.1351 0.0000
# 2 -0.1503 31.8814 -0.9005 0.0000 -0.3400 0.0000
# 3 19.9913 -0.9005 76.8875 0.0000 0.3574 0.0000
# 4 0.0000 0.0000 0.0000 26.5785 0.0000 -1.4278
# 5 3.1351 -0.3400 0.3574 0.0000 43.0165 0.0000
# 6 0.0000 0.0000 0.0000 -1.4278 0.0000 20.5628
#
#
#
# Elastic Compliance Matrix: (Units=1/GPa)
#
#
# Indices 1 2 3 4 5 6 
#
# 1 0.014446 -0.000049 -0.003752 0.000000 -0.001022 0.000000
# 2 -0.000049 0.031379 0.000379 0.000000 0.000248 0.000000
# 3 -0.003752 0.000379 0.013985 0.000000 0.000160 0.000000
# 4 0.000000 0.000000 0.000000 0.037765 0.000000 0.002622
# 5 -0.001022 0.000248 0.000160 0.000000 0.023322 0.000000
# 6 0.000000 0.000000 0.000000 0.002622 0.000000 0.048814
#
#
# Mechanical properties :
#
#
# Convention : Reuss Voigt Hill
#
# Bulk Modulus (GPa) = 18.87958 24.58748 21.73353
# Shear Modulus (GPa) = 25.74530 28.99595 27.37062
#
# Velocity S-wave (km/s) = 3.47795 3.69099 3.58605
# Velocity P-wave (km/s) = 4.99985 5.45130 5.23045
#
# Compressibility (1/GPa) = 0.05296729
#
# Stress axis : x y z
#
# Youngs Moduli (GPa) = 69.22410 31.86809 71.50413
#
# Poissons Ratio (x) = 0.00155 0.26827
# Poissons Ratio (y) = 0.00337 -0.02710
# Poissons Ratio (z) = 0.25972 -0.01208
#
# Static dielectric constant tensor:
#      x y z
#    x 1.750020 0.000000 -0.007330 
#    y 0.000000 1.786720 0.000000 
#    z -0.007330 0.000000 1.791510 
# 
# From -- ./inp_files/281398.got.cif
#   From: 2010.05.17/outbox.cif.g08.bks.cpg/sg12_141_cif.got.tgz:281398.got - 2010.06.03 13:09:07.
