data_PCOD9187172
_publ_section_title
;
Structure prediction by ZEFSAII (Michael W. Deem and Ramdas Pophale) SiO2 
 PCOD9187172
Probable space group: C 2/M
;
_chemical_formula_sum "Si O2"
_cell_formula_units_Z 58
_cell_length_a 25.108231
_cell_length_b 9.947442
_cell_length_c 11.883789
_cell_angle_alpha 90.000000
_cell_angle_beta 90.422713
_cell_angle_gamma 90.000000
_cell_volume 2968.046111
_symmetry_space_group_name_H-M "C 2/M"
_symmetry_group_IT_number 12
_symmetry_cell_setting 'monoclinic'
loop_
_space_group_symop_operation_xyz
x,y,z
-x,y,-z
-x,-y,-z
x,-y,z
1/2+x,1/2+y,z
1/2-x,1/2+y,-z
1/2-x,1/2-y,-z
1/2+x,1/2-y,z
loop_
_atom_site_type_symbol
_atom_site_label
_atom_site_fract_x
_atom_site_fract_y
_atom_site_fract_z
Si Si1 0.898323 0.343810 0.924505
Si Si2 0.000000 0.000000 0.500000
Si Si3 0.910944 0.157451 0.138885
Si Si4 0.419661 0.158126 0.679102
Si Si5 0.694949 0.656603 0.708641
Si Si6 0.463985 0.753166 0.359165
Si Si7 0.771159 0.346183 0.903232
Si Si8 0.357865 0.844901 0.467533
O O1 0.915717 0.500000 0.942386
O O2 0.918966 0.288074 0.805621
O O3 0.834550 0.345223 0.908982
O O4 0.912325 0.249974 0.029199
O O5 0.032966 0.117477 0.568628
O O6 0.853933 0.169747 0.202667
O O7 0.952880 0.210653 0.230752
O O8 0.918995 0.000000 0.113437
O O9 0.478656 0.177947 0.631821
O O10 0.375228 0.209239 0.590955
O O11 0.408638 0.000000 0.689098
O O12 0.697414 0.500000 0.674216
O O13 0.747295 0.692109 0.781330
O O14 0.681942 0.751806 0.603476
O O15 0.414097 0.839441 0.400758
O O16 0.752672 0.500000 0.923089
O O17 0.750000 0.250000 0.000000
O O18 0.340010 0.000000 0.474535
#
# Coordination Sequence:
#
# PCOD9187172 Si02
#       8
#     8   2   8   8   8   8   8   8
#     4  10  22  38  57  79 109 148 184 219 273 331
#     4  12  20  36  58  86 108 152 186 224 274 336
#     4  10  20  35  52  81 112 139 178 229 269 317
#     4  10  21  38  55  77 109 147 184 226 269 321
#     4   9  19  33  55  81 112 139 175 230 280 321
#     4  11  21  35  58  80 110 143 186 225 268 322
#     4  10  19  35  58  82 107 141 182 225 272 329
#     4  10  20  34  56  83 107 140 184 230 269 317
#
# _framework density 19.541475999999999
#
# number of rings (size 3 to 8) (size 9 to 14) (size 15 to 20)
#    0.000    1.931    3.448    0.414    0.966    4.966 
#    1.241    2.759    0.000    0.000    0.000    0.000 
#    0.000    0.000    0.000    0.000    0.000    0.000 
#
# Total GULP energy -161533.758340 kJ/mol
# GULP energy per Si atom -5570.129598 kJ/mol
# Density = 1.949700 g / cm^3
# Si number density = 19.541476 Si / 1000 Ang^3
#
#
#
# Elastic Constant Matrix: (Units=GPa)
#
#
# Indices 1 2 3 4 5 6 
#
# 1 14.8241 1.6953 8.3969 0.0000 13.7658 0.0000
# 2 1.6953 56.6641 48.8845 0.0000 19.2923 0.0000
# 3 8.3969 48.8845 107.7715 0.0000 37.0960 0.0000
# 4 0.0000 0.0000 0.0000 33.1710 0.0000 10.6795
# 5 13.7658 19.2923 37.0960 0.0000 35.3467 0.0000
# 6 0.0000 0.0000 0.0000 10.6795 0.0000 10.3625
#
#
#
# Elastic Compliance Matrix: (Units=1/GPa)
#
#
# Indices 1 2 3 4 5 6 
#
# 1 0.116106 0.011200 0.005545 0.000000 -0.057150 0.000000
# 2 0.011200 0.030302 -0.011621 0.000000 -0.008704 0.000000
# 3 0.005545 -0.011621 0.019848 0.000000 -0.016647 0.000000
# 4 0.000000 0.000000 0.000000 0.045117 0.000000 -0.046497
# 5 -0.057150 -0.008704 -0.016647 0.000000 0.072771 0.000000
# 6 0.000000 0.000000 0.000000 -0.046497 0.000000 0.144422
#
#
# Mechanical properties :
#
#
# Convention : Reuss Voigt Hill
#
# Bulk Modulus (GPa) = 5.66557 33.02368 19.34463
# Shear Modulus (GPa) = 10.47883 23.79491 17.13687
#
# Velocity S-wave (km/s) = 2.31819 3.49329 2.96454
# Velocity P-wave (km/s) = 3.17346 5.76253 4.65175
#
# Compressibility (1/GPa) = 0.17650475
#
# Stress axis : x y z
#
# Youngs Moduli (GPa) = 8.61280 33.00092 50.38195
#
# Poissons Ratio (x) = -0.36962 -0.27937
# Poissons Ratio (y) = -0.09647 0.58551
# Poissons Ratio (z) = -0.04776 0.38352
#
# Static dielectric constant tensor:
#      x y z
#    x 1.699520 0.000000 -0.006750 
#    y 0.000000 1.654030 0.000000 
#    z -0.006750 0.000000 1.729010 
# 
# From -- ./inp_files/186596.got.cif
#   From: 2010.05.17/outbox.cif.g08.bks.cpg/sg12_94_cif.got.tgz:186596.got - 2010.06.03 13:09:07.
