data_PCOD9187914
_publ_section_title
;
Structure prediction by ZEFSAII (Michael W. Deem and Ramdas Pophale) SiO2 
 PCOD9187914
Probable space group: C 2/M
;
_chemical_formula_sum "Si O2"
_cell_formula_units_Z 30
_cell_length_a 9.042524
_cell_length_b 18.900355
_cell_length_c 9.792773
_cell_angle_alpha 90.000000
_cell_angle_beta 133.667199
_cell_angle_gamma 90.000000
_cell_volume 1210.657616
_symmetry_space_group_name_H-M "C 2/M"
_symmetry_group_IT_number 12
_symmetry_cell_setting 'monoclinic'
loop_
_space_group_symop_operation_xyz
x,y,z
-x,y,-z
-x,-y,-z
x,-y,z
1/2+x,1/2+y,z
1/2-x,1/2+y,-z
1/2-x,1/2-y,-z
1/2+x,1/2-y,z
loop_
_atom_site_type_symbol
_atom_site_label
_atom_site_fract_x
_atom_site_fract_y
_atom_site_fract_z
Si Si1 0.247982 0.000000 0.612914
Si Si2 0.500000 0.380064 0.000000
Si Si3 0.000000 0.500000 0.500000
Si Si4 0.852014 0.724842 0.206557
Si Si5 0.332924 0.846557 0.770868
Si Si6 0.520644 0.500000 0.207298
O O1 0.272984 0.073732 0.705179
O O2 0.431747 0.000000 0.617745
O O3 0.951258 0.000000 0.613315
O O4 0.309915 0.331180 0.835057
O O5 0.569120 0.429498 0.917941
O O6 0.244536 0.500000 0.695340
O O7 0.846423 0.794490 0.294312
O O8 0.060030 0.686802 0.296129
O O9 0.750000 0.750000 0.000000
O O10 0.500000 0.845546 0.000000
#
# Coordination Sequence:
#
# PCOD9187914 Si02
#       6
#     4   4   2   8   8   4
#     4  10  20  39  60  91 130 159 216 255 319 369
#     4  11  18  38  62  85 120 158 216 243 314 360
#     4   8  18  38  56  88 126 156 208 250 318 360
#     4  10  19  35  62  93 122 159 210 257 310 379
#     4  10  20  37  66  93 126 164 210 259 317 377
#     4   9  22  34  60  88 118 166 202 264 291 382
#
# _framework density 24.779923
#
# number of rings (size 3 to 8) (size 9 to 14) (size 15 to 20)
#    0.800    1.333    4.000    2.000    0.000    1.067 
#    0.000    4.000    5.867   11.200    0.000    0.000 
#    0.000    0.000    0.000    0.000    0.000    0.000 
#
# Total GULP energy -83627.266328 kJ/mol
# GULP energy per Si atom -5575.151089 kJ/mol
# Density = 2.472352 g / cm^3
# Si number density = 24.779923 Si / 1000 Ang^3
#
#
#
# Elastic Constant Matrix: (Units=GPa)
#
#
# Indices 1 2 3 4 5 6 
#
# 1 124.8469 79.8133 8.0760 0.0000 5.3409 0.0000
# 2 79.8133 218.0113 45.5564 0.0000 -22.4924 0.0000
# 3 8.0760 45.5564 90.1084 0.0000 -18.0526 0.0000
# 4 0.0000 0.0000 0.0000 -91.4482 0.0000 0.6657
# 5 5.3409 -22.4924 -18.0526 0.0000 21.9328 0.0000
# 6 0.0000 0.0000 0.0000 0.6657 0.0000 28.6802
#
#
#
# Elastic Compliance Matrix: (Units=1/GPa)
#
#
# Indices 1 2 3 4 5 6 
#
# 1 0.011598 -0.005060 -0.000104 0.000000 -0.008098 0.000000
# 2 -0.005060 0.007606 -0.001895 0.000000 0.007473 0.000000
# 3 -0.000104 -0.001895 0.013987 0.000000 0.009595 0.000000
# 4 0.000000 0.000000 0.000000 -0.010933 0.000000 0.000254
# 5 -0.008098 0.007473 0.009595 0.000000 0.063126 0.000000
# 6 0.000000 0.000000 0.000000 0.000254 0.000000 0.034861
#
#
# Mechanical properties :
#
#
# Convention : Reuss Voigt Hill
#
# Bulk Modulus (GPa) = 52.42680 77.76200 65.09440
# Shear Modulus (GPa) = 35.53145 11.80102 23.66624
#
# Velocity S-wave (km/s) = 3.79077 2.18464 3.09375
# Velocity P-wave (km/s) = 6.35317 6.14921 6.25202
#
# Compressibility (1/GPa) = 0.01907421
#
# Stress axis : x y z
#
# Youngs Moduli (GPa) = 86.22519 131.47244 71.49321
#
# Poissons Ratio (x) = 0.66520 0.00743
# Poissons Ratio (y) = 0.43627 0.13547
# Poissons Ratio (z) = 0.00896 0.24913
#
# Static dielectric constant tensor:
#      x y z
#    x 2.089360 0.000000 0.031290 
#    y 0.000000 1.927740 0.000000 
#    z 0.031290 0.000000 1.996100 
# 
# From -- ./inp_files/118707.got.cif
#   From: 2010.05.17/outbox.cif.g08.bks.cpg/sg12_60_cif.got.tgz:118707.got - 2010.06.03 13:09:07.
