data_PCOD9187863
_publ_section_title
;
Structure prediction by ZEFSAII (Michael W. Deem and Ramdas Pophale) SiO2 
 PCOD9187863
Probable space group: C 2/M
;
_chemical_formula_sum "Si O2"
_cell_formula_units_Z 64
_cell_length_a 12.242413
_cell_length_b 17.066718
_cell_length_c 26.778224
_cell_angle_alpha 90.000000
_cell_angle_beta 36.309385
_cell_angle_gamma 90.000000
_cell_volume 3313.042511
_symmetry_space_group_name_H-M "C 2/M"
_symmetry_group_IT_number 12
_symmetry_cell_setting 'monoclinic'
loop_
_space_group_symop_operation_xyz
x,y,z
-x,y,-z
-x,-y,-z
x,-y,z
1/2+x,1/2+y,z
1/2-x,1/2+y,-z
1/2-x,1/2-y,-z
1/2+x,1/2-y,z
loop_
_atom_site_type_symbol
_atom_site_label
_atom_site_fract_x
_atom_site_fract_y
_atom_site_fract_z
Si Si1 0.668026 0.095384 0.973277
Si Si2 0.989859 0.094604 0.422296
Si Si3 0.327183 0.405868 0.100027
Si Si4 0.537425 0.906676 0.128030
Si Si5 0.468894 0.405454 0.222500
Si Si6 0.876045 0.151189 0.729166
Si Si7 0.200809 0.594165 0.612887
Si Si8 0.202970 0.665757 0.244454
O O1 0.858715 0.115619 0.876869
O O2 0.661482 0.000000 0.977289
O O3 0.500000 0.121495 0.000000
O O4 0.633338 0.124122 0.042143
O O5 0.999563 0.132045 0.364596
O O6 0.172411 0.117254 0.386669
O O7 0.815581 0.116201 0.520908
O O8 0.991038 0.000000 0.417122
O O9 0.321259 0.500000 0.110845
O O10 0.144175 0.378268 0.137708
O O11 0.330151 0.364627 0.152143
O O12 0.500000 0.390780 0.000000
O O13 0.320369 0.892226 0.205298
O O14 0.566811 0.000000 0.117664
O O15 0.446173 0.500000 0.230609
O O16 0.524867 0.377091 0.256934
O O17 0.293513 0.363380 0.262652
O O18 0.824182 0.242002 0.749044
O O19 0.189960 0.500000 0.617942
O O20 0.997873 0.627876 0.688350
#
# Coordination Sequence:
#
# PCOD9187863 Si02
#       8
#     8   8   8   8   8   8   8   8
#     4   9  16  32  57  83 110 150 210 259 294 347
#     4   9  19  39  69  96 117 149 201 254 297 363
#     4  10  21  40  64  88 116 157 210 262 310 364
#     4  10  19  35  62  86 110 156 212 259 300 360
#     4  11  23  41  62  86 121 170 214 251 300 372
#     4  12  25  37  58  89 130 161 201 252 308 366
#     4   9  19  40  70  95 115 151 200 250 306 368
#     4  12  26  39  59  89 131 164 197 250 320 374
#
# _framework density 19.317591
#
# number of rings (size 3 to 8) (size 9 to 14) (size 15 to 20)
#    0.000    1.750    1.250    4.500    3.500    4.500 
#    2.250    1.875    0.000    2.250    0.000    0.000 
#    0.000    0.000    0.000    0.000    0.000    0.000 
#
# Total GULP energy -178761.868363 kJ/mol
# GULP energy per Si atom -5586.308386 kJ/mol
# Density = 1.927362 g / cm^3
# Si number density = 19.317591 Si / 1000 Ang^3
#
#
#
# Elastic Constant Matrix: (Units=GPa)
#
#
# Indices 1 2 3 4 5 6 
#
# 1 105.4756 21.5167 24.3976 -0.0006 15.5322 -0.0001
# 2 21.5167 40.7867 12.5454 -0.0008 8.7267 0.0000
# 3 24.3976 12.5454 61.7168 -0.0036 16.2622 -0.0002
# 4 -0.0006 -0.0008 -0.0036 -6.5307 -0.0003 0.4804
# 5 15.5322 8.7267 16.2622 -0.0003 34.6384 0.0001
# 6 -0.0001 0.0000 -0.0002 0.4804 0.0001 14.2482
#
#
#
# Elastic Compliance Matrix: (Units=1/GPa)
#
#
# Indices 1 2 3 4 5 6 
#
# 1 0.011479 -0.004599 -0.002912 0.000001 -0.002621 0.000000
# 2 -0.004599 0.028675 -0.003025 -0.000001 -0.003742 0.000000
# 3 -0.002912 -0.003025 0.019884 -0.000010 -0.007267 0.000001
# 4 0.000001 -0.000001 -0.000010 -0.152744 0.000003 0.005150
# 5 -0.002621 -0.003742 -0.007267 0.000003 0.034400 0.000000
# 6 0.000000 0.000000 0.000001 0.005150 0.000000 0.070011
#
#
# Mechanical properties :
#
#
# Convention : Reuss Voigt Hill
#
# Bulk Modulus (GPa) = 25.66346 36.09982 30.88164
# Shear Modulus (GPa) = 109.25554 18.43914 63.84734
#
# Velocity S-wave (km/s) = 7.52863 3.09289 5.75527
# Velocity P-wave (km/s) = 9.42802 5.61095 7.75791
#
# Compressibility (1/GPa) = 0.03896590
#
# Stress axis : x y z
#
# Youngs Moduli (GPa) = 87.11838 34.87371 50.29151
#
# Poissons Ratio (x) = 0.16038 0.14646
# Poissons Ratio (y) = 0.40065 0.15212
# Poissons Ratio (z) = 0.25370 0.10549
#
# Static dielectric constant tensor:
#      x y z
#    x 1.693390 0.000000 -0.003550 
#    y 0.000000 1.821610 0.000000 
#    z -0.003550 0.000000 1.670960 
# 
# From -- ./inp_files/358409.got.cif
#   From: 2010.05.17/outbox.cif.g08.bks.cpg/sg12_180_cif.got.tgz:358409.got - 2010.06.03 13:09:07.
