data_PCOD9187223
_publ_section_title
;
Structure prediction by ZEFSAII (Michael W. Deem and Ramdas Pophale) SiO2 
 PCOD9187223
Probable space group: C 2/M
;
_chemical_formula_sum "Si O2"
_cell_formula_units_Z 48
_cell_length_a 13.989845
_cell_length_b 12.775528
_cell_length_c 14.652266
_cell_angle_alpha 90.000000
_cell_angle_beta 108.229395
_cell_angle_gamma 90.000000
_cell_volume 2487.333757
_symmetry_space_group_name_H-M "C 2/M"
_symmetry_group_IT_number 12
_symmetry_cell_setting 'monoclinic'
loop_
_space_group_symop_operation_xyz
x,y,z
-x,y,-z
-x,-y,-z
x,-y,z
1/2+x,1/2+y,z
1/2-x,1/2+y,-z
1/2-x,1/2-y,-z
1/2+x,1/2-y,z
loop_
_atom_site_type_symbol
_atom_site_label
_atom_site_fract_x
_atom_site_fract_y
_atom_site_fract_z
Si Si1 0.721934 0.251107 0.722778
Si Si2 0.879392 0.880213 0.463424
Si Si3 0.102774 0.118560 0.813447
Si Si4 0.236367 0.380816 0.886222
Si Si5 0.116595 0.879620 0.324800
Si Si6 0.603112 0.770104 0.984083
O O1 0.665354 0.291921 0.615671
O O2 0.700865 0.346839 0.786043
O O3 0.682458 0.156145 0.776149
O O4 0.828101 0.206528 0.719905
O O5 0.849785 0.867302 0.560458
O O6 0.000000 0.875299 0.500000
O O7 0.851605 0.000000 0.426065
O O8 0.084191 0.191429 0.894212
O O9 0.003993 0.128843 0.720429
O O10 0.111868 0.000000 0.846702
O O11 0.268984 0.500000 0.890502
O O12 0.166913 0.361201 0.954251
O O13 0.327930 0.299399 0.927960
O O14 0.141216 0.000000 0.303832
O O15 0.500000 0.802888 0.000000
#
# Coordination Sequence:
#
# PCOD9187223 Si02
#       6
#     8   8   8   8   8   8
#     4  11  20  33  56  83 111 147 184 226 278 333
#     4  10  19  35  58  84 111 142 185 236 282 324
#     4  10  20  35  57  84 113 145 187 234 276 325
#     4  10  22  38  56  83 117 148 183 230 280 329
#     4  10  20  34  56  84 111 147 186 228 282 329
#     4  10  21  37  59  86 110 148 190 228 276 327
#
# _framework density 19.297772999999999
#
# number of rings (size 3 to 8) (size 9 to 14) (size 15 to 20)
#    0.000    1.833    1.667    3.000    0.000    3.000 
#    0.000    0.833    0.000   22.000    0.000    0.000 
#    0.000    0.000    0.000    0.000    0.000    0.000 
#
# Total GULP energy -133695.412844 kJ/mol
# GULP energy per Si atom -5570.642202 kJ/mol
# Density = 1.925385 g / cm^3
# Si number density = 19.297773 Si / 1000 Ang^3
#
#
#
# Elastic Constant Matrix: (Units=GPa)
#
#
# Indices 1 2 3 4 5 6 
#
# 1 79.0043 17.2184 11.6807 0.0000 -14.7735 0.0000
# 2 17.2184 49.2474 29.7540 0.0000 8.0194 0.0000
# 3 11.6807 29.7540 93.2909 0.0000 0.9361 0.0000
# 4 0.0000 0.0000 0.0000 14.3642 0.0000 3.0060
# 5 -14.7735 8.0194 0.9361 0.0000 28.0728 0.0000
# 6 0.0000 0.0000 0.0000 3.0060 0.0000 23.0677
#
#
#
# Elastic Compliance Matrix: (Units=1/GPa)
#
#
# Indices 1 2 3 4 5 6 
#
# 1 0.016282 -0.007610 0.000281 0.000000 0.010733 0.000000
# 2 -0.007610 0.030129 -0.008533 0.000000 -0.012327 0.000000
# 3 0.000281 -0.008533 0.013384 0.000000 0.002139 0.000000
# 4 0.000000 0.000000 0.000000 0.071569 0.000000 -0.009326
# 5 0.010733 -0.012327 0.002139 0.000000 0.044720 0.000000
# 6 0.000000 0.000000 0.000000 -0.009326 0.000000 0.044566
#
#
# Mechanical properties :
#
#
# Convention : Reuss Voigt Hill
#
# Bulk Modulus (GPa) = 35.62430 37.64986 36.63708
# Shear Modulus (GPa) = 19.10364 23.96025 21.53194
#
# Velocity S-wave (km/s) = 3.14974 3.52747 3.34394
# Velocity P-wave (km/s) = 5.63278 6.01190 5.82543
#
# Compressibility (1/GPa) = 0.02807073
#
# Stress axis : x y z
#
# Youngs Moduli (GPa) = 61.41920 33.19073 74.71636
#
# Poissons Ratio (x) = 0.25258 -0.02098
# Poissons Ratio (y) = 0.46740 0.63754
# Poissons Ratio (z) = -0.01725 0.28321
#
# Static dielectric constant tensor:
#      x y z
#    x 1.676390 0.000000 -0.005980 
#    y 0.000000 1.656160 0.000000 
#    z -0.005980 0.000000 1.756140 
# 
# From -- ./inp_files/212537.got.cif
#   From: 2010.05.17/outbox.cif.g08.bks.cpg/sg12_107_cif.got.tgz:212537.got - 2010.06.03 13:09:07.
