data_PCOD9187146
_publ_section_title
;
Structure prediction by ZEFSAII (Michael W. Deem and Ramdas Pophale) SiO2 
 PCOD9187146
Probable space group: C 2/M
;
_chemical_formula_sum "Si O2"
_cell_formula_units_Z 48
_cell_length_a 20.378379
_cell_length_b 7.720276
_cell_length_c 14.401239
_cell_angle_alpha 90.000000
_cell_angle_beta 105.057789
_cell_angle_gamma 90.000000
_cell_volume 2187.905149
_symmetry_space_group_name_H-M "C 2/M"
_symmetry_group_IT_number 12
_symmetry_cell_setting 'monoclinic'
loop_
_space_group_symop_operation_xyz
x,y,z
-x,y,-z
-x,-y,-z
x,-y,z
1/2+x,1/2+y,z
1/2-x,1/2+y,-z
1/2-x,1/2-y,-z
1/2+x,1/2-y,z
loop_
_atom_site_type_symbol
_atom_site_label
_atom_site_fract_x
_atom_site_fract_y
_atom_site_fract_z
Si Si1 0.479924 0.800066 0.636566
Si Si2 0.790110 0.206678 0.252361
Si Si3 0.347196 0.290842 0.882381
Si Si4 0.891969 0.799353 0.437740
Si Si5 0.861679 0.787659 0.090638
Si Si6 0.983763 0.201457 0.844727
O O1 0.544898 0.712519 0.611379
O O2 0.418519 0.789527 0.540682
O O3 0.465002 0.715336 0.729494
O O4 0.497268 0.000000 0.658464
O O5 0.710669 0.238272 0.210911
O O6 0.827658 0.274123 0.358095
O O7 0.825475 0.274401 0.170890
O O8 0.801809 0.000000 0.258546
O O9 0.349667 0.500000 0.883556
O O10 0.421601 0.224344 0.880836
O O11 0.329610 0.233440 0.980668
O O12 0.880566 0.000000 0.457140
O O13 0.940174 0.728494 0.117595
O O14 0.860885 0.000000 0.093469
O O15 0.989183 0.000000 0.873785
#
# Coordination Sequence:
#
# PCOD9187146 Si02
#       6
#     8   8   8   8   8   8
#     4  11  21  33  54  85 112 136 173 231 280 314
#     4  10  20  35  56  80 111 146 178 219 270 327
#     4  10  21  34  55  82 111 145 182 228 270 314
#     4  10  19  35  58  81 106 144 183 218 265 327
#     4   9  17  34  57  81 105 142 191 226 261 315
#     4  10  19  36  57  79 109 147 187 221 264 325
#
# _framework density 21.938794999999999
#
# number of rings (size 3 to 8) (size 9 to 14) (size 15 to 20)
#    0.000    2.000    1.667    4.000    0.000    4.000 
#    0.000    1.667    0.000    2.000    0.000    0.000 
#    0.000    0.000    0.000    0.000    0.000    0.000 
#
# Total GULP energy -134049.329755 kJ/mol
# GULP energy per Si atom -5585.388740 kJ/mol
# Density = 2.188886 g / cm^3
# Si number density = 21.938795 Si / 1000 Ang^3
#
#
#
# Elastic Constant Matrix: (Units=GPa)
#
#
# Indices 1 2 3 4 5 6 
#
# 1 45.9736 -6.1518 -7.7827 0.0000 13.4417 0.0000
# 2 -6.1518 40.5176 -5.2278 0.0000 3.2783 0.0000
# 3 -7.7827 -5.2278 68.5078 0.0000 14.6453 0.0000
# 4 0.0000 0.0000 0.0000 47.2640 0.0000 -15.4788
# 5 13.4417 3.2783 14.6453 0.0000 32.3636 0.0000
# 6 0.0000 0.0000 0.0000 -15.4788 0.0000 27.0146
#
#
#
# Elastic Compliance Matrix: (Units=1/GPa)
#
#
# Indices 1 2 3 4 5 6 
#
# 1 0.028390 0.006488 0.007065 0.000000 -0.015646 0.000000
# 2 0.006488 0.026826 0.004363 0.000000 -0.007387 0.000000
# 3 0.007065 0.004363 0.018216 0.000000 -0.011620 0.000000
# 4 0.000000 0.000000 0.000000 0.026045 0.000000 0.014923
# 5 -0.015646 -0.007387 -0.011620 0.000000 0.043404 0.000000
# 6 0.000000 0.000000 0.000000 0.014923 0.000000 0.045568
#
#
# Mechanical properties :
#
#
# Convention : Reuss Voigt Hill
#
# Bulk Modulus (GPa) = 9.15202 12.96382 11.05792
# Shear Modulus (GPa) = 26.44959 32.93920 29.69440
#
# Velocity S-wave (km/s) = 3.47595 3.87901 3.68300
# Velocity P-wave (km/s) = 4.50448 5.09747 4.81012
#
# Compressibility (1/GPa) = 0.10926548
#
# Stress axis : x y z
#
# Youngs Moduli (GPa) = 35.22334 37.27680 54.89543
#
# Poissons Ratio (x) = -0.24185 -0.38784
# Poissons Ratio (y) = -0.22853 -0.23952
# Poissons Ratio (z) = -0.24885 -0.16265
#
# Static dielectric constant tensor:
#      x y z
#    x 1.787700 0.000000 0.017480 
#    y 0.000000 1.820530 0.000000 
#    z 0.017480 0.000000 1.811430 
# 
# From -- ./inp_files/229812.got.cif
#   From: 2010.05.17/outbox.cif.g08.bks.cpg/sg12_115_cif.got.tgz:229812.got - 2010.06.03 13:09:07.
