data_PCOD9187454
_publ_section_title
;
Structure prediction by ZEFSAII (Michael W. Deem and Ramdas Pophale) SiO2 
 PCOD9187454
Probable space group: C 2/M
;
_chemical_formula_sum "Si O2"
_cell_formula_units_Z 48
_cell_length_a 22.664846
_cell_length_b 14.579381
_cell_length_c 11.154782
_cell_angle_alpha 90.000000
_cell_angle_beta 31.826070
_cell_angle_gamma 90.000000
_cell_volume 1943.773587
_symmetry_space_group_name_H-M "C 2/M"
_symmetry_group_IT_number 12
_symmetry_cell_setting 'monoclinic'
loop_
_space_group_symop_operation_xyz
x,y,z
-x,y,-z
-x,-y,-z
x,-y,z
1/2+x,1/2+y,z
1/2-x,1/2+y,-z
1/2-x,1/2-y,-z
1/2+x,1/2-y,z
loop_
_atom_site_type_symbol
_atom_site_label
_atom_site_fract_x
_atom_site_fract_y
_atom_site_fract_z
Si Si1 0.906844 0.599128 0.516037
Si Si2 0.839702 0.785007 0.648517
Si Si3 0.194985 0.901297 0.062078
Si Si4 0.364141 0.271030 0.167580
Si Si5 0.988919 0.897340 0.232672
Si Si6 0.311626 0.896441 0.411329
O O1 0.967768 0.500000 0.428321
O O2 0.937686 0.706390 0.478776
O O3 0.870325 0.597380 0.440137
O O4 0.804126 0.598376 0.788621
O O5 0.813998 0.823657 0.823167
O O6 0.727419 0.746888 0.779724
O O7 0.881036 0.866201 0.491421
O O8 0.088676 0.899675 0.158557
O O9 0.194341 0.000000 0.127640
O O10 0.373776 0.174076 0.217165
O O11 0.304990 0.345926 0.356207
O O12 0.471799 0.318034 0.925049
O O13 0.981433 0.000000 0.193770
O O14 0.300700 0.000000 0.384419
#
# Coordination Sequence:
#
# PCOD9187454 Si02
#       6
#     8   8   8   8   8   8
#     4   9  18  35  60  80 107 156 197 227 278 346
#     4  11  21  34  58  90 117 145 195 240 282 336
#     4  10  19  35  59  85 115 153 191 233 284 341
#     4  10  21  36  59  83 117 157 187 236 294 338
#     4  11  22  38  59  87 119 153 191 233 287 348
#     4   9  17  35  59  80 109 154 197 231 281 344
#
# _framework density 24.694234000000002
#
# number of rings (size 3 to 8) (size 9 to 14) (size 15 to 20)
#    0.000    2.000    3.333    2.000    0.000    2.667 
#    0.000    8.333    0.000   17.000    0.000    0.000 
#    0.000    0.000    0.000    0.000    0.000    0.000 
#
# Total GULP energy -134085.175273 kJ/mol
# GULP energy per Si atom -5586.882303 kJ/mol
# Density = 2.463803 g / cm^3
# Si number density = 24.694234 Si / 1000 Ang^3
#
#
#
# Elastic Constant Matrix: (Units=GPa)
#
#
# Indices 1 2 3 4 5 6 
#
# 1 77.6160 37.1681 20.2172 0.0000 19.7139 0.0000
# 2 37.1681 221.6651 47.5248 0.0000 33.3642 0.0000
# 3 20.2172 47.5248 69.8233 0.0000 15.3082 0.0000
# 4 0.0000 0.0000 0.0000 40.8363 0.0000 22.1142
# 5 19.7139 33.3642 15.3082 0.0000 33.2689 0.0000
# 6 0.0000 0.0000 0.0000 22.1142 0.0000 36.1368
#
#
#
# Elastic Compliance Matrix: (Units=1/GPa)
#
#
# Indices 1 2 3 4 5 6 
#
# 1 0.015833 -0.001077 -0.002259 0.000000 -0.007262 0.000000
# 2 -0.001077 0.005897 -0.002831 0.000000 -0.003973 0.000000
# 3 -0.002259 -0.002831 0.017780 0.000000 -0.004004 0.000000
# 4 0.000000 0.000000 0.000000 0.036626 0.000000 -0.022413
# 5 -0.007262 -0.003973 -0.004004 0.000000 0.040188 0.000000
# 6 0.000000 0.000000 0.000000 -0.022413 0.000000 0.041389
#
#
# Mechanical properties :
#
#
# Convention : Reuss Voigt Hill
#
# Bulk Modulus (GPa) = 36.79698 64.32497 50.56098
# Shear Modulus (GPa) = 27.91661 39.66135 33.78898
#
# Velocity S-wave (km/s) = 3.36592 4.01196 3.70306
# Velocity P-wave (km/s) = 5.48081 6.89683 6.22919
#
# Compressibility (1/GPa) = 0.02717615
#
# Stress axis : x y z
#
# Youngs Moduli (GPa) = 63.16008 169.58252 56.24144
#
# Poissons Ratio (x) = 0.18272 0.12704
# Poissons Ratio (y) = 0.06805 0.15920
# Poissons Ratio (z) = 0.14267 0.48003
#
# Static dielectric constant tensor:
#      x y z
#    x 2.006070 0.000000 -0.033720 
#    y 0.000000 2.040030 0.000000 
#    z -0.033720 0.000000 1.895960 
# 
# From -- ./inp_files/183674.got.cif
#   From: 2010.05.17/outbox.cif.g08.bks.cpg/sg12_92_cif.got.tgz:183674.got - 2010.06.03 13:09:07.
