data_PCOD9187086
_publ_section_title
;
Structure prediction by ZEFSAII (Michael W. Deem and Ramdas Pophale) SiO2 
 PCOD9187086
Probable space group: C 2/M
;
_chemical_formula_sum "Si O2"
_cell_formula_units_Z 40
_cell_length_a 11.278699
_cell_length_b 25.142165
_cell_length_c 7.555095
_cell_angle_alpha 90.000000
_cell_angle_beta 127.445569
_cell_angle_gamma 90.000000
_cell_volume 1700.922537
_symmetry_space_group_name_H-M "C 2/M"
_symmetry_group_IT_number 12
_symmetry_cell_setting 'monoclinic'
loop_
_space_group_symop_operation_xyz
x,y,z
-x,y,-z
-x,-y,-z
x,-y,z
1/2+x,1/2+y,z
1/2-x,1/2+y,-z
1/2-x,1/2-y,-z
1/2+x,1/2-y,z
loop_
_atom_site_type_symbol
_atom_site_label
_atom_site_fract_x
_atom_site_fract_y
_atom_site_fract_z
Si Si1 0.827012 0.286861 0.305803
Si Si2 0.832937 0.439176 0.327579
Si Si3 0.605760 0.642006 0.267628
Si Si4 0.173692 0.558691 0.102890
Si Si5 0.808669 0.833571 0.180029
O O1 0.720334 0.309433 0.360600
O O2 0.800529 0.224430 0.257450
O O3 0.000000 0.294893 0.500000
O O4 0.778276 0.320482 0.085621
O O5 0.838804 0.500000 0.394945
O O6 0.709460 0.409140 0.330171
O O7 0.000000 0.416576 0.500000
O O8 0.802284 0.439695 0.088980
O O9 0.479569 0.649772 0.298018
O O10 0.500000 0.643915 0.000000
O O11 0.233220 0.500000 0.214946
O O12 0.238598 0.615947 0.217984
O O13 0.000000 0.558779 0.000000
#
# Coordination Sequence:
#
# PCOD9187086 Si02
#       5
#     8   8   8   8   8
#     4  10  21  38  57  84 119 158 195 244 296 351
#     4  10  20  36  60  89 116 153 199 244 297 352
#     4  10  19  35  57  85 116 145 197 249 285 345
#     4  10  21  38  61  86 118 157 194 235 295 359
#     4  10  22  38  58  89 120 151 202 247 294 353
#
# _framework density 23.516652000000001
#
# number of rings (size 3 to 8) (size 9 to 14) (size 15 to 20)
#    0.000    2.000    4.000    0.600    0.000    6.000 
#    3.600    0.000    0.000    0.600    0.000    0.000 
#    0.000    0.000    0.000    0.000    0.000    0.000 
#
# Total GULP energy -111713.752409 kJ/mol
# GULP energy per Si atom -5585.687620 kJ/mol
# Density = 2.346313 g / cm^3
# Si number density = 23.516652 Si / 1000 Ang^3
#
#
#
# Elastic Constant Matrix: (Units=GPa)
#
#
# Indices 1 2 3 4 5 6 
#
# 1 118.2949 75.0936 42.2740 0.0000 19.1732 0.0000
# 2 75.0936 221.2148 20.0722 0.0000 26.8177 0.0000
# 3 42.2740 20.0722 84.6532 0.0000 9.2044 0.0000
# 4 0.0000 0.0000 0.0000 21.3325 0.0000 28.0587
# 5 19.1732 26.8177 9.2044 0.0000 47.7302 0.0000
# 6 0.0000 0.0000 0.0000 28.0587 0.0000 -48.2632
#
#
#
# Elastic Compliance Matrix: (Units=1/GPa)
#
#
# Indices 1 2 3 4 5 6 
#
# 1 0.013080 -0.003689 -0.005425 0.000000 -0.002135 0.000000
# 2 -0.003689 0.005955 0.000646 0.000000 -0.001989 0.000000
# 3 -0.005425 0.000646 0.014475 0.000000 -0.000975 0.000000
# 4 0.000000 0.000000 0.000000 0.026564 0.000000 0.015443
# 5 -0.002135 -0.001989 -0.000975 0.000000 0.023114 0.000000
# 6 0.000000 0.000000 0.000000 0.015443 0.000000 -0.011741
#
#
# Mechanical properties :
#
#
# Convention : Reuss Voigt Hill
#
# Bulk Modulus (GPa) = 60.33251 77.67142 69.00196
# Shear Modulus (GPa) = 53.24406 23.27477 38.25941
#
# Velocity S-wave (km/s) = 4.76342 3.14939 4.03787
# Velocity P-wave (km/s) = 7.48094 6.80623 7.15155
#
# Compressibility (1/GPa) = 0.01657481
#
# Stress axis : x y z
#
# Youngs Moduli (GPa) = 76.45241 167.91989 69.08559
#
# Poissons Ratio (x) = 0.61946 0.37479
# Poissons Ratio (y) = 0.28204 -0.04466
# Poissons Ratio (z) = 0.41475 -0.10855
#
# Static dielectric constant tensor:
#      x y z
#    x 1.888350 0.000000 -0.105510 
#    y 0.000000 1.898470 0.000000 
#    z -0.105510 0.000000 1.983500 
# 
# From -- ./inp_files/52858.got.cif
#   From: 2010.05.17/outbox.cif.g08.bks.cpg/sg12_27_cif.got.tgz:52858.got - 2010.06.03 13:09:07.
