data_PCOD9187475
_publ_section_title
;
Structure prediction by ZEFSAII (Michael W. Deem and Ramdas Pophale) SiO2 
 PCOD9187475
Probable space group: C 2/M
;
_chemical_formula_sum "Si O2"
_cell_formula_units_Z 56
_cell_length_a 35.730132
_cell_length_b 8.877373
_cell_length_c 21.442269
_cell_angle_alpha 90.000000
_cell_angle_beta 27.046471
_cell_angle_gamma 90.000000
_cell_volume 3092.624693
_symmetry_space_group_name_H-M "C 2/M"
_symmetry_group_IT_number 12
_symmetry_cell_setting 'monoclinic'
loop_
_space_group_symop_operation_xyz
x,y,z
-x,y,-z
-x,-y,-z
x,-y,z
1/2+x,1/2+y,z
1/2-x,1/2+y,-z
1/2-x,1/2-y,-z
1/2+x,1/2-y,z
loop_
_atom_site_type_symbol
_atom_site_label
_atom_site_fract_x
_atom_site_fract_y
_atom_site_fract_z
Si Si1 0.014295 0.179479 0.265213
Si Si2 0.858754 0.820473 0.585490
Si Si3 0.598444 0.827377 0.348562
Si Si4 0.339505 0.679504 0.867788
Si Si5 0.754690 0.681220 0.630841
Si Si6 0.908139 0.319129 0.316914
Si Si7 0.584052 0.817691 0.839175
O O1 0.945262 0.206212 0.420988
O O2 0.980375 0.256563 0.253532
O O3 0.101246 0.232467 0.163790
O O4 0.017913 0.000000 0.249636
O O5 0.863577 0.741790 0.645104
O O6 0.790167 0.749809 0.642145
O O7 0.847643 0.000000 0.608112
O O8 0.500000 0.828520 0.500000
O O9 0.619979 0.728047 0.257152
O O10 0.626700 0.000000 0.297827
O O11 0.334695 0.500000 0.878945
O O12 0.250000 0.750000 0.000000
O O13 0.753434 0.500000 0.636034
O O14 0.821188 0.726045 0.478194
O O15 0.665059 0.745012 0.748868
O O16 0.911024 0.500000 0.314281
O O17 0.917205 0.271559 0.231832
O O18 0.591497 0.000000 0.830651
O O19 0.500000 0.776594 0.000000
#
# Coordination Sequence:
#
# PCOD9187475 Si02
#       7
#     8   8   8   8   8   8   8
#     4   9  19  35  57  83 112 145 187 236 283 336
#     4  10  19  35  59  86 114 147 189 236 286 338
#     4  11  22  36  59  88 117 150 191 240 290 340
#     4  11  23  40  58  82 116 156 199 240 289 345
#     4  10  20  35  57  85 113 142 184 234 282 333
#     4   9  19  35  58  84 108 141 186 232 278 333
#     4  10  21  38  57  80 113 149 185 225 276 341
#
# _framework density 18.107597999999999
#
# number of rings (size 3 to 8) (size 9 to 14) (size 15 to 20)
#    0.000    2.000    1.429    2.143    0.000    3.714 
#    2.571    0.000    0.000    0.000    0.000    0.000 
#    0.000    0.000    0.000    0.000    0.000    0.000 
#
# Total GULP energy -156311.827588 kJ/mol
# GULP energy per Si atom -5582.565271 kJ/mol
# Density = 1.806638 g / cm^3
# Si number density = 18.107598 Si / 1000 Ang^3
#
#
#
# Elastic Constant Matrix: (Units=GPa)
#
#
# Indices 1 2 3 4 5 6 
#
# 1 143.6281 37.2667 67.8374 0.0005 -29.0636 0.0000
# 2 37.2667 40.5164 32.1175 -0.0005 -15.4241 0.0009
# 3 67.8374 32.1175 96.2423 -0.0004 -29.6731 0.0005
# 4 0.0005 -0.0005 -0.0004 27.1243 0.0012 -5.0723
# 5 -29.0636 -15.4241 -29.6731 0.0012 27.4459 -0.0003
# 6 0.0000 0.0009 0.0005 -5.0723 -0.0003 33.8551
#
#
#
# Elastic Compliance Matrix: (Units=1/GPa)
#
#
# Indices 1 2 3 4 5 6 
#
# 1 0.011505 -0.004977 -0.005332 0.000000 0.003622 0.000000
# 2 -0.004977 0.037700 -0.006249 0.000000 0.009161 -0.000001
# 3 -0.005332 -0.006249 0.020116 0.000000 0.012590 0.000000
# 4 0.000000 0.000000 0.000000 0.037930 -0.000002 0.005683
# 5 0.003622 0.009161 0.012590 -0.000002 0.059030 0.000000
# 6 0.000000 -0.000001 0.000000 0.005683 0.000000 0.030389
#
#
# Mechanical properties :
#
#
# Convention : Reuss Voigt Hill
#
# Bulk Modulus (GPa) = 27.62003 61.64777 44.63390
# Shear Modulus (GPa) = 20.67371 27.22940 23.95155
#
# Velocity S-wave (km/s) = 3.38259 3.88204 3.64089
# Velocity P-wave (km/s) = 5.52651 7.36293 6.50980
#
# Compressibility (1/GPa) = 0.03620561
#
# Stress axis : x y z
#
# Youngs Moduli (GPa) = 86.91927 26.52544 49.71230
#
# Poissons Ratio (x) = 0.13201 0.26506
# Poissons Ratio (y) = 0.43258 0.31063
# Poissons Ratio (z) = 0.46345 0.16575
#
# Static dielectric constant tensor:
#      x y z
#    x 1.608220 0.000000 0.015390 
#    y 0.000000 1.607070 0.000000 
#    z 0.015390 0.000000 1.588700 
# 
# From -- ./inp_files/275110.got.cif
#   From: 2010.05.17/outbox.cif.g08.bks.cpg/sg12_138_cif.got.tgz:275110.got - 2010.06.03 13:09:07.
