data_PCOD9187061
_publ_section_title
;
Structure prediction by ZEFSAII (Michael W. Deem and Ramdas Pophale) SiO2 
 PCOD9187061
Probable space group: C 2/M
;
_chemical_formula_sum "Si O2"
_cell_formula_units_Z 48
_cell_length_a 9.871560
_cell_length_b 20.792639
_cell_length_c 21.973792
_cell_angle_alpha 90.000000
_cell_angle_beta 141.286424
_cell_angle_gamma 90.000000
_cell_volume 2820.833328
_symmetry_space_group_name_H-M "C 2/M"
_symmetry_group_IT_number 12
_symmetry_cell_setting 'monoclinic'
loop_
_space_group_symop_operation_xyz
x,y,z
-x,y,-z
-x,-y,-z
x,-y,z
1/2+x,1/2+y,z
1/2-x,1/2+y,-z
1/2-x,1/2-y,-z
1/2+x,1/2-y,z
loop_
_atom_site_type_symbol
_atom_site_label
_atom_site_fract_x
_atom_site_fract_y
_atom_site_fract_z
Si Si1 0.920187 0.636330 0.709435
Si Si2 0.246060 0.755374 0.426234
Si Si3 0.243476 0.574922 0.905904
Si Si4 0.574787 0.923711 0.093136
Si Si5 0.180314 0.500000 0.377527
Si Si6 0.567502 0.626479 0.693977
Si Si7 0.078999 0.000000 0.419641
O O1 0.868681 0.694394 0.646193
O O2 0.917786 0.569130 0.672185
O O3 0.730856 0.639417 0.694388
O O4 0.140938 0.627874 0.825081
O O5 0.500000 0.759155 0.500000
O O6 0.250000 0.750000 0.500000
O O7 0.103224 0.816867 0.357644
O O8 0.193285 0.500000 0.869239
O O9 0.122067 0.582659 0.927830
O O10 0.500000 0.580601 0.000000
O O11 0.779367 0.887598 0.194477
O O12 0.628591 0.000000 0.108993
O O13 0.500000 0.902731 0.000000
O O14 0.382673 0.500000 0.400479
O O15 0.224051 0.500000 0.464770
O O16 0.443869 0.562168 0.630003
#
# Coordination Sequence:
#
# PCOD9187061 Si02
#       7
#     8   8   8   8   4   8   4
#     4  10  19  35  57  84 110 150 191 229 281 333
#     4  12  24  40  57  81 116 156 189 231 282 338
#     4   9  17  33  57  87 116 138 178 240 289 324
#     4   9  17  33  59  85 111 146 183 226 284 342
#     4   9  16  26  53  86 104 132 193 241 264 317
#     4  10  19  36  58  81 111 150 193 227 277 340
#     4   9  16  28  54  80 106 140 185 238 269 320
#
# _framework density 17.016247
#
# number of rings (size 3 to 8) (size 9 to 14) (size 15 to 20)
#    0.000    2.167    3.333    1.000    2.333    0.000 
#    3.000    1.250    0.000    4.000    0.000    0.000 
#    0.000    0.000    0.000    0.000    0.000    0.000 
#
# Total GULP energy -133622.639261 kJ/mol
# GULP energy per Si atom -5567.609969 kJ/mol
# Density = 1.697752 g / cm^3
# Si number density = 17.016247 Si / 1000 Ang^3
#
#
#
# Elastic Constant Matrix: (Units=GPa)
#
#
# Indices 1 2 3 4 5 6 
#
# 1 60.1068 42.7042 64.2600 0.0001 -0.0401 0.0002
# 2 42.7042 124.2829 85.8751 0.0001 -4.4497 0.0000
# 3 64.2600 85.8751 157.3916 0.0002 -15.6969 0.0002
# 4 0.0001 0.0001 0.0002 42.1077 0.0001 -7.0732
# 5 -0.0401 -4.4497 -15.6969 0.0001 29.2498 0.0001
# 6 0.0002 0.0000 0.0002 -7.0732 0.0001 29.6379
#
#
#
# Elastic Compliance Matrix: (Units=1/GPa)
#
#
# Indices 1 2 3 4 5 6 
#
# 1 0.031425 -0.002739 -0.012016 0.000000 -0.006822 0.000000
# 2 -0.002739 0.013257 -0.006248 0.000000 -0.001340 0.000000
# 3 -0.012016 -0.006248 0.015396 0.000000 0.007295 0.000000
# 4 0.000000 0.000000 0.000000 0.024740 0.000000 0.005904
# 5 -0.006822 -0.001340 0.007295 0.000000 0.037890 0.000000
# 6 0.000000 0.000000 0.000000 0.005904 0.000000 0.035150
#
#
# Mechanical properties :
#
#
# Convention : Reuss Voigt Hill
#
# Bulk Modulus (GPa) = 55.33831 80.82889 68.08360
# Shear Modulus (GPa) = 24.28493 30.12855 27.20674
#
# Velocity S-wave (km/s) = 3.78188 4.21239 4.00292
# Velocity P-wave (km/s) = 7.18760 8.44174 7.83979
#
# Compressibility (1/GPa) = 0.01807066
#
# Stress axis : x y z
#
# Youngs Moduli (GPa) = 31.82181 75.43282 64.95116
#
# Poissons Ratio (x) = 0.20664 0.78045
# Poissons Ratio (y) = 0.08717 0.40583
# Poissons Ratio (z) = 0.38237 0.47133
#
# Static dielectric constant tensor:
#      x y z
#    x 1.480850 0.000000 -0.029370 
#    y 0.000000 1.573010 0.000000 
#    z -0.029370 0.000000 1.586820 
# 
# From -- ./inp_files/197223.got.cif
#   From: 2010.05.17/outbox.cif.g08.bks.cpg/sg12_99_cif.got.tgz:197223.got - 2010.06.03 13:09:07.
