data_PCOD9187982
_publ_section_title
;
Structure prediction by ZEFSAII (Michael W. Deem and Ramdas Pophale) SiO2 
 PCOD9187982
Probable space group: C 2/M
;
_chemical_formula_sum "Si O2"
_cell_formula_units_Z 56
_cell_length_a 18.236658
_cell_length_b 14.710733
_cell_length_c 21.747530
_cell_angle_alpha 90.000000
_cell_angle_beta 25.992226
_cell_angle_gamma 90.000000
_cell_volume 2556.881672
_symmetry_space_group_name_H-M "C 2/M"
_symmetry_group_IT_number 12
_symmetry_cell_setting 'monoclinic'
loop_
_space_group_symop_operation_xyz
x,y,z
-x,y,-z
-x,-y,-z
x,-y,z
1/2+x,1/2+y,z
1/2-x,1/2+y,-z
1/2-x,1/2-y,-z
1/2+x,1/2-y,z
loop_
_atom_site_type_symbol
_atom_site_label
_atom_site_fract_x
_atom_site_fract_y
_atom_site_fract_z
Si Si1 0.113859 0.239405 0.357221
Si Si2 0.534357 0.395956 0.108348
Si Si3 0.553859 0.655032 0.631261
Si Si4 0.922687 0.700574 0.194301
Si Si5 0.740827 0.899600 0.943086
Si Si6 0.728717 0.900390 0.182618
Si Si7 0.083876 0.356209 0.663615
O O1 0.266658 0.180606 0.268722
O O2 0.192544 0.321776 0.258513
O O3 0.000000 0.271187 0.500000
O O4 0.997496 0.182421 0.398924
O O5 0.471288 0.500000 0.163795
O O6 0.416279 0.309860 0.209743
O O7 0.683399 0.384873 0.045978
O O8 0.611535 0.387004 0.982006
O O9 0.400447 0.604852 0.778466
O O10 0.735368 0.609814 0.494910
O O11 0.571384 0.750002 0.654502
O O12 0.920451 0.645116 0.259539
O O13 0.103657 0.675583 0.030233
O O14 0.664727 0.000000 0.997485
O O15 0.570723 0.900350 0.254847
O O16 0.742197 0.000000 0.201816
#
# Coordination Sequence:
#
# PCOD9187982 Si02
#       7
#     8   8   8   8   8   8   8
#     4  11  24  40  61  90 126 168 212 258 327 395
#     4  10  21  37  62  98 129 162 212 271 325 375
#     4  10  21  39  59  89 122 159 210 267 311 375
#     4  12  21  39  66  92 124 174 213 262 322 387
#     4  11  23  39  64  95 124 158 216 280 325 373
#     4  10  22  39  61  93 131 167 210 265 321 387
#     4  10  19  35  65  88 116 166 219 257 310 372
#
# _framework density 21.901678
#
# number of rings (size 3 to 8) (size 9 to 14) (size 15 to 20)
#    0.000    1.429    4.286    2.143    0.000    3.714 
#    0.000    4.286    0.000    0.857    0.000    0.000 
#    0.000    0.000    0.000    0.000    0.000    0.000 
#
# Total GULP energy -156458.543098 kJ/mol
# GULP energy per Si atom -5587.805111 kJ/mol
# Density = 2.185183 g / cm^3
# Si number density = 21.901678 Si / 1000 Ang^3
#
#
#
# Elastic Constant Matrix: (Units=GPa)
#
#
# Indices 1 2 3 4 5 6 
#
# 1 93.9096 -0.0081 14.5077 -0.0013 8.2085 0.0013
# 2 -0.0081 56.4800 0.1528 -0.0055 1.8925 0.0027
# 3 14.5077 0.1528 73.6567 -0.0051 9.6559 0.0053
# 4 -0.0013 -0.0055 -0.0051 4.0885 0.0032 5.3279
# 5 8.2085 1.8925 9.6559 0.0032 31.0900 -0.0023
# 6 0.0013 0.0027 0.0053 5.3279 -0.0023 8.7638
#
#
#
# Elastic Compliance Matrix: (Units=1/GPa)
#
#
# Indices 1 2 3 4 5 6 
#
# 1 0.011146 0.000086 -0.001886 0.000022 -0.002362 -0.000015
# 2 0.000086 0.017743 0.000095 0.000157 -0.001132 -0.000101
# 3 -0.001886 0.000095 0.014472 0.000160 -0.004003 -0.000107
# 4 0.000022 0.000157 0.000160 1.177359 -0.000241 -0.715770
# 5 -0.002362 -0.001132 -0.004003 -0.000241 0.034101 0.000159
# 6 -0.000015 -0.000101 -0.000107 -0.715770 0.000159 0.549255
#
#
# Mechanical properties :
#
#
# Convention : Reuss Voigt Hill
#
# Bulk Modulus (GPa) = 25.03047 28.15013 26.59030
# Shear Modulus (GPa) = 2.74604 22.74806 12.74705
#
# Velocity S-wave (km/s) = 1.12095 3.22630 2.41511
# Velocity P-wave (km/s) = 3.62336 5.17296 4.46589
#
# Compressibility (1/GPa) = 0.03995131
#
# Stress axis : x y z
#
# Youngs Moduli (GPa) = 89.71515 56.35997 69.09657
#
# Poissons Ratio (x) = -0.00484 0.13031
# Poissons Ratio (y) = -0.00770 -0.00654
# Poissons Ratio (z) = 0.16920 -0.00534
#
# Static dielectric constant tensor:
#      x y z
#    x 1.796850 0.000000 -0.000120 
#    y 0.000000 1.802740 0.000000 
#    z -0.000120 0.000000 1.818480 
# 
# From -- ./inp_files/316707.got.cif
#   From: 2010.05.17/outbox.cif.g08.bks.cpg/sg12_159_cif.got.tgz:316707.got - 2010.06.03 13:09:07.
