data_PCOD9187659
_publ_section_title
;
Structure prediction by ZEFSAII (Michael W. Deem and Ramdas Pophale) SiO2 
 PCOD9187659
Probable space group: C 2/M
;
_chemical_formula_sum "Si O2"
_cell_formula_units_Z 56
_cell_length_a 10.210616
_cell_length_b 17.969428
_cell_length_c 14.285849
_cell_angle_alpha 90.000000
_cell_angle_beta 69.529401
_cell_angle_gamma 90.000000
_cell_volume 2455.631156
_symmetry_space_group_name_H-M "C 2/M"
_symmetry_group_IT_number 12
_symmetry_cell_setting 'monoclinic'
loop_
_space_group_symop_operation_xyz
x,y,z
-x,y,-z
-x,-y,-z
x,-y,z
1/2+x,1/2+y,z
1/2-x,1/2+y,-z
1/2-x,1/2-y,-z
1/2+x,1/2-y,z
loop_
_atom_site_type_symbol
_atom_site_label
_atom_site_fract_x
_atom_site_fract_y
_atom_site_fract_z
Si Si1 0.149855 0.585148 0.990041
Si Si2 0.721889 0.369975 0.227716
Si Si3 0.319452 0.277803 0.251506
Si Si4 0.187160 0.321952 0.463339
Si Si5 0.752680 0.587667 0.834691
Si Si6 0.543294 0.852398 0.685607
Si Si7 0.040494 0.088324 0.592957
O O1 0.116740 0.500000 0.026508
O O2 0.242269 0.586111 0.874283
O O3 0.228635 0.613243 0.062263
O O4 0.000000 0.620689 0.000000
O O5 0.826085 0.389392 0.289218
O O6 0.761700 0.284502 0.195590
O O7 0.568812 0.381500 0.305205
O O8 0.190466 0.290960 0.356603
O O9 0.348963 0.355195 0.193695
O O10 0.438819 0.232077 0.277709
O O11 0.250000 0.250000 0.500000
O O12 0.073674 0.350910 0.566710
O O13 0.303683 0.385545 0.426660
O O14 0.716660 0.500000 0.835934
O O15 0.905513 0.604053 0.751131
O O16 0.000000 0.117778 0.500000
O O17 0.030725 0.000000 0.594857
#
# Coordination Sequence:
#
# PCOD9187659 Si02
#       7
#     8   8   8   8   8   8   8
#     4  10  19  35  60  87 119 155 195 251 307 350
#     4  10  20  35  57  88 114 152 198 244 297 352
#     4   9  22  37  58  83 119 157 194 239 297 357
#     4  10  20  38  57  81 117 159 200 235 295 363
#     4  11  23  39  62  90 121 155 201 253 304 356
#     4   9  20  36  58  87 113 158 196 242 287 359
#     4  11  21  33  55  86 117 149 195 250 297 349
#
# _framework density 22.804727
#
# number of rings (size 3 to 8) (size 9 to 14) (size 15 to 20)
#    0.857    1.143    2.857    0.429    4.000    2.857 
#    2.571    0.714    0.000    0.000    0.000    3.000 
#    0.000    0.000    0.000    0.000    0.000    0.000 
#
# Total GULP energy -156061.166826 kJ/mol
# GULP energy per Si atom -5573.613101 kJ/mol
# Density = 2.275282 g / cm^3
# Si number density = 22.804727 Si / 1000 Ang^3
#
#
#
# Elastic Constant Matrix: (Units=GPa)
#
#
# Indices 1 2 3 4 5 6 
#
# 1 30.2797 16.1310 -0.7267 0.0000 12.6083 0.0000
# 2 16.1310 87.3406 17.9990 0.0000 14.4747 0.0000
# 3 -0.7267 17.9990 95.4566 0.0000 19.3619 0.0000
# 4 0.0000 0.0000 0.0000 19.9073 0.0000 -1.3682
# 5 12.6083 14.4747 19.3619 0.0000 36.9948 0.0000
# 6 0.0000 0.0000 0.0000 -1.3682 0.0000 22.5368
#
#
#
# Elastic Compliance Matrix: (Units=1/GPa)
#
#
# Indices 1 2 3 4 5 6 
#
# 1 0.042490 -0.006390 0.004429 0.000000 -0.014299 0.000000
# 2 -0.006390 0.013398 -0.002185 0.000000 -0.001921 0.000000
# 3 0.004429 -0.002185 0.012367 0.000000 -0.007127 0.000000
# 4 0.000000 0.000000 0.000000 0.050443 0.000000 0.003062
# 5 -0.014299 -0.001921 -0.007127 0.000000 0.036385 0.000000
# 6 0.000000 0.000000 0.000000 0.003062 0.000000 0.044558
#
#
# Mechanical properties :
#
#
# Convention : Reuss Voigt Hill
#
# Bulk Modulus (GPa) = 16.67741 31.09814 23.88777
# Shear Modulus (GPa) = 21.93715 27.86604 24.90160
#
# Velocity S-wave (km/s) = 3.10491 3.49942 3.30805
# Velocity P-wave (km/s) = 4.49254 5.47670 5.00885
#
# Compressibility (1/GPa) = 0.05996136
#
# Stress axis : x y z
#
# Youngs Moduli (GPa) = 23.53489 74.63608 80.85804
#
# Poissons Ratio (x) = 0.47696 -0.35810
# Poissons Ratio (y) = 0.15040 0.17671
# Poissons Ratio (z) = -0.10423 0.16311
#
# Static dielectric constant tensor:
#      x y z
#    x 2.018400 0.000000 0.026930 
#    y 0.000000 1.875590 0.000000 
#    z 0.026930 0.000000 1.852820 
# 
# From -- ./inp_files/206594.got.cif
#   From: 2010.05.17/outbox.cif.g08.bks.cpg/sg12_104_cif.got.tgz:206594.got - 2010.06.03 13:09:07.
