data_PCOD9187542
_publ_section_title
;
Structure prediction by ZEFSAII (Michael W. Deem and Ramdas Pophale) SiO2 
 PCOD9187542
Probable space group: C 2/M
;
_chemical_formula_sum "Si O2"
_cell_formula_units_Z 56
_cell_length_a 29.881604
_cell_length_b 7.661184
_cell_length_c 13.058273
_cell_angle_alpha 90.000000
_cell_angle_beta 58.879071
_cell_angle_gamma 90.000000
_cell_volume 2559.169528
_symmetry_space_group_name_H-M "C 2/M"
_symmetry_group_IT_number 12
_symmetry_cell_setting 'monoclinic'
loop_
_space_group_symop_operation_xyz
x,y,z
-x,y,-z
-x,-y,-z
x,-y,z
1/2+x,1/2+y,z
1/2-x,1/2+y,-z
1/2-x,1/2-y,-z
1/2+x,1/2-y,z
loop_
_atom_site_type_symbol
_atom_site_label
_atom_site_fract_x
_atom_site_fract_y
_atom_site_fract_z
Si Si1 0.189579 0.789830 0.589369
Si Si2 0.536788 0.713400 0.050189
Si Si3 0.115510 0.786316 0.492713
Si Si4 0.111924 0.211005 0.270751
Si Si5 0.697884 0.798707 0.000900
Si Si6 0.349945 0.297656 0.146289
Si Si7 0.501896 0.286858 0.316339
O O1 0.250000 0.750000 0.500000
O O2 0.153253 0.725999 0.539053
O O3 0.170946 0.722186 0.722521
O O4 0.184762 0.000000 0.595753
O O5 0.537581 0.500000 0.053915
O O6 0.514361 0.769343 0.185746
O O7 0.500000 0.763784 0.000000
O O8 0.595311 0.777715 0.959030
O O9 0.131472 0.731764 0.359304
O O10 0.055579 0.730725 0.582105
O O11 0.116003 0.000000 0.493468
O O12 0.149046 0.266550 0.134182
O O13 0.051939 0.267486 0.324027
O O14 0.111995 0.000000 0.269051
O O15 0.700603 0.000000 0.971618
O O16 0.750000 0.750000 0.000000
O O17 0.689610 0.706702 0.901980
O O18 0.361511 0.500000 0.155149
O O19 0.501091 0.500000 0.320237
#
# Coordination Sequence:
#
# PCOD9187542 Si02
#       7
#     8   8   8   8   8   8   8
#     4  10  22  38  57  83 117 154 198 243 288 343
#     4   9  15  25  49  84 118 149 187 237 286 331
#     4   9  18  32  54  87 121 154 192 236 286 338
#     4  10  19  35  59  89 121 151 189 238 291 347
#     4  12  26  42  62  86 115 151 196 244 298 356
#     4  10  20  38  60  87 119 151 192 243 293 343
#     4   9  15  27  51  85 119 148 186 234 283 337
#
# _framework density 21.882097000000002
#
# number of rings (size 3 to 8) (size 9 to 14) (size 15 to 20)
#    0.000    2.143    1.429    2.571    2.000    5.714 
#    0.000    0.000    0.000    3.000    0.000    0.000 
#    0.000    0.000    0.000    0.000    0.000    0.000 
#
# Total GULP energy -156425.836137 kJ/mol
# GULP energy per Si atom -5586.637005 kJ/mol
# Density = 2.183229 g / cm^3
# Si number density = 21.882097 Si / 1000 Ang^3
#
#
#
# Elastic Constant Matrix: (Units=GPa)
#
#
# Indices 1 2 3 4 5 6 
#
# 1 118.8464 -9.3726 32.1537 0.0000 16.6954 0.0000
# 2 -9.3726 39.2855 -2.4069 0.0000 -1.5160 0.0000
# 3 32.1537 -2.4069 107.3572 0.0000 26.6705 0.0000
# 4 0.0000 0.0000 0.0000 0.5087 0.0000 -5.7836
# 5 16.6954 -1.5160 26.6705 0.0000 37.9644 0.0000
# 6 0.0000 0.0000 0.0000 -5.7836 0.0000 9.0330
#
#
#
# Elastic Compliance Matrix: (Units=1/GPa)
#
#
# Indices 1 2 3 4 5 6 
#
# 1 0.009524 0.002040 -0.002164 0.000000 -0.002587 0.000000
# 2 0.002040 0.025944 -0.000077 0.000000 0.000193 0.000000
# 3 -0.002164 -0.000077 0.011782 0.000000 -0.007328 0.000000
# 4 0.000000 0.000000 0.000000 -0.313053 0.000000 -0.200439
# 5 -0.002587 0.000193 -0.007328 0.000000 0.032634 0.000000
# 6 0.000000 0.000000 0.000000 -0.200439 0.000000 -0.017631
#
#
# Mechanical properties :
#
#
# Convention : Reuss Voigt Hill
#
# Bulk Modulus (GPa) = 21.34636 34.02638 27.68637
# Shear Modulus (GPa) = -21.29643 25.84221 2.27289
#
# Velocity S-wave (km/s) = -3.12306 3.44026 1.02027
# Velocity P-wave (km/s) = 1.79674 5.60037 3.75072
#
# Compressibility (1/GPa) = 0.04684639
#
# Stress axis : x y z
#
# Youngs Moduli (GPa) = 104.99852 38.54447 84.87777
#
# Poissons Ratio (x) = -0.07862 0.18369
# Poissons Ratio (y) = -0.21417 0.00656
# Poissons Ratio (z) = 0.22723 0.00298
#
# Static dielectric constant tensor:
#      x y z
#    x 1.762330 0.000000 0.009890 
#    y 0.000000 1.839640 0.000000 
#    z 0.009890 0.000000 1.773440 
# 
# From -- ./inp_files/180798.got.cif
#   From: 2010.05.17/outbox.cif.g08.bks.cpg/sg12_91_cif.got.tgz:180798.got - 2010.06.03 13:09:07.
