data_PCOD9187230
_publ_section_title
;
Structure prediction by ZEFSAII (Michael W. Deem and Ramdas Pophale) SiO2 
 PCOD9187230
Probable space group: C 2/M
;
_chemical_formula_sum "Si O2"
_cell_formula_units_Z 56
_cell_length_a 29.353588
_cell_length_b 9.916540
_cell_length_c 11.943375
_cell_angle_alpha 90.000000
_cell_angle_beta 126.142199
_cell_angle_gamma 90.000000
_cell_volume 2807.507504
_symmetry_space_group_name_H-M "C 2/M"
_symmetry_group_IT_number 12
_symmetry_cell_setting 'monoclinic'
loop_
_space_group_symop_operation_xyz
x,y,z
-x,y,-z
-x,-y,-z
x,-y,z
1/2+x,1/2+y,z
1/2-x,1/2+y,-z
1/2-x,1/2-y,-z
1/2+x,1/2-y,z
loop_
_atom_site_type_symbol
_atom_site_label
_atom_site_fract_x
_atom_site_fract_y
_atom_site_fract_z
Si Si1 0.539188 0.160287 0.257877
Si Si2 0.163185 0.156695 0.040564
Si Si3 0.922904 0.339292 0.204611
Si Si4 0.290138 0.152271 0.286437
Si Si5 0.081411 0.654736 0.561194
Si Si6 0.395757 0.651416 0.805260
Si Si7 0.789724 0.151796 0.488712
O O1 0.473331 0.180108 0.189199
O O2 0.569148 0.208224 0.418491
O O3 0.560287 0.241763 0.180671
O O4 0.550799 0.000000 0.260172
O O5 0.231017 0.170830 0.137250
O O6 0.137681 0.183356 0.128282
O O7 0.150531 0.000000 0.996262
O O8 0.131074 0.257020 0.912698
O O9 0.912292 0.500000 0.195960
O O10 0.942771 0.291065 0.356990
O O11 0.351193 0.152343 0.317691
O O12 0.294787 0.274422 0.378802
O O13 0.285273 0.000000 0.332134
O O14 0.060987 0.500000 0.522205
O O15 0.419943 0.500000 0.852352
O O16 0.347874 0.646570 0.640248
O O17 0.750000 0.250000 0.500000
O O18 0.767359 0.000000 0.446663
#
# Coordination Sequence:
#
# PCOD9187230 Si02
#       7
#     8   8   8   8   8   8   8
#     4  10  20  36  61  86 109 142 187 237 284 328
#     4  10  22  39  55  78 115 155 185 219 277 341
#     4  10  22  39  57  82 112 146 193 236 272 326
#     4  10  19  35  58  84 112 146 186 226 277 338
#     4   9  18  35  61  86 110 142 182 235 288 328
#     4  10  21  36  55  82 116 147 182 227 278 337
#     4  11  20  32  53  83 116 148 181 228 282 333
#
# _framework density 19.946517
#
# number of rings (size 3 to 8) (size 9 to 14) (size 15 to 20)
#    0.000    2.000    2.857    0.857    0.000    5.143 
#    0.000    4.286    0.000    1.714    0.000    0.000 
#    0.000    0.000    0.000    0.000    0.000    0.000 
#
# Total GULP energy -156044.317500 kJ/mol
# GULP energy per Si atom -5573.011339 kJ/mol
# Density = 1.990112 g / cm^3
# Si number density = 19.946517 Si / 1000 Ang^3
#
#
#
# Elastic Constant Matrix: (Units=GPa)
#
#
# Indices 1 2 3 4 5 6 
#
# 1 49.0394 16.4979 -9.2584 0.0000 8.9635 0.0000
# 2 16.4979 66.0179 18.1177 0.0000 6.1956 0.0000
# 3 -9.2584 18.1177 54.5611 0.0000 14.3723 0.0000
# 4 0.0000 0.0000 0.0000 28.5853 0.0000 1.1602
# 5 8.9635 6.1956 14.3723 0.0000 19.4707 0.0000
# 6 0.0000 0.0000 0.0000 1.1602 0.0000 18.9394
#
#
#
# Elastic Compliance Matrix: (Units=1/GPa)
#
#
# Indices 1 2 3 4 5 6 
#
# 1 0.029905 -0.009259 0.013654 0.000000 -0.020900 0.000000
# 2 -0.009259 0.019569 -0.009375 0.000000 0.004956 0.000000
# 3 0.013654 -0.009375 0.030573 0.000000 -0.025870 0.000000
# 4 0.000000 0.000000 0.000000 0.035070 0.000000 -0.002148
# 5 -0.020900 0.004956 -0.025870 0.000000 0.078500 0.000000
# 6 0.000000 0.000000 0.000000 -0.002148 0.000000 0.052932
#
#
# Mechanical properties :
#
#
# Convention : Reuss Voigt Hill
#
# Bulk Modulus (GPa) = 14.26784 24.48144 19.37464
# Shear Modulus (GPa) = 17.86546 23.01647 20.44096
#
# Velocity S-wave (km/s) = 2.99602 3.40061 3.20470
# Velocity P-wave (km/s) = 4.37456 5.26489 4.84024
#
# Compressibility (1/GPa) = 0.07008769
#
# Stress axis : x y z
#
# Youngs Moduli (GPa) = 33.43954 51.10137 32.70888
#
# Poissons Ratio (x) = 0.47315 -0.44662
# Poissons Ratio (y) = 0.30962 0.30663
# Poissons Ratio (z) = -0.45660 0.47906
#
# Static dielectric constant tensor:
#      x y z
#    x 1.804170 0.000000 -0.030010 
#    y 0.000000 1.667830 0.000000 
#    z -0.030010 0.000000 1.741680 
# 
# From -- ./inp_files/181067.got.cif
#   From: 2010.05.17/outbox.cif.g08.bks.cpg/sg12_91_cif.got.tgz:181067.got - 2010.06.03 13:09:07.
