data_PCOD9187112
_publ_section_title
;
Structure prediction by ZEFSAII (Michael W. Deem and Ramdas Pophale) SiO2 
 PCOD9187112
Probable space group: C 2/M
;
_chemical_formula_sum "Si O2"
_cell_formula_units_Z 40
_cell_length_a 11.347076
_cell_length_b 13.837146
_cell_length_c 10.154560
_cell_angle_alpha 90.000000
_cell_angle_beta 93.633358
_cell_angle_gamma 90.000000
_cell_volume 1591.174417
_symmetry_space_group_name_H-M "C 2/M"
_symmetry_group_IT_number 12
_symmetry_cell_setting 'monoclinic'
loop_
_space_group_symop_operation_xyz
x,y,z
-x,y,-z
-x,-y,-z
x,-y,z
1/2+x,1/2+y,z
1/2-x,1/2+y,-z
1/2-x,1/2-y,-z
1/2+x,1/2-y,z
loop_
_atom_site_type_symbol
_atom_site_label
_atom_site_fract_x
_atom_site_fract_y
_atom_site_fract_z
Si Si1 0.124674 0.149700 0.468557
Si Si2 0.627805 0.866623 0.561115
Si Si3 0.441528 0.896143 0.158135
Si Si4 0.636946 0.266593 0.175744
Si Si5 0.775980 0.888980 0.053221
O O1 0.252334 0.102383 0.502807
O O2 0.126032 0.251261 0.545534
O O3 0.128965 0.177679 0.313586
O O4 0.000000 0.103790 0.500000
O O5 0.500000 0.898811 0.500000
O O6 0.631882 0.894289 0.712810
O O7 0.525418 0.804688 0.166714
O O8 0.505925 0.000000 0.161103
O O9 0.348920 0.893470 0.033871
O O10 0.748062 0.191581 0.163099
O O11 0.641340 0.339736 0.052287
O O12 0.808388 0.000000 0.091567
#
# Coordination Sequence:
#
# PCOD9187112 Si02
#       5
#     8   8   8   8   8
#     4  10  19  35  60  95 126 170 215 263 323 394
#     4  10  19  35  57  91 130 170 212 262 317 386
#     4  11  21  37  61  95 128 164 217 271 320 383
#     4  11  20  38  64  91 123 171 208 264 332 380
#     4  10  23  40  63  93 127 164 217 269 323 393
#
# _framework density 25.138666000000001
#
# number of rings (size 3 to 8) (size 9 to 14) (size 15 to 20)
#    0.000    1.600    6.000    1.200    0.000    2.000 
#    0.000    0.000    0.000   13.200    0.000    0.000 
#    0.000    0.000    0.000    0.000    0.000    0.000 
#
# Total GULP energy -111769.483724 kJ/mol
# GULP energy per Si atom -5588.474186 kJ/mol
# Density = 2.508145 g / cm^3
# Si number density = 25.138666 Si / 1000 Ang^3
#
#
#
# Elastic Constant Matrix: (Units=GPa)
#
#
# Indices 1 2 3 4 5 6 
#
# 1 180.6570 49.6631 37.1298 0.0000 -23.9447 0.0000
# 2 49.6631 154.5886 15.3700 0.0000 -19.2121 0.0000
# 3 37.1298 15.3700 111.6181 0.0000 -31.8358 0.0000
# 4 0.0000 0.0000 0.0000 -31.0756 0.0000 1.6386
# 5 -23.9447 -19.2121 -31.8358 0.0000 40.7995 0.0000
# 6 0.0000 0.0000 0.0000 1.6386 0.0000 -10.7106
#
#
#
# Elastic Compliance Matrix: (Units=1/GPa)
#
#
# Indices 1 2 3 4 5 6 
#
# 1 0.006553 -0.001725 -0.001385 0.000000 0.001953 0.000000
# 2 -0.001725 0.007325 0.000335 0.000000 0.002698 0.000000
# 3 -0.001385 0.000335 0.011817 0.000000 0.008565 0.000000
# 4 0.000000 0.000000 0.000000 -0.032441 0.000000 -0.004963
# 5 0.001953 0.002698 0.008565 0.000000 0.033610 0.000000
# 6 0.000000 0.000000 0.000000 -0.004963 0.000000 -0.094125
#
#
# Mechanical properties :
#
#
# Convention : Reuss Voigt Hill
#
# Bulk Modulus (GPa) = 49.64330 72.35437 60.99883
# Shear Modulus (GPa) = -90.91661 22.78274 -34.06694
#
# Velocity S-wave (km/s) = -6.02035 3.01372 -3.68524
# Velocity P-wave (km/s) = 5.34186 6.39958 2.49190
#
# Compressibility (1/GPa) = 0.02014371
#
# Stress axis : x y z
#
# Youngs Moduli (GPa) = 152.60054 136.51990 84.62479
#
# Poissons Ratio (x) = 0.23547 0.11724
# Poissons Ratio (y) = 0.26321 -0.02832
# Poissons Ratio (z) = 0.21142 -0.04569
#
# Static dielectric constant tensor:
#      x y z
#    x 2.079720 0.000000 0.005980 
#    y 0.000000 1.987260 0.000000 
#    z 0.005980 0.000000 1.996940 
# 
# From -- ./inp_files/129231.got.cif
#   From: 2010.05.17/outbox.cif.g08.bks.cpg/sg12_65_cif.got.tgz:129231.got - 2010.06.03 13:09:07.
