data_PCOD9187087
_publ_section_title
;
Structure prediction by ZEFSAII (Michael W. Deem and Ramdas Pophale) SiO2 
 PCOD9187087
Probable space group: C 2/M
;
_chemical_formula_sum "Si O2"
_cell_formula_units_Z 64
_cell_length_a 27.168040
_cell_length_b 13.281536
_cell_length_c 14.678613
_cell_angle_alpha 90.000000
_cell_angle_beta 37.787635
_cell_angle_gamma 90.000000
_cell_volume 3245.378802
_symmetry_space_group_name_H-M "C 2/M"
_symmetry_group_IT_number 12
_symmetry_cell_setting 'monoclinic'
loop_
_space_group_symop_operation_xyz
x,y,z
-x,y,-z
-x,-y,-z
x,-y,z
1/2+x,1/2+y,z
1/2-x,1/2+y,-z
1/2-x,1/2-y,-z
1/2+x,1/2-y,z
loop_
_atom_site_type_symbol
_atom_site_label
_atom_site_fract_x
_atom_site_fract_y
_atom_site_fract_z
Si Si1 0.743314 0.789358 0.906556
Si Si2 0.911376 0.238397 0.626291
Si Si3 0.922562 0.688434 0.411528
Si Si4 0.143929 0.179745 0.732462
Si Si5 0.091821 0.613302 0.195680
Si Si6 0.312356 0.884762 0.412919
Si Si7 0.161810 0.116612 0.915004
Si Si8 0.977322 0.884501 0.233445
O O1 0.831110 0.828522 0.749374
O O2 0.720934 0.694154 0.876979
O O3 0.750000 0.750000 0.000000
O O4 0.667148 0.862792 0.020552
O O5 0.905805 0.305398 0.543120
O O6 0.908535 0.310768 0.718457
O O7 0.000000 0.189131 0.500000
O O8 0.854185 0.640504 0.448928
O O9 0.937930 0.803365 0.357777
O O10 0.006348 0.630952 0.272626
O O11 0.217592 0.133756 0.565913
O O12 0.153335 0.300131 0.705664
O O13 0.153290 0.144352 0.821587
O O14 0.062016 0.141165 0.806844
O O15 0.097630 0.500000 0.220965
O O16 0.327644 0.000000 0.365001
O O17 0.186329 0.000000 0.888628
O O18 0.073262 0.128377 0.089009
O O19 0.959814 0.000000 0.282471
#
# Coordination Sequence:
#
# PCOD9187087 Si02
#       8
#     8   8   8   8   8   8   8   8
#     4  10  21  38  57  84 118 147 187 240 296 350
#     4   9  20  35  58  82 112 148 189 243 291 341
#     4  10  19  35  57  85 116 151 193 245 288 348
#     4  10  21  35  55  85 120 151 196 245 286 342
#     4  10  20  36  57  82 114 153 193 237 294 352
#     4  10  20  34  54  82 119 158 189 232 292 349
#     4  11  21  36  61  86 111 149 197 245 291 342
#     4  10  20  35  58  84 115 153 193 241 296 346
#
# _framework density 19.720348000000001
#
# number of rings (size 3 to 8) (size 9 to 14) (size 15 to 20)
#    0.000    2.000    1.250    2.625    0.000    5.750 
#    0.000    1.250    0.000    6.000    0.000    0.000 
#    0.000    0.000    0.000    0.000    0.000    0.000 
#
# Total GULP energy -178552.109139 kJ/mol
# GULP energy per Si atom -5579.753411 kJ/mol
# Density = 1.967546 g / cm^3
# Si number density = 19.720348 Si / 1000 Ang^3
#
#
#
# Elastic Constant Matrix: (Units=GPa)
#
#
# Indices 1 2 3 4 5 6 
#
# 1 57.7997 -5.4949 13.1848 0.0000 -7.2895 0.0000
# 2 -5.4949 71.3108 8.7909 0.0000 -0.0420 0.0000
# 3 13.1848 8.7909 73.9113 0.0000 -26.6746 0.0000
# 4 0.0000 0.0000 0.0000 8.7683 0.0000 1.2161
# 5 -7.2895 -0.0420 -26.6746 0.0000 23.6195 0.0000
# 6 0.0000 0.0000 0.0000 1.2161 0.0000 7.8154
#
#
#
# Elastic Compliance Matrix: (Units=1/GPa)
#
#
# Indices 1 2 3 4 5 6 
#
# 1 0.018388 0.001717 -0.002423 0.000000 0.002942 0.000000
# 2 0.001717 0.014535 -0.003097 0.000000 -0.002941 0.000000
# 3 -0.002423 -0.003097 0.023731 0.000000 0.026047 0.000000
# 4 0.000000 0.000000 0.000000 0.116562 0.000000 -0.018137
# 5 0.002942 -0.002941 0.026047 0.000000 0.072656 0.000000
# 6 0.000000 0.000000 0.000000 -0.018137 0.000000 0.130774
#
#
# Mechanical properties :
#
#
# Convention : Reuss Voigt Hill
#
# Bulk Modulus (GPa) = 20.38743 26.22038 23.30390
# Shear Modulus (GPa) = 12.48126 20.47672 16.47899
#
# Velocity S-wave (km/s) = 2.51851 3.22585 2.89387
# Velocity P-wave (km/s) = 4.33796 5.21534 4.79675
#
# Compressibility (1/GPa) = 0.04904984
#
# Stress axis : x y z
#
# Youngs Moduli (GPa) = 54.38311 68.79723 42.13986
#
# Poissons Ratio (x) = -0.11814 0.10209
# Poissons Ratio (y) = -0.09339 0.13050
# Poissons Ratio (z) = 0.13175 0.21305
#
# Static dielectric constant tensor:
#      x y z
#    x 1.704340 0.000000 -0.031930 
#    y 0.000000 1.673270 0.000000 
#    z -0.031930 0.000000 1.739380 
# 
# From -- ./inp_files/245925.got.cif
#   From: 2010.05.17/outbox.cif.g08.bks.cpg/sg12_123_cif.got.tgz:245925.got - 2010.06.03 13:09:07.
