data_PCOD9187228
_publ_section_title
;
Structure prediction by ZEFSAII (Michael W. Deem and Ramdas Pophale) SiO2 
 PCOD9187228
Probable space group: C 2/M
;
_chemical_formula_sum "Si O2"
_cell_formula_units_Z 56
_cell_length_a 14.423903
_cell_length_b 13.414448
_cell_length_c 17.331730
_cell_angle_alpha 90.000000
_cell_angle_beta 63.155601
_cell_angle_gamma 90.000000
_cell_volume 2992.108481
_symmetry_space_group_name_H-M "C 2/M"
_symmetry_group_IT_number 12
_symmetry_cell_setting 'monoclinic'
loop_
_space_group_symop_operation_xyz
x,y,z
-x,y,-z
-x,-y,-z
x,-y,z
1/2+x,1/2+y,z
1/2-x,1/2+y,-z
1/2-x,1/2-y,-z
1/2+x,1/2-y,z
loop_
_atom_site_type_symbol
_atom_site_label
_atom_site_fract_x
_atom_site_fract_y
_atom_site_fract_z
Si Si1 0.472460 0.386650 0.428176
Si Si2 0.325209 0.617755 0.355151
Si Si3 0.407375 0.885612 0.595944
Si Si4 0.592391 0.757621 0.113262
Si Si5 0.865958 0.793955 0.728095
Si Si6 0.796933 0.881599 0.051546
Si Si7 0.360409 0.268268 0.183508
O O1 0.500000 0.340095 0.500000
O O2 0.439005 0.500000 0.456689
O O3 0.384308 0.339567 0.407410
O O4 0.575642 0.381400 0.338067
O O5 0.350328 0.500000 0.340361
O O6 0.201746 0.627647 0.407321
O O7 0.359004 0.669041 0.263158
O O8 0.500000 0.876348 0.500000
O O9 0.401618 0.805606 0.667306
O O10 0.409201 0.000000 0.625789
O O11 0.597013 0.715589 0.198355
O O12 0.677763 0.846059 0.081790
O O13 0.473675 0.781305 0.135254
O O14 0.634715 0.673993 0.038701
O O15 0.741429 0.801337 0.773511
O O16 0.835448 0.838924 0.119637
O O17 0.806355 0.000000 0.045315
#
# Coordination Sequence:
#
# PCOD9187228 Si02
#       7
#     8   8   8   8   8   8   8
#     4  10  20  35  52  73 107 147 190 228 263 319
#     4   9  17  31  54  79 103 139 182 228 273 315
#     4   9  18  34  55  82 111 139 181 235 282 327
#     4  10  21  37  56  85 119 143 180 234 289 337
#     4  10  20  35  54  79 111 147 182 223 279 331
#     4  10  22  38  61  88 113 146 189 235 286 341
#     4  10  19  35  58  84 112 141 183 233 281 338
#
# _framework density 18.715899
#
# number of rings (size 3 to 8) (size 9 to 14) (size 15 to 20)
#    0.000    2.286    1.429    1.286    0.000    5.714 
#    2.571    2.857    0.000   11.143    0.000    0.000 
#    0.000    0.000    0.000    0.000    0.000    0.000 
#
# Total GULP energy -156058.784316 kJ/mol
# GULP energy per Si atom -5573.528011 kJ/mol
# Density = 1.867330 g / cm^3
# Si number density = 18.715899 Si / 1000 Ang^3
#
#
#
# Elastic Constant Matrix: (Units=GPa)
#
#
# Indices 1 2 3 4 5 6 
#
# 1 128.1727 17.2800 48.2326 0.0000 -3.7491 0.0000
# 2 17.2800 28.3705 8.9223 0.0000 9.6865 0.0000
# 3 48.2326 8.9223 100.3151 0.0000 7.7816 0.0000
# 4 0.0000 0.0000 0.0000 9.5528 0.0000 -0.9059
# 5 -3.7491 9.6865 7.7816 0.0000 39.7078 0.0000
# 6 0.0000 0.0000 0.0000 -0.9059 0.0000 12.3482
#
#
#
# Elastic Compliance Matrix: (Units=1/GPa)
#
#
# Indices 1 2 3 4 5 6 
#
# 1 0.010520 -0.006068 -0.004783 0.000000 0.003411 0.000000
# 2 -0.006068 0.042703 -0.000029 0.000000 -0.010984 0.000000
# 3 -0.004783 -0.000029 0.012495 0.000000 -0.002893 0.000000
# 4 0.000000 0.000000 0.000000 0.105414 0.000000 0.007734
# 5 0.003411 -0.010984 -0.002893 0.000000 0.028753 0.000000
# 6 0.000000 0.000000 0.000000 0.007734 0.000000 0.081551
#
#
# Mechanical properties :
#
#
# Convention : Reuss Voigt Hill
#
# Bulk Modulus (GPa) = 22.74821 45.08090 33.91455
# Shear Modulus (GPa) = 15.73085 24.48334 20.10709
#
# Velocity S-wave (km/s) = 2.90230 3.62077 3.28126
# Velocity P-wave (km/s) = 4.83859 6.45129 5.70224
#
# Compressibility (1/GPa) = 0.04395951
#
# Stress axis : x y z
#
# Youngs Moduli (GPa) = 95.06079 23.41757 80.03064
#
# Poissons Ratio (x) = 0.14209 0.38277
# Poissons Ratio (y) = 0.57679 0.00230
# Poissons Ratio (z) = 0.45466 0.00067
#
# Static dielectric constant tensor:
#      x y z
#    x 1.679450 0.000000 -0.010860 
#    y 0.000000 1.653040 0.000000 
#    z -0.010860 0.000000 1.644870 
# 
# From -- ./inp_files/262860.got.cif
#   From: 2010.05.17/outbox.cif.g08.bks.cpg/sg12_132_cif.got.tgz:262860.got - 2010.06.03 13:09:07.
