data_PCOD9187707
_publ_section_title
;
Structure prediction by ZEFSAII (Michael W. Deem and Ramdas Pophale) SiO2 
 PCOD9187707
Probable space group: C 2/M
;
_chemical_formula_sum "Si O2"
_cell_formula_units_Z 56
_cell_length_a 14.010086
_cell_length_b 21.281983
_cell_length_c 7.292642
_cell_angle_alpha 90.000000
_cell_angle_beta 82.159463
_cell_angle_gamma 90.000000
_cell_volume 2154.064587
_symmetry_space_group_name_H-M "C 2/M"
_symmetry_group_IT_number 12
_symmetry_cell_setting 'monoclinic'
loop_
_space_group_symop_operation_xyz
x,y,z
-x,y,-z
-x,-y,-z
x,-y,z
1/2+x,1/2+y,z
1/2-x,1/2+y,-z
1/2-x,1/2-y,-z
1/2+x,1/2-y,z
loop_
_atom_site_type_symbol
_atom_site_label
_atom_site_fract_x
_atom_site_fract_y
_atom_site_fract_z
Si Si1 0.650204 0.245113 0.291547
Si Si2 0.864141 0.754982 0.264180
Si Si3 0.871411 0.391051 0.189578
Si Si4 0.272857 0.425974 0.269698
Si Si5 0.165348 0.888680 0.156713
Si Si6 0.032981 0.129928 0.691240
Si Si7 0.426870 0.115659 0.763241
O O1 0.759052 0.220759 0.230685
O O2 0.638541 0.249847 0.513751
O O3 0.651278 0.314117 0.202083
O O4 0.577097 0.191997 0.241470
O O5 0.871766 0.685023 0.188310
O O6 0.942218 0.807659 0.199741
O O7 0.759953 0.410041 0.249323
O O8 0.963573 0.407416 0.291885
O O9 0.898642 0.408751 0.973685
O O10 0.268886 0.500000 0.278894
O O11 0.363698 0.402364 0.361965
O O12 0.164486 0.402345 0.337391
O O13 0.304156 0.405364 0.056222
O O14 0.055603 0.911862 0.214135
O O15 0.000000 0.150711 0.500000
#
# Coordination Sequence:
#
# PCOD9187707 Si02
#       7
#     8   8   8   8   8   8   8
#     4  10  19  35  60  90 130 162 194 242 302 369
#     4  10  20  34  55  93 132 162 191 234 303 379
#     4   9  21  34  57  91 126 158 192 237 302 363
#     4  11  26  45  64  84 114 164 217 265 305 348
#     4  10  22  38  60  90 126 158 202 244 304 372
#     4  12  23  39  61  91 126 160 205 247 304 368
#     4  10  20  39  60  87 121 159 205 250 300 365
#
# _framework density 25.997364000000001
#
# number of rings (size 3 to 8) (size 9 to 14) (size 15 to 20)
#    0.000    1.714    2.857    1.286    2.000    3.143 
#    0.000    5.714    0.000    0.000    0.000    5.000 
#    0.000    0.000    0.000    0.000    0.000    0.000 
#
# Total GULP energy -156484.704976 kJ/mol
# GULP energy per Si atom -5588.739463 kJ/mol
# Density = 2.593819 g / cm^3
# Si number density = 25.997364 Si / 1000 Ang^3
#
#
#
# Elastic Constant Matrix: (Units=GPa)
#
#
# Indices 1 2 3 4 5 6 
#
# 1 259.7884 10.4041 28.1031 0.0000 4.9357 0.0000
# 2 10.4041 56.1209 -3.6556 0.0000 2.9748 0.0000
# 3 28.1031 -3.6556 50.7493 0.0000 -6.6740 0.0000
# 4 0.0000 0.0000 0.0000 -21.3767 0.0000 9.3627
# 5 4.9357 2.9748 -6.6740 0.0000 41.6960 0.0000
# 6 0.0000 0.0000 0.0000 9.3627 0.0000 1.3065
#
#
#
# Elastic Compliance Matrix: (Units=1/GPa)
#
#
# Indices 1 2 3 4 5 6 
#
# 1 0.004169 -0.000891 -0.002482 0.000000 -0.000827 0.000000
# 2 -0.000891 0.018142 0.001679 0.000000 -0.000920 0.000000
# 3 -0.002482 0.001679 0.021679 0.000000 0.003644 0.000000
# 4 0.000000 0.000000 0.000000 -0.011303 0.000000 0.080999
# 5 -0.000827 -0.000920 0.003644 0.000000 0.024730 0.000000
# 6 0.000000 0.000000 0.000000 0.080999 0.000000 0.184935
#
#
# Mechanical properties :
#
#
# Convention : Reuss Voigt Hill
#
# Bulk Modulus (GPa) = 24.62838 48.48464 36.55651
# Shear Modulus (GPa) = 19.28466 26.44563 22.86515
#
# Velocity S-wave (km/s) = 2.72654 3.19288 2.96888
# Velocity P-wave (km/s) = 4.40523 5.68181 5.08375
#
# Compressibility (1/GPa) = 0.04060357
#
# Stress axis : x y z
#
# Youngs Moduli (GPa) = 239.85813 55.12087 46.12733
#
# Poissons Ratio (x) = 0.04910 0.11447
# Poissons Ratio (y) = 0.21364 -0.07745
# Poissons Ratio (z) = 0.59524 -0.09255
#
# Static dielectric constant tensor:
#      x y z
#    x 2.209570 0.000000 -0.009250 
#    y 0.000000 1.992110 0.000000 
#    z -0.009250 0.000000 2.027560 
# 
# From -- ./inp_files/64096.got.cif
#   From: 2010.05.17/outbox.cif.g08.bks.cpg/sg12_33_cif.got.tgz:64096.got - 2010.06.03 13:09:07.
