data_PCOD9187587
_publ_section_title
;
Structure prediction by ZEFSAII (Michael W. Deem and Ramdas Pophale) SiO2 
 PCOD9187587
Probable space group: C 2/M
;
_chemical_formula_sum "Si O2"
_cell_formula_units_Z 58
_cell_length_a 16.631962
_cell_length_b 12.099838
_cell_length_c 26.672324
_cell_angle_alpha 90.000000
_cell_angle_beta 32.121949
_cell_angle_gamma 90.000000
_cell_volume 2854.101354
_symmetry_space_group_name_H-M "C 2/M"
_symmetry_group_IT_number 12
_symmetry_cell_setting 'monoclinic'
loop_
_space_group_symop_operation_xyz
x,y,z
-x,y,-z
-x,-y,-z
x,-y,z
1/2+x,1/2+y,z
1/2-x,1/2+y,-z
1/2-x,1/2-y,-z
1/2+x,1/2-y,z
loop_
_atom_site_type_symbol
_atom_site_label
_atom_site_fract_x
_atom_site_fract_y
_atom_site_fract_z
Si Si1 0.687112 0.216692 0.102953
Si Si2 0.935284 0.840514 0.448654
Si Si3 0.751232 0.729563 0.252519
Si Si4 0.428930 0.871716 0.940517
Si Si5 0.500000 0.500000 0.500000
Si Si6 0.408490 0.377135 0.250786
Si Si7 0.932405 0.629539 0.730844
Si Si8 0.810889 0.816243 0.409797
O O1 0.651592 0.147572 0.071307
O O2 0.571392 0.319859 0.163854
O O3 0.643447 0.146280 0.174517
O O4 0.849195 0.276923 0.016242
O O5 0.856906 0.873476 0.437498
O O6 0.863232 0.719939 0.495705
O O7 0.112901 0.845937 0.343395
O O8 0.915301 0.906357 0.509957
O O9 0.804401 0.800783 0.271670
O O10 0.681017 0.811594 0.248300
O O11 0.894800 0.659745 0.158133
O O12 0.410786 0.000000 0.965501
O O13 0.415556 0.500000 0.226436
O O14 0.350572 0.377927 0.338244
O O15 0.957939 0.500000 0.707415
O O16 0.085646 0.703651 0.647986
#
# Coordination Sequence:
#
# PCOD9187587 Si02
#       8
#     8   8   8   8   2   8   8   8
#     4   9  20  37  57  87 114 144 200 245 286 351
#     4  10  22  40  54  85 122 152 192 254 289 358
#     4  10  22  38  55  85 122 146 195 245 297 344
#     4  10  20  37  60  83 115 155 190 241 297 358
#     4  12  24  32  64  88 118 156 200 238 324 342
#     4  10  19  35  60  83 111 154 192 239 288 355
#     4  10  20  38  61  84 113 154 194 247 294 355
#     4   9  21  40  59  81 120 154 202 241 291 355
#
# _framework density 20.321632000000001
#
# number of rings (size 3 to 8) (size 9 to 14) (size 15 to 20)
#    0.000    2.207    0.000    2.069    2.897    0.552 
#    0.000    6.897    0.000    0.000    0.000    0.000 
#    0.000    0.000    0.000    0.000    0.000    0.000 
#
# Total GULP energy -161475.351675 kJ/mol
# GULP energy per Si atom -5568.115575 kJ/mol
# Density = 2.027538 g / cm^3
# Si number density = 20.321632 Si / 1000 Ang^3
#
#
#
# Elastic Constant Matrix: (Units=GPa)
#
#
# Indices 1 2 3 4 5 6 
#
# 1 54.8326 -2.1471 -1.4779 0.0000 1.3964 0.0000
# 2 -2.1471 75.5570 -0.6651 -0.0002 -7.8733 -0.0001
# 3 -1.4779 -0.6651 68.9159 -0.0006 -16.1311 0.0001
# 4 0.0000 -0.0002 -0.0006 10.2257 0.0000 24.2769
# 5 1.3964 -7.8733 -16.1311 0.0000 34.6647 -0.0001
# 6 0.0000 -0.0001 0.0001 24.2769 -0.0001 64.5843
#
#
#
# Elastic Compliance Matrix: (Units=1/GPa)
#
#
# Indices 1 2 3 4 5 6 
#
# 1 0.018276 0.000470 0.000280 0.000000 -0.000499 0.000000
# 2 0.000470 0.013624 0.000967 0.000002 0.003525 -0.000001
# 3 0.000280 0.000967 0.016356 0.000009 0.007820 -0.000004
# 4 0.000000 0.000002 0.000009 0.908984 0.000005 -0.341682
# 5 -0.000499 0.003525 0.007820 0.000005 0.033307 -0.000002
# 6 0.000000 -0.000001 -0.000004 -0.341682 -0.000002 0.143920
#
#
# Mechanical properties :
#
#
# Convention : Reuss Voigt Hill
#
# Bulk Modulus (GPa) = 19.34669 21.19172 20.26920
# Shear Modulus (GPa) = 4.35439 35.46797 19.91118
#
# Velocity S-wave (km/s) = 1.46540 4.18225 3.13358
# Velocity P-wave (km/s) = 3.52195 5.81140 4.80502
#
# Compressibility (1/GPa) = 0.05168844
#
# Stress axis : x y z
#
# Youngs Moduli (GPa) = 54.71664 73.39850 61.13930
#
# Poissons Ratio (x) = -0.03448 -0.01709
# Poissons Ratio (y) = -0.02570 -0.05911
# Poissons Ratio (z) = -0.01530 -0.07096
#
# Static dielectric constant tensor:
#      x y z
#    x 1.715480 0.000000 0.013910 
#    y 0.000000 1.659310 0.000000 
#    z 0.013910 0.000000 1.763370 
# 
# From -- ./inp_files/378907.got.cif
#   From: 2010.05.17/outbox.cif.g08.bks.cpg/sg12_190_cif.got.tgz:378907.got - 2010.06.03 13:09:07.
