data_PCOD9187295
_publ_section_title
;
Structure prediction by ZEFSAII (Michael W. Deem and Ramdas Pophale) SiO2 
 PCOD9187295
Probable space group: C 2/M
;
_chemical_formula_sum "Si O2"
_cell_formula_units_Z 56
_cell_length_a 15.329293
_cell_length_b 22.274614
_cell_length_c 17.005488
_cell_angle_alpha 90.000000
_cell_angle_beta 152.648399
_cell_angle_gamma 90.000000
_cell_volume 2667.837355
_symmetry_space_group_name_H-M "C 2/M"
_symmetry_group_IT_number 12
_symmetry_cell_setting 'monoclinic'
loop_
_space_group_symop_operation_xyz
x,y,z
-x,y,-z
-x,-y,-z
x,-y,z
1/2+x,1/2+y,z
1/2-x,1/2+y,-z
1/2-x,1/2-y,-z
1/2+x,1/2-y,z
loop_
_atom_site_type_symbol
_atom_site_label
_atom_site_fract_x
_atom_site_fract_y
_atom_site_fract_z
Si Si1 0.445253 0.800834 0.703001
Si Si2 0.784822 0.064379 0.856875
Si Si3 0.888978 0.166972 0.670179
Si Si4 0.407899 0.064252 0.842249
Si Si5 0.759557 0.392485 0.006153
Si Si6 0.284767 0.818580 0.298311
Si Si7 0.222944 0.808971 0.687975
O O1 0.314125 0.838808 0.537171
O O2 0.461863 0.731043 0.694193
O O3 0.644000 0.830970 0.883966
O O4 0.321960 0.797981 0.683571
O O5 0.778810 0.070327 0.945870
O O6 0.715991 0.126243 0.762302
O O7 0.691724 0.000000 0.759610
O O8 0.000000 0.061435 0.000000
O O9 0.843244 0.167908 0.727087
O O10 0.064566 0.121147 0.803503
O O11 0.575586 0.078350 0.914429
O O12 0.285123 0.123920 0.756795
O O13 0.314825 0.000000 0.745631
O O14 0.500000 0.056988 0.000000
O O15 0.500000 0.813386 0.500000
O O16 0.229400 0.751460 0.223989
O O17 0.000000 0.810664 0.500000
#
# Coordination Sequence:
#
# PCOD9187295 Si02
#       7
#     8   8   8   8   8   8   8
#     4   9  20  35  55  89 124 154 209 255 309 370
#     4  11  23  39  59  85 124 169 210 255 307 378
#     4  10  19  35  58  86 125 166 196 259 311 361
#     4  10  23  42  62  89 121 157 208 265 316 382
#     4  11  21  39  63  87 119 166 208 255 315 372
#     4  10  20  38  59  91 126 162 210 259 309 373
#     4   9  20  37  61  90 122 159 200 261 324 376
#
# _framework density 20.990784999999999
#
# number of rings (size 3 to 8) (size 9 to 14) (size 15 to 20)
#    0.000    2.000    1.429    1.714    2.000    2.286 
#    2.571    0.000    0.000    2.571    0.000    0.000 
#    0.000    0.000    0.000    0.000    0.000    0.000 
#
# Total GULP energy -155954.817202 kJ/mol
# GULP energy per Si atom -5569.814900 kJ/mol
# Density = 2.094301 g / cm^3
# Si number density = 20.990785 Si / 1000 Ang^3
#
#
#
# Elastic Constant Matrix: (Units=GPa)
#
#
# Indices 1 2 3 4 5 6 
#
# 1 55.3850 18.4406 3.6015 -0.0434 1.5916 -0.0921
# 2 18.4406 172.8800 37.9896 -0.0117 -7.7667 -0.0248
# 3 3.6015 37.9896 54.1870 -0.1158 1.0152 -0.2461
# 4 -0.0434 -0.0117 -0.1158 1468.3509 -0.0445 3078.3406
# 5 1.5916 -7.7667 1.0152 -0.0445 28.0928 -0.0944
# 6 -0.0921 -0.0248 -0.2461 3078.3406 -0.0944 6597.1509
#
#
#
# Elastic Compliance Matrix: (Units=1/GPa)
#
#
# Indices 1 2 3 4 5 6 
#
# 1 0.018798 -0.002142 0.000284 0.000000 -0.001668 0.000000
# 2 -0.002142 0.007204 -0.004951 0.000000 0.002292 0.000000
# 3 0.000284 -0.004951 0.021948 0.000001 -0.002178 0.000000
# 4 0.000000 0.000000 0.000001 0.031303 0.000000 -0.014606
# 5 -0.001668 0.002292 -0.002178 0.000000 0.036403 0.000000
# 6 0.000000 0.000000 0.000000 -0.014606 0.000000 0.006967
#
#
# Mechanical properties :
#
#
# Convention : Reuss Voigt Hill
#
# Bulk Modulus (GPa) = 29.12863 44.72393 36.92628
# Shear Modulus (GPa) = 33.85570 1633.54695 833.70133
#
# Velocity S-wave (km/s) = 4.02043 27.92688 19.95087
# Velocity P-wave (km/s) = 5.95473 32.57658 23.41679
#
# Compressibility (1/GPa) = 0.03433049
#
# Stress axis : x y z
#
# Youngs Moduli (GPa) = 53.19649 138.81530 45.56300
#
# Poissons Ratio (x) = 0.29740 -0.01293
# Poissons Ratio (y) = 0.11397 0.22558
# Poissons Ratio (z) = -0.01510 0.68728
#
# Static dielectric constant tensor:
#      x y z
#    x 1.752980 0.000000 -0.009530 
#    y 0.000000 1.964260 0.000000 
#    z -0.009530 0.000000 1.738500 
# 
# From -- ./inp_files/272430.got.cif
#   From: 2010.05.17/outbox.cif.g08.bks.cpg/sg12_137_cif.got.tgz:272430.got - 2010.06.03 13:09:07.
