data_PCOD9187486
_publ_section_title
;
Structure prediction by ZEFSAII (Michael W. Deem and Ramdas Pophale) SiO2 
 PCOD9187486
Probable space group: C 2/M
;
_chemical_formula_sum "Si O2"
_cell_formula_units_Z 58
_cell_length_a 9.141937
_cell_length_b 26.250939
_cell_length_c 19.429032
_cell_angle_alpha 90.000000
_cell_angle_beta 40.500138
_cell_angle_gamma 90.000000
_cell_volume 3028.167341
_symmetry_space_group_name_H-M "C 2/M"
_symmetry_group_IT_number 12
_symmetry_cell_setting 'monoclinic'
loop_
_space_group_symop_operation_xyz
x,y,z
-x,y,-z
-x,-y,-z
x,-y,z
1/2+x,1/2+y,z
1/2-x,1/2+y,-z
1/2-x,1/2-y,-z
1/2+x,1/2-y,z
loop_
_atom_site_type_symbol
_atom_site_label
_atom_site_fract_x
_atom_site_fract_y
_atom_site_fract_z
Si Si1 0.184278 0.403223 0.379934
Si Si2 0.356305 0.593944 0.957588
Si Si3 0.736080 0.290513 0.603713
Si Si4 0.171328 0.941892 0.186205
Si Si5 0.000000 0.000000 0.000000
Si Si6 0.653924 0.141364 0.243062
Si Si7 0.790808 0.754467 0.724654
Si Si8 0.440868 0.141140 0.174603
O O1 0.277787 0.350821 0.379733
O O2 0.399741 0.438480 0.291384
O O3 0.087122 0.384817 0.340228
O O4 0.000000 0.423158 0.500000
O O5 0.281491 0.577504 0.907952
O O6 0.374331 0.544689 0.999167
O O7 0.606620 0.616778 0.861841
O O8 0.182079 0.633835 0.051981
O O9 0.671667 0.261683 0.696792
O O10 0.547896 0.272512 0.618302
O O11 0.000000 0.280564 0.500000
O O12 0.287205 0.903408 0.197955
O O13 0.246259 0.000000 0.168554
O O14 0.694851 0.201348 0.240122
O O15 0.481632 0.134347 0.241901
O O16 0.666521 0.803369 0.800400
#
# Coordination Sequence:
#
# PCOD9187486 Si02
#       8
#     8   8   8   8   2   8   8   8
#     4   9  20  40  63  87 120 157 203 245 297 366
#     4  11  24  41  63  91 118 161 203 250 300 362
#     4  10  19  35  59  86 118 157 205 249 296 357
#     4  11  24  40  63  90 121 154 197 257 310 354
#     4  12  20  40  70  88 118 154 218 244 296 364
#     4  10  22  40  62  87 122 162 204 245 299 363
#     4  11  21  37  57  87 124 160 197 252 301 361
#     4  12  23  39  59  91 125 156 205 254 299 359
#
# _framework density 19.153500000000001
#
# number of rings (size 3 to 8) (size 9 to 14) (size 15 to 20)
#    0.000    1.379    4.828    0.828    0.966    1.379 
#    0.000    2.069    0.000    0.828    0.000    0.000 
#    0.000    0.000    0.000    0.000    0.000    0.000 
#
# Total GULP energy -161493.662728 kJ/mol
# GULP energy per Si atom -5568.746991 kJ/mol
# Density = 1.910991 g / cm^3
# Si number density = 19.153500 Si / 1000 Ang^3
#
#
#
# Elastic Constant Matrix: (Units=GPa)
#
#
# Indices 1 2 3 4 5 6 
#
# 1 109.9228 27.3149 9.7557 0.0000 11.8211 0.0000
# 2 27.3149 85.4842 11.8037 0.0000 5.5865 0.0000
# 3 9.7557 11.8037 69.5601 -0.0001 4.5041 0.0000
# 4 0.0000 0.0000 -0.0001 8.4869 0.0000 1.2750
# 5 11.8211 5.5865 4.5041 0.0000 21.9896 0.0000
# 6 0.0000 0.0000 0.0000 1.2750 0.0000 25.6616
#
#
#
# Elastic Compliance Matrix: (Units=1/GPa)
#
#
# Indices 1 2 3 4 5 6 
#
# 1 0.010388 -0.002921 -0.000656 0.000000 -0.004708 0.000000
# 2 -0.002921 0.012956 -0.001700 0.000000 -0.001373 0.000000
# 3 -0.000656 -0.001700 0.014903 0.000000 -0.002268 0.000000
# 4 0.000000 0.000000 0.000000 0.118715 0.000000 -0.005898
# 5 -0.004708 -0.001373 -0.002268 0.000000 0.048820 0.000000
# 6 0.000000 0.000000 0.000000 -0.005898 0.000000 0.039262
#
#
# Mechanical properties :
#
#
# Convention : Reuss Voigt Hill
#
# Bulk Modulus (GPa) = 36.11082 40.30173 38.20627
# Shear Modulus (GPa) = 18.88013 25.63382 22.25697
#
# Velocity S-wave (km/s) = 3.14304 3.66230 3.41256
# Velocity P-wave (km/s) = 5.66267 6.24262 5.95971
#
# Compressibility (1/GPa) = 0.02769253
#
# Stress axis : x y z
#
# Youngs Moduli (GPa) = 96.26841 77.18527 67.09864
#
# Poissons Ratio (x) = 0.22545 0.04404
# Poissons Ratio (y) = 0.28119 0.11406
# Poissons Ratio (z) = 0.06319 0.13121
#
# Static dielectric constant tensor:
#      x y z
#    x 1.683130 0.000000 0.000180 
#    y 0.000000 1.625770 0.000000 
#    z 0.000180 0.000000 1.696990 
# 
# From -- ./inp_files/302430.got.cif
#   From: 2010.05.17/outbox.cif.g08.bks.cpg/sg12_152_cif.got.tgz:302430.got - 2010.06.03 13:09:07.
