data_PCOD9187616
_publ_section_title
;
Structure prediction by ZEFSAII (Michael W. Deem and Ramdas Pophale) SiO2 
 PCOD9187616
Probable space group: C 2/M
;
_chemical_formula_sum "Si O2"
_cell_formula_units_Z 56
_cell_length_a 26.437669
_cell_length_b 7.537861
_cell_length_c 12.510367
_cell_angle_alpha 90.000000
_cell_angle_beta 85.506917
_cell_angle_gamma 90.000000
_cell_volume 2485.447570
_symmetry_space_group_name_H-M "C 2/M"
_symmetry_group_IT_number 12
_symmetry_cell_setting 'monoclinic'
loop_
_space_group_symop_operation_xyz
x,y,z
-x,y,-z
-x,-y,-z
x,-y,z
1/2+x,1/2+y,z
1/2-x,1/2+y,-z
1/2-x,1/2-y,-z
1/2+x,1/2-y,z
loop_
_atom_site_type_symbol
_atom_site_label
_atom_site_fract_x
_atom_site_fract_y
_atom_site_fract_z
Si Si1 0.408952 0.715974 0.519417
Si Si2 0.647168 0.791639 0.066582
Si Si3 0.295933 0.289214 0.571799
Si Si4 0.447579 0.717360 0.287003
Si Si5 0.440564 0.285271 0.751045
Si Si6 0.260571 0.205731 0.811198
Si Si7 0.148182 0.797056 0.828850
O O1 0.410883 0.500000 0.519436
O O2 0.350150 0.769945 0.517194
O O3 0.441064 0.771667 0.411586
O O4 0.427503 0.774050 0.632680
O O5 0.602018 0.773328 0.158982
O O6 0.699004 0.718606 0.111423
O O7 0.654256 0.000000 0.043932
O O8 0.635099 0.703157 0.956085
O O9 0.299063 0.500000 0.586092
O O10 0.250000 0.250000 0.500000
O O11 0.285485 0.211298 0.690167
O O12 0.447545 0.500000 0.283832
O O13 0.502119 0.772845 0.233260
O O14 0.398515 0.780436 0.229755
O O15 0.439324 0.500000 0.751148
O O16 0.204342 0.285957 0.812143
O O17 0.253505 0.000000 0.843618
O O18 0.153548 0.000000 0.787491
#
# Coordination Sequence:
#
# PCOD9187616 Si02
#       7
#     8   8   8   8   8   8   8
#     4   9  17  32  55  84 113 142 182 230 277 326
#     4  11  23  38  57  82 114 150 188 233 283 338
#     4  11  21  33  54  84 118 153 185 225 276 335
#     4   9  18  33  57  86 112 140 183 238 284 323
#     4  10  19  35  60  86 110 143 188 232 277 335
#     4  10  21  38  58  81 112 147 186 235 284 332
#     4  10  21  38  59  82 111 147 189 238 284 333
#
# _framework density 22.531154000000001
#
# number of rings (size 3 to 8) (size 9 to 14) (size 15 to 20)
#    0.000    2.000    1.429    2.571    0.000    5.714 
#    0.000    3.571    0.000    4.286    0.000    0.000 
#    0.000    0.000    0.000    0.000    0.000    0.000 
#
# Total GULP energy -156493.280032 kJ/mol
# GULP energy per Si atom -5589.045715 kJ/mol
# Density = 2.247987 g / cm^3
# Si number density = 22.531154 Si / 1000 Ang^3
#
#
#
# Elastic Constant Matrix: (Units=GPa)
#
#
# Indices 1 2 3 4 5 6 
#
# 1 103.5163 5.7824 -1.9596 0.0000 -23.7372 0.0000
# 2 5.7824 60.7870 -11.2396 0.0000 -1.7720 0.0000
# 3 -1.9596 -11.2396 35.9753 0.0000 -4.3077 0.0000
# 4 0.0000 0.0000 0.0000 6.3812 0.0000 -4.1366
# 5 -23.7372 -1.7720 -4.3077 0.0000 26.5149 0.0000
# 6 0.0000 0.0000 0.0000 -4.1366 0.0000 7.4308
#
#
#
# Elastic Compliance Matrix: (Units=1/GPa)
#
#
# Indices 1 2 3 4 5 6 
#
# 1 0.012313 -0.000497 0.001868 0.000000 0.011293 0.000000
# 2 -0.000497 0.017594 0.005668 0.000000 0.001652 0.000000
# 3 0.001868 0.005668 0.030508 0.000000 0.007007 0.000000
# 4 0.000000 0.000000 0.000000 0.245192 0.000000 0.136493
# 5 0.011293 0.001652 0.007007 0.000000 0.049074 0.000000
# 6 0.000000 0.000000 0.000000 0.136493 0.000000 0.210559
#
#
# Mechanical properties :
#
#
# Convention : Reuss Voigt Hill
#
# Bulk Modulus (GPa) = 13.42403 20.60499 17.01451
# Shear Modulus (GPa) = 8.68065 21.91172 15.29619
#
# Velocity S-wave (km/s) = 1.96497 3.12189 2.60838
# Velocity P-wave (km/s) = 3.33452 4.70743 4.07915
#
# Compressibility (1/GPa) = 0.07449330
#
# Stress axis : x y z
#
# Youngs Moduli (GPa) = 81.21416 56.83673 32.77784
#
# Poissons Ratio (x) = 0.02823 -0.06122
# Poissons Ratio (y) = 0.04034 -0.18577
# Poissons Ratio (z) = -0.15169 -0.32213
#
# Static dielectric constant tensor:
#      x y z
#    x 1.838170 0.000000 -0.001070 
#    y 0.000000 1.899060 0.000000 
#    z -0.001070 0.000000 1.767380 
# 
# From -- ./inp_files/180876.got.cif
#   From: 2010.05.17/outbox.cif.g08.bks.cpg/sg12_91_cif.got.tgz:180876.got - 2010.06.03 13:09:07.
