data_PCOD9187712
_publ_section_title
;
Structure prediction by ZEFSAII (Michael W. Deem and Ramdas Pophale) SiO2 
 PCOD9187712
Probable space group: C 2/M
;
_chemical_formula_sum "Si O2"
_cell_formula_units_Z 48
_cell_length_a 15.283826
_cell_length_b 14.927375
_cell_length_c 20.934506
_cell_angle_alpha 90.000000
_cell_angle_beta 153.304840
_cell_angle_gamma 90.000000
_cell_volume 2145.655907
_symmetry_space_group_name_H-M "C 2/M"
_symmetry_group_IT_number 12
_symmetry_cell_setting 'monoclinic'
loop_
_space_group_symop_operation_xyz
x,y,z
-x,y,-z
-x,-y,-z
x,-y,z
1/2+x,1/2+y,z
1/2-x,1/2+y,-z
1/2-x,1/2-y,-z
1/2+x,1/2-y,z
loop_
_atom_site_type_symbol
_atom_site_label
_atom_site_fract_x
_atom_site_fract_y
_atom_site_fract_z
Si Si1 0.435316 0.680483 0.105912
Si Si2 0.396302 0.103758 0.617235
Si Si3 0.894953 0.310542 0.867385
Si Si4 0.978727 0.896454 0.411417
Si Si5 0.310596 0.891268 0.420825
Si Si6 0.569364 0.098937 0.854520
O O1 0.533637 0.711283 0.103932
O O2 0.617611 0.661351 0.271086
O O3 0.250000 0.750000 0.000000
O O4 0.299440 0.594858 0.014078
O O5 0.372292 0.142243 0.531259
O O6 0.530459 0.144818 0.760364
O O7 0.185019 0.105094 0.511814
O O8 0.460271 0.000000 0.647927
O O9 0.668640 0.331231 0.720952
O O10 0.963864 0.360257 0.847239
O O11 0.000000 0.341735 0.000000
O O12 0.000000 0.872109 0.500000
O O13 0.906843 0.000000 0.361571
O O14 0.500000 0.877701 0.500000
O O15 0.270150 0.000000 0.395931
O O16 0.484066 0.000000 0.792872
#
# Coordination Sequence:
#
# PCOD9187712 Si02
#       6
#     8   8   8   8   8   8
#     4  10  24  42  57  88 129 171 211 254 318 384
#     4   9  19  36  64  97 123 153 204 268 323 371
#     4  11  24  38  56  88 135 169 204 252 315 390
#     4  10  19  35  60  92 125 159 204 256 315 383
#     4  10  22  43  70  96 122 163 223 278 319 371
#     4  10  20  40  65  91 125 164 212 264 316 376
#
# _framework density 22.370781000000001
#
# number of rings (size 3 to 8) (size 9 to 14) (size 15 to 20)
#    0.000    2.000    1.667    1.000    4.667    3.333 
#    0.000    3.333    0.000    5.000    0.000    0.000 
#    0.000    0.000    0.000    0.000    0.000    0.000 
#
# Total GULP energy -133709.640744 kJ/mol
# GULP energy per Si atom -5571.235031 kJ/mol
# Density = 2.231986 g / cm^3
# Si number density = 22.370781 Si / 1000 Ang^3
#
#
#
# Elastic Constant Matrix: (Units=GPa)
#
#
# Indices 1 2 3 4 5 6 
#
# 1 77.6521 7.9916 54.6065 -0.0014 -30.1343 -0.0001
# 2 7.9916 48.4687 20.2073 -0.0030 3.1244 -0.0001
# 3 54.6065 20.2073 154.9065 -0.0041 -24.1399 0.0001
# 4 -0.0014 -0.0030 -0.0041 26.7704 0.0013 0.3872
# 5 -30.1343 3.1244 -24.1399 0.0013 41.8900 0.0015
# 6 -0.0001 -0.0001 0.0001 0.3872 0.0015 18.7596
#
#
#
# Elastic Compliance Matrix: (Units=1/GPa)
#
#
# Indices 1 2 3 4 5 6 
#
# 1 0.021881 -0.002162 -0.005442 -0.000001 0.012766 -0.000001
# 2 -0.002162 0.022535 -0.002946 0.000002 -0.004934 0.000000
# 3 -0.005442 -0.002946 0.008990 0.000001 0.001485 0.000000
# 4 -0.000001 0.000002 0.000001 0.037366 -0.000001 -0.000771
# 5 0.012766 -0.004934 0.001485 -0.000001 0.034279 -0.000003
# 6 -0.000001 0.000000 0.000000 -0.000771 -0.000003 0.053322
#
#
# Mechanical properties :
#
#
# Convention : Reuss Voigt Hill
#
# Bulk Modulus (GPa) = 30.95477 49.62647 40.29062
# Shear Modulus (GPa) = 23.78206 30.69880 27.24043
#
# Velocity S-wave (km/s) = 3.26404 3.70844 3.49331
# Velocity P-wave (km/s) = 5.29834 6.36934 5.85837
#
# Compressibility (1/GPa) = 0.03230520
#
# Stress axis : x y z
#
# Youngs Moduli (GPa) = 45.70076 44.37580 111.23782
#
# Poissons Ratio (x) = 0.09594 0.60537
# Poissons Ratio (y) = 0.09880 0.32775
# Poissons Ratio (z) = 0.24871 0.13075
#
# Static dielectric constant tensor:
#      x y z
#    x 1.789630 -0.000010 -0.008980 
#    y -0.000010 2.100610 -0.000020 
#    z -0.008980 -0.000020 1.885280 
# 
# From -- ./inp_files/271784.got.cif
#   From: 2010.05.17/outbox.cif.g08.bks.cpg/sg12_136_cif.got.tgz:271784.got - 2010.06.03 13:09:07.
