data_PCOD9187428
_publ_section_title
;
Structure prediction by ZEFSAII (Michael W. Deem and Ramdas Pophale) SiO2 
 PCOD9187428
Probable space group: C 2/M
;
_chemical_formula_sum "Si O2"
_cell_formula_units_Z 64
_cell_length_a 14.832519
_cell_length_b 7.621217
_cell_length_c 23.356711
_cell_angle_alpha 90.000000
_cell_angle_beta 83.656263
_cell_angle_gamma 90.000000
_cell_volume 2624.118992
_symmetry_space_group_name_H-M "C 2/M"
_symmetry_group_IT_number 12
_symmetry_cell_setting 'monoclinic'
loop_
_space_group_symop_operation_xyz
x,y,z
-x,y,-z
-x,-y,-z
x,-y,z
1/2+x,1/2+y,z
1/2-x,1/2+y,-z
1/2-x,1/2-y,-z
1/2+x,1/2-y,z
loop_
_atom_site_type_symbol
_atom_site_label
_atom_site_fract_x
_atom_site_fract_y
_atom_site_fract_z
Si Si1 0.530253 0.702675 0.131398
Si Si2 0.573073 0.201060 0.537425
Si Si3 0.822993 0.295875 0.160987
Si Si4 0.057273 0.709155 0.254111
Si Si5 0.237466 0.285120 0.590995
Si Si6 0.793921 0.211450 0.936126
Si Si7 0.653236 0.213911 0.717117
Si Si8 0.922287 0.206195 0.623631
O O1 0.511731 0.500000 0.119810
O O2 0.431671 0.789091 0.142908
O O3 0.578841 0.714657 0.190400
O O4 0.603213 0.775503 0.081396
O O5 0.500000 0.287012 0.500000
O O6 0.669935 0.281266 0.546502
O O7 0.515172 0.199105 0.600693
O O8 0.586836 0.000000 0.518492
O O9 0.797801 0.500000 0.166238
O O10 0.769260 0.219683 0.111078
O O11 0.805279 0.220476 0.225641
O O12 0.061766 0.500000 0.249197
O O13 0.106867 0.765729 0.308607
O O14 0.952575 0.763154 0.272701
O O15 0.234981 0.500000 0.589481
O O16 0.197422 0.227563 0.655100
O O17 0.342241 0.233392 0.586679
O O18 0.798514 0.000000 0.931170
O O19 0.750000 0.250000 0.000000
O O20 0.657294 0.000000 0.717079
O O21 0.936329 0.000000 0.615143
#
# Coordination Sequence:
#
# PCOD9187428 Si02
#       8
#     8   8   8   8   8   8   8   8
#     4  10  21  37  58  87 117 147 187 240 292 334
#     4  10  21  40  62  80 109 156 201 234 275 343
#     4   9  19  36  58  83 110 152 194 231 282 347
#     4  10  19  35  59  84 115 153 190 228 278 346
#     4   9  18  33  55  83 112 150 187 225 284 344
#     4  10  23  40  59  82 114 154 197 237 287 347
#     4   8  14  29  56  79 104 142 185 223 267 335
#     4  11  22  34  56  87 116 146 186 239 292 336
#
# _framework density 24.389139
#
# number of rings (size 3 to 8) (size 9 to 14) (size 15 to 20)
#    0.000    2.375    1.250    1.875    1.750    2.750 
#    0.000    3.750    0.000    0.000    0.000    0.000 
#    0.000    0.000    0.000    0.000    0.000    0.000 
#
# Total GULP energy -178845.462727 kJ/mol
# GULP energy per Si atom -5588.920710 kJ/mol
# Density = 2.433363 g / cm^3
# Si number density = 24.389139 Si / 1000 Ang^3
#
#
#
# Elastic Constant Matrix: (Units=GPa)
#
#
# Indices 1 2 3 4 5 6 
#
# 1 97.3670 2.2437 27.7452 0.0000 3.7354 0.0000
# 2 2.2437 68.5466 -2.7963 0.0000 -2.2708 0.0000
# 3 27.7452 -2.7963 84.5351 0.0000 -2.4980 0.0000
# 4 0.0000 0.0000 0.0000 23.7426 0.0000 -2.1607
# 5 3.7354 -2.2708 -2.4980 0.0000 47.0013 0.0000
# 6 0.0000 0.0000 0.0000 -2.1607 0.0000 12.2929
#
#
#
# Elastic Compliance Matrix: (Units=1/GPa)
#
#
# Indices 1 2 3 4 5 6 
#
# 1 0.011409 -0.000566 -0.003797 0.000000 -0.001136 0.000000
# 2 -0.000566 0.014662 0.000694 0.000000 0.000790 0.000000
# 3 -0.003797 0.000694 0.013129 0.000000 0.001033 0.000000
# 4 0.000000 0.000000 0.000000 0.042803 0.000000 0.007524
# 5 -0.001136 0.000790 0.001033 0.000000 0.021459 0.000000
# 6 0.000000 0.000000 0.000000 0.007524 0.000000 0.082670
#
#
# Mechanical properties :
#
#
# Convention : Reuss Voigt Hill
#
# Bulk Modulus (GPa) = 31.38507 33.87042 32.62774
# Shear Modulus (GPa) = 24.49898 31.49112 27.99505
#
# Velocity S-wave (km/s) = 3.17283 3.59722 3.39167
# Velocity P-wave (km/s) = 5.13019 5.58309 5.36143
#
# Compressibility (1/GPa) = 0.03186228
#
# Stress axis : x y z
#
# Youngs Moduli (GPa) = 87.65044 68.20525 76.16709
#
# Poissons Ratio (x) = 0.03860 0.28919
# Poissons Ratio (y) = 0.04961 -0.05287
# Poissons Ratio (z) = 0.33279 -0.04734
#
# Static dielectric constant tensor:
#      x y z
#    x 1.958060 0.000000 0.018270 
#    y 0.000000 1.892120 0.000000 
#    z 0.018270 0.000000 1.981820 
# 
# From -- ./inp_files/338776.got.cif
#   From: 2010.05.17/outbox.cif.g08.bks.cpg/sg12_170_cif.got.tgz:338776.got - 2010.06.03 13:09:07.
