data_PCOD9187186
_publ_section_title
;
Structure prediction by ZEFSAII (Michael W. Deem and Ramdas Pophale) SiO2 
 PCOD9187186
Probable space group: C 2/M
;
_chemical_formula_sum "Si O2"
_cell_formula_units_Z 52
_cell_length_a 11.431254
_cell_length_b 21.265050
_cell_length_c 16.731061
_cell_angle_alpha 90.000000
_cell_angle_beta 37.949037
_cell_angle_gamma 90.000000
_cell_volume 2501.098861
_symmetry_space_group_name_H-M "C 2/M"
_symmetry_group_IT_number 12
_symmetry_cell_setting 'monoclinic'
loop_
_space_group_symop_operation_xyz
x,y,z
-x,y,-z
-x,-y,-z
x,-y,z
1/2+x,1/2+y,z
1/2-x,1/2+y,-z
1/2-x,1/2-y,-z
1/2+x,1/2-y,z
loop_
_atom_site_type_symbol
_atom_site_label
_atom_site_fract_x
_atom_site_fract_y
_atom_site_fract_z
Si Si1 0.274093 0.652247 0.641516
Si Si2 0.000000 0.388649 0.500000
Si Si3 0.673783 0.425737 0.229507
Si Si4 0.207840 0.198804 0.904716
Si Si5 0.796405 0.206062 0.272084
Si Si6 0.734156 0.069721 0.515869
Si Si7 0.264616 0.666383 0.945359
O O1 0.500000 0.652789 0.500000
O O2 0.245207 0.610808 0.736868
O O3 0.214005 0.723563 0.689194
O O4 0.190064 0.619776 0.608222
O O5 0.827797 0.342424 0.612256
O O6 0.927737 0.427784 0.463780
O O7 0.717141 0.500000 0.206166
O O8 0.443088 0.419217 0.363660
O O9 0.746315 0.390947 0.110201
O O10 0.287962 0.205093 0.772696
O O11 0.180954 0.270168 0.951563
O O12 0.307273 0.161854 0.924068
O O13 0.000000 0.169839 0.000000
O O14 0.012589 0.182856 0.162424
O O15 0.746042 0.000000 0.546259
#
# Coordination Sequence:
#
# PCOD9187186 Si02
#       7
#     8   4   8   8   8   8   8
#     4  10  20  33  54  82 117 145 185 232 283 334
#     4  12  23  34  56  84 121 152 186 232 276 338
#     4  10  19  35  58  82 112 149 193 233 273 335
#     4   9  20  36  57  82 109 144 183 238 283 341
#     4  11  21  33  54  89 117 144 182 235 293 330
#     4  10  22  37  52  77 115 163 194 219 270 336
#     4  10  19  36  58  83 110 147 190 228 287 337
#
# _framework density 20.790861
#
# number of rings (size 3 to 8) (size 9 to 14) (size 15 to 20)
#    0.000    1.846    3.846    0.692    2.154    2.462 
#    0.000    0.000    0.000    6.462    0.000    0.000 
#    0.000    0.000    0.000    0.000    0.000    0.000 
#
# Total GULP energy -145125.406363 kJ/mol
# GULP energy per Si atom -5581.746399 kJ/mol
# Density = 2.074354 g / cm^3
# Si number density = 20.790861 Si / 1000 Ang^3
#
#
#
# Elastic Constant Matrix: (Units=GPa)
#
#
# Indices 1 2 3 4 5 6 
#
# 1 98.6719 24.0358 14.1093 0.0004 15.5568 -0.0002
# 2 24.0358 98.1652 22.2022 -0.0007 24.9837 0.0007
# 3 14.1093 22.2022 40.7351 -0.0025 16.9609 0.0019
# 4 0.0004 -0.0007 -0.0025 24.9690 0.0002 7.6148
# 5 15.5568 24.9837 16.9609 0.0002 36.8083 -0.0005
# 6 -0.0002 0.0007 0.0019 7.6148 -0.0005 10.5647
#
#
#
# Elastic Compliance Matrix: (Units=1/GPa)
#
#
# Indices 1 2 3 4 5 6 
#
# 1 0.011234 -0.001622 -0.001842 -0.000001 -0.002798 0.000001
# 2 -0.001622 0.013098 -0.003911 0.000000 -0.006403 -0.000001
# 3 -0.001842 -0.003911 0.032035 0.000006 -0.011328 -0.000011
# 4 -0.000001 0.000000 0.000006 0.051334 -0.000004 -0.037000
# 5 -0.002798 -0.006403 -0.011328 -0.000004 0.037916 0.000007
# 6 0.000001 -0.000001 -0.000011 -0.037000 0.000007 0.121324
#
#
# Mechanical properties :
#
#
# Convention : Reuss Voigt Hill
#
# Bulk Modulus (GPa) = 24.02846 39.80741 31.91794
# Shear Modulus (GPa) = 16.91677 26.28340 21.60009
#
# Velocity S-wave (km/s) = 2.85557 3.55939 3.22673
# Velocity P-wave (km/s) = 4.73864 6.00670 5.40995
#
# Compressibility (1/GPa) = 0.04161732
#
# Stress axis : x y z
#
# Youngs Moduli (GPa) = 89.01336 76.34649 31.21545
#
# Poissons Ratio (x) = 0.12382 0.05750
# Poissons Ratio (y) = 0.14437 0.12210
# Poissons Ratio (z) = 0.16396 0.29862
#
# Static dielectric constant tensor:
#      x y z
#    x 1.776450 0.000000 0.007080 
#    y 0.000000 1.676880 0.000000 
#    z 0.007080 0.000000 1.801120 
# 
# From -- ./inp_files/265003.got.cif
#   From: 2010.05.17/outbox.cif.g08.bks.cpg/sg12_133_cif.got.tgz:265003.got - 2010.06.03 13:09:07.
