data_PCOD9187760
_publ_section_title
;
Structure prediction by ZEFSAII (Michael W. Deem and Ramdas Pophale) SiO2 
 PCOD9187760
Probable space group: C 2/M
;
_chemical_formula_sum "Si O2"
_cell_formula_units_Z 64
_cell_length_a 15.295184
_cell_length_b 18.027855
_cell_length_c 26.038241
_cell_angle_alpha 90.000000
_cell_angle_beta 150.931555
_cell_angle_gamma 90.000000
_cell_volume 3488.319571
_symmetry_space_group_name_H-M "C 2/M"
_symmetry_group_IT_number 12
_symmetry_cell_setting 'monoclinic'
loop_
_space_group_symop_operation_xyz
x,y,z
-x,y,-z
-x,-y,-z
x,-y,z
1/2+x,1/2+y,z
1/2-x,1/2+y,-z
1/2-x,1/2-y,-z
1/2+x,1/2-y,z
loop_
_atom_site_type_symbol
_atom_site_label
_atom_site_fract_x
_atom_site_fract_y
_atom_site_fract_z
Si Si1 0.330974 0.183858 0.878845
Si Si2 0.329096 0.208240 0.119053
Si Si3 0.487216 0.915486 0.727929
Si Si4 0.585789 0.410517 0.490784
Si Si5 0.009421 0.793689 0.120901
Si Si6 0.996425 0.090060 0.329723
Si Si7 0.885422 0.589364 0.489887
Si Si8 0.690080 0.084793 0.727970
O O1 0.238105 0.247945 0.865422
O O2 0.406739 0.224085 0.866947
O O3 0.180323 0.124328 0.786721
O O4 0.500000 0.155994 0.000000
O O5 0.459746 0.142150 0.201638
O O6 0.426307 0.265333 0.131103
O O7 0.153841 0.178837 0.999011
O O8 0.297853 0.896339 0.604426
O O9 0.637224 0.912880 0.760570
O O10 0.472581 0.000000 0.739624
O O11 0.500000 0.382031 0.500000
O O12 0.561659 0.500000 0.478156
O O13 0.511417 0.385375 0.397409
O O14 0.155408 0.856962 0.203885
O O15 0.181253 0.114783 0.395743
O O16 0.991071 0.000000 0.325913
O O17 0.871047 0.500000 0.476323
O O18 0.000000 0.618030 0.500000
O O19 0.011023 0.602535 0.603637
O O20 0.741508 0.000000 0.741048
#
# Coordination Sequence:
#
# PCOD9187760 Si02
#       8
#     8   8   8   8   8   8   8   8
#     4  10  22  40  58  79 113 155 193 235 289 342
#     4  10  22  40  58  79 114 156 190 230 292 349
#     4  10  19  35  61  88 113 143 190 244 287 338
#     4   9  18  33  54  81 114 148 180 226 289 340
#     4  10  22  40  58  79 114 156 190 230 292 349
#     4  10  20  36  59  84 111 149 193 233 278 338
#     4   9  18  33  54  81 114 148 180 226 289 340
#     4  10  19  35  61  88 113 143 190 244 287 338
#
# _framework density 18.346941999999999
#
# number of rings (size 3 to 8) (size 9 to 14) (size 15 to 20)
#    0.000    2.250    2.500    0.000    3.500    0.750 
#    0.000    3.750    0.000    4.500    0.000    0.000 
#    0.000    0.000    0.000    0.000    0.000    0.000 
#
# Total GULP energy -178432.744384 kJ/mol
# GULP energy per Si atom -5576.023262 kJ/mol
# Density = 1.830518 g / cm^3
# Si number density = 18.346942 Si / 1000 Ang^3
#
#
#
# Elastic Constant Matrix: (Units=GPa)
#
#
# Indices 1 2 3 4 5 6 
#
# 1 63.4670 -1.2600 21.4500 -0.0004 7.4575 -0.0001
# 2 -1.2600 28.2624 49.7541 -0.0008 4.0145 -0.0002
# 3 21.4500 49.7541 115.5862 -0.0012 11.2853 -0.0004
# 4 -0.0004 -0.0008 -0.0012 36.8345 -0.0004 10.6121
# 5 7.4575 4.0145 11.2853 -0.0004 24.9103 -0.0002
# 6 -0.0001 -0.0002 -0.0004 10.6121 -0.0002 8.1960
#
#
#
# Elastic Compliance Matrix: (Units=1/GPa)
#
#
# Indices 1 2 3 4 5 6 
#
# 1 0.023417 0.035399 -0.019191 0.000000 -0.004021 0.000000
# 2 0.035399 0.200229 -0.092672 0.000002 -0.000883 -0.000002
# 3 -0.019191 -0.092672 0.052402 -0.000001 -0.003060 0.000001
# 4 0.000000 0.000002 -0.000001 0.043301 0.000000 -0.056065
# 5 -0.004021 -0.000883 -0.003060 0.000000 0.042877 0.000001
# 6 0.000000 -0.000002 0.000001 -0.056065 0.000001 0.194603
#
#
# Mechanical properties :
#
#
# Convention : Reuss Voigt Hill
#
# Bulk Modulus (GPa) = 8.12200 38.57820 23.35010
# Shear Modulus (GPa) = 6.65960 23.14626 14.90293
#
# Velocity S-wave (km/s) = 1.90727 3.55574 2.85315
# Velocity P-wave (km/s) = 3.04742 6.15876 4.85886
#
# Compressibility (1/GPa) = 0.12312241
#
# Stress axis : x y z
#
# Youngs Moduli (GPa) = 42.70320 4.99428 19.08318
#
# Poissons Ratio (x) = -0.17679 0.36622
# Poissons Ratio (y) = -1.51166 1.76847
# Poissons Ratio (z) = 0.81951 0.46283
#
# Static dielectric constant tensor:
#      x y z
#    x 1.657060 0.000000 -0.001250 
#    y 0.000000 1.604890 0.000000 
#    z -0.001250 0.000000 1.617240 
# 
# From -- ./inp_files/340843.got.cif
#   From: 2010.05.17/outbox.cif.g08.bks.cpg/sg12_171_cif.got.tgz:340843.got - 2010.06.03 13:09:07.
