data_PCOD9187070
_publ_section_title
;
Structure prediction by ZEFSAII (Michael W. Deem and Ramdas Pophale) SiO2 
 PCOD9187070
Probable space group: C 2/M
;
_chemical_formula_sum "Si O2"
_cell_formula_units_Z 56
_cell_length_a 16.778438
_cell_length_b 14.934348
_cell_length_c 20.175102
_cell_angle_alpha 90.000000
_cell_angle_beta 142.410754
_cell_angle_gamma 90.000000
_cell_volume 3083.761900
_symmetry_space_group_name_H-M "C 2/M"
_symmetry_group_IT_number 12
_symmetry_cell_setting 'monoclinic'
loop_
_space_group_symop_operation_xyz
x,y,z
-x,y,-z
-x,-y,-z
x,-y,z
1/2+x,1/2+y,z
1/2-x,1/2+y,-z
1/2-x,1/2-y,-z
1/2+x,1/2-y,z
loop_
_atom_site_type_symbol
_atom_site_label
_atom_site_fract_x
_atom_site_fract_y
_atom_site_fract_z
Si Si1 0.630800 0.898207 0.752343
Si Si2 0.855364 0.222884 0.515300
Si Si3 0.248683 0.893945 0.660296
Si Si4 0.865740 0.392119 0.952678
Si Si5 0.903101 0.405436 0.498322
Si Si6 0.947784 0.608057 0.151980
Si Si7 0.339757 0.288019 0.269546
O O1 0.490270 0.905282 0.622843
O O2 0.612699 0.868066 0.816716
O O3 0.701172 0.816952 0.760685
O O4 0.685576 0.000000 0.785510
O O5 0.750000 0.250000 0.500000
O O6 0.820212 0.133166 0.453210
O O7 0.842245 0.307682 0.456700
O O8 0.003826 0.213636 0.638499
O O9 0.400157 0.867205 0.752278
O O10 0.186032 0.837328 0.678201
O O11 0.240942 0.000000 0.668837
O O12 0.847933 0.500000 0.938271
O O13 0.745465 0.342422 0.839339
O O14 0.881470 0.363167 0.039627
O O15 0.000000 0.373622 0.000000
O O16 0.826662 0.500000 0.447137
O O17 0.000000 0.408483 0.500000
O O18 0.944949 0.500000 0.149663
#
# Coordination Sequence:
#
# PCOD9187070 Si02
#       7
#     8   8   8   8   8   8   8
#     4   9  18  33  52  78 108 140 183 231 276 329
#     4  11  23  36  51  79 117 149 181 225 280 345
#     4  11  21  35  56  83 116 149 184 230 285 340
#     4  10  19  35  57  84 115 145 187 238 283 335
#     4   9  17  33  55  74  97 137 189 232 265 316
#     4   9  18  34  57  81 108 147 190 231 279 336
#     4  11  21  34  56  83 109 145 190 229 278 340
#
# _framework density 18.159637
#
# number of rings (size 3 to 8) (size 9 to 14) (size 15 to 20)
#    0.000    2.000    1.429    4.286    0.000    4.000 
#    0.000    0.000    0.000    0.429    0.000    2.000 
#    0.000    0.000    0.000    0.000    0.000    0.000 
#
# Total GULP energy -155908.592053 kJ/mol
# GULP energy per Si atom -5568.164002 kJ/mol
# Density = 1.811830 g / cm^3
# Si number density = 18.159637 Si / 1000 Ang^3
#
#
#
# Elastic Constant Matrix: (Units=GPa)
#
#
# Indices 1 2 3 4 5 6 
#
# 1 77.3109 38.2207 26.8140 0.0000 -11.7887 0.0000
# 2 38.2207 97.1906 26.2816 0.0000 4.4093 0.0000
# 3 26.8140 26.2816 89.2513 -0.0001 -7.4356 -0.0001
# 4 0.0000 0.0000 -0.0001 21.0962 0.0000 -7.1048
# 5 -11.7887 4.4093 -7.4356 0.0000 24.8988 0.0000
# 6 0.0000 0.0000 -0.0001 -7.1048 0.0000 22.3525
#
#
#
# Elastic Compliance Matrix: (Units=1/GPa)
#
#
# Indices 1 2 3 4 5 6 
#
# 1 0.018822 -0.007069 -0.002796 0.000000 0.009328 0.000000
# 2 -0.007069 0.014063 -0.002568 0.000000 -0.006604 0.000000
# 3 -0.002796 -0.002568 0.013053 0.000000 0.003029 0.000000
# 4 0.000000 0.000000 0.000000 0.053084 0.000000 0.016873
# 5 0.009328 -0.006604 0.003029 0.000000 0.046653 0.000000
# 6 0.000000 0.000000 0.000000 0.016873 0.000000 0.050101
#
#
# Mechanical properties :
#
#
# Convention : Reuss Voigt Hill
#
# Bulk Modulus (GPa) = 47.45515 49.59838 48.52676
# Shear Modulus (GPa) = 21.96214 25.16524 23.56369
#
# Velocity S-wave (km/s) = 3.48141 3.72664 3.60611
# Velocity P-wave (km/s) = 6.50763 6.77413 6.64222
#
# Compressibility (1/GPa) = 0.02107253
#
# Stress axis : x y z
#
# Youngs Moduli (GPa) = 53.13045 71.10950 76.61252
#
# Poissons Ratio (x) = 0.50266 0.21420
# Poissons Ratio (y) = 0.37557 0.19670
# Poissons Ratio (z) = 0.14855 0.18258
#
# Static dielectric constant tensor:
#      x y z
#    x 1.534000 0.000000 0.029810 
#    y 0.000000 1.699230 0.000000 
#    z 0.029810 0.000000 1.598170 
# 
# From -- ./inp_files/183527.got.cif
#   From: 2010.05.17/outbox.cif.g08.bks.cpg/sg12_92_cif.got.tgz:183527.got - 2010.06.03 13:09:07.
