data_PCOD9187596
_publ_section_title
;
Structure prediction by ZEFSAII (Michael W. Deem and Ramdas Pophale) SiO2 
 PCOD9187596
Probable space group: C 2/M
;
_chemical_formula_sum "Si O2"
_cell_formula_units_Z 56
_cell_length_a 16.377203
_cell_length_b 7.744762
_cell_length_c 23.260396
_cell_angle_alpha 90.000000
_cell_angle_beta 60.105285
_cell_angle_gamma 90.000000
_cell_volume 2557.733665
_symmetry_space_group_name_H-M "C 2/M"
_symmetry_group_IT_number 12
_symmetry_cell_setting 'monoclinic'
loop_
_space_group_symop_operation_xyz
x,y,z
-x,y,-z
-x,-y,-z
x,-y,z
1/2+x,1/2+y,z
1/2-x,1/2+y,-z
1/2-x,1/2-y,-z
1/2+x,1/2-y,z
loop_
_atom_site_type_symbol
_atom_site_label
_atom_site_fract_x
_atom_site_fract_y
_atom_site_fract_z
Si Si1 0.068397 0.293332 0.426280
Si Si2 0.283710 0.711298 0.349440
Si Si3 0.344902 0.196414 0.934590
Si Si4 0.631450 0.704244 0.202068
Si Si5 0.469450 0.708646 0.340700
Si Si6 0.027222 0.803230 0.929377
Si Si7 0.312290 0.708951 0.210307
O O1 0.074760 0.500000 0.431158
O O2 0.175920 0.227951 0.393346
O O3 0.000000 0.224095 0.500000
O O4 0.020242 0.261908 0.381561
O O5 0.281645 0.500000 0.350907
O O6 0.361829 0.766293 0.368512
O O7 0.319955 0.764905 0.273505
O O8 0.338420 0.211917 0.868337
O O9 0.432795 0.306388 0.925297
O O10 0.366051 0.000000 0.942821
O O11 0.250000 0.250000 0.000000
O O12 0.623686 0.500000 0.194147
O O13 0.533908 0.766549 0.264243
O O14 0.711589 0.738842 0.220852
O O15 0.470133 0.500000 0.339597
O O16 0.108507 0.723808 0.861379
O O17 0.058961 0.000000 0.931552
O O18 0.000000 0.721237 0.000000
O O19 0.318855 0.500000 0.208738
#
# Coordination Sequence:
#
# PCOD9187596 Si02
#       7
#     8   8   8   8   8   8   8
#     4  10  21  38  60  87 121 159 202 254 304 357
#     4   9  18  35  58  83 117 160 202 240 299 369
#     4  12  25  40  59  83 115 155 199 247 301 357
#     4  11  22  37  59  87 119 151 196 251 302 356
#     4  10  21  38  61  88 119 159 201 246 299 365
#     4  10  21  37  57  83 114 149 193 243 299 366
#     4  10  19  35  60  84 114 158 197 237 301 369
#
# _framework density 21.894383000000001
#
# number of rings (size 3 to 8) (size 9 to 14) (size 15 to 20)
#    0.000    1.714    1.429    3.429    0.000    5.714 
#    0.000    1.429    0.000    0.000    0.000    0.000 
#    0.000    0.000    0.000    0.000    0.000    0.000 
#
# Total GULP energy -156439.271011 kJ/mol
# GULP energy per Si atom -5587.116822 kJ/mol
# Density = 2.184455 g / cm^3
# Si number density = 21.894383 Si / 1000 Ang^3
#
#
#
# Elastic Constant Matrix: (Units=GPa)
#
#
# Indices 1 2 3 4 5 6 
#
# 1 137.8146 -9.0793 53.1400 0.0000 -26.8669 0.0004
# 2 -9.0793 40.4695 12.0165 -0.0001 -5.2707 0.0011
# 3 53.1400 12.0165 141.4729 0.0000 -25.1997 0.0001
# 4 0.0000 -0.0001 0.0000 32.8282 0.0000 -16.8197
# 5 -26.8669 -5.2707 -25.1997 0.0000 30.9220 0.0001
# 6 0.0004 0.0011 0.0001 -16.8197 0.0001 43.0886
#
#
#
# Elastic Compliance Matrix: (Units=1/GPa)
#
#
# Indices 1 2 3 4 5 6 
#
# 1 0.009987 0.004001 -0.002836 0.000000 0.007048 0.000000
# 2 0.004001 0.027192 -0.002770 0.000000 0.005854 -0.000001
# 3 -0.002836 -0.002770 0.009178 0.000000 0.004544 0.000000
# 4 0.000000 0.000000 0.000000 0.038077 0.000000 0.014863
# 5 0.007048 0.005854 0.004544 0.000000 0.043164 0.000000
# 6 0.000000 -0.000001 0.000000 0.014863 0.000000 0.029010
#
#
# Mechanical properties :
#
#
# Convention : Reuss Voigt Hill
#
# Bulk Modulus (GPa) = 23.17594 47.99016 35.58305
# Shear Modulus (GPa) = 28.70246 38.94642 33.82444
#
# Velocity S-wave (km/s) = 3.62463 4.22220 3.93477
# Velocity P-wave (km/s) = 5.30336 6.76282 6.07706
#
# Compressibility (1/GPa) = 0.04314819
#
# Stress axis : x y z
#
# Youngs Moduli (GPa) = 100.12825 36.77515 108.95320
#
# Poissons Ratio (x) = -0.14712 0.30896
# Poissons Ratio (y) = -0.40057 0.30176
# Poissons Ratio (z) = 0.28393 0.10186
#
# Static dielectric constant tensor:
#      x y z
#    x 1.798540 0.000000 -0.010790 
#    y 0.000000 1.811640 0.000000 
#    z -0.010790 0.000000 1.807000 
# 
# From -- ./inp_files/338544.got.cif
#   From: 2010.05.17/outbox.cif.g08.bks.cpg/sg12_170_cif.got.tgz:338544.got - 2010.06.03 13:09:07.
