data_PCOD9187910
_publ_section_title
;
Structure prediction by ZEFSAII (Michael W. Deem and Ramdas Pophale) SiO2 
 PCOD9187910
Probable space group: C 2/M
;
_chemical_formula_sum "Si O2"
_cell_formula_units_Z 58
_cell_length_a 19.516144
_cell_length_b 9.435472
_cell_length_c 17.116572
_cell_angle_alpha 90.000000
_cell_angle_beta 106.390121
_cell_angle_gamma 90.000000
_cell_volume 3023.829072
_symmetry_space_group_name_H-M "C 2/M"
_symmetry_group_IT_number 12
_symmetry_cell_setting 'monoclinic'
loop_
_space_group_symop_operation_xyz
x,y,z
-x,y,-z
-x,-y,-z
x,-y,z
1/2+x,1/2+y,z
1/2-x,1/2+y,-z
1/2-x,1/2-y,-z
1/2+x,1/2-y,z
loop_
_atom_site_type_symbol
_atom_site_label
_atom_site_fract_x
_atom_site_fract_y
_atom_site_fract_z
Si Si1 0.077525 0.289989 0.002487
Si Si2 0.315155 0.335837 0.426100
Si Si3 0.551346 0.163070 0.822094
Si Si4 0.651844 0.335959 0.744798
Si Si5 0.852370 0.665766 0.586702
Si Si6 0.814642 0.658457 0.825769
Si Si7 0.000000 0.000000 0.000000
Si Si8 0.411565 0.331012 0.746895
O O1 0.092102 0.326262 0.917517
O O2 0.139652 0.335033 0.080756
O O3 0.060716 0.124332 0.007556
O O4 0.000000 0.354636 0.000000
O O5 0.332131 0.500000 0.451372
O O6 0.337671 0.310550 0.344232
O O7 0.229415 0.321487 0.408183
O O8 0.350726 0.230487 0.499414
O O9 0.598064 0.228944 0.768116
O O10 0.481606 0.261861 0.807850
O O11 0.531217 0.000000 0.801284
O O12 0.627826 0.500000 0.747412
O O13 0.730359 0.322887 0.808005
O O14 0.871771 0.500000 0.594251
O O15 0.900971 0.760294 0.658906
O O16 0.824930 0.500000 0.793345
O O17 0.846213 0.776386 0.778487
O O18 0.416121 0.500000 0.745920
#
# Coordination Sequence:
#
# PCOD9187910 Si02
#       8
#     8   8   8   8   8   8   2   8
#     4  10  22  37  63  89 121 159 202 259 302 357
#     4   9  18  36  59  90 125 160 197 243 305 362
#     4  12  26  42  61  89 124 164 206 254 307 364
#     4  10  23  42  63  88 127 166 199 246 308 366
#     4  10  19  35  62  92 123 157 200 251 301 358
#     4  11  22  40  64  91 122 160 204 254 305 361
#     4   8  20  36  58  92 116 148 204 254 302 352
#     4  12  24  37  62  93 122 159 206 254 302 359
#
# _framework density 19.180976999999999
#
# number of rings (size 3 to 8) (size 9 to 14) (size 15 to 20)
#    0.414    1.103    2.759    2.483    4.828    2.759 
#    0.000    0.690    0.000    4.138    0.000    0.000 
#    0.000    0.000    0.000    0.000    0.000    0.000 
#
# Total GULP energy -161663.638712 kJ/mol
# GULP energy per Si atom -5574.608231 kJ/mol
# Density = 1.913732 g / cm^3
# Si number density = 19.180977 Si / 1000 Ang^3
#
#
#
# Elastic Constant Matrix: (Units=GPa)
#
#
# Indices 1 2 3 4 5 6 
#
# 1 17.3809 21.4275 -8.4730 0.0000 -9.8039 0.0000
# 2 21.4275 154.2105 26.6487 0.0000 -0.9090 0.0000
# 3 -8.4730 26.6487 73.6094 0.0000 1.3021 0.0000
# 4 0.0000 0.0000 0.0000 49.2010 0.0000 22.2708
# 5 -9.8039 -0.9090 1.3021 0.0000 26.1257 0.0000
# 6 0.0000 0.0000 0.0000 22.2708 0.0000 20.0780
#
#
#
# Elastic Compliance Matrix: (Units=1/GPa)
#
#
# Indices 1 2 3 4 5 6 
#
# 1 0.112946 -0.018748 0.019067 0.000000 0.040782 0.000000
# 2 -0.018748 0.010033 -0.005677 0.000000 -0.006404 0.000000
# 3 0.019067 -0.005677 0.017728 0.000000 0.006074 0.000000
# 4 0.000000 0.000000 0.000000 0.040820 0.000000 -0.045278
# 5 0.040782 -0.006404 0.006074 0.000000 0.053055 0.000000
# 6 0.000000 0.000000 0.000000 -0.045278 0.000000 0.100029
#
#
# Mechanical properties :
#
#
# Convention : Reuss Voigt Hill
#
# Bulk Modulus (GPa) = 7.69288 36.04524 21.86906
# Shear Modulus (GPa) = 12.86479 32.78743 22.82611
#
# Velocity S-wave (km/s) = 2.59261 4.13894 3.45344
# Velocity P-wave (km/s) = 3.60299 6.45555 5.22760
#
# Compressibility (1/GPa) = 0.12999031
#
# Stress axis : x y z
#
# Youngs Moduli (GPa) = 8.85376 99.67082 56.40856
#
# Poissons Ratio (x) = 1.86867 -1.07554
# Poissons Ratio (y) = 0.16599 0.32023
# Poissons Ratio (z) = -0.16882 0.56584
#
# Static dielectric constant tensor:
#      x y z
#    x 1.651230 0.000000 0.005110 
#    y 0.000000 1.655970 0.000000 
#    z 0.005110 0.000000 1.699030 
# 
# From -- ./inp_files/281514.got.cif
#   From: 2010.05.17/outbox.cif.g08.bks.cpg/sg12_141_cif.got.tgz:281514.got - 2010.06.03 13:09:07.
