data_PCOD9187546
_publ_section_title
;
Structure prediction by ZEFSAII (Michael W. Deem and Ramdas Pophale) SiO2 
 PCOD9187546
Probable space group: C 2/M
;
_chemical_formula_sum "Si O2"
_cell_formula_units_Z 48
_cell_length_a 13.512586
_cell_length_b 28.618475
_cell_length_c 8.394530
_cell_angle_alpha 90.000000
_cell_angle_beta 49.189708
_cell_angle_gamma 90.000000
_cell_volume 2457.010637
_symmetry_space_group_name_H-M "C 2/M"
_symmetry_group_IT_number 12
_symmetry_cell_setting 'monoclinic'
loop_
_space_group_symop_operation_xyz
x,y,z
-x,y,-z
-x,-y,-z
x,-y,z
1/2+x,1/2+y,z
1/2-x,1/2+y,-z
1/2-x,1/2-y,-z
1/2+x,1/2-y,z
loop_
_atom_site_type_symbol
_atom_site_label
_atom_site_fract_x
_atom_site_fract_y
_atom_site_fract_z
Si Si1 0.999752 0.103737 0.692386
Si Si2 0.485644 0.884067 0.206510
Si Si3 0.905027 0.290253 0.451908
Si Si4 0.768695 0.554371 0.018692
Si Si5 0.253590 0.051150 0.421755
Si Si6 0.897020 0.197668 0.248007
O O1 0.859454 0.084036 0.893045
O O2 0.000000 0.111018 0.500000
O O3 0.105815 0.063790 0.615991
O O4 0.051770 0.150756 0.719466
O O5 0.471216 0.831621 0.280838
O O6 0.351462 0.910643 0.385019
O O7 0.500000 0.883746 0.000000
O O8 0.603828 0.914744 0.153259
O O9 0.899961 0.241634 0.363335
O O10 0.754797 0.305221 0.647536
O O11 0.000000 0.283712 0.500000
O O12 0.770829 0.500000 0.961423
O O13 0.764362 0.551723 0.217427
O O14 0.291998 0.000000 0.437286
O O15 0.000000 0.206925 0.000000
#
# Coordination Sequence:
#
# PCOD9187546 Si02
#       6
#     8   8   8   8   8   8
#     4  10  19  35  59  89 122 159 197 246 295 343
#     4  10  19  35  59  89 122 159 197 246 295 343
#     4  11  25  44  64  89 119 153 196 244 299 359
#     4   9  18  30  54  91 124 155 200 247 288 341
#     4   9  16  30  54  85 120 157 200 245 292 339
#     4  11  25  44  64  89 119 153 196 244 299 359
#
# _framework density 19.535936
#
# number of rings (size 3 to 8) (size 9 to 14) (size 15 to 20)
#    0.000    2.000    1.667    2.000    2.333    4.667 
#    0.000    0.000    0.000    6.000    0.000    0.000 
#    0.000    0.000    0.000    0.000    0.000    0.000 
#
# Total GULP energy -133902.572531 kJ/mol
# GULP energy per Si atom -5579.273855 kJ/mol
# Density = 1.949147 g / cm^3
# Si number density = 19.535936 Si / 1000 Ang^3
#
#
#
# Elastic Constant Matrix: (Units=GPa)
#
#
# Indices 1 2 3 4 5 6 
#
# 1 100.0530 34.2755 36.6220 0.0000 -30.0872 0.0000
# 2 34.2755 98.3561 5.4820 0.0000 -7.8469 0.0000
# 3 36.6220 5.4820 50.9616 0.0000 -24.8115 0.0000
# 4 0.0000 0.0000 0.0000 22.7827 0.0000 -6.7405
# 5 -30.0872 -7.8469 -24.8115 0.0000 25.0914 0.0000
# 6 0.0000 0.0000 0.0000 -6.7405 0.0000 29.5876
#
#
#
# Elastic Compliance Matrix: (Units=1/GPa)
#
#
# Indices 1 2 3 4 5 6 
#
# 1 0.018045 -0.004800 -0.005105 0.000000 0.015089 0.000000
# 2 -0.004800 0.011726 0.002258 0.000000 0.000144 0.000000
# 3 -0.005105 0.002258 0.039362 0.000000 0.033508 0.000000
# 4 0.000000 0.000000 0.000000 0.047065 0.000000 0.010722
# 5 0.015089 0.000144 0.033508 0.000000 0.091127 0.000000
# 6 0.000000 0.000000 0.000000 0.010722 0.000000 0.036241
#
#
# Mechanical properties :
#
#
# Convention : Reuss Voigt Hill
#
# Bulk Modulus (GPa) = 18.57374 44.68106 31.62740
# Shear Modulus (GPa) = 18.06327 27.02510 22.54418
#
# Velocity S-wave (km/s) = 3.04405 3.72338 3.40072
# Velocity P-wave (km/s) = 4.67794 6.43472 5.62533
#
# Compressibility (1/GPa) = 0.05383947
#
# Stress axis : x y z
#
# Youngs Moduli (GPa) = 55.41716 85.28402 25.40506
#
# Poissons Ratio (x) = 0.40937 0.12969
# Poissons Ratio (y) = 0.26601 -0.05737
# Poissons Ratio (z) = 0.28290 -0.19261
#
# Static dielectric constant tensor:
#      x y z
#    x 1.684740 0.000000 0.008260 
#    y 0.000000 1.656320 0.000000 
#    z 0.008260 0.000000 1.675470 
# 
# From -- ./inp_files/67313.got.cif
#   From: 2010.05.17/outbox.cif.g08.bks.cpg/sg12_34_cif.got.tgz:67313.got - 2010.06.03 13:09:07.
