data_PCOD9187755
_publ_section_title
;
Structure prediction by ZEFSAII (Michael W. Deem and Ramdas Pophale) SiO2 
 PCOD9187755
Probable space group: C 2/M
;
_chemical_formula_sum "Si O2"
_cell_formula_units_Z 40
_cell_length_a 18.428157
_cell_length_b 18.941313
_cell_length_c 12.062425
_cell_angle_alpha 90.000000
_cell_angle_beta 27.179575
_cell_angle_gamma 90.000000
_cell_volume 1923.244438
_symmetry_space_group_name_H-M "C 2/M"
_symmetry_group_IT_number 12
_symmetry_cell_setting 'monoclinic'
loop_
_space_group_symop_operation_xyz
x,y,z
-x,y,-z
-x,-y,-z
x,-y,z
1/2+x,1/2+y,z
1/2-x,1/2+y,-z
1/2-x,1/2-y,-z
1/2+x,1/2-y,z
loop_
_atom_site_type_symbol
_atom_site_label
_atom_site_fract_x
_atom_site_fract_y
_atom_site_fract_z
Si Si1 0.508426 0.654581 0.735707
Si Si2 0.665747 0.420146 0.843222
Si Si3 0.034162 0.712061 0.074465
Si Si4 0.181836 0.583501 0.590577
Si Si5 0.145710 0.780157 0.244476
O O1 0.543102 0.734235 0.731452
O O2 0.658791 0.606295 0.559777
O O3 0.448836 0.657497 0.691132
O O4 0.364342 0.629627 0.011940
O O5 0.696237 0.500000 0.840585
O O6 0.789807 0.401512 0.579116
O O7 0.500000 0.421226 0.000000
O O8 0.955401 0.635658 0.185836
O O9 0.220219 0.704811 0.847246
O O10 0.000000 0.743614 0.000000
O O11 0.154813 0.500000 0.640392
O O12 0.000000 0.738082 0.500000
O O13 0.250000 0.750000 0.000000
#
# Coordination Sequence:
#
# PCOD9187755 Si02
#       5
#     8   8   8   8   8
#     4  10  19  35  61  87 115 151 197 247 303 354
#     4   8  15  30  54  84 114 147 193 245 293 344
#     4  11  22  36  58  85 117 153 199 247 301 357
#     4  10  20  35  57  86 120 158 202 248 293 351
#     4  10  23  40  59  88 124 158 196 247 302 358
#
# _framework density 20.798186999999999
#
# number of rings (size 3 to 8) (size 9 to 14) (size 15 to 20)
#    0.000    2.200    0.000    5.400    0.000    8.400 
#    0.000    2.000    0.000    6.600    0.000    0.000 
#    0.000    0.000    0.000    0.000    0.000    0.000 
#
# Total GULP energy -111499.653210 kJ/mol
# GULP energy per Si atom -5574.982661 kJ/mol
# Density = 2.075085 g / cm^3
# Si number density = 20.798187 Si / 1000 Ang^3
#
#
#
# Elastic Constant Matrix: (Units=GPa)
#
#
# Indices 1 2 3 4 5 6 
#
# 1 119.4290 18.3648 21.0383 -0.0003 -0.4326 0.0003
# 2 18.3648 85.8755 22.9432 0.0000 -0.1816 0.0008
# 3 21.0383 22.9432 91.0177 -0.0004 -3.1685 0.0012
# 4 -0.0003 0.0000 -0.0004 29.4736 0.0007 10.0451
# 5 -0.4326 -0.1816 -3.1685 0.0007 23.3441 -0.0005
# 6 0.0003 0.0008 0.0012 10.0451 -0.0005 9.4138
#
#
#
# Elastic Compliance Matrix: (Units=1/GPa)
#
#
# Indices 1 2 3 4 5 6 
#
# 1 0.008894 -0.001450 -0.001693 0.000000 -0.000076 0.000000
# 2 -0.001450 0.012725 -0.002884 0.000000 -0.000319 -0.000001
# 3 -0.001693 -0.002884 0.012161 0.000001 0.001597 -0.000002
# 4 0.000000 0.000000 0.000001 0.053319 -0.000003 -0.056895
# 5 -0.000076 -0.000319 0.001597 -0.000003 0.043050 0.000005
# 6 0.000000 -0.000001 -0.000002 -0.056895 0.000005 0.166938
#
#
# Mechanical properties :
#
#
# Convention : Reuss Voigt Hill
#
# Bulk Modulus (GPa) = 46.02680 46.77946 46.40313
# Shear Modulus (GPa) = 15.80369 28.04468 21.92418
#
# Velocity S-wave (km/s) = 2.75954 3.67607 3.25027
# Velocity P-wave (km/s) = 5.68610 6.36858 6.03699
#
# Compressibility (1/GPa) = 0.02172647
#
# Stress axis : x y z
#
# Youngs Moduli (GPa) = 112.43427 78.58834 82.23248
#
# Poissons Ratio (x) = 0.11394 0.13922
# Poissons Ratio (y) = 0.16302 0.23712
# Poissons Ratio (z) = 0.19035 0.22661
#
# Static dielectric constant tensor:
#      x y z
#    x 1.785550 0.000000 0.030490 
#    y 0.000000 1.742820 0.000000 
#    z 0.030490 0.000000 1.824680 
# 
# From -- ./inp_files/48507.got.cif
#   From: 2010.05.17/outbox.cif.g08.bks.cpg/sg12_25_cif.got.tgz:48507.got - 2010.06.03 13:09:07.
