data_PCOD9187017
_publ_section_title
;
Structure prediction by ZEFSAII (Michael W. Deem and Ramdas Pophale) SiO2 
 PCOD9187017
Probable space group: C 2/M
;
_chemical_formula_sum "Si O2"
_cell_formula_units_Z 54
_cell_length_a 11.783917
_cell_length_b 14.059466
_cell_length_c 17.706154
_cell_angle_alpha 90.000000
_cell_angle_beta 69.605750
_cell_angle_gamma 90.000000
_cell_volume 2749.598082
_symmetry_space_group_name_H-M "C 2/M"
_symmetry_group_IT_number 12
_symmetry_cell_setting 'monoclinic'
loop_
_space_group_symop_operation_xyz
x,y,z
-x,y,-z
-x,-y,-z
x,-y,z
1/2+x,1/2+y,z
1/2-x,1/2+y,-z
1/2-x,1/2-y,-z
1/2+x,1/2-y,z
loop_
_atom_site_type_symbol
_atom_site_label
_atom_site_fract_x
_atom_site_fract_y
_atom_site_fract_z
Si Si1 0.835216 0.669701 0.588153
Si Si2 0.441021 0.391365 0.348459
Si Si3 0.715641 0.391183 0.997550
Si Si4 0.100055 0.719722 0.259833
Si Si5 0.000000 0.834912 0.500000
Si Si6 0.015303 0.391842 0.136819
Si Si7 0.500000 0.000000 0.500000
Si Si8 0.185713 0.268203 0.894348
O O1 0.692248 0.654507 0.625643
O O2 0.889238 0.672224 0.660707
O O3 0.883224 0.766544 0.539172
O O4 0.895694 0.583020 0.530503
O O5 0.440430 0.500000 0.320373
O O6 0.532650 0.320411 0.284863
O O7 0.479989 0.390597 0.427396
O O8 0.672789 0.500000 0.013774
O O9 0.649355 0.322655 0.953347
O O10 0.852959 0.393577 0.932737
O O11 0.728549 0.334891 0.073080
O O12 0.233465 0.735246 0.194744
O O13 0.031080 0.653976 0.215565
O O14 0.970470 0.500000 0.151613
O O15 0.926756 0.328447 0.107706
#
# Coordination Sequence:
#
# PCOD9187017 Si02
#       8
#     8   8   8   8   4   8   2   8
#     4  10  20  38  60  82 112 142 191 236 286 337
#     4  11  21  37  58  81 114 151 185 227 289 350
#     4   9  19  35  58  84 109 151 200 243 277 334
#     4  10  23  37  54  83 119 150 185 234 288 350
#     4   9  21  37  59  82 112 142 184 236 282 344
#     4  10  20  35  58  83 111 150 197 241 287 328
#     4  10  20  36  62  90  98 140 194 244 276 334
#     4  10  19  35  57  82 117 149 192 239 289 336
#
# _framework density 19.639233000000001
#
# number of rings (size 3 to 8) (size 9 to 14) (size 15 to 20)
#    0.000    2.074    0.741    2.444    1.037    2.370 
#    0.000    0.741    0.000   12.444    0.000    0.000 
#    0.000    0.000    0.000    0.000    0.000    0.000 
#
# Total GULP energy -150502.118584 kJ/mol
# GULP energy per Si atom -5574.152540 kJ/mol
# Density = 1.959453 g / cm^3
# Si number density = 19.639233 Si / 1000 Ang^3
#
#
#
# Elastic Constant Matrix: (Units=GPa)
#
#
# Indices 1 2 3 4 5 6 
#
# 1 55.7081 20.6236 -6.1726 0.0000 1.7377 0.0000
# 2 20.6236 104.8675 -9.4263 0.0000 9.6809 0.0000
# 3 -6.1726 -9.4263 27.9092 0.0000 7.1673 0.0000
# 4 0.0000 0.0000 0.0000 10.6891 0.0000 -0.5362
# 5 1.7377 9.6809 7.1673 0.0000 18.4088 0.0000
# 6 0.0000 0.0000 0.0000 -0.5362 0.0000 20.1789
#
#
#
# Elastic Compliance Matrix: (Units=1/GPa)
#
#
# Indices 1 2 3 4 5 6 
#
# 1 0.019654 -0.003411 0.003567 0.000000 -0.001451 0.000000
# 2 -0.003411 0.011363 0.005039 0.000000 -0.007615 0.000000
# 3 0.003567 0.005039 0.043431 0.000000 -0.019896 0.000000
# 4 0.000000 0.000000 0.000000 0.093678 0.000000 0.002489
# 5 -0.001451 -0.007615 -0.019896 0.000000 0.066210 0.000000
# 6 0.000000 0.000000 0.000000 0.002489 0.000000 0.049623
#
#
# Mechanical properties :
#
#
# Convention : Reuss Voigt Hill
#
# Bulk Modulus (GPa) = 11.78703 22.05936 16.92320
# Shear Modulus (GPa) = 16.56469 22.08601 19.32535
#
# Velocity S-wave (km/s) = 2.90737 3.35712 3.14031
# Velocity P-wave (km/s) = 4.15755 5.12676 4.66738
#
# Compressibility (1/GPa) = 0.08483901
#
# Stress axis : x y z
#
# Youngs Moduli (GPa) = 50.88058 88.00845 23.02505
#
# Poissons Ratio (x) = 0.30016 -0.08214
# Poissons Ratio (y) = 0.17353 -0.11602
# Poissons Ratio (z) = -0.18151 -0.44348
#
# Static dielectric constant tensor:
#      x y z
#    x 1.693110 0.000000 0.000110 
#    y 0.000000 1.670340 0.000000 
#    z 0.000110 0.000000 1.691770 
# 
# From -- ./inp_files/262866.got.cif
#   From: 2010.05.17/outbox.cif.g08.bks.cpg/sg12_132_cif.got.tgz:262866.got - 2010.06.03 13:09:07.
