data_PCOD9187197
_publ_section_title
;
Structure prediction by ZEFSAII (Michael W. Deem and Ramdas Pophale) SiO2 
 PCOD9187197
Probable space group: C 2/M
;
_chemical_formula_sum "Si O2"
_cell_formula_units_Z 48
_cell_length_a 21.342478
_cell_length_b 23.319424
_cell_length_c 5.583448
_cell_angle_alpha 90.000000
_cell_angle_beta 54.586531
_cell_angle_gamma 90.000000
_cell_volume 2264.739569
_symmetry_space_group_name_H-M "C 2/M"
_symmetry_group_IT_number 12
_symmetry_cell_setting 'monoclinic'
loop_
_space_group_symop_operation_xyz
x,y,z
-x,y,-z
-x,-y,-z
x,-y,z
1/2+x,1/2+y,z
1/2-x,1/2+y,-z
1/2-x,1/2-y,-z
1/2+x,1/2-y,z
loop_
_atom_site_type_symbol
_atom_site_label
_atom_site_fract_x
_atom_site_fract_y
_atom_site_fract_z
Si Si1 0.482470 0.203103 0.290029
Si Si2 0.091466 0.434162 0.308325
Si Si3 0.959261 0.169437 0.839136
Si Si4 0.162835 0.569370 0.653809
Si Si5 0.207220 0.154142 0.634361
Si Si6 0.310897 0.752148 0.654543
O O1 0.500000 0.172321 0.500000
O O2 0.535049 0.260833 0.165975
O O3 0.395975 0.225152 0.506563
O O4 0.500000 0.173279 0.000000
O O5 0.121184 0.500000 0.242672
O O6 0.122156 0.410369 0.495214
O O7 0.000000 0.439255 0.500000
O O8 0.123471 0.408881 0.988029
O O9 0.000000 0.151797 0.500000
O O10 0.869820 0.152595 0.038348
O O11 0.000000 0.150387 0.000000
O O12 0.159426 0.500000 0.661242
O O13 0.248844 0.594413 0.472346
O O14 0.272114 0.199990 0.570862
O O15 0.179942 0.186814 0.455844
O O16 0.250000 0.750000 0.000000
#
# Coordination Sequence:
#
# PCOD9187197 Si02
#       6
#     8   8   8   8   8   8
#     4  10  19  36  56  79 110 153 195 235 280 352
#     4   9  18  37  65  89 118 162 208 248 298 361
#     4  10  19  35  58  83 108 155 201 236 287 361
#     4  10  22  39  63  93 123 160 205 253 303 357
#     4  11  24  38  61  90 122 160 199 252 307 360
#     4  11  23  38  61  88 120 159 200 250 303 362
#
# _framework density 21.194489999999998
#
# number of rings (size 3 to 8) (size 9 to 14) (size 15 to 20)
#    0.000    1.833    3.333    2.500    4.667    2.000 
#    0.000    2.500    0.000    1.000    0.000    0.000 
#    0.000    0.667    0.000    0.000    0.000    0.000 
#
# Total GULP energy -133898.526239 kJ/mol
# GULP energy per Si atom -5579.105260 kJ/mol
# Density = 2.114625 g / cm^3
# Si number density = 21.194490 Si / 1000 Ang^3
#
#
#
# Elastic Constant Matrix: (Units=GPa)
#
#
# Indices 1 2 3 4 5 6 
#
# 1 119.5939 27.3314 74.5108 0.0000 10.3038 0.0000
# 2 27.3314 38.2527 27.3734 0.0000 5.6724 0.0000
# 3 74.5108 27.3734 184.7620 0.0000 12.7351 0.0000
# 4 0.0000 0.0000 0.0000 21.2470 0.0000 -5.2537
# 5 10.3038 5.6724 12.7351 0.0000 43.6308 0.0000
# 6 0.0000 0.0000 0.0000 -5.2537 0.0000 5.4300
#
#
#
# Elastic Compliance Matrix: (Units=1/GPa)
#
#
# Indices 1 2 3 4 5 6 
#
# 1 0.012268 -0.005737 -0.004030 0.000000 -0.000975 0.000000
# 2 -0.005737 0.032214 -0.002310 0.000000 -0.002159 0.000000
# 3 -0.004030 -0.002310 0.007443 0.000000 -0.000920 0.000000
# 4 0.000000 0.000000 0.000000 0.061867 0.000000 0.059859
# 5 -0.000975 -0.002159 -0.000920 0.000000 0.023699 0.000000
# 6 0.000000 0.000000 0.000000 0.059859 0.000000 0.242079
#
#
# Mechanical properties :
#
#
# Convention : Reuss Voigt Hill
#
# Bulk Modulus (GPa) = 36.00903 66.78219 51.39561
# Shear Modulus (GPa) = 12.10709 28.28775 20.19742
#
# Velocity S-wave (km/s) = 2.39265 3.65728 3.09035
# Velocity P-wave (km/s) = 4.96586 7.02936 6.08571
#
# Compressibility (1/GPa) = 0.02777081
#
# Stress axis : x y z
#
# Youngs Moduli (GPa) = 81.51586 31.04221 134.34734
#
# Poissons Ratio (x) = 0.17808 0.54144
# Poissons Ratio (y) = 0.46762 0.31040
# Poissons Ratio (z) = 0.32852 0.07172
#
# Static dielectric constant tensor:
#      x y z
#    x 1.890190 0.000000 0.074490 
#    y 0.000000 1.791320 0.000000 
#    z 0.074490 0.000000 1.805330 
# 
# From -- ./inp_files/16945.got.cif
#   From: 2010.05.17/outbox.cif.g08.bks.cpg/sg12_9_cif.got.tgz:16945.got - 2010.06.03 13:09:07.
