data_PCOD9187750
_publ_section_title
;
Structure prediction by ZEFSAII (Michael W. Deem and Ramdas Pophale) SiO2 
 PCOD9187750
Probable space group: C 2/M
;
_chemical_formula_sum "Si O2"
_cell_formula_units_Z 44
_cell_length_a 18.690592
_cell_length_b 13.457155
_cell_length_c 9.482806
_cell_angle_alpha 90.000000
_cell_angle_beta 100.094109
_cell_angle_gamma 90.000000
_cell_volume 2348.217134
_symmetry_space_group_name_H-M "C 2/M"
_symmetry_group_IT_number 12
_symmetry_cell_setting 'monoclinic'
loop_
_space_group_symop_operation_xyz
x,y,z
-x,y,-z
-x,-y,-z
x,-y,z
1/2+x,1/2+y,z
1/2-x,1/2+y,-z
1/2-x,1/2-y,-z
1/2+x,1/2-y,z
loop_
_atom_site_type_symbol
_atom_site_label
_atom_site_fract_x
_atom_site_fract_y
_atom_site_fract_z
Si Si1 0.743326 0.114794 0.590435
Si Si2 0.373795 0.387756 0.411447
Si Si3 0.000000 0.729608 0.500000
Si Si4 0.101265 0.383436 0.349580
Si Si5 0.685223 0.756555 0.156455
Si Si6 0.810228 0.886651 0.077852
O O1 0.803316 0.127753 0.486816
O O2 0.664422 0.126970 0.491698
O O3 0.763463 0.191209 0.721034
O O4 0.748852 0.000000 0.641214
O O5 0.400539 0.500000 0.453380
O O6 0.432713 0.303425 0.454570
O O7 0.351514 0.385504 0.240572
O O8 0.974211 0.657897 0.616658
O O9 0.098402 0.500000 0.312358
O O10 0.127977 0.315222 0.230878
O O11 0.733107 0.836770 0.088738
O O12 0.654253 0.679830 0.031414
O O13 0.802247 0.000000 0.028924
#
# Coordination Sequence:
#
# PCOD9187750 Si02
#       6
#     8   8   4   8   8   8
#     4  10  19  35  61  87 110 141 191 240 279 324
#     4  10  20  37  59  85 113 144 187 237 282 329
#     4  12  22  36  58  84 118 150 190 224 278 340
#     4  11  22  36  57  85 115 150 188 233 278 328
#     4  11  19  34  58  85 115 147 184 230 282 335
#     4  10  21  35  55  85 117 146 182 232 285 333
#
# _framework density 18.737618999999999
#
# number of rings (size 3 to 8) (size 9 to 14) (size 15 to 20)
#    0.000    1.455    3.636    3.273    0.000    0.000 
#    0.000    0.909    0.000    6.545    0.000    0.000 
#    0.000    0.000    0.000    0.000    0.000    0.000 
#
# Total GULP energy -122811.906149 kJ/mol
# GULP energy per Si atom -5582.359370 kJ/mol
# Density = 1.869497 g / cm^3
# Si number density = 18.737619 Si / 1000 Ang^3
#
#
#
# Elastic Constant Matrix: (Units=GPa)
#
#
# Indices 1 2 3 4 5 6 
#
# 1 44.2230 24.3023 -8.8389 0.0000 -14.4537 0.0000
# 2 24.3023 136.2902 20.3097 0.0000 -11.7429 0.0000
# 3 -8.8389 20.3097 37.3128 0.0000 -11.1427 0.0000
# 4 0.0000 0.0000 0.0000 37.6362 0.0000 -0.7754
# 5 -14.4537 -11.7429 -11.1427 0.0000 20.1314 0.0000
# 6 0.0000 0.0000 0.0000 -0.7754 0.0000 12.9072
#
#
#
# Elastic Compliance Matrix: (Units=1/GPa)
#
#
# Indices 1 2 3 4 5 6 
#
# 1 0.049201 -0.009311 0.030730 0.000000 0.046902 0.000000
# 2 -0.009311 0.009871 -0.009411 0.000000 -0.006136 0.000000
# 3 0.030730 -0.009411 0.052895 0.000000 0.045850 0.000000
# 4 0.000000 0.000000 0.000000 0.026603 0.000000 0.001598
# 5 0.046902 -0.006136 0.045850 0.000000 0.105147 0.000000
# 6 0.000000 0.000000 0.000000 0.001598 0.000000 0.077572
#
#
# Mechanical properties :
#
#
# Convention : Reuss Voigt Hill
#
# Bulk Modulus (GPa) = 7.35395 32.15247 19.75321
# Shear Modulus (GPa) = 14.59419 26.27181 20.43300
#
# Velocity S-wave (km/s) = 2.79385 3.74851 3.30582
# Velocity P-wave (km/s) = 3.78691 5.99430 5.01360
#
# Compressibility (1/GPa) = 0.13598133
#
# Stress axis : x y z
#
# Youngs Moduli (GPa) = 20.32478 101.30322 18.90546
#
# Poissons Ratio (x) = 0.94327 -0.58096
# Poissons Ratio (y) = 0.18925 0.17792
# Poissons Ratio (z) = -0.62457 0.95339
#
# Static dielectric constant tensor:
#      x y z
#    x 1.621460 0.000000 0.000440 
#    y 0.000000 1.688670 0.000000 
#    z 0.000440 0.000000 1.649310 
# 
# From -- ./inp_files/73197.got.cif
#   From: 2010.05.17/outbox.cif.g08.bks.cpg/sg12_37_cif.got.tgz:73197.got - 2010.06.03 13:09:07.
