data_PCOD9187060
_publ_section_title
;
Structure prediction by ZEFSAII (Michael W. Deem and Ramdas Pophale) SiO2 
 PCOD9187060
Probable space group: C 2/M
;
_chemical_formula_sum "Si O2"
_cell_formula_units_Z 48
_cell_length_a 8.665250
_cell_length_b 16.954908
_cell_length_c 14.206421
_cell_angle_alpha 90.000000
_cell_angle_beta 62.539309
_cell_angle_gamma 90.000000
_cell_volume 1852.017627
_symmetry_space_group_name_H-M "C 2/M"
_symmetry_group_IT_number 12
_symmetry_cell_setting 'monoclinic'
loop_
_space_group_symop_operation_xyz
x,y,z
-x,y,-z
-x,-y,-z
x,-y,z
1/2+x,1/2+y,z
1/2-x,1/2+y,-z
1/2-x,1/2-y,-z
1/2+x,1/2-y,z
loop_
_atom_site_type_symbol
_atom_site_label
_atom_site_fract_x
_atom_site_fract_y
_atom_site_fract_z
Si Si1 0.008555 0.738225 0.110104
Si Si2 0.163887 0.774573 0.329760
Si Si3 0.990951 0.086272 0.888634
Si Si4 0.378263 0.085098 0.811356
Si Si5 0.608062 0.858284 0.589580
Si Si6 0.573501 0.584677 0.586988
O O1 0.818565 0.735201 0.212198
O O2 0.082320 0.826337 0.112244
O O3 0.105444 0.662658 0.128294
O O4 0.000000 0.730944 0.000000
O O5 0.251375 0.800603 0.402071
O O6 0.054819 0.697280 0.381635
O O7 0.029704 0.843575 0.337892
O O8 0.196422 0.087730 0.806002
O O9 0.916566 0.000000 0.880849
O O10 0.000000 0.084663 0.000000
O O11 0.538619 0.087543 0.693877
O O12 0.381425 0.000000 0.861125
O O13 0.719688 0.902912 0.480610
O O14 0.500000 0.581095 0.500000
O O15 0.536155 0.500000 0.641562
#
# Coordination Sequence:
#
# PCOD9187060 Si02
#       6
#     8   8   8   8   8   8
#     4  10  21  35  54  82 113 151 189 238 288 335
#     4  10  20  35  55  84 112 146 187 239 282 341
#     4   9  18  34  54  76 105 143 189 235 283 337
#     4  10  20  35  56  81 111 147 196 242 280 344
#     4  10  19  35  57  84 110 145 189 233 291 340
#     4   9  18  33  57  83 110 144 186 235 289 343
#
# _framework density 25.917679
#
# number of rings (size 3 to 8) (size 9 to 14) (size 15 to 20)
#    0.000    2.333    1.667    1.000    0.000    7.000 
#    0.000    0.000    0.000    8.000    0.000    0.000 
#    0.000    0.000    0.000    0.000    0.000    0.000 
#
# Total GULP energy -134196.699076 kJ/mol
# GULP energy per Si atom -5591.529128 kJ/mol
# Density = 2.585869 g / cm^3
# Si number density = 25.917679 Si / 1000 Ang^3
#
#
#
# Elastic Constant Matrix: (Units=GPa)
#
#
# Indices 1 2 3 4 5 6 
#
# 1 46.2750 34.2849 10.0879 0.0000 -9.1826 0.0000
# 2 34.2849 250.4200 25.4680 0.0000 2.9176 0.0000
# 3 10.0879 25.4680 119.2931 0.0000 -13.4734 0.0000
# 4 0.0000 0.0000 0.0000 21.0517 0.0000 1.8533
# 5 -9.1826 2.9176 -13.4734 0.0000 42.9806 0.0000
# 6 0.0000 0.0000 0.0000 1.8533 0.0000 16.9096
#
#
#
# Elastic Compliance Matrix: (Units=1/GPa)
#
#
# Indices 1 2 3 4 5 6 
#
# 1 0.025424 -0.003463 -0.000799 0.000000 0.005416 0.000000
# 2 -0.003463 0.004567 -0.000830 0.000000 -0.001310 0.000000
# 3 -0.000799 -0.000830 0.008931 0.000000 0.002685 0.000000
# 4 0.000000 0.000000 0.000000 0.047965 0.000000 -0.005257
# 5 0.005416 -0.001310 0.002685 0.000000 0.025354 0.000000
# 6 0.000000 0.000000 0.000000 -0.005257 0.000000 0.059714
#
#
# Mechanical properties :
#
#
# Convention : Reuss Voigt Hill
#
# Bulk Modulus (GPa) = 34.79643 61.74107 48.26875
# Shear Modulus (GPa) = 26.07987 39.26488 32.67237
#
# Velocity S-wave (km/s) = 3.17560 3.89650 3.55437
# Velocity P-wave (km/s) = 5.18660 6.64209 5.95895
#
# Compressibility (1/GPa) = 0.02873858
#
# Stress axis : x y z
#
# Youngs Moduli (GPa) = 39.33228 218.95916 111.97212
#
# Poissons Ratio (x) = 0.75819 0.08946
# Poissons Ratio (y) = 0.13620 0.09296
# Poissons Ratio (z) = 0.03143 0.18177
#
# Static dielectric constant tensor:
#      x y z
#    x 2.087820 0.000000 0.019960 
#    y 0.000000 2.072890 0.000000 
#    z 0.019960 0.000000 2.074610 
# 
# From -- ./inp_files/204361.got.cif
#   From: 2010.05.17/outbox.cif.g08.bks.cpg/sg12_103_cif.got.tgz:204361.got - 2010.06.03 13:09:07.
