data_PCOD9187731
_publ_section_title
;
Structure prediction by ZEFSAII (Michael W. Deem and Ramdas Pophale) SiO2 
 PCOD9187731
Probable space group: C 2/M
;
_chemical_formula_sum "Si O2"
_cell_formula_units_Z 48
_cell_length_a 10.192883
_cell_length_b 15.058205
_cell_length_c 17.974870
_cell_angle_alpha 90.000000
_cell_angle_beta 75.782897
_cell_angle_gamma 90.000000
_cell_volume 2674.400903
_symmetry_space_group_name_H-M "C 2/M"
_symmetry_group_IT_number 12
_symmetry_cell_setting 'monoclinic'
loop_
_space_group_symop_operation_xyz
x,y,z
-x,y,-z
-x,-y,-z
x,-y,z
1/2+x,1/2+y,z
1/2-x,1/2+y,-z
1/2-x,1/2-y,-z
1/2+x,1/2-y,z
loop_
_atom_site_type_symbol
_atom_site_label
_atom_site_fract_x
_atom_site_fract_y
_atom_site_fract_z
Si Si1 0.849076 0.332626 0.994251
Si Si2 0.910343 0.763336 0.726508
Si Si3 0.656711 0.894086 0.504512
Si Si4 0.296090 0.746795 0.377385
Si Si5 0.058402 0.398239 0.176274
Si Si6 0.243798 0.599785 0.838890
O O1 0.867127 0.379701 0.912404
O O2 0.750000 0.250000 0.000000
O O3 0.788925 0.391539 0.069197
O O4 0.000000 0.305590 0.000000
O O5 0.820245 0.769135 0.665383
O O6 0.894310 0.667322 0.766472
O O7 0.854521 0.832118 0.794857
O O8 0.065737 0.777022 0.683758
O O9 0.500000 0.889371 0.500000
O O10 0.674577 0.834427 0.576443
O O11 0.746475 0.837250 0.433446
O O12 0.690528 0.000000 0.506815
O O13 0.075231 0.500000 0.195131
O O14 0.899186 0.381382 0.182099
O O15 0.284719 0.500000 0.815266
#
# Coordination Sequence:
#
# PCOD9187731 Si02
#       6
#     8   8   8   8   8   8
#     4  10  19  35  61  83 114 157 209 253 290 343
#     4  12  22  38  61  89 127 157 191 243 303 349
#     4  10  22  43  69  91 116 157 197 233 288 357
#     4  11  24  40  63  95 122 151 193 245 289 353
#     4  10  21  37  60  87 116 162 210 245 290 353
#     4  10  21  37  59  87 119 160 205 249 297 346
#
# _framework density 17.947945000000001
#
# number of rings (size 3 to 8) (size 9 to 14) (size 15 to 20)
#    0.000    1.500    5.000    0.500    0.000    4.667 
#    0.000    0.833    0.000    1.000    0.000    0.000 
#    0.000    0.000    0.000    0.000    0.000    0.000 
#
# Total GULP energy -133923.759700 kJ/mol
# GULP energy per Si atom -5580.156654 kJ/mol
# Density = 1.790709 g / cm^3
# Si number density = 17.947945 Si / 1000 Ang^3
#
#
#
# Elastic Constant Matrix: (Units=GPa)
#
#
# Indices 1 2 3 4 5 6 
#
# 1 43.8552 35.2011 12.4638 0.0000 -12.7460 0.0000
# 2 35.2011 116.4230 35.3937 0.0000 -10.6878 0.0000
# 3 12.4638 35.3937 60.1105 0.0000 -7.9558 0.0000
# 4 0.0000 0.0000 0.0000 -12.1456 0.0000 17.5988
# 5 -12.7460 -10.6878 -7.9558 0.0000 38.1097 0.0000
# 6 0.0000 0.0000 0.0000 17.5988 0.0000 20.6679
#
#
#
# Elastic Compliance Matrix: (Units=1/GPa)
#
#
# Indices 1 2 3 4 5 6 
#
# 1 0.032502 -0.008954 -0.000371 0.000000 0.008282 0.000000
# 2 -0.008954 0.013036 -0.005895 0.000000 -0.000569 0.000000
# 3 -0.000371 -0.005895 0.020515 0.000000 0.002506 0.000000
# 4 0.000000 0.000000 0.000000 -0.036858 0.000000 0.031385
# 5 0.008282 -0.000569 0.002506 0.000000 0.029373 0.000000
# 6 0.000000 0.000000 0.000000 0.031385 0.000000 0.021660
#
#
# Mechanical properties :
#
#
# Convention : Reuss Voigt Hill
#
# Bulk Modulus (GPa) = 28.07843 42.94512 35.51178
# Shear Modulus (GPa) = 40.80298 18.48172 29.64235
#
# Velocity S-wave (km/s) = 4.77320 3.21244 4.06836
# Velocity P-wave (km/s) = 6.78647 6.14323 6.47285
#
# Compressibility (1/GPa) = 0.03561452
#
# Stress axis : x y z
#
# Youngs Moduli (GPa) = 30.76741 76.70772 48.74371
#
# Poissons Ratio (x) = 0.68685 0.01807
# Poissons Ratio (y) = 0.27549 0.28733
# Poissons Ratio (z) = 0.01141 0.45217
#
# Static dielectric constant tensor:
#      x y z
#    x 1.587930 0.000000 -0.001940 
#    y 0.000000 1.588650 0.000000 
#    z -0.001940 0.000000 1.635580 
# 
# From -- ./inp_files/255786.got.cif
#   From: 2010.05.17/outbox.cif.g08.bks.cpg/sg12_128_cif.got.tgz:255786.got - 2010.06.03 13:09:07.
