data_PCOD9187194
_publ_section_title
;
Structure prediction by ZEFSAII (Michael W. Deem and Ramdas Pophale) SiO2 
 PCOD9187194
Probable space group: C 2/M
;
_chemical_formula_sum "Si O2"
_cell_formula_units_Z 40
_cell_length_a 10.109740
_cell_length_b 28.038049
_cell_length_c 16.052103
_cell_angle_alpha 90.000000
_cell_angle_beta 152.988389
_cell_angle_gamma 90.000000
_cell_volume 2066.517872
_symmetry_space_group_name_H-M "C 2/M"
_symmetry_group_IT_number 12
_symmetry_cell_setting 'monoclinic'
loop_
_space_group_symop_operation_xyz
x,y,z
-x,y,-z
-x,-y,-z
x,-y,z
1/2+x,1/2+y,z
1/2-x,1/2+y,-z
1/2-x,1/2-y,-z
1/2+x,1/2-y,z
loop_
_atom_site_type_symbol
_atom_site_label
_atom_site_fract_x
_atom_site_fract_y
_atom_site_fract_z
Si Si1 0.956557 0.445566 0.378086
Si Si2 0.994902 0.272835 0.696407
Si Si3 0.820121 0.380423 0.643696
Si Si4 0.679681 0.698243 0.275153
Si Si5 0.913473 0.891106 0.044893
O O1 0.041020 0.500000 0.407533
O O2 0.613645 0.437117 0.169379
O O3 0.000000 0.435926 0.500000
O O4 0.122590 0.408752 0.410535
O O5 0.750000 0.250000 0.500000
O O6 0.884189 0.324317 0.665271
O O7 0.012084 0.235311 0.780434
O O8 0.260691 0.280678 0.783110
O O9 0.500000 0.387147 0.500000
O O10 0.069916 0.398113 0.847636
O O11 0.521002 0.648168 0.170979
O O12 0.000000 0.692228 0.500000
O O13 0.000000 0.873711 0.000000
#
# Coordination Sequence:
#
# PCOD9187194 Si02
#       5
#     8   8   8   8   8
#     4  10  22  42  71  93 113 154 203 250 307 368
#     4  10  20  34  57  86 118 168 202 246 293 353
#     4  11  23  40  58  88 129 156 201 248 304 355
#     4  10  19  35  58  82 119 161 206 248 294 346
#     4  10  20  37  61  88 120 159 203 250 290 361
#
# _framework density 19.356233
#
# number of rings (size 3 to 8) (size 9 to 14) (size 15 to 20)
#    0.000    1.800    4.000    2.400    2.800    4.800 
#    0.000    1.000    0.000    2.400    0.000    0.000 
#    0.000    0.000    0.000    0.000    0.000    0.000 
#
# Total GULP energy -111559.314173 kJ/mol
# GULP energy per Si atom -5577.965709 kJ/mol
# Density = 1.931218 g / cm^3
# Si number density = 19.356233 Si / 1000 Ang^3
#
#
#
# Elastic Constant Matrix: (Units=GPa)
#
#
# Indices 1 2 3 4 5 6 
#
# 1 76.8459 23.1783 34.8927 0.0000 0.9132 0.0000
# 2 23.1783 68.0838 2.2375 0.0000 -15.5612 0.0000
# 3 34.8927 2.2375 86.2670 -0.0002 1.0870 0.0000
# 4 0.0000 0.0000 -0.0002 14.6647 0.0000 2.6041
# 5 0.9132 -15.5612 1.0870 0.0000 29.1649 0.0000
# 6 0.0000 0.0000 0.0000 2.6041 0.0000 18.4862
#
#
#
# Elastic Compliance Matrix: (Units=1/GPa)
#
#
# Indices 1 2 3 4 5 6 
#
# 1 0.018442 -0.006960 -0.007228 0.000000 -0.004022 0.000000
# 2 -0.006960 0.019380 0.002180 0.000000 0.010477 0.000000
# 3 -0.007228 0.002180 0.014448 0.000000 0.000851 0.000000
# 4 0.000000 0.000000 0.000000 0.069941 0.000000 -0.009852
# 5 -0.004022 0.010477 0.000851 0.000000 0.039972 0.000000
# 6 0.000000 0.000000 0.000000 -0.009852 0.000000 0.055482
#
#
# Mechanical properties :
#
#
# Convention : Reuss Voigt Hill
#
# Bulk Modulus (GPa) = 35.39174 39.09041 37.24107
# Shear Modulus (GPa) = 19.91242 23.85571 21.88406
#
# Velocity S-wave (km/s) = 3.21087 3.51444 3.36608
# Velocity P-wave (km/s) = 5.66307 6.05867 5.86421
#
# Compressibility (1/GPa) = 0.02825518
#
# Stress axis : x y z
#
# Youngs Moduli (GPa) = 54.22357 51.59896 69.21256
#
# Poissons Ratio (x) = 0.35913 0.50028
# Poissons Ratio (y) = 0.37740 -0.15092
# Poissons Ratio (z) = 0.39194 -0.11251
#
# Static dielectric constant tensor:
#      x y z
#    x -5.269730 0.000000 -6.506120 
#    y 0.000000 1.676700 0.000000 
#    z -6.506120 0.000000 -4.328480 
# 
# From -- ./inp_files/201421.got.cif
#   From: 2010.05.17/outbox.cif.g08.bks.cpg/sg12_101_cif.got.tgz:201421.got - 2010.06.03 13:09:07.
