data_PCOD9187535
_publ_section_title
;
Structure prediction by ZEFSAII (Michael W. Deem and Ramdas Pophale) SiO2 
 PCOD9187535
Probable space group: C 2/M
;
_chemical_formula_sum "Si O2"
_cell_formula_units_Z 40
_cell_length_a 21.675292
_cell_length_b 10.221237
_cell_length_c 7.631578
_cell_angle_alpha 90.000000
_cell_angle_beta 86.033785
_cell_angle_gamma 90.000000
_cell_volume 1686.713744
_symmetry_space_group_name_H-M "C 2/M"
_symmetry_group_IT_number 12
_symmetry_cell_setting 'monoclinic'
loop_
_space_group_symop_operation_xyz
x,y,z
-x,y,-z
-x,-y,-z
x,-y,z
1/2+x,1/2+y,z
1/2-x,1/2+y,-z
1/2-x,1/2-y,-z
1/2+x,1/2-y,z
loop_
_atom_site_type_symbol
_atom_site_label
_atom_site_fract_x
_atom_site_fract_y
_atom_site_fract_z
Si Si1 0.596092 0.500000 0.025277
Si Si2 0.932251 0.711489 0.554503
Si Si3 0.931691 0.710604 0.971230
Si Si4 0.243956 0.000000 0.421372
Si Si5 0.162345 0.697498 0.719815
Si Si6 0.095209 0.000000 0.431139
Si Si7 0.198872 0.000000 0.767797
O O1 0.568319 0.363588 0.966408
O O2 0.581544 0.500000 0.230141
O O3 0.670358 0.500000 0.971330
O O4 0.919861 0.701632 0.765028
O O5 0.879493 0.657905 0.438452
O O6 0.000000 0.657719 0.500000
O O7 0.932032 0.864979 0.495750
O O8 0.875902 0.656168 0.099860
O O9 0.000000 0.657778 0.000000
O O10 0.273147 0.124478 0.320286
O O11 0.169727 0.000000 0.427613
O O12 0.258539 0.000000 0.628810
O O13 0.174615 0.853061 0.724224
#
# Coordination Sequence:
#
# PCOD9187535 Si02
#       7
#     4   8   8   4   8   4   4
#     4   8  19  33  54  96 120 151 201 259 314 358
#     4  11  20  36  64  92 123 156 207 260 312 361
#     4  10  19  35  59  88 124 158 203 254 311 363
#     4  12  24  41  62  87 129 168 208 247 299 373
#     4  11  23  41  61  94 123 165 206 252 309 364
#     4  10  21  36  58  94 126 161 199 258 316 360
#     4  10  20  40  65  85 121 160 207 253 305 354
#
# _framework density 23.714753999999999
#
# number of rings (size 3 to 8) (size 9 to 14) (size 15 to 20)
#    0.000    1.600    4.000    1.200    0.000    0.000 
#    3.600    4.000    0.000    0.000    0.000    0.000 
#    0.000    0.000    0.000    0.000    0.000    0.000 
#
# Total GULP energy -111374.364912 kJ/mol
# GULP energy per Si atom -5568.718246 kJ/mol
# Density = 2.366078 g / cm^3
# Si number density = 23.714754 Si / 1000 Ang^3
#
#
#
# Elastic Constant Matrix: (Units=GPa)
#
#
# Indices 1 2 3 4 5 6 
#
# 1 82.1041 27.7920 1.7201 0.0000 -21.9311 0.0000
# 2 27.7920 99.6789 18.7874 0.0000 -4.3943 0.0000
# 3 1.7201 18.7874 101.5076 0.0000 -23.3406 0.0000
# 4 0.0000 0.0000 0.0000 27.8358 0.0000 -45.7547
# 5 -21.9311 -4.3943 -23.3406 0.0000 41.1118 0.0000
# 6 0.0000 0.0000 0.0000 -45.7547 0.0000 37.5573
#
#
#
# Elastic Compliance Matrix: (Units=1/GPa)
#
#
# Indices 1 2 3 4 5 6 
#
# 1 0.016319 -0.004653 0.002843 0.000000 0.009822 0.000000
# 2 -0.004653 0.011721 -0.002730 0.000000 -0.002779 0.000000
# 3 0.002843 -0.002730 0.012180 0.000000 0.008140 0.000000
# 4 0.000000 0.000000 0.000000 -0.035835 0.000000 -0.043657
# 5 0.009822 -0.002779 0.008140 0.000000 0.033888 0.000000
# 6 0.000000 0.000000 0.000000 -0.043657 0.000000 -0.026560
#
#
# Mechanical properties :
#
#
# Convention : Reuss Voigt Hill
#
# Bulk Modulus (GPa) = 32.11115 42.20994 37.16055
# Shear Modulus (GPa) = 160.39791 36.96704 98.68248
#
# Velocity S-wave (km/s) = 8.23305 3.95247 6.45776
# Velocity P-wave (km/s) = 10.19547 6.21828 8.44436
#
# Compressibility (1/GPa) = 0.03114183
#
# Stress axis : x y z
#
# Youngs Moduli (GPa) = 61.27958 85.31370 82.10037
#
# Poissons Ratio (x) = 0.39694 -0.23342
# Poissons Ratio (y) = 0.28512 0.22410
# Poissons Ratio (z) = -0.17422 0.23287
#
# Static dielectric constant tensor:
#      x y z
#    x 1.883280 0.000000 0.021840 
#    y 0.000000 1.983020 0.000000 
#    z 0.021840 0.000000 1.950200 
# 
# From -- ./inp_files/83543.got.cif
#   From: 2010.05.17/outbox.cif.g08.bks.cpg/sg12_42_cif.got.tgz:83543.got - 2010.06.03 13:09:07.
