data_PCOD9187381
_publ_section_title
;
Structure prediction by ZEFSAII (Michael W. Deem and Ramdas Pophale) SiO2 
 PCOD9187381
Probable space group: C 2/M
;
_chemical_formula_sum "Si O2"
_cell_formula_units_Z 64
_cell_length_a 21.174918
_cell_length_b 7.803988
_cell_length_c 22.993701
_cell_angle_alpha 90.000000
_cell_angle_beta 123.835972
_cell_angle_gamma 90.000000
_cell_volume 3156.148732
_symmetry_space_group_name_H-M "C 2/M"
_symmetry_group_IT_number 12
_symmetry_cell_setting 'monoclinic'
loop_
_space_group_symop_operation_xyz
x,y,z
-x,y,-z
-x,-y,-z
x,-y,z
1/2+x,1/2+y,z
1/2-x,1/2+y,-z
1/2-x,1/2-y,-z
1/2+x,1/2-y,z
loop_
_atom_site_type_symbol
_atom_site_label
_atom_site_fract_x
_atom_site_fract_y
_atom_site_fract_z
Si Si1 0.684931 0.297731 0.596497
Si Si2 0.219793 0.703311 0.048460
Si Si3 0.592075 0.792454 0.434639
Si Si4 0.644855 0.209857 0.333164
Si Si5 0.419119 0.204038 0.348791
Si Si6 0.636448 0.205667 0.803726
Si Si7 0.047353 0.289870 0.968276
Si Si8 0.501300 0.790540 0.184182
O O1 0.690448 0.500000 0.607908
O O2 0.645549 0.264270 0.514473
O O3 0.771010 0.228728 0.640033
O O4 0.631912 0.231448 0.620946
O O5 0.214100 0.500000 0.047262
O O6 0.281500 0.755438 0.127870
O O7 0.250000 0.750000 0.000000
O O8 0.134674 0.770901 0.014530
O O9 0.622220 0.737444 0.386929
O O10 0.505417 0.730269 0.399192
O O11 0.591700 0.000000 0.434886
O O12 0.579224 0.263993 0.254853
O O13 0.645392 0.000000 0.333503
O O14 0.380271 0.271415 0.269748
O O15 0.426847 0.000000 0.345248
O O16 0.570489 0.266991 0.813815
O O17 0.629950 0.000000 0.799073
O O18 0.047842 0.500000 0.968706
O O19 0.010079 0.236557 0.888069
O O20 0.000000 0.234206 0.000000
O O21 0.500741 0.000000 0.184370
#
# Coordination Sequence:
#
# PCOD9187381 Si02
#       8
#     8   8   8   8   8   8   8   8
#     4  11  23  35  51  82 119 143 168 222 291 333
#     4  11  21  34  56  85 114 144 181 224 270 321
#     4  10  19  36  60  79  99 140 196 232 261 320
#     4   9  18  33  55  80 104 140 187 231 270 319
#     4  10  21  37  58  80 104 142 191 229 265 323
#     4  10  19  35  59  83 105 140 187 233 273 313
#     4   9  18  31  51  82 112 139 177 222 265 312
#     4   9  15  30  55  78 103 137 182 227 264 312
#
# _framework density 20.277878000000001
#
# number of rings (size 3 to 8) (size 9 to 14) (size 15 to 20)
#    0.000    2.125    2.500    1.500    0.000    3.500 
#    0.000    3.125    0.000    3.000    0.000    0.000 
#    0.000    0.000    0.000    0.000    0.000    0.000 
#
# Total GULP energy -178720.534530 kJ/mol
# GULP energy per Si atom -5585.016704 kJ/mol
# Density = 2.023173 g / cm^3
# Si number density = 20.277878 Si / 1000 Ang^3
#
#
#
# Elastic Constant Matrix: (Units=GPa)
#
#
# Indices 1 2 3 4 5 6 
#
# 1 120.6291 -5.4724 45.7502 0.0000 18.0066 0.0000
# 2 -5.4724 20.3197 -9.0395 0.0000 -0.2337 0.0000
# 3 45.7502 -9.0395 135.7333 0.0000 16.9351 0.0000
# 4 0.0000 0.0000 0.0000 19.8872 0.0000 7.5325
# 5 18.0066 -0.2337 16.9351 0.0000 29.0221 0.0000
# 6 0.0000 0.0000 0.0000 7.5325 0.0000 8.8368
#
#
#
# Elastic Compliance Matrix: (Units=1/GPa)
#
#
# Indices 1 2 3 4 5 6 
#
# 1 0.010083 0.001451 -0.002721 0.000000 -0.004656 0.000000
# 2 0.001451 0.051001 0.003202 0.000000 -0.002358 0.000000
# 3 -0.002721 0.003202 0.008934 0.000000 -0.003499 0.000000
# 4 0.000000 0.000000 0.000000 0.074258 0.000000 -0.063298
# 5 -0.004656 -0.002358 -0.003499 0.000000 0.039369 0.000000
# 6 0.000000 0.000000 0.000000 -0.063298 0.000000 0.167119
#
#
# Mechanical properties :
#
#
# Convention : Reuss Voigt Hill
#
# Bulk Modulus (GPa) = 13.53499 37.68430 25.60964
# Shear Modulus (GPa) = 13.45796 27.91214 20.68505
#
# Velocity S-wave (km/s) = 2.57899 3.71412 3.19733
# Velocity P-wave (km/s) = 3.94430 6.08418 5.12712
#
# Compressibility (1/GPa) = 0.07388261
#
# Stress axis : x y z
#
# Youngs Moduli (GPa) = 99.17974 19.60736 111.92804
#
# Poissons Ratio (x) = -0.02846 0.30454
# Poissons Ratio (y) = -0.14395 -0.35834
# Poissons Ratio (z) = 0.26985 -0.06277
#
# Static dielectric constant tensor:
#      x y z
#    x 1.697910 0.000000 0.016260 
#    y 0.000000 1.752820 0.000000 
#    z 0.016260 0.000000 1.688170 
# 
# From -- ./inp_files/346144.got.cif
#   From: 2010.05.17/outbox.cif.g08.bks.cpg/sg12_174_cif.got.tgz:346144.got - 2010.06.03 13:09:07.
