data_PCOD9187683
_publ_section_title
;
Structure prediction by ZEFSAII (Michael W. Deem and Ramdas Pophale) SiO2 
 PCOD9187683
Probable space group: C 2/M
;
_chemical_formula_sum "Si O2"
_cell_formula_units_Z 64
_cell_length_a 14.980828
_cell_length_b 7.948091
_cell_length_c 23.076099
_cell_angle_alpha 90.000000
_cell_angle_beta 83.354410
_cell_angle_gamma 90.000000
_cell_volume 2729.186212
_symmetry_space_group_name_H-M "C 2/M"
_symmetry_group_IT_number 12
_symmetry_cell_setting 'monoclinic'
loop_
_space_group_symop_operation_xyz
x,y,z
-x,y,-z
-x,-y,-z
x,-y,z
1/2+x,1/2+y,z
1/2-x,1/2+y,-z
1/2-x,1/2-y,-z
1/2+x,1/2-y,z
loop_
_atom_site_type_symbol
_atom_site_label
_atom_site_fract_x
_atom_site_fract_y
_atom_site_fract_z
Si Si1 0.673721 0.205873 0.342321
Si Si2 0.961147 0.804501 0.240872
Si Si3 0.798525 0.200489 0.437328
Si Si4 0.836491 0.695333 0.785553
Si Si5 0.415502 0.201061 0.126710
Si Si6 0.532119 0.801073 0.634758
Si Si7 0.430889 0.302146 0.959071
Si Si8 0.239023 0.803009 0.087328
O O1 0.740557 0.265750 0.386974
O O2 0.695346 0.259887 0.274945
O O3 0.570877 0.257546 0.364246
O O4 0.675470 0.000000 0.341247
O O5 0.895890 0.744841 0.194704
O O6 0.929564 0.778535 0.308824
O O7 0.055083 0.705530 0.227269
O O8 0.979837 0.000000 0.230800
O O9 0.750000 0.250000 0.500000
O O10 0.900309 0.262593 0.422186
O O11 0.800041 0.000000 0.433685
O O12 0.810172 0.500000 0.794458
O O13 0.803008 0.789341 0.845050
O O14 0.509904 0.283819 0.103404
O O15 0.338695 0.268293 0.088897
O O16 0.421810 0.000000 0.120628
O O17 0.528849 0.000000 0.643965
O O18 0.420133 0.500000 0.973107
O O19 0.333205 0.227402 0.952044
O O20 0.500000 0.222763 0.000000
O O21 0.248062 0.000000 0.072810
#
# Coordination Sequence:
#
# PCOD9187683 Si02
#       8
#     8   8   8   8   8   8   8   8
#     4   8  19  38  59  83 117 156 196 236 293 356
#     4  11  21  36  59  88 123 160 195 243 304 363
#     4  11  23  41  61  87 119 159 202 247 293 355
#     4  10  19  35  60  89 119 156 198 244 296 361
#     4  11  23  38  58  89 122 157 202 250 296 350
#     4  10  21  40  62  88 117 155 199 248 298 355
#     4  10  22  42  64  85 117 162 205 247 300 359
#     4  10  22  38  57  87 123 158 195 246 300 351
#
# _framework density 23.450215
#
# number of rings (size 3 to 8) (size 9 to 14) (size 15 to 20)
#    0.000    1.875    1.250    3.375    1.750    2.250 
#    0.000    9.375    0.000    0.000    0.000    0.000 
#    0.000    0.000    0.000    0.000    0.000    0.000 
#
# Total GULP energy -178892.490915 kJ/mol
# GULP energy per Si atom -5590.390341 kJ/mol
# Density = 2.339684 g / cm^3
# Si number density = 23.450215 Si / 1000 Ang^3
#
#
#
# Elastic Constant Matrix: (Units=GPa)
#
#
# Indices 1 2 3 4 5 6 
#
# 1 102.5655 2.3954 19.8728 0.0000 4.0643 0.0000
# 2 2.3954 60.8792 -0.3653 0.0000 2.1282 0.0000
# 3 19.8728 -0.3653 63.5035 0.0000 0.2067 0.0000
# 4 0.0000 0.0000 0.0000 29.7325 0.0000 -6.4862
# 5 4.0643 2.1282 0.2067 0.0000 42.1140 0.0000
# 6 0.0000 0.0000 0.0000 -6.4862 0.0000 17.2632
#
#
#
# Elastic Compliance Matrix: (Units=1/GPa)
#
#
# Indices 1 2 3 4 5 6 
#
# 1 0.010430 -0.000396 -0.003263 0.000000 -0.000971 0.000000
# 2 -0.000396 0.016471 0.000221 0.000000 -0.000795 0.000000
# 3 -0.003263 0.000221 0.016769 0.000000 0.000221 0.000000
# 4 0.000000 0.000000 0.000000 0.036636 0.000000 0.013765
# 5 -0.000971 -0.000795 0.000221 0.000000 0.023878 0.000000
# 6 0.000000 0.000000 0.000000 0.013765 0.000000 0.063099
#
#
# Mechanical properties :
#
#
# Convention : Reuss Voigt Hill
#
# Bulk Modulus (GPa) = 27.17854 30.08378 28.63116
# Shear Modulus (GPa) = 26.82086 31.49164 29.15625
#
# Velocity S-wave (km/s) = 3.38559 3.66856 3.52991
# Velocity P-wave (km/s) = 5.18633 5.54987 5.37117
#
# Compressibility (1/GPa) = 0.03679374
#
# Stress axis : x y z
#
# Youngs Moduli (GPa) = 95.87903 60.71400 59.63441
#
# Poissons Ratio (x) = 0.02404 0.19459
# Poissons Ratio (y) = 0.03797 -0.01319
# Poissons Ratio (z) = 0.31286 -0.01343
#
# Static dielectric constant tensor:
#      x y z
#    x 1.939280 0.000000 0.007580 
#    y 0.000000 1.836410 0.000000 
#    z 0.007580 0.000000 1.928160 
# 
# From -- ./inp_files/338674.got.cif
#   From: 2010.05.17/outbox.cif.g08.bks.cpg/sg12_170_cif.got.tgz:338674.got - 2010.06.03 13:09:07.
