data_PCOD9187140
_publ_section_title
;
Structure prediction by ZEFSAII (Michael W. Deem and Ramdas Pophale) SiO2 
 PCOD9187140
Probable space group: C 2/M
;
_chemical_formula_sum "Si O2"
_cell_formula_units_Z 56
_cell_length_a 15.589954
_cell_length_b 7.852193
_cell_length_c 22.485139
_cell_angle_alpha 90.000000
_cell_angle_beta 79.634448
_cell_angle_gamma 90.000000
_cell_volume 2707.603963
_symmetry_space_group_name_H-M "C 2/M"
_symmetry_group_IT_number 12
_symmetry_cell_setting 'monoclinic'
loop_
_space_group_symop_operation_xyz
x,y,z
-x,y,-z
-x,-y,-z
x,-y,z
1/2+x,1/2+y,z
1/2-x,1/2+y,-z
1/2-x,1/2-y,-z
1/2+x,1/2-y,z
loop_
_atom_site_type_symbol
_atom_site_label
_atom_site_fract_x
_atom_site_fract_y
_atom_site_fract_z
Si Si1 0.669208 0.292477 0.197365
Si Si2 0.192245 0.799550 0.721519
Si Si3 0.902448 0.700341 0.495585
Si Si4 0.247359 0.307700 0.932464
Si Si5 0.234690 0.699120 0.584220
Si Si6 0.982153 0.207008 0.193492
Si Si7 0.446604 0.706509 0.065394
O O1 0.675990 0.500000 0.197011
O O2 0.730553 0.225174 0.241137
O O3 0.699739 0.226500 0.128540
O O4 0.568989 0.243190 0.216913
O O5 0.213215 0.717633 0.655890
O O6 0.105234 0.730430 0.764274
O O7 0.179891 0.000000 0.712158
O O8 0.916510 0.500000 0.481956
O O9 0.846501 0.768866 0.445610
O O10 0.828466 0.719895 0.555970
O O11 0.000000 0.769243 0.500000
O O12 0.279989 0.500000 0.930798
O O13 0.147543 0.290866 0.925635
O O14 0.250000 0.250000 0.000000
O O15 0.243581 0.500000 0.567841
O O16 0.988175 0.255040 0.123248
O O17 0.978376 0.000000 0.193572
O O18 0.436121 0.500000 0.065375
O O19 0.500000 0.754650 0.000000
#
# Coordination Sequence:
#
# PCOD9187140 Si02
#       7
#     8   8   8   8   8   8   8
#     4  10  21  39  59  81 110 148 192 240 293 352
#     4  11  22  38  59  83 116 155 197 244 289 345
#     4   9  19  38  63  91 124 157 195 241 285 332
#     4  11  22  35  55  81 112 145 187 241 297 359
#     4  10  21  37  59  88 122 159 196 237 286 343
#     4   9  19  36  57  80 109 147 190 234 291 355
#     4  10  19  35  58  80 108 145 187 236 297 361
#
# _framework density 20.682493999999998
#
# number of rings (size 3 to 8) (size 9 to 14) (size 15 to 20)
#    0.000    2.000    1.429    2.143    0.000    5.143 
#    0.000    5.000    0.000    0.000    0.000    0.000 
#    0.000    0.000    0.000    0.000    0.000    0.000 
#
# Total GULP energy -156204.711155 kJ/mol
# GULP energy per Si atom -5578.739684 kJ/mol
# Density = 2.063542 g / cm^3
# Si number density = 20.682494 Si / 1000 Ang^3
#
#
#
# Elastic Constant Matrix: (Units=GPa)
#
#
# Indices 1 2 3 4 5 6 
#
# 1 158.4178 -9.4527 64.8415 0.0000 6.6721 0.0000
# 2 -9.4527 21.3999 -4.1958 0.0000 1.7572 0.0000
# 3 64.8415 -4.1958 136.4274 0.0000 -2.9754 0.0000
# 4 0.0000 0.0000 0.0000 13.8158 0.0000 4.3223
# 5 6.6721 1.7572 -2.9754 0.0000 19.9586 0.0000
# 6 0.0000 0.0000 0.0000 4.3223 0.0000 16.5239
#
#
#
# Elastic Compliance Matrix: (Units=1/GPa)
#
#
# Indices 1 2 3 4 5 6 
#
# 1 0.008252 0.003177 -0.003903 0.000000 -0.003620 0.000000
# 2 0.003177 0.048546 -0.000134 0.000000 -0.005356 0.000000
# 3 -0.003903 -0.000134 0.009240 0.000000 0.002694 0.000000
# 4 0.000000 0.000000 0.000000 0.078832 0.000000 -0.020621
# 5 -0.003620 -0.005356 0.002694 0.000000 0.052187 0.000000
# 6 0.000000 0.000000 0.000000 -0.020621 0.000000 0.065912
#
#
# Mechanical properties :
#
#
# Convention : Reuss Voigt Hill
#
# Bulk Modulus (GPa) = 15.54778 46.51458 31.03118
# Shear Modulus (GPa) = 17.47461 27.72978 22.60219
#
# Velocity S-wave (km/s) = 2.90987 3.66558 3.30937
# Velocity P-wave (km/s) = 4.33860 6.36034 5.44414
#
# Compressibility (1/GPa) = 0.06431787
#
# Stress axis : x y z
#
# Youngs Moduli (GPa) = 121.18075 20.59897 108.22823
#
# Poissons Ratio (x) = -0.06544 0.42245
# Poissons Ratio (y) = -0.38500 0.01448
# Poissons Ratio (z) = 0.47301 0.00276
#
# Static dielectric constant tensor:
#      x y z
#    x 1.736970 0.000000 0.000030 
#    y 0.000000 1.769950 0.000000 
#    z 0.000030 0.000000 1.737160 
# 
# From -- ./inp_files/308943.got.cif
#   From: 2010.05.17/outbox.cif.g08.bks.cpg/sg12_155_cif.got.tgz:308943.got - 2010.06.03 13:09:07.
