data_PCOD9187315
_publ_section_title
;
Structure prediction by ZEFSAII (Michael W. Deem and Ramdas Pophale) SiO2 
 PCOD9187315
Probable space group: C 2/M
;
_chemical_formula_sum "Si O2"
_cell_formula_units_Z 60
_cell_length_a 14.507119
_cell_length_b 26.076315
_cell_length_c 20.011410
_cell_angle_alpha 90.000000
_cell_angle_beta 158.917511
_cell_angle_gamma 90.000000
_cell_volume 2723.074950
_symmetry_space_group_name_H-M "C 2/M"
_symmetry_group_IT_number 12
_symmetry_cell_setting 'monoclinic'
loop_
_space_group_symop_operation_xyz
x,y,z
-x,y,-z
-x,-y,-z
x,-y,z
1/2+x,1/2+y,z
1/2-x,1/2+y,-z
1/2-x,1/2-y,-z
1/2+x,1/2-y,z
loop_
_atom_site_type_symbol
_atom_site_label
_atom_site_fract_x
_atom_site_fract_y
_atom_site_fract_z
Si Si1 0.726027 0.359073 0.814236
Si Si2 0.500000 0.254340 0.500000
Si Si3 0.765854 0.133520 0.031186
Si Si4 0.738365 0.559964 0.361955
Si Si5 0.803079 0.443283 0.699410
Si Si6 0.724996 0.755159 0.785265
Si Si7 0.458651 0.195468 0.723918
Si Si8 0.725244 0.089228 0.460393
O O1 0.669872 0.344028 0.852786
O O2 0.739419 0.306295 0.782896
O O3 0.525665 0.400035 0.655516
O O4 0.000000 0.384112 0.000000
O O5 0.367329 0.223596 0.348740
O O6 0.273876 0.285983 0.385616
O O7 0.004712 0.095822 0.179038
O O8 0.504704 0.099416 0.859650
O O9 0.694682 0.177868 0.930713
O O10 0.667508 0.500000 0.306274
O O11 0.802636 0.570267 0.483478
O O12 0.000000 0.570114 0.500000
O O13 0.500000 0.430007 0.500000
O O14 0.840922 0.500000 0.754590
O O15 0.861398 0.445311 0.659246
O O16 0.533067 0.764884 0.716619
O O17 0.000000 0.772286 0.000000
O O18 0.389740 0.144967 0.634208
#
# Coordination Sequence:
#
# PCOD9187315 Si02
#       8
#     8   4   8   8   8   8   8   8
#     4  10  19  35  58  88 120 161 209 258 315 383
#     4  12  24  42  70  92 131 186 217 262 336 396
#     4  10  22  36  63  89 121 166 207 267 314 382
#     4  10  22  43  65  89 123 168 215 262 321 385
#     4  10  20  34  56  89 126 159 195 250 322 388
#     4  11  25  43  63  94 132 172 225 275 322 390
#     4  11  24  42  62  96 130 169 219 269 325 392
#     4  10  21  36  61  88 122 158 208 263 306 382
#
# _framework density 22.033913999999999
#
# number of rings (size 3 to 8) (size 9 to 14) (size 15 to 20)
#    0.000    1.600    1.333    3.600    3.733    3.200 
#    3.600    2.000    0.000   13.600    0.000    0.000 
#    0.000    0.000    0.000    0.000    0.000    0.000 
#
# Total GULP energy -167372.580597 kJ/mol
# GULP energy per Si atom -5579.086020 kJ/mol
# Density = 2.198376 g / cm^3
# Si number density = 22.033914 Si / 1000 Ang^3
#
#
#
# Elastic Constant Matrix: (Units=GPa)
#
#
# Indices 1 2 3 4 5 6 
#
# 1 88.7428 13.6786 41.0204 0.0136 -20.2061 -0.0164
# 2 13.6786 41.2763 17.4669 -0.0158 0.4920 0.0186
# 3 41.0204 17.4669 80.6296 -0.1391 -17.1656 0.0877
# 4 0.0136 -0.0158 -0.1391 5.3115 0.0257 -4.8403
# 5 -20.2061 0.4920 -17.1656 0.0257 34.8971 -0.0049
# 6 -0.0164 0.0186 0.0877 -4.8403 -0.0049 11.5519
#
#
#
# Elastic Compliance Matrix: (Units=1/GPa)
#
#
# Indices 1 2 3 4 5 6 
#
# 1 0.015982 -0.002743 -0.006209 -0.000278 0.006239 -0.000040
# 2 -0.002743 0.027553 -0.005578 -0.000067 -0.004721 -0.000036
# 3 -0.006209 -0.005578 0.017896 0.000519 0.005286 0.000084
# 4 -0.000278 -0.000067 0.000519 0.304575 -0.000111 0.127613
# 5 0.006239 -0.004721 0.005286 -0.000111 0.034935 -0.000055
# 6 -0.000040 -0.000036 0.000084 0.127613 -0.000055 0.140035
#
#
# Mechanical properties :
#
#
# Convention : Reuss Voigt Hill
#
# Bulk Modulus (GPa) = 30.89304 39.44228 35.16766
# Shear Modulus (GPa) = 8.60843 19.58431 14.09637
#
# Velocity S-wave (km/s) = 1.97873 2.98455 2.53209
# Velocity P-wave (km/s) = 4.38995 5.46043 4.95419
#
# Compressibility (1/GPa) = 0.03236975
#
# Stress axis : x y z
#
# Youngs Moduli (GPa) = 62.57107 36.29385 55.87943
#
# Poissons Ratio (x) = 0.09957 0.34694
# Poissons Ratio (y) = 0.17166 0.31171
# Poissons Ratio (z) = 0.38849 0.20246
#
# Static dielectric constant tensor:
#      x y z
#    x 1.875230 -0.000030 -0.030290 
#    y -0.000030 1.816210 -0.000010 
#    z -0.030290 -0.000010 1.862420 
# 
# From -- ./inp_files/312769.got.cif
#   From: 2010.05.17/outbox.cif.g08.bks.cpg/sg12_157_cif.got.tgz:312769.got - 2010.06.03 13:09:07.
