data_PCOD9187574
_publ_section_title
;
Structure prediction by ZEFSAII (Michael W. Deem and Ramdas Pophale) SiO2 
 PCOD9187574
Probable space group: C 2/M
;
_chemical_formula_sum "Si O2"
_cell_formula_units_Z 58
_cell_length_a 21.666576
_cell_length_b 9.940231
_cell_length_c 25.325887
_cell_angle_alpha 90.000000
_cell_angle_beta 147.046829
_cell_angle_gamma 90.000000
_cell_volume 2966.969724
_symmetry_space_group_name_H-M "C 2/M"
_symmetry_group_IT_number 12
_symmetry_cell_setting 'monoclinic'
loop_
_space_group_symop_operation_xyz
x,y,z
-x,y,-z
-x,-y,-z
x,-y,z
1/2+x,1/2+y,z
1/2-x,1/2+y,-z
1/2-x,1/2-y,-z
1/2+x,1/2-y,z
loop_
_atom_site_type_symbol
_atom_site_label
_atom_site_fract_x
_atom_site_fract_y
_atom_site_fract_z
Si Si1 0.004906 0.842420 0.636050
Si Si2 0.594480 0.153872 0.522100
Si Si3 0.827127 0.848634 0.752855
Si Si4 0.772206 0.645272 0.803525
Si Si5 0.919989 0.654191 0.219104
Si Si6 0.665684 0.704381 0.057503
Si Si7 0.500000 0.500000 0.000000
Si Si8 0.429711 0.659724 0.124080
O O1 0.135640 0.842044 0.709426
O O2 0.006278 0.746801 0.688449
O O3 0.929162 0.767396 0.538102
O O4 0.975496 0.000000 0.624495
O O5 0.500000 0.166049 0.500000
O O6 0.716034 0.167584 0.637209
O O7 0.584968 0.000000 0.493754
O O8 0.819940 0.753691 0.797766
O O9 0.938337 0.832312 0.797622
O O10 0.829847 0.000000 0.777212
O O11 0.800381 0.500000 0.802024
O O12 0.822229 0.663585 0.897973
O O13 0.960504 0.500000 0.240838
O O14 0.793140 0.645766 0.152141
O O15 0.909810 0.741947 0.158643
O O16 0.570930 0.614643 0.017253
O O17 0.636528 0.711141 0.975090
O O18 0.402907 0.500000 0.114509
#
# Coordination Sequence:
#
# PCOD9187574 Si02
#       8
#     8   8   8   8   8   8   2   8
#     4  10  21  37  60  90 122 163 204 255 316 381
#     4  10  19  35  59  93 126 159 203 260 317 381
#     4  10  22  37  60  89 124 164 206 254 312 376
#     4  10  22  36  56  89 129 160 200 255 317 368
#     4  11  23  41  62  90 121 163 212 260 306 364
#     4  11  23  37  63  91 124 164 207 252 307 375
#     4  12  20  40  62  96 120 154 214 250 308 368
#     4  11  23  41  61  88 121 167 214 257 306 369
#
# _framework density 19.548565
#
# number of rings (size 3 to 8) (size 9 to 14) (size 15 to 20)
#    0.000    1.517    2.759    2.069    2.897    3.034 
#    0.000    3.103    0.000    0.000    0.000    0.000 
#    0.000    0.000    0.000    0.000    0.000    0.000 
#
# Total GULP energy -161607.109864 kJ/mol
# GULP energy per Si atom -5572.658961 kJ/mol
# Density = 1.950407 g / cm^3
# Si number density = 19.548565 Si / 1000 Ang^3
#
#
#
# Elastic Constant Matrix: (Units=GPa)
#
#
# Indices 1 2 3 4 5 6 
#
# 1 49.3870 57.2831 9.0743 0.0000 -17.9523 0.0000
# 2 57.2831 159.6299 60.7296 0.0000 -25.3313 0.0000
# 3 9.0743 60.7296 53.6939 0.0000 -4.1253 0.0000
# 4 0.0000 0.0000 0.0000 7.8149 0.0000 -0.8385
# 5 -17.9523 -25.3313 -4.1253 0.0000 26.6025 0.0000
# 6 0.0000 0.0000 0.0000 -0.8385 0.0000 8.3399
#
#
#
# Elastic Compliance Matrix: (Units=1/GPa)
#
#
# Indices 1 2 3 4 5 6 
#
# 1 0.046418 -0.020789 0.016754 0.000000 0.014127 0.000000
# 2 -0.020789 0.022699 -0.021837 0.000000 0.004198 0.000000
# 3 0.016754 -0.021837 0.040241 0.000000 -0.003247 0.000000
# 4 0.000000 0.000000 0.000000 0.129356 0.000000 0.013006
# 5 0.014127 0.004198 -0.003247 0.000000 0.050618 0.000000
# 6 0.000000 0.000000 0.000000 0.013006 0.000000 0.121213
#
#
# Mechanical properties :
#
#
# Convention : Reuss Voigt Hill
#
# Bulk Modulus (GPa) = 17.35693 57.43165 37.39429
# Shear Modulus (GPa) = 10.38436 17.59307 13.98871
#
# Velocity S-wave (km/s) = 2.30730 3.00320 2.67795
# Velocity P-wave (km/s) = 3.99954 6.43959 5.36025
#
# Compressibility (1/GPa) = 0.05761387
#
# Stress axis : x y z
#
# Youngs Moduli (GPa) = 21.54331 44.05573 24.85004
#
# Poissons Ratio (x) = 0.91589 -0.41634
# Poissons Ratio (y) = 0.44787 0.54265
# Poissons Ratio (z) = -0.36094 0.96204
#
# Static dielectric constant tensor:
#      x y z
#    x 1.658580 0.000000 -0.002460 
#    y 0.000000 1.693650 0.000000 
#    z -0.002460 0.000000 1.712730 
# 
# From -- ./inp_files/346513.got.cif
#   From: 2010.05.17/outbox.cif.g08.bks.cpg/sg12_174_cif.got.tgz:346513.got - 2010.06.03 13:09:07.
