data_PCOD9187689
_publ_section_title
;
Structure prediction by ZEFSAII (Michael W. Deem and Ramdas Pophale) SiO2 
 PCOD9187689
Probable space group: C 2/M
;
_chemical_formula_sum "Si O2"
_cell_formula_units_Z 48
_cell_length_a 14.372978
_cell_length_b 30.114699
_cell_length_c 13.929804
_cell_angle_alpha 90.000000
_cell_angle_beta 158.980818
_cell_angle_gamma 90.000000
_cell_volume 2162.609159
_symmetry_space_group_name_H-M "C 2/M"
_symmetry_group_IT_number 12
_symmetry_cell_setting 'monoclinic'
loop_
_space_group_symop_operation_xyz
x,y,z
-x,y,-z
-x,-y,-z
x,-y,z
1/2+x,1/2+y,z
1/2-x,1/2+y,-z
1/2-x,1/2-y,-z
1/2+x,1/2-y,z
loop_
_atom_site_type_symbol
_atom_site_label
_atom_site_fract_x
_atom_site_fract_y
_atom_site_fract_z
Si Si1 0.817672 0.448918 0.080180
Si Si2 0.982123 0.201196 0.178651
Si Si3 0.278525 0.447968 0.218332
Si Si4 0.000612 0.750894 0.616305
Si Si5 0.268120 0.550746 0.654593
Si Si6 0.769851 0.142372 0.717362
O O1 0.900071 0.500000 0.138968
O O2 0.053705 0.432781 0.371665
O O3 0.759734 0.426831 0.922765
O O4 0.551887 0.450037 0.882149
O O5 0.210501 0.233791 0.360563
O O6 0.117719 0.154550 0.279198
O O7 0.952134 0.208049 0.264153
O O8 0.715398 0.215915 0.867657
O O9 0.500000 0.428564 0.500000
O O10 0.358394 0.500000 0.278883
O O11 0.000000 0.447870 0.000000
O O12 0.000000 0.758738 0.500000
O O13 0.211891 0.500000 0.631331
O O14 0.262959 0.589641 0.726177
O O15 0.500000 0.159503 0.500000
O O16 0.000000 0.162914 0.000000
#
# Coordination Sequence:
#
# PCOD9187689 Si02
#       6
#     8   8   8   8   8   8
#     4   9  17  31  49  69  97 133 178 235 292 346
#     4  10  21  35  57  90 122 154 192 235 283 341
#     4   9  15  23  40  67  93 118 156 213 283 349
#     4  10  19  35  60  89 123 158 191 228 278 345
#     4  10  21  36  53  74 103 146 197 245 298 355
#     4  12  24  38  58  83 115 153 195 248 301 349
#
# _framework density 22.195412000000001
#
# number of rings (size 3 to 8) (size 9 to 14) (size 15 to 20)
#    0.000    2.000    0.000    5.000    0.000    4.667 
#    0.000    0.000    0.000    3.000    0.000    2.333 
#    0.000    0.000    0.000    0.000    0.000    0.000 
#
# Total GULP energy -133645.595658 kJ/mol
# GULP energy per Si atom -5568.566486 kJ/mol
# Density = 2.214489 g / cm^3
# Si number density = 22.195412 Si / 1000 Ang^3
#
#
#
# Elastic Constant Matrix: (Units=GPa)
#
#
# Indices 1 2 3 4 5 6 
#
# 1 102.5359 26.9358 30.5259 -0.0011 -20.3782 -0.0019
# 2 26.9358 49.2819 9.0601 0.0000 4.2854 0.0006
# 3 30.5259 9.0601 169.1795 -0.0013 -19.5337 -0.0013
# 4 -0.0011 0.0000 -0.0013 20.3929 -0.0011 6.9356
# 5 -20.3782 4.2854 -19.5337 -0.0011 30.2926 -0.0018
# 6 -0.0019 0.0006 -0.0013 6.9356 -0.0018 17.7130
#
#
#
# Elastic Compliance Matrix: (Units=1/GPa)
#
#
# Indices 1 2 3 4 5 6 
#
# 1 0.014308 -0.008536 -0.000944 0.000000 0.010224 0.000003
# 2 -0.008536 0.026020 -0.001017 0.000000 -0.010079 -0.000003
# 3 -0.000944 -0.001017 0.006568 0.000000 0.003744 0.000001
# 4 0.000000 0.000000 0.000000 0.056570 0.000001 -0.022150
# 5 0.010224 -0.010079 0.003744 0.000001 0.043729 0.000006
# 6 0.000003 -0.000003 0.000001 -0.022150 0.000006 0.065129
#
#
# Mechanical properties :
#
#
# Convention : Reuss Voigt Hill
#
# Bulk Modulus (GPa) = 38.60642 50.44898 44.52770
# Shear Modulus (GPa) = 20.66527 30.64473 25.65500
#
# Velocity S-wave (km/s) = 3.05464 3.71978 3.40350
# Velocity P-wave (km/s) = 5.46559 6.42089 5.96240
#
# Compressibility (1/GPa) = 0.02590243
#
# Stress axis : x y z
#
# Youngs Moduli (GPa) = 69.89117 38.43171 152.25364
#
# Poissons Ratio (x) = 0.32804 0.14374
# Poissons Ratio (y) = 0.59657 0.15485
# Poissons Ratio (z) = 0.06598 0.03909
#
# Static dielectric constant tensor:
#      x y z
#    x 1.892920 0.000000 -0.099710 
#    y 0.000000 1.903820 0.000000 
#    z -0.099710 0.000000 1.998390 
# 
# From -- ./inp_files/219619.got.cif
#   From: 2010.05.17/outbox.cif.g08.bks.cpg/sg12_110_cif.got.tgz:219619.got - 2010.06.03 13:09:07.
