data_PCOD9187669
_publ_section_title
;
Structure prediction by ZEFSAII (Michael W. Deem and Ramdas Pophale) SiO2 
 PCOD9187669
Probable space group: C 2/M
;
_chemical_formula_sum "Si O2"
_cell_formula_units_Z 64
_cell_length_a 31.649318
_cell_length_b 8.853515
_cell_length_c 12.169148
_cell_angle_alpha 90.000000
_cell_angle_beta 91.755856
_cell_angle_gamma 90.000000
_cell_volume 3408.288049
_symmetry_space_group_name_H-M "C 2/M"
_symmetry_group_IT_number 12
_symmetry_cell_setting 'monoclinic'
loop_
_space_group_symop_operation_xyz
x,y,z
-x,y,-z
-x,-y,-z
x,-y,z
1/2+x,1/2+y,z
1/2-x,1/2+y,-z
1/2-x,1/2-y,-z
1/2+x,1/2-y,z
loop_
_atom_site_type_symbol
_atom_site_label
_atom_site_fract_x
_atom_site_fract_y
_atom_site_fract_z
Si Si1 0.330295 0.817813 0.747118
Si Si2 0.425036 0.817795 0.731567
Si Si3 0.328144 0.818288 0.269623
Si Si4 0.002312 0.182390 0.873467
Si Si5 0.083093 0.819647 0.739108
Si Si6 0.296732 0.818128 0.504562
Si Si7 0.050467 0.320222 0.511546
Si Si8 0.245697 0.181255 0.120414
O O1 0.378844 0.774636 0.772048
O O2 0.319342 0.777173 0.620020
O O3 0.296174 0.742122 0.823172
O O4 0.326885 0.000000 0.756530
O O5 0.463052 0.747073 0.802635
O O6 0.429609 0.775287 0.603542
O O7 0.428482 0.000000 0.735805
O O8 0.371301 0.747925 0.229549
O O9 0.320866 0.770722 0.395840
O O10 0.286702 0.775829 0.196701
O O11 0.331731 0.000000 0.267569
O O12 0.046014 0.230091 0.819125
O O13 0.000483 0.000000 0.869464
O O14 0.000000 0.230064 0.000000
O O15 0.069661 0.764508 0.616869
O O16 0.085336 0.000000 0.741358
O O17 0.250000 0.750000 0.500000
O O18 0.293570 0.000000 0.500847
O O19 0.057627 0.500000 0.527481
O O20 0.000000 0.295359 0.500000
O O21 0.244263 0.000000 0.114606
O O22 0.250000 0.250000 0.000000
#
# Coordination Sequence:
#
# PCOD9187669 Si02
#       8
#     8   8   8   8   8   8   8   8
#     4  10  21  37  60  89 122 153 190 241 292 345
#     4  10  21  38  61  89 117 153 196 237 285 345
#     4  10  22  40  61  86 119 156 193 236 291 351
#     4  10  23  42  59  80 115 154 194 245 298 343
#     4  11  23  37  59  89 119 152 194 243 293 347
#     4  10  19  35  60  88 120 153 188 236 288 349
#     4  10  19  35  61  88 120 157 190 232 291 351
#     4  11  24  42  63  86 116 155 200 246 293 347
#
# _framework density 18.777754000000002
#
# number of rings (size 3 to 8) (size 9 to 14) (size 15 to 20)
#    0.000    1.750    2.500    1.500    0.000    6.500 
#    0.000    3.750    0.000    0.000    0.000    0.000 
#    0.000    0.000    0.000    0.000    0.000    0.000 
#
# Total GULP energy -178797.082037 kJ/mol
# GULP energy per Si atom -5587.408814 kJ/mol
# Density = 1.873502 g / cm^3
# Si number density = 18.777754 Si / 1000 Ang^3
#
#
#
# Elastic Constant Matrix: (Units=GPa)
#
#
# Indices 1 2 3 4 5 6 
#
# 1 169.8184 40.4088 75.2842 0.0000 -35.1756 0.0000
# 2 40.4088 16.2711 31.7071 0.0000 -10.3771 0.0000
# 3 75.2842 31.7071 132.8129 0.0000 -30.8261 0.0000
# 4 0.0000 0.0000 0.0000 25.0825 0.0000 2.2150
# 5 -35.1756 -10.3771 -30.8261 0.0000 8.7199 0.0000
# 6 0.0000 0.0000 0.0000 2.2150 0.0000 34.8076
#
#
#
# Elastic Compliance Matrix: (Units=1/GPa)
#
#
# Indices 1 2 3 4 5 6 
#
# 1 -0.008295 -0.033664 -0.024104 0.000000 -0.158739 0.000000
# 2 -0.033664 0.210308 -0.025380 0.000000 0.024757 0.000000
# 3 -0.024104 -0.025380 -0.012965 0.000000 -0.173274 0.000000
# 4 0.000000 0.000000 0.000000 0.040094 0.000000 -0.002551
# 5 -0.158739 0.024757 -0.173274 0.000000 -1.108754 0.000000
# 6 0.000000 0.000000 0.000000 -0.002551 0.000000 0.028892
#
#
# Mechanical properties :
#
#
# Convention : Reuss Voigt Hill
#
# Bulk Modulus (GPa) = 43.95319 68.18920 56.07119
# Shear Modulus (GPa) = -7.38726 25.15546 8.88410
#
# Velocity S-wave (km/s) = -1.98560 3.66408 2.17749
# Velocity P-wave (km/s) = 4.26627 7.36840 6.02056
#
# Compressibility (1/GPa) = 0.02275148
#
# Stress axis : x y z
#
# Youngs Moduli (GPa) = -120.54792 4.75492 -77.12879
#
# Poissons Ratio (x) = 0.16007 -1.85915
# Poissons Ratio (y) = -4.05813 -1.95749
# Poissons Ratio (z) = -2.90574 0.12068
#
# Static dielectric constant tensor:
#      x y z
#    x 1.636080 0.000000 -0.008100 
#    y 0.000000 1.633400 0.000000 
#    z -0.008100 0.000000 1.636750 
# 
# From -- ./inp_files/187438.got.cif
#   From: 2010.05.17/outbox.cif.g08.bks.cpg/sg12_94_cif.got.tgz:187438.got - 2010.06.03 13:09:07.
