data_PCOD9187084
_publ_section_title
;
Structure prediction by ZEFSAII (Michael W. Deem and Ramdas Pophale) SiO2 
 PCOD9187084
Probable space group: C 2/M
;
_chemical_formula_sum "Si O2"
_cell_formula_units_Z 48
_cell_length_a 22.177150
_cell_length_b 15.091002
_cell_length_c 23.833693
_cell_angle_alpha 90.000000
_cell_angle_beta 19.189467
_cell_angle_gamma 90.000000
_cell_volume 2621.836759
_symmetry_space_group_name_H-M "C 2/M"
_symmetry_group_IT_number 12
_symmetry_cell_setting 'monoclinic'
loop_
_space_group_symop_operation_xyz
x,y,z
-x,y,-z
-x,-y,-z
x,-y,z
1/2+x,1/2+y,z
1/2-x,1/2+y,-z
1/2-x,1/2-y,-z
1/2+x,1/2-y,z
loop_
_atom_site_type_symbol
_atom_site_label
_atom_site_fract_x
_atom_site_fract_y
_atom_site_fract_z
Si Si1 0.064101 0.136392 0.653771
Si Si2 0.760780 0.097874 0.843309
Si Si3 0.883717 0.099543 0.932072
Si Si4 0.523642 0.217022 0.846008
Si Si5 0.466771 0.161302 0.291838
Si Si6 0.782229 0.101487 0.693070
O O1 0.277582 0.111839 0.472936
O O2 0.047699 0.243094 0.665606
O O3 0.970770 0.100880 0.679354
O O4 0.947773 0.107094 0.810542
O O5 0.731691 0.110076 0.803021
O O6 0.690006 0.000000 0.920678
O O7 0.656121 0.172511 0.969479
O O8 0.991907 0.177718 0.869171
O O9 0.922335 0.000000 0.917620
O O10 0.665006 0.118460 0.128393
O O11 0.542997 0.182561 0.765702
O O12 0.685559 0.176063 0.740930
O O13 0.000000 0.110141 0.500000
O O14 0.736438 0.000000 0.715463
#
# Coordination Sequence:
#
# PCOD9187084 Si02
#       6
#     8   8   8   8   8   8
#     4  10  19  35  57  85 114 146 185 232 280 332
#     4  11  20  33  56  83 111 142 178 225 284 344
#     4  11  22  37  56  82 117 153 193 232 272 326
#     4  11  20  37  55  81 114 150 186 230 280 331
#     4  10  20  35  57  81 114 152 188 226 280 331
#     4  10  22  37  56  85 112 141 183 229 287 348
#
# _framework density 18.307776
#
# number of rings (size 3 to 8) (size 9 to 14) (size 15 to 20)
#    0.000    1.500    3.333    3.500    0.000    3.333 
#    0.000    0.000    0.000    2.500    0.000    0.000 
#    0.000    0.000    0.000    0.000    0.000    0.000 
#
# Total GULP energy -133938.449298 kJ/mol
# GULP energy per Si atom -5580.768721 kJ/mol
# Density = 1.826611 g / cm^3
# Si number density = 18.307776 Si / 1000 Ang^3
#
#
#
# Elastic Constant Matrix: (Units=GPa)
#
#
# Indices 1 2 3 4 5 6 
#
# 1 69.4113 53.0998 15.5152 -0.0230 -21.3493 0.0050
# 2 53.0998 132.4461 29.3442 0.0645 -14.2611 -0.0170
# 3 15.5152 29.3442 102.3280 0.0317 -17.9408 -0.0117
# 4 -0.0230 0.0645 0.0317 -149.7513 -0.0302 42.1466
# 5 -21.3493 -14.2611 -17.9408 -0.0302 28.5707 0.0105
# 6 0.0050 -0.0170 -0.0117 42.1466 0.0105 7.5832
#
#
#
# Elastic Compliance Matrix: (Units=1/GPa)
#
#
# Indices 1 2 3 4 5 6 
#
# 1 0.025758 -0.008952 0.001408 -0.000010 0.015663 0.000001
# 2 -0.008952 0.011392 -0.002343 0.000006 -0.002475 -0.000001
# 3 0.001408 -0.002343 0.011474 0.000000 0.007087 0.000001
# 4 -0.000010 0.000006 0.000000 -0.002604 -0.000013 0.014474
# 5 0.015663 -0.002475 0.007087 -0.000013 0.049920 -0.000003
# 6 0.000001 -0.000001 0.000001 0.014474 -0.000003 0.051427
#
#
# Mechanical properties :
#
#
# Convention : Reuss Voigt Hill
#
# Bulk Modulus (GPa) = 34.66391 55.56708 45.11550
# Shear Modulus (GPa) = 28.28712 -8.97106 9.65803
#
# Velocity S-wave (km/s) = 3.93503 -2.21603 2.29931
# Velocity P-wave (km/s) = 6.29452 4.88568 5.63431
#
# Compressibility (1/GPa) = 0.02884844
#
# Stress axis : x y z
#
# Youngs Moduli (GPa) = 38.82221 87.78008 87.15671
#
# Poissons Ratio (x) = 0.78584 -0.12271
# Poissons Ratio (y) = 0.34755 0.20424
# Poissons Ratio (z) = -0.05466 0.20570
#
# Static dielectric constant tensor:
#      x y z
#    x 1.611920 0.000000 -0.008310 
#    y 0.000000 1.639650 0.000000 
#    z -0.008310 0.000000 1.695520 
# 
# From -- ./inp_files/325717.got.cif
#   From: 2010.05.17/outbox.cif.g08.bks.cpg/sg12_163_cif.got.tgz:325717.got - 2010.06.03 13:09:07.
