data_PCOD9187341
_publ_section_title
;
Structure prediction by ZEFSAII (Michael W. Deem and Ramdas Pophale) SiO2 
 PCOD9187341
Probable space group: C 2/M
;
_chemical_formula_sum "Si O2"
_cell_formula_units_Z 56
_cell_length_a 11.640180
_cell_length_b 17.926832
_cell_length_c 14.638468
_cell_angle_alpha 90.000000
_cell_angle_beta 50.804129
_cell_angle_gamma 90.000000
_cell_volume 2367.309222
_symmetry_space_group_name_H-M "C 2/M"
_symmetry_group_IT_number 12
_symmetry_cell_setting 'monoclinic'
loop_
_space_group_symop_operation_xyz
x,y,z
-x,y,-z
-x,-y,-z
x,-y,z
1/2+x,1/2+y,z
1/2-x,1/2+y,-z
1/2-x,1/2-y,-z
1/2+x,1/2-y,z
loop_
_atom_site_type_symbol
_atom_site_label
_atom_site_fract_x
_atom_site_fract_y
_atom_site_fract_z
Si Si1 0.837092 0.345538 0.617007
Si Si2 0.396138 0.822574 0.130357
Si Si3 0.270456 0.417301 0.500874
Si Si4 0.100088 0.280573 0.680703
Si Si5 0.927626 0.142439 0.700486
Si Si6 0.081493 0.088077 0.087731
Si Si7 0.293016 0.341602 0.136785
O O1 0.768938 0.410346 0.587620
O O2 0.732621 0.274981 0.646930
O O3 0.835153 0.359591 0.726415
O O4 0.000000 0.331985 0.500000
O O5 0.477054 0.802825 0.184803
O O6 0.244299 0.862194 0.240339
O O7 0.334915 0.745668 0.115505
O O8 0.500000 0.857858 0.000000
O O9 0.234224 0.500000 0.552402
O O10 0.177326 0.350205 0.592836
O O11 0.446713 0.401375 0.418217
O O12 0.995003 0.226288 0.674207
O O13 0.921237 0.112667 0.806997
O O14 0.930754 0.118425 0.118820
O O15 0.090128 0.000000 0.075307
O O16 0.209783 0.125537 0.962536
#
# Coordination Sequence:
#
# PCOD9187341 Si02
#       7
#     8   8   8   8   8   8   8
#     4  10  21  37  65  92 128 163 207 261 320 376
#     4  11  22  40  66  95 123 160 222 269 310 362
#     4  11  24  42  62  92 130 169 214 259 324 385
#     4  10  23  40  65  97 125 165 213 267 309 377
#     4  11  22  40  69  91 127 173 211 263 315 376
#     4  11  20  37  61  92 127 163 204 253 317 381
#     4  10  19  35  58  95 122 159 200 261 313 367
#
# _framework density 23.655550999999999
#
# number of rings (size 3 to 8) (size 9 to 14) (size 15 to 20)
#    0.000    1.429    5.714    3.000    8.000    3.143 
#    0.000    2.143    0.000    3.000    0.000    0.000 
#    0.000    0.000    0.000    0.000    0.000    0.000 
#
# Total GULP energy -156527.890615 kJ/mol
# GULP energy per Si atom -5590.281808 kJ/mol
# Density = 2.360171 g / cm^3
# Si number density = 23.655551 Si / 1000 Ang^3
#
#
#
# Elastic Constant Matrix: (Units=GPa)
#
#
# Indices 1 2 3 4 5 6 
#
# 1 30.5922 -4.0481 11.0997 0.0000 -15.8075 0.0000
# 2 -4.0481 77.3885 4.5649 0.0000 -14.8146 0.0000
# 3 11.0997 4.5649 124.8937 0.0000 -21.2668 0.0000
# 4 0.0000 0.0000 0.0000 9.6261 0.0000 -4.7608
# 5 -15.8075 -14.8146 -21.2668 0.0000 34.7371 0.0000
# 6 0.0000 0.0000 0.0000 -4.7608 0.0000 1.0366
#
#
#
# Elastic Compliance Matrix: (Units=1/GPa)
#
#
# Indices 1 2 3 4 5 6 
#
# 1 0.045964 0.006959 -0.000304 0.000000 0.023698 0.000000
# 2 0.006959 0.015160 0.000522 0.000000 0.009952 0.000000
# 3 -0.000304 0.000522 0.008964 0.000000 0.005572 0.000000
# 4 0.000000 0.000000 0.000000 -0.081705 0.000000 -0.375254
# 5 0.023698 0.009952 0.005572 0.000000 0.047227 0.000000
# 6 0.000000 0.000000 0.000000 -0.375254 0.000000 -0.758748
#
#
# Mechanical properties :
#
#
# Convention : Reuss Voigt Hill
#
# Bulk Modulus (GPa) = 11.84251 28.45641 20.14946
# Shear Modulus (GPa) = -7.04877 23.83047 8.39085
#
# Velocity S-wave (km/s) = -1.72807 3.17739 1.88542
# Velocity P-wave (km/s) = 1.01758 5.05140 3.64364
#
# Compressibility (1/GPa) = 0.08444157
#
# Stress axis : x y z
#
# Youngs Moduli (GPa) = 21.75597 65.96267 111.56317
#
# Poissons Ratio (x) = -0.45902 0.03392
# Poissons Ratio (y) = -0.15140 -0.05824
# Poissons Ratio (z) = 0.00662 -0.03443
#
# Static dielectric constant tensor:
#      x y z
#    x 2.013560 0.000000 -0.016640 
#    y 0.000000 1.861040 0.000000 
#    z -0.016640 0.000000 2.000600 
# 
# From -- ./inp_files/271371.got.cif
#   From: 2010.05.17/outbox.cif.g08.bks.cpg/sg12_136_cif.got.tgz:271371.got - 2010.06.03 13:09:07.
