data_PCOD9187235
_publ_section_title
;
Structure prediction by ZEFSAII (Michael W. Deem and Ramdas Pophale) SiO2 
 PCOD9187235
Probable space group: C 2/M
;
_chemical_formula_sum "Si O2"
_cell_formula_units_Z 64
_cell_length_a 18.094486
_cell_length_b 13.558588
_cell_length_c 18.592813
_cell_angle_alpha 90.000000
_cell_angle_beta 44.137995
_cell_angle_gamma 90.000000
_cell_volume 3176.564161
_symmetry_space_group_name_H-M "C 2/M"
_symmetry_group_IT_number 12
_symmetry_cell_setting 'monoclinic'
loop_
_space_group_symop_operation_xyz
x,y,z
-x,y,-z
-x,-y,-z
x,-y,z
1/2+x,1/2+y,z
1/2-x,1/2+y,-z
1/2-x,1/2-y,-z
1/2+x,1/2-y,z
loop_
_atom_site_type_symbol
_atom_site_label
_atom_site_fract_x
_atom_site_fract_y
_atom_site_fract_z
Si Si1 0.615819 0.795928 0.387416
Si Si2 0.770725 0.384506 0.818564
Si Si3 0.734736 0.884557 0.434336
Si Si4 0.736814 0.113004 0.002729
Si Si5 0.620575 0.201664 0.641933
Si Si6 0.587804 0.252147 0.882891
Si Si7 0.244636 0.615652 0.689653
Si Si8 0.564968 0.739581 0.134900
O O1 0.500000 0.813561 0.500000
O O2 0.637056 0.830537 0.291310
O O3 0.699720 0.856540 0.378241
O O4 0.650764 0.682267 0.373382
O O5 0.773461 0.500000 0.799303
O O6 0.771979 0.376678 0.904112
O O7 0.663218 0.332962 0.866227
O O8 0.638472 0.850163 0.553491
O O9 0.830002 0.812173 0.391983
O O10 0.756778 0.000000 0.426042
O O11 0.639800 0.179520 0.043738
O O12 0.726552 0.000000 0.989737
O O13 0.850546 0.157229 0.901077
O O14 0.692377 0.140366 0.648636
O O15 0.502461 0.210400 0.754701
O O16 0.660465 0.163062 0.803983
O O17 0.523871 0.295736 0.859220
O O18 0.500000 0.218497 0.000000
O O19 0.260358 0.500000 0.687411
#
# Coordination Sequence:
#
# PCOD9187235 Si02
#       8
#     8   8   8   8   8   8   8   8
#     4  10  22  36  53  81 117 146 182 233 279 331
#     4  10  21  37  59  87 116 148 189 233 286 345
#     4  10  20  35  56  84 114 145 184 230 282 332
#     4  10  22  38  58  84 115 153 189 228 283 347
#     4   9  20  36  57  82 110 145 185 234 277 328
#     4  10  19  35  58  84 113 143 186 237 283 327
#     4   9  19  36  56  78 106 144 189 231 272 327
#     4  10  21  37  57  82 116 148 185 236 280 334
#
# _framework density 20.147556000000002
#
# number of rings (size 3 to 8) (size 9 to 14) (size 15 to 20)
#    0.000    2.250    1.250    1.500    1.750    5.250 
#    0.000    0.000    0.000    0.000    0.000    0.000 
#    0.000    0.000    0.000    0.000    0.000    0.000 
#
# Total GULP energy -178623.692140 kJ/mol
# GULP energy per Si atom -5581.990379 kJ/mol
# Density = 2.010170 g / cm^3
# Si number density = 20.147556 Si / 1000 Ang^3
#
#
#
# Elastic Constant Matrix: (Units=GPa)
#
#
# Indices 1 2 3 4 5 6 
#
# 1 46.6346 2.1523 25.2407 0.0000 -11.9604 0.0000
# 2 2.1523 146.2401 -104.2020 0.0000 7.9363 0.0000
# 3 25.2407 -104.2020 480.9029 0.0000 -100.5880 0.0000
# 4 0.0000 0.0000 0.0000 15.3574 0.0000 7.7428
# 5 -11.9604 7.9363 -100.5880 0.0000 51.7794 0.0000
# 6 0.0000 0.0000 0.0000 7.7428 0.0000 10.9783
#
#
#
# Elastic Compliance Matrix: (Units=1/GPa)
#
#
# Indices 1 2 3 4 5 6 
#
# 1 0.022895 -0.000899 -0.000440 0.000000 0.004571 0.000000
# 2 -0.000899 0.008552 0.002666 0.000000 0.003660 0.000000
# 3 -0.000440 0.002666 0.004335 0.000000 0.007911 0.000000
# 4 0.000000 0.000000 0.000000 0.101045 0.000000 -0.071266
# 5 0.004571 0.003660 0.007911 0.000000 0.035175 0.000000
# 6 0.000000 0.000000 0.000000 -0.071266 0.000000 0.141351
#
#
# Mechanical properties :
#
#
# Convention : Reuss Voigt Hill
#
# Bulk Modulus (GPa) = 26.01745 57.79553 41.90649
# Shear Modulus (GPa) = 15.45535 65.66213 40.55874
#
# Velocity S-wave (km/s) = 2.77268 5.71501 4.49161
# Velocity P-wave (km/s) = 4.81579 8.50276 6.90973
#
# Compressibility (1/GPa) = 0.03843574
#
# Stress axis : x y z
#
# Youngs Moduli (GPa) = 43.67691 116.92884 230.69158
#
# Poissons Ratio (x) = 0.10510 0.10160
# Poissons Ratio (y) = 0.03926 -0.61500
# Poissons Ratio (z) = 0.01924 -0.31172
#
# Static dielectric constant tensor:
#      x y z
#    x 1.743800 0.000000 0.020960 
#    y 0.000000 1.680820 0.000000 
#    z 0.020960 0.000000 1.739240 
# 
# From -- ./inp_files/321243.got.cif
#   From: 2010.05.17/outbox.cif.g08.bks.cpg/sg12_161_cif.got.tgz:321243.got - 2010.06.03 13:09:07.
