data_PCOD9187847
_publ_section_title
;
Structure prediction by ZEFSAII (Michael W. Deem and Ramdas Pophale) SiO2 
 PCOD9187847
Probable space group: C 2/M
;
_chemical_formula_sum "Si O2"
_cell_formula_units_Z 64
_cell_length_a 20.188260
_cell_length_b 23.638262
_cell_length_c 8.480274
_cell_angle_alpha 90.000000
_cell_angle_beta 134.608423
_cell_angle_gamma 90.000000
_cell_volume 2881.092667
_symmetry_space_group_name_H-M "C 2/M"
_symmetry_group_IT_number 12
_symmetry_cell_setting 'monoclinic'
loop_
_space_group_symop_operation_xyz
x,y,z
-x,y,-z
-x,-y,-z
x,-y,z
1/2+x,1/2+y,z
1/2-x,1/2+y,-z
1/2-x,1/2-y,-z
1/2+x,1/2-y,z
loop_
_atom_site_type_symbol
_atom_site_label
_atom_site_fract_x
_atom_site_fract_y
_atom_site_fract_z
Si Si1 0.965271 0.648717 0.745825
Si Si2 0.827137 0.939224 0.806629
Si Si3 0.294685 0.642688 0.298263
Si Si4 0.129897 0.436202 0.021886
Si Si5 0.373082 0.063084 0.363520
Si Si6 0.130441 0.711152 0.133309
Si Si7 0.600773 0.563190 0.745598
Si Si8 0.604140 0.330845 0.237051
O O1 0.920739 0.618577 0.519228
O O2 0.888886 0.671100 0.743803
O O3 0.039239 0.599451 0.915977
O O4 0.037719 0.701836 0.870810
O O5 0.729242 0.938483 0.733566
O O6 0.837991 0.884538 0.722672
O O7 0.837040 0.000000 0.740842
O O8 0.903296 0.935505 0.073166
O O9 0.225906 0.591686 0.240450
O O10 0.218307 0.692453 0.176795
O O11 0.338513 0.615244 0.216152
O O12 0.378179 0.665015 0.547131
O O13 0.122771 0.500000 0.064436
O O14 0.131351 0.433435 0.832625
O O15 0.415187 0.000000 0.473067
O O16 0.140689 0.773205 0.220840
O O17 0.500000 0.566273 0.500000
O O18 0.640623 0.500000 0.771660
O O19 0.500000 0.336594 0.000000
#
# Coordination Sequence:
#
# PCOD9187847 Si02
#       8
#     8   8   8   8   8   8   8   8
#     4  10  19  37  63  88 125 175 214 247 308 375
#     4  10  22  39  62  93 125 158 202 263 329 388
#     4  11  22  38  67  92 122 170 217 254 316 380
#     4  10  20  36  62  96 134 168 206 255 316 382
#     4  10  19  35  61  94 132 167 203 255 319 382
#     4  10  23  43  60  85 124 174 215 261 313 363
#     4  10  20  39  64  91 128 165 201 261 329 376
#     4  12  24  43  66  87 124 166 215 268 318 376
#
# _framework density 22.213794
#
# number of rings (size 3 to 8) (size 9 to 14) (size 15 to 20)
#    0.000    1.625    2.500    3.000    0.000    2.250 
#    0.000   16.250    8.250    0.000    0.000    0.000 
#    0.000    0.000    0.000    0.000    0.000    0.000 
#
# Total GULP energy -178344.434969 kJ/mol
# GULP energy per Si atom -5573.263593 kJ/mol
# Density = 2.216323 g / cm^3
# Si number density = 22.213794 Si / 1000 Ang^3
#
#
#
# Elastic Constant Matrix: (Units=GPa)
#
#
# Indices 1 2 3 4 5 6 
#
# 1 35.2066 16.5035 -12.1007 0.0000 -0.9670 0.0000
# 2 16.5035 135.1361 15.5438 0.0000 -17.6756 0.0000
# 3 -12.1007 15.5438 81.6682 0.0000 3.3744 0.0000
# 4 0.0000 0.0000 0.0000 23.1548 0.0000 -2.6997
# 5 -0.9670 -17.6756 3.3744 0.0000 19.6919 0.0000
# 6 0.0000 0.0000 0.0000 -2.6997 0.0000 20.9546
#
#
#
# Elastic Compliance Matrix: (Units=1/GPa)
#
#
# Indices 1 2 3 4 5 6 
#
# 1 0.032820 -0.005242 0.006031 0.000000 -0.004127 0.000000
# 2 -0.005242 0.009532 -0.002955 0.000000 0.008804 0.000000
# 3 0.006031 -0.002955 0.013896 0.000000 -0.004737 0.000000
# 4 0.000000 0.000000 0.000000 0.043846 0.000000 0.005649
# 5 -0.004127 0.008804 -0.004737 0.000000 0.059294 0.000000
# 6 0.000000 0.000000 0.000000 0.005649 0.000000 0.048450
#
#
# Mechanical properties :
#
#
# Convention : Reuss Voigt Hill
#
# Bulk Modulus (GPa) = 19.26112 32.43380 25.84746
# Shear Modulus (GPa) = 21.78886 28.23123 25.01004
#
# Velocity S-wave (km/s) = 3.13528 3.56882 3.35905
# Velocity P-wave (km/s) = 4.66865 5.62267 5.16772
#
# Compressibility (1/GPa) = 0.05191806
#
# Stress axis : x y z
#
# Youngs Moduli (GPa) = 30.46881 104.91475 71.96127
#
# Poissons Ratio (x) = 0.54993 -0.43401
# Poissons Ratio (y) = 0.15971 0.21261
# Poissons Ratio (z) = -0.18376 0.30998
#
# Static dielectric constant tensor:
#      x y z
#    x 1.824470 0.000000 0.011900 
#    y 0.000000 1.852620 0.000000 
#    z 0.011900 0.000000 1.885700 
# 
# From -- ./inp_files/90701.got.cif
#   From: 2010.05.17/outbox.cif.g08.bks.cpg/sg12_46_cif.got.tgz:90701.got - 2010.06.03 13:09:07.
