data_PCOD9187822
_publ_section_title
;
Structure prediction by ZEFSAII (Michael W. Deem and Ramdas Pophale) SiO2 
 PCOD9187822
Probable space group: C 2/M
;
_chemical_formula_sum "Si O2"
_cell_formula_units_Z 48
_cell_length_a 27.300407
_cell_length_b 14.352078
_cell_length_c 5.408495
_cell_angle_alpha 90.000000
_cell_angle_beta 97.637602
_cell_angle_gamma 90.000000
_cell_volume 2100.343455
_symmetry_space_group_name_H-M "C 2/M"
_symmetry_group_IT_number 12
_symmetry_cell_setting 'monoclinic'
loop_
_space_group_symop_operation_xyz
x,y,z
-x,y,-z
-x,-y,-z
x,-y,z
1/2+x,1/2+y,z
1/2-x,1/2+y,-z
1/2-x,1/2-y,-z
1/2+x,1/2-y,z
loop_
_atom_site_type_symbol
_atom_site_label
_atom_site_fract_x
_atom_site_fract_y
_atom_site_fract_z
Si Si1 0.217158 0.807612 0.668032
Si Si2 0.445634 0.802222 0.342253
Si Si3 0.940680 0.899059 0.428461
Si Si4 0.089619 0.607972 0.179234
Si Si5 0.682442 0.797520 0.042811
Si Si6 0.851965 0.896994 0.724177
O O1 0.250000 0.750000 0.500000
O O2 0.261231 0.833574 0.884521
O O3 0.184646 0.889330 0.537396
O O4 0.180628 0.730285 0.756146
O O5 0.500000 0.801788 0.500000
O O6 0.430222 0.695446 0.276783
O O7 0.416395 0.844207 0.557212
O O8 0.441924 0.853993 0.077369
O O9 0.908005 0.890243 0.656993
O O10 0.000000 0.900955 0.500000
O O11 0.927008 0.000000 0.309652
O O12 0.078734 0.500000 0.203953
O O13 0.144840 0.628229 0.120629
O O14 0.665900 0.696327 0.147014
O O15 0.845425 0.000000 0.833533
#
# Coordination Sequence:
#
# PCOD9187822 Si02
#       6
#     8   8   8   8   8   8
#     4   9  20  38  61  86 120 167 212 269 331 394
#     4  11  24  45  69  98 137 177 222 279 334 395
#     4   9  18  36  64  98 134 173 215 264 330 404
#     4  12  26  43  68  98 132 179 229 280 336 392
#     4  10  21  39  61  89 127 164 215 276 333 391
#     4  10  19  35  61  91 126 167 212 261 328 402
#
# _framework density 22.853406
#
# number of rings (size 3 to 8) (size 9 to 14) (size 15 to 20)
#    0.000    1.833    1.667    2.000    2.333    3.333 
#    0.000    8.333    0.000    4.000    0.000    0.000 
#    0.000    0.000    0.000    0.000    0.000    0.000 
#
# Total GULP energy -133675.642405 kJ/mol
# GULP energy per Si atom -5569.818434 kJ/mol
# Density = 2.280139 g / cm^3
# Si number density = 22.853406 Si / 1000 Ang^3
#
#
#
# Elastic Constant Matrix: (Units=GPa)
#
#
# Indices 1 2 3 4 5 6 
#
# 1 113.3891 17.9668 35.6149 0.0000 -7.1447 0.0000
# 2 17.9668 137.7587 42.5626 0.0000 0.6710 0.0000
# 3 35.6149 42.5626 76.2346 0.0000 2.4875 0.0000
# 4 0.0000 0.0000 0.0000 -20.9710 0.0000 34.0672
# 5 -7.1447 0.6710 2.4875 0.0000 36.5747 0.0000
# 6 0.0000 0.0000 0.0000 34.0672 0.0000 -15.7694
#
#
#
# Elastic Compliance Matrix: (Units=1/GPa)
#
#
# Indices 1 2 3 4 5 6 
#
# 1 0.010546 0.000193 -0.005113 0.000000 0.002404 0.000000
# 2 0.000193 0.008777 -0.004997 0.000000 0.000216 0.000000
# 3 -0.005113 -0.004997 0.018366 0.000000 -0.002156 0.000000
# 4 0.000000 0.000000 0.000000 0.019002 0.000000 0.041051
# 5 0.002404 0.000216 -0.002156 0.000000 0.027954 0.000000
# 6 0.000000 0.000000 0.000000 0.041051 0.000000 0.025270
#
#
# Mechanical properties :
#
#
# Convention : Reuss Voigt Hill
#
# Bulk Modulus (GPa) = 56.00899 57.74123 56.87511
# Shear Modulus (GPa) = 36.84554 15.38275 26.11414
#
# Velocity S-wave (km/s) = 4.01965 2.59724 3.38402
# Velocity P-wave (km/s) = 6.79003 5.85790 6.34112
#
# Compressibility (1/GPa) = 0.01785428
#
# Stress axis : x y z
#
# Youngs Moduli (GPa) = 94.82192 113.93589 54.44748
#
# Poissons Ratio (x) = -0.02193 0.27838
# Poissons Ratio (y) = -0.01826 0.27209
# Poissons Ratio (z) = 0.48481 0.56936
#
# Static dielectric constant tensor:
#      x y z
#    x 1.972820 0.000000 0.064720 
#    y 0.000000 1.840960 0.000000 
#    z 0.064720 0.000000 1.983810 
# 
# From -- ./inp_files/28164.got.cif
#   From: 2010.05.17/outbox.cif.g08.bks.cpg/sg12_15_cif.got.tgz:28164.got - 2010.06.03 13:09:07.
