data_PCOD9187667
_publ_section_title
;
Structure prediction by ZEFSAII (Michael W. Deem and Ramdas Pophale) SiO2 
 PCOD9187667
Probable space group: C 2/M
;
_chemical_formula_sum "Si O2"
_cell_formula_units_Z 64
_cell_length_a 19.369146
_cell_length_b 8.275201
_cell_length_c 21.611152
_cell_angle_alpha 90.000000
_cell_angle_beta 71.570187
_cell_angle_gamma 90.000000
_cell_volume 3286.254328
_symmetry_space_group_name_H-M "C 2/M"
_symmetry_group_IT_number 12
_symmetry_cell_setting 'monoclinic'
loop_
_space_group_symop_operation_xyz
x,y,z
-x,y,-z
-x,-y,-z
x,-y,z
1/2+x,1/2+y,z
1/2-x,1/2+y,-z
1/2-x,1/2-y,-z
1/2+x,1/2-y,z
loop_
_atom_site_type_symbol
_atom_site_label
_atom_site_fract_x
_atom_site_fract_y
_atom_site_fract_z
Si Si1 0.561657 0.687100 0.217653
Si Si2 0.998488 0.807717 0.571004
Si Si3 0.962953 0.310198 0.909704
Si Si4 0.137306 0.689671 0.312620
Si Si5 0.180541 0.304512 0.980358
Si Si6 0.703138 0.194945 0.714590
Si Si7 0.628263 0.197209 0.864463
Si Si8 0.926444 0.690982 0.333957
O O1 0.569556 0.500000 0.199141
O O2 0.557167 0.788344 0.156432
O O3 0.624061 0.739146 0.247817
O O4 0.487517 0.716414 0.277009
O O5 0.921311 0.769380 0.624951
O O6 0.000000 0.749506 0.500000
O O7 0.058361 0.729259 0.599047
O O8 0.009701 0.000000 0.568098
O O9 0.967455 0.500000 0.923933
O O10 0.044731 0.244595 0.895914
O O11 0.895400 0.244183 0.968113
O O12 0.121762 0.500000 0.314826
O O13 0.218592 0.725122 0.310384
O O14 0.180226 0.500000 0.982192
O O15 0.177197 0.254899 0.909296
O O16 0.250000 0.250000 0.000000
O O17 0.661561 0.246269 0.789269
O O18 0.651747 0.234206 0.671187
O O19 0.712219 0.000000 0.714451
O O20 0.625529 0.000000 0.864164
O O21 0.937676 0.500000 0.319645
#
# Coordination Sequence:
#
# PCOD9187667 Si02
#       8
#     8   8   8   8   8   8   8   8
#     4  11  21  34  55  82 112 148 189 234 285 341
#     4  10  21  39  63  89 119 155 193 230 272 329
#     4  10  19  36  58  80 106 143 194 238 282 344
#     4  11  23  37  57  85 119 152 190 236 281 332
#     4  10  22  37  56  80 109 145 188 239 291 348
#     4  10  20  36  58  85 118 151 187 236 289 343
#     4   9  18  36  59  80 106 146 191 231 284 344
#     4  10  19  35  60  88 117 149 187 232 280 333
#
# _framework density 19.475059000000002
#
# number of rings (size 3 to 8) (size 9 to 14) (size 15 to 20)
#    0.000    1.875    1.250    4.875    1.750    4.000 
#    0.000    1.250    0.000    1.500    0.000    0.000 
#    0.000    0.000    0.000    0.000    0.000    0.000 
#
# Total GULP energy -178690.233403 kJ/mol
# GULP energy per Si atom -5584.069794 kJ/mol
# Density = 1.943073 g / cm^3
# Si number density = 19.475059 Si / 1000 Ang^3
#
#
#
# Elastic Constant Matrix: (Units=GPa)
#
#
# Indices 1 2 3 4 5 6 
#
# 1 126.8934 0.3206 46.8142 0.0000 23.7840 0.0000
# 2 0.3206 14.2363 -7.7294 0.0002 0.3430 0.0002
# 3 46.8142 -7.7294 89.9511 0.0000 23.9648 0.0000
# 4 0.0000 0.0002 0.0000 14.7553 0.0000 1.4378
# 5 23.7840 0.3430 23.9648 0.0000 23.0875 0.0000
# 6 0.0000 0.0002 0.0000 1.4378 0.0000 25.9316
#
#
#
# Elastic Compliance Matrix: (Units=1/GPa)
#
#
# Indices 1 2 3 4 5 6 
#
# 1 0.010603 -0.002178 -0.003876 0.000000 -0.006868 0.000000
# 2 -0.002178 0.076053 0.010190 -0.000001 -0.009463 -0.000001
# 3 -0.003876 0.010190 0.017951 0.000000 -0.014791 0.000000
# 4 0.000000 -0.000001 0.000000 0.068141 0.000000 -0.003778
# 5 -0.006868 -0.009463 -0.014791 0.000000 0.065882 0.000000
# 6 0.000000 -0.000001 0.000000 -0.003778 0.000000 0.038772
#
#
# Mechanical properties :
#
#
# Convention : Reuss Voigt Hill
#
# Bulk Modulus (GPa) = 8.85905 34.43240 21.64573
# Shear Modulus (GPa) = 16.29963 25.53323 20.91643
#
# Velocity S-wave (km/s) = 2.89615 3.62480 3.28077
# Velocity P-wave (km/s) = 3.96766 5.93612 5.04876
#
# Compressibility (1/GPa) = 0.11287889
#
# Stress axis : x y z
#
# Youngs Moduli (GPa) = 94.31075 13.14880 55.70858
#
# Poissons Ratio (x) = 0.02863 0.21591
# Poissons Ratio (y) = 0.20538 -0.56765
# Poissons Ratio (z) = 0.36553 -0.13398
#
# Static dielectric constant tensor:
#      x y z
#    x 1.676180 0.000000 0.009280 
#    y 0.000000 1.690590 0.000000 
#    z 0.009280 0.000000 1.672270 
# 
# From -- ./inp_files/341959.got.cif
#   From: 2010.05.17/outbox.cif.g08.bks.cpg/sg12_171_cif.got.tgz:341959.got - 2010.06.03 13:09:07.
