data_PCOD9187762
_publ_section_title
;
Structure prediction by ZEFSAII (Michael W. Deem and Ramdas Pophale) SiO2 
 PCOD9187762
Probable space group: C 2/M
;
_chemical_formula_sum "Si O2"
_cell_formula_units_Z 56
_cell_length_a 25.361334
_cell_length_b 13.227214
_cell_length_c 12.242841
_cell_angle_alpha 90.000000
_cell_angle_beta 141.321348
_cell_angle_gamma 90.000000
_cell_volume 2566.665228
_symmetry_space_group_name_H-M "C 2/M"
_symmetry_group_IT_number 12
_symmetry_cell_setting 'monoclinic'
loop_
_space_group_symop_operation_xyz
x,y,z
-x,y,-z
-x,-y,-z
x,-y,z
1/2+x,1/2+y,z
1/2-x,1/2+y,-z
1/2-x,1/2-y,-z
1/2+x,1/2-y,z
loop_
_atom_site_type_symbol
_atom_site_label
_atom_site_fract_x
_atom_site_fract_y
_atom_site_fract_z
Si Si1 0.849353 0.738142 0.140821
Si Si2 0.137223 0.618912 0.060743
Si Si3 0.552228 0.619837 0.848639
Si Si4 0.623778 0.119204 0.601282
Si Si5 0.708071 0.877130 0.394543
Si Si6 0.457299 0.810773 0.744112
Si Si7 0.794159 0.878187 0.744588
O O1 0.900207 0.837714 0.182808
O O2 0.887801 0.686115 0.310078
O O3 0.750000 0.750000 0.000000
O O4 0.852677 0.666747 0.040801
O O5 0.147150 0.500000 0.068442
O O6 0.201868 0.656607 0.258697
O O7 0.041027 0.645307 0.935402
O O8 0.536027 0.500000 0.817647
O O9 0.472947 0.691806 0.746446
O O10 0.618829 0.643510 0.053890
O O11 0.555876 0.139608 0.396789
O O12 0.713779 0.147929 0.690657
O O13 0.625231 0.000000 0.630817
O O14 0.622726 0.841999 0.315519
O O15 0.781134 0.845925 0.597670
O O16 0.707810 0.000000 0.390994
O O17 0.790775 0.000000 0.735357
#
# Coordination Sequence:
#
# PCOD9187762 Si02
#       7
#     8   8   8   8   8   8   8
#     4  11  22  36  57  84 118 151 198 240 289 342
#     4  10  20  33  55  89 122 149 182 237 303 351
#     4  10  21  37  56  82 115 155 200 238 282 341
#     4  10  19  35  61  88 114 147 188 241 295 345
#     4   9  17  33  60  90 120 146 180 237 302 354
#     4  10  20  34  57  89 116 149 191 232 290 354
#     4   8  15  31  57  83 109 149 191 230 281 342
#
# _framework density 21.818193999999998
#
# number of rings (size 3 to 8) (size 9 to 14) (size 15 to 20)
#    0.000    2.286    1.429    3.000    0.000    4.000 
#    0.000    7.857    3.143    6.857    0.000    0.000 
#    0.000    0.000    0.000    0.000    0.000    0.000 
#
# Total GULP energy -156413.355071 kJ/mol
# GULP energy per Si atom -5586.191253 kJ/mol
# Density = 2.176853 g / cm^3
# Si number density = 21.818194 Si / 1000 Ang^3
#
#
#
# Elastic Constant Matrix: (Units=GPa)
#
#
# Indices 1 2 3 4 5 6 
#
# 1 29.4648 3.4504 16.2085 0.0000 -18.8524 0.0000
# 2 3.4504 79.0772 12.5747 0.0000 -9.5166 0.0000
# 3 16.2085 12.5747 91.1671 0.0000 -31.0705 0.0000
# 4 0.0000 0.0000 0.0000 43.2701 0.0000 0.2697
# 5 -18.8524 -9.5166 -31.0705 0.0000 31.5627 0.0000
# 6 0.0000 0.0000 0.0000 0.2697 0.0000 25.9740
#
#
#
# Elastic Compliance Matrix: (Units=1/GPa)
#
#
# Indices 1 2 3 4 5 6 
#
# 1 0.055388 0.001537 0.002067 0.000000 0.035581 0.000000
# 2 0.001537 0.013194 -0.000639 0.000000 0.004267 0.000000
# 3 0.002067 -0.000639 0.016621 0.000000 0.017404 0.000000
# 4 0.000000 0.000000 0.000000 0.023112 0.000000 -0.000240
# 5 0.035581 0.004267 0.017404 0.000000 0.071355 0.000000
# 6 0.000000 0.000000 0.000000 -0.000240 0.000000 0.038503
#
#
# Mechanical properties :
#
#
# Convention : Reuss Voigt Hill
#
# Bulk Modulus (GPa) = 10.97303 29.35291 20.16297
# Shear Modulus (GPa) = 20.60844 31.32641 25.96742
#
# Velocity S-wave (km/s) = 3.07669 3.79330 3.45363
# Velocity P-wave (km/s) = 4.20257 5.71560 5.01646
#
# Compressibility (1/GPa) = 0.09113250
#
# Stress axis : x y z
#
# Youngs Moduli (GPa) = 18.05454 75.79244 60.16565
#
# Poissons Ratio (x) = -0.11646 -0.12437
# Poissons Ratio (y) = -0.02774 0.03843
# Poissons Ratio (z) = -0.03732 0.04841
#
# Static dielectric constant tensor:
#      x y z
#    x 1.819850 0.000000 0.022240 
#    y 0.000000 1.843820 0.000000 
#    z 0.022240 0.000000 1.829210 
# 
# From -- ./inp_files/189226.got.cif
#   From: 2010.05.17/outbox.cif.g08.bks.cpg/sg12_95_cif.got.tgz:189226.got - 2010.06.03 13:09:07.
