data_PCOD9187758
_publ_section_title
;
Structure prediction by ZEFSAII (Michael W. Deem and Ramdas Pophale) SiO2 
 PCOD9187758
Probable space group: C 2/M
;
_chemical_formula_sum "Si O2"
_cell_formula_units_Z 56
_cell_length_a 18.583237
_cell_length_b 13.167504
_cell_length_c 20.999579
_cell_angle_alpha 90.000000
_cell_angle_beta 151.376484
_cell_angle_gamma 90.000000
_cell_volume 2461.604199
_symmetry_space_group_name_H-M "C 2/M"
_symmetry_group_IT_number 12
_symmetry_cell_setting 'monoclinic'
loop_
_space_group_symop_operation_xyz
x,y,z
-x,y,-z
-x,-y,-z
x,-y,z
1/2+x,1/2+y,z
1/2-x,1/2+y,-z
1/2-x,1/2-y,-z
1/2+x,1/2-y,z
loop_
_atom_site_type_symbol
_atom_site_label
_atom_site_fract_x
_atom_site_fract_y
_atom_site_fract_z
Si Si1 0.378384 0.222645 0.551655
Si Si2 0.578623 0.326734 0.623385
Si Si3 0.250315 0.119842 0.240443
Si Si4 0.369258 0.380093 0.721179
Si Si5 0.327213 0.879649 0.163469
Si Si6 0.809284 0.875507 0.077651
Si Si7 0.851631 0.383197 0.917010
O O1 0.250000 0.250000 0.500000
O O2 0.455296 0.322409 0.582697
O O3 0.286516 0.165530 0.424933
O O4 0.511702 0.161269 0.688751
O O5 0.500000 0.367977 0.500000
O O6 0.627386 0.208140 0.651040
O O7 0.725046 0.379720 0.764200
O O8 0.126163 0.135600 0.198791
O O9 0.218483 0.137320 0.140622
O O10 0.297741 0.000000 0.283013
O O11 0.362583 0.500000 0.705344
O O12 0.517549 0.342685 0.799495
O O13 0.338949 0.000000 0.167162
O O14 0.276763 0.846349 0.054196
O O15 0.726551 0.842607 0.078807
O O16 0.813524 0.000000 0.083460
O O17 0.891147 0.500000 0.963453
O O18 0.000000 0.336038 0.000000
#
# Coordination Sequence:
#
# PCOD9187758 Si02
#       7
#     8   8   8   8   8   8   8
#     4  11  22  36  53  86 124 158 196 246 302 357
#     4  11  22  40  60  92 123 153 205 257 296 358
#     4   9  19  36  59  90 127 165 195 232 295 367
#     4  10  19  35  61  87 121 165 200 234 295 371
#     4   9  19  36  59  85 118 157 202 248 294 360
#     4   9  19  38  61  88 117 152 203 256 303 361
#     4  10  23  45  68  85 113 160 211 262 320 364
#
# _framework density 22.749393000000001
#
# number of rings (size 3 to 8) (size 9 to 14) (size 15 to 20)
#    0.000    2.143    1.429    1.286    0.000    2.857 
#    5.143    7.143    0.000    0.000    0.000    0.000 
#    0.000    0.000    0.000    0.000    0.000    0.000 
#
# Total GULP energy -156238.602525 kJ/mol
# GULP energy per Si atom -5579.950090 kJ/mol
# Density = 2.269761 g / cm^3
# Si number density = 22.749393 Si / 1000 Ang^3
#
#
#
# Elastic Constant Matrix: (Units=GPa)
#
#
# Indices 1 2 3 4 5 6 
#
# 1 157.9918 21.6250 67.9597 0.0005 4.0553 -0.0001
# 2 21.6250 47.8875 4.8684 -0.0011 -3.1247 0.0002
# 3 67.9597 4.8684 140.7481 -0.0019 -9.2755 0.0002
# 4 0.0005 -0.0011 -0.0019 6.1430 -0.0005 1.0145
# 5 4.0553 -3.1247 -9.2755 -0.0005 44.7726 0.0001
# 6 -0.0001 0.0002 0.0002 1.0145 0.0001 24.5430
#
#
#
# Elastic Compliance Matrix: (Units=1/GPa)
#
#
# Indices 1 2 3 4 5 6 
#
# 1 0.008675 -0.003616 -0.004189 -0.000003 -0.001906 0.000000
# 2 -0.003616 0.022542 0.001107 0.000005 0.002130 0.000000
# 3 -0.004189 0.001107 0.009246 0.000004 0.002372 0.000000
# 4 -0.000003 0.000005 0.000004 0.163905 0.000003 -0.006775
# 5 -0.001906 0.002130 0.002372 0.000003 0.023148 0.000000
# 6 0.000000 0.000000 0.000000 -0.006775 0.000000 0.041025
#
#
# Mechanical properties :
#
#
# Convention : Reuss Voigt Hill
#
# Bulk Modulus (GPa) = 36.94778 59.50375 48.22576
# Shear Modulus (GPa) = 17.18451 31.90336 24.54393
#
# Velocity S-wave (km/s) = 2.75141 3.74890 3.28820
# Velocity P-wave (km/s) = 5.13518 6.70463 5.97169
#
# Compressibility (1/GPa) = 0.02706523
#
# Stress axis : x y z
#
# Youngs Moduli (GPa) = 115.26875 44.36223 108.15742
#
# Poissons Ratio (x) = 0.16042 0.45312
# Poissons Ratio (y) = 0.41682 -0.11970
# Poissons Ratio (z) = 0.48291 -0.04909
#
# Static dielectric constant tensor:
#      x y z
#    x 1.895880 0.000000 -0.013570 
#    y 0.000000 1.894410 0.000000 
#    z -0.013570 0.000000 1.836040 
# 
# From -- ./inp_files/316756.got.cif
#   From: 2010.05.17/outbox.cif.g08.bks.cpg/sg12_159_cif.got.tgz:316756.got - 2010.06.03 13:09:07.
