data_PCOD9187085
_publ_section_title
;
Structure prediction by ZEFSAII (Michael W. Deem and Ramdas Pophale) SiO2 
 PCOD9187085
Probable space group: C 2/M
;
_chemical_formula_sum "Si O2"
_cell_formula_units_Z 56
_cell_length_a 16.467273
_cell_length_b 18.413315
_cell_length_c 22.844325
_cell_angle_alpha 90.000000
_cell_angle_beta 25.214724
_cell_angle_gamma 90.000000
_cell_volume 2950.894134
_symmetry_space_group_name_H-M "C 2/M"
_symmetry_group_IT_number 12
_symmetry_cell_setting 'monoclinic'
loop_
_space_group_symop_operation_xyz
x,y,z
-x,y,-z
-x,-y,-z
x,-y,z
1/2+x,1/2+y,z
1/2-x,1/2+y,-z
1/2-x,1/2-y,-z
1/2+x,1/2-y,z
loop_
_atom_site_type_symbol
_atom_site_label
_atom_site_fract_x
_atom_site_fract_y
_atom_site_fract_z
Si Si1 0.964314 0.685205 0.871654
Si Si2 0.263911 0.843206 0.779590
Si Si3 0.170872 0.086092 0.341514
Si Si4 0.904946 0.580422 0.498146
Si Si5 0.983428 0.798784 0.637055
Si Si6 0.848297 0.220878 0.349795
Si Si7 0.357926 0.320053 0.007595
O O1 0.129421 0.626294 0.774338
O O2 0.053086 0.745995 0.770651
O O3 0.896059 0.733567 0.971451
O O4 0.783344 0.656122 0.952389
O O5 0.428000 0.899709 0.656562
O O6 0.342214 0.764702 0.707747
O O7 0.065672 0.857053 0.875916
O O8 0.229537 0.836434 0.871491
O O9 0.000000 0.100123 0.500000
O O10 0.092529 0.124400 0.334169
O O11 0.196790 0.000000 0.320319
O O12 0.827905 0.500000 0.537098
O O13 0.753123 0.644547 0.594840
O O14 0.000000 0.581848 0.500000
O O15 0.010329 0.790506 0.688420
O O16 0.187456 0.778352 0.475850
#
# Coordination Sequence:
#
# PCOD9187085 Si02
#       7
#     8   8   8   8   8   8   8
#     4  11  20  36  57  89 118 150 204 247 280 339
#     4  10  19  37  58  86 112 150 197 240 285 343
#     4  11  23  37  58  89 125 157 187 241 312 365
#     4  10  22  37  58  88 119 148 185 242 309 359
#     4  10  19  35  57  85 115 146 196 242 292 346
#     4  10  20  33  60  86 113 151 190 250 292 340
#     4  10  21  33  59  87 110 151 203 241 279 328
#
# _framework density 18.9773
#
# number of rings (size 3 to 8) (size 9 to 14) (size 15 to 20)
#    0.000    1.714    4.286    0.857    2.000    0.571 
#    0.000    4.286    0.000    6.000    0.000    0.000 
#    0.000    0.000    0.000    0.000    0.000    0.000 
#
# Total GULP energy -156213.743418 kJ/mol
# GULP energy per Si atom -5579.062265 kJ/mol
# Density = 1.893411 g / cm^3
# Si number density = 18.977300 Si / 1000 Ang^3
#
#
#
# Elastic Constant Matrix: (Units=GPa)
#
#
# Indices 1 2 3 4 5 6 
#
# 1 83.8495 39.2147 27.2939 -0.0040 -15.2250 -0.0024
# 2 39.2147 96.0770 21.3074 0.0091 -10.3132 -0.0042
# 3 27.2939 21.3074 64.7980 0.0197 -1.1515 -0.0110
# 4 -0.0040 0.0091 0.0197 14.2793 0.0045 -1.2568
# 5 -15.2250 -10.3132 -1.1515 0.0045 35.9650 0.0011
# 6 -0.0024 -0.0042 -0.0110 -1.2568 0.0011 15.8879
#
#
#
# Elastic Compliance Matrix: (Units=1/GPa)
#
#
# Indices 1 2 3 4 5 6 
#
# 1 0.017130 -0.005192 -0.005409 0.000014 0.005589 -0.000002
# 2 -0.005192 0.013158 -0.002113 -0.000007 0.001507 0.000001
# 3 -0.005409 -0.002113 0.018365 -0.000024 -0.002308 0.000010
# 4 0.000014 -0.000007 -0.000024 0.070522 -0.000006 0.005578
# 5 0.005589 0.001507 -0.002308 -0.000006 0.030529 -0.000003
# 6 -0.000002 0.000001 0.000010 0.005578 -0.000003 0.063382
#
#
# Mechanical properties :
#
#
# Convention : Reuss Voigt Hill
#
# Bulk Modulus (GPa) = 43.05731 46.70627 44.88179
# Shear Modulus (GPa) = 20.30409 23.68701 21.99555
#
# Velocity S-wave (km/s) = 3.27450 3.53679 3.40817
# Velocity P-wave (km/s) = 6.08561 6.42990 6.26012
#
# Compressibility (1/GPa) = 0.02322486
#
# Stress axis : x y z
#
# Youngs Moduli (GPa) = 58.37734 75.99951 54.45267
#
# Poissons Ratio (x) = 0.39461 0.29452
# Poissons Ratio (y) = 0.30311 0.11505
# Poissons Ratio (z) = 0.31575 0.16058
#
# Static dielectric constant tensor:
#      x y z
#    x 1.677460 0.000000 -0.012450 
#    y 0.000000 1.627740 0.000000 
#    z -0.012450 0.000000 1.708220 
# 
# From -- ./inp_files/234631.got.cif
#   From: 2010.05.17/outbox.cif.g08.bks.cpg/sg12_118_cif.got.tgz:234631.got - 2010.06.03 13:09:07.
