data_PCOD9187097
_publ_section_title
;
Structure prediction by ZEFSAII (Michael W. Deem and Ramdas Pophale) SiO2 
 PCOD9187097
Probable space group: C 2/M
;
_chemical_formula_sum "Si O2"
_cell_formula_units_Z 64
_cell_length_a 9.228359
_cell_length_b 16.758535
_cell_length_c 32.091917
_cell_angle_alpha 90.000000
_cell_angle_beta 139.998460
_cell_angle_gamma 90.000000
_cell_volume 3190.344633
_symmetry_space_group_name_H-M "C 2/M"
_symmetry_group_IT_number 12
_symmetry_cell_setting 'monoclinic'
loop_
_space_group_symop_operation_xyz
x,y,z
-x,y,-z
-x,-y,-z
x,-y,z
1/2+x,1/2+y,z
1/2-x,1/2+y,-z
1/2-x,1/2-y,-z
1/2+x,1/2-y,z
loop_
_atom_site_type_symbol
_atom_site_label
_atom_site_fract_x
_atom_site_fract_y
_atom_site_fract_z
Si Si1 0.938083 0.316095 0.272197
Si Si2 0.646578 0.903250 0.570945
Si Si3 0.379368 0.908427 0.342156
Si Si4 0.380321 0.174864 0.899499
Si Si5 0.173973 0.090469 0.684331
Si Si6 0.634975 0.629387 0.764664
Si Si7 0.147804 0.908972 0.993298
Si Si8 0.975696 0.158028 0.875492
O O1 0.941797 0.345967 0.320338
O O2 0.904369 0.222296 0.256820
O O3 0.727805 0.356890 0.201530
O O4 0.168391 0.347039 0.303419
O O5 0.500000 0.873409 0.500000
O O6 0.559139 0.880456 0.597564
O O7 0.911449 0.884669 0.624941
O O8 0.636844 0.000000 0.568837
O O9 0.107653 0.909491 0.282276
O O10 0.459459 0.000000 0.352479
O O11 0.277271 0.125883 0.837911
O O12 0.200990 0.171786 0.897563
O O13 0.411785 0.263181 0.887888
O O14 0.625811 0.141348 0.963826
O O15 0.244702 0.090845 0.748364
O O16 0.195640 0.000000 0.672553
O O17 0.014962 0.905600 0.920428
O O18 0.209331 0.000000 0.016833
O O19 0.000000 0.878236 0.000000
#
# Coordination Sequence:
#
# PCOD9187097 Si02
#       8
#     8   8   8   8   8   8   8   8
#     4  11  22  36  58  88 122 154 191 247 301 355
#     4   8  16  34  59  84 116 160 203 238 284 354
#     4  10  19  35  57  87 117 148 194 244 291 341
#     4  11  23  41  64  85 112 154 201 244 290 363
#     4  10  21  35  57  87 119 152 194 245 298 343
#     4  10  21  37  59  84 114 158 198 233 289 362
#     4  11  26  44  61  86 119 156 197 248 305 355
#     4  11  24  41  63  86 116 156 198 245 295 363
#
# _framework density 20.060528000000001
#
# number of rings (size 3 to 8) (size 9 to 14) (size 15 to 20)
#    0.000    1.750    1.250    3.750    7.000    3.000 
#    0.000    0.625    0.000   15.000    0.000    0.000 
#    0.000    0.000    0.000    0.000    0.000    0.000 
#
# Total GULP energy -178637.919353 kJ/mol
# GULP energy per Si atom -5582.434980 kJ/mol
# Density = 2.001487 g / cm^3
# Si number density = 20.060528 Si / 1000 Ang^3
#
#
#
# Elastic Constant Matrix: (Units=GPa)
#
#
# Indices 1 2 3 4 5 6 
#
# 1 125.9716 19.9955 40.7759 0.0000 -14.9757 0.0000
# 2 19.9955 46.0676 21.7227 0.0000 -5.7228 0.0000
# 3 40.7759 21.7227 92.7854 0.0000 -22.3148 0.0000
# 4 0.0000 0.0000 0.0000 41.4105 0.0000 44.2631
# 5 -14.9757 -5.7228 -22.3148 0.0000 24.3815 0.0000
# 6 0.0000 0.0000 0.0000 44.2631 0.0000 147.3672
#
#
#
# Elastic Compliance Matrix: (Units=1/GPa)
#
#
# Indices 1 2 3 4 5 6 
#
# 1 0.009611 -0.002419 -0.003044 0.000000 0.002549 0.000000
# 2 -0.002419 0.025018 -0.004794 0.000000 -0.000002 0.000000
# 3 -0.003044 -0.004794 0.016050 0.000000 0.011695 0.000000
# 4 0.000000 0.000000 0.000000 0.035567 0.000000 -0.010683
# 5 0.002549 -0.000002 0.011695 0.000000 0.053284 0.000000
# 6 0.000000 0.000000 0.000000 -0.010683 0.000000 0.009995
#
#
# Mechanical properties :
#
#
# Convention : Reuss Voigt Hill
#
# Bulk Modulus (GPa) = 33.15284 47.75698 40.45491
# Shear Modulus (GPa) = 27.76321 54.78720 41.27521
#
# Velocity S-wave (km/s) = 3.72421 5.23166 4.54093
# Velocity P-wave (km/s) = 5.92075 7.76864 6.90677
#
# Compressibility (1/GPa) = 0.03016333
#
# Stress axis : x y z
#
# Youngs Moduli (GPa) = 104.05037 39.97144 62.30401
#
# Poissons Ratio (x) = 0.09671 0.18966
# Poissons Ratio (y) = 0.25174 0.29870
# Poissons Ratio (z) = 0.31674 0.19164
#
# Static dielectric constant tensor:
#      x y z
#    x 1.708290 0.000000 -0.029320 
#    y 0.000000 1.733610 0.000000 
#    z -0.029320 0.000000 1.718110 
# 
# From -- ./inp_files/372983.got.cif
#   From: 2010.05.17/outbox.cif.g08.bks.cpg/sg12_187_cif.got.tgz:372983.got - 2010.06.03 13:09:07.
