data_PCOD9187300
_publ_section_title
;
Structure prediction by ZEFSAII (Michael W. Deem and Ramdas Pophale) SiO2 
 PCOD9187300
Probable space group: C 2/M
;
_chemical_formula_sum "Si O2"
_cell_formula_units_Z 58
_cell_length_a 14.557733
_cell_length_b 14.305786
_cell_length_c 15.334432
_cell_angle_alpha 90.000000
_cell_angle_beta 68.903099
_cell_angle_gamma 90.000000
_cell_volume 2979.492152
_symmetry_space_group_name_H-M "C 2/M"
_symmetry_group_IT_number 12
_symmetry_cell_setting 'monoclinic'
loop_
_space_group_symop_operation_xyz
x,y,z
-x,y,-z
-x,-y,-z
x,-y,z
1/2+x,1/2+y,z
1/2-x,1/2+y,-z
1/2-x,1/2-y,-z
1/2+x,1/2-y,z
loop_
_atom_site_type_symbol
_atom_site_label
_atom_site_fract_x
_atom_site_fract_y
_atom_site_fract_z
Si Si1 0.141140 0.661328 0.530451
Si Si2 0.880611 0.610441 0.813929
Si Si3 0.235603 0.783520 0.360954
Si Si4 0.168514 0.810943 0.834908
Si Si5 0.518607 0.394677 0.173158
Si Si6 0.000000 0.500000 0.500000
Si Si7 0.467321 0.727885 0.662904
Si Si8 0.866702 0.739859 0.972424
O O1 0.215710 0.693660 0.429411
O O2 0.205226 0.646116 0.596347
O O3 0.072486 0.580515 0.517782
O O4 0.065769 0.746549 0.577684
O O5 0.898855 0.500000 0.797906
O O6 0.766500 0.636175 0.833709
O O7 0.938349 0.675479 0.724480
O O8 0.901275 0.650635 0.904075
O O9 0.300634 0.754917 0.255810
O O10 0.126621 0.804346 0.361460
O O11 0.089530 0.885285 0.830021
O O12 0.120263 0.749164 0.928617
O O13 0.554076 0.500000 0.162473
O O14 0.515812 0.349028 0.269225
O O15 0.586190 0.329201 0.090528
O O16 0.750000 0.750000 0.000000
#
# Coordination Sequence:
#
# PCOD9187300 Si02
#       8
#     8   8   8   8   8   2   8   8
#     4  11  22  39  65  92 127 163 205 264 316 369
#     4   9  19  33  58  88 120 157 200 253 307 367
#     4  10  21  40  62  86 123 170 202 249 321 375
#     4  10  19  35  58  87 117 156 206 250 307 371
#     4  11  22  37  60  88 119 157 206 258 308 373
#     4  12  24  40  68 104 120 162 226 272 306 388
#     4  10  20  39  61  89 125 166 205 253 316 377
#     4   9  20  36  54  82 118 156 195 250 310 365
#
# _framework density 19.466405000000002
#
# number of rings (size 3 to 8) (size 9 to 14) (size 15 to 20)
#    0.000    1.931    2.759    1.655    0.966    3.310 
#    2.483    0.000    1.517    7.448    0.000    0.000 
#    0.000    0.000    0.000    0.000    0.000    0.000 
#
# Total GULP energy -161473.814434 kJ/mol
# GULP energy per Si atom -5568.062567 kJ/mol
# Density = 1.942210 g / cm^3
# Si number density = 19.466405 Si / 1000 Ang^3
#
#
#
# Elastic Constant Matrix: (Units=GPa)
#
#
# Indices 1 2 3 4 5 6 
#
# 1 78.9794 35.9699 24.0999 0.0000 15.8226 0.0000
# 2 35.9699 84.8572 29.5217 0.0000 13.7761 0.0000
# 3 24.0999 29.5217 96.9606 0.0000 14.9139 0.0000
# 4 0.0000 0.0000 0.0000 -2.5295 0.0000 9.3990
# 5 15.8226 13.7761 14.9139 0.0000 34.9057 0.0000
# 6 0.0000 0.0000 0.0000 9.3990 0.0000 16.5690
#
#
#
# Elastic Compliance Matrix: (Units=1/GPa)
#
#
# Indices 1 2 3 4 5 6 
#
# 1 0.016717 -0.005751 -0.001699 0.000000 -0.004582 0.000000
# 2 -0.005751 0.015630 -0.002977 0.000000 -0.002290 0.000000
# 3 -0.001699 -0.002977 0.012141 0.000000 -0.003242 0.000000
# 4 0.000000 0.000000 0.000000 -0.127207 0.000000 0.072160
# 5 -0.004582 -0.002290 -0.003242 0.000000 0.033014 0.000000
# 6 0.000000 0.000000 0.000000 0.072160 0.000000 0.019420
#
#
# Mechanical properties :
#
#
# Convention : Reuss Voigt Hill
#
# Bulk Modulus (GPa) = 42.31417 48.88669 45.60043
# Shear Modulus (GPa) = -3223.00927 21.20275 -1600.90326
#
# Velocity S-wave (km/s) = -40.73416 3.30388 -28.70850
# Velocity P-wave (km/s) = 46.80362 6.30254 32.79372
#
# Compressibility (1/GPa) = 0.02363274
#
# Stress axis : x y z
#
# Youngs Moduli (GPa) = 59.81829 63.98023 82.36565
#
# Poissons Ratio (x) = 0.36796 0.13996
# Poissons Ratio (y) = 0.34403 0.24522
# Poissons Ratio (z) = 0.10165 0.19048
#
# Static dielectric constant tensor:
#      x y z
#    x 1.716750 0.000000 0.024170 
#    y 0.000000 1.668650 0.000000 
#    z 0.024170 0.000000 1.734850 
# 
# From -- ./inp_files/214772.got.cif
#   From: 2010.05.17/outbox.cif.g08.bks.cpg/sg12_108_cif.got.tgz:214772.got - 2010.06.03 13:09:07.
