data_PCOD9187148
_publ_section_title
;
Structure prediction by ZEFSAII (Michael W. Deem and Ramdas Pophale) SiO2 
 PCOD9187148
Probable space group: C 2/M
;
_chemical_formula_sum "Si O2"
_cell_formula_units_Z 48
_cell_length_a 25.814652
_cell_length_b 8.590996
_cell_length_c 12.148363
_cell_angle_alpha 90.000000
_cell_angle_beta 90.316488
_cell_angle_gamma 90.000000
_cell_volume 2694.144755
_symmetry_space_group_name_H-M "C 2/M"
_symmetry_group_IT_number 12
_symmetry_cell_setting 'monoclinic'
loop_
_space_group_symop_operation_xyz
x,y,z
-x,y,-z
-x,-y,-z
x,-y,z
1/2+x,1/2+y,z
1/2-x,1/2+y,-z
1/2-x,1/2-y,-z
1/2+x,1/2-y,z
loop_
_atom_site_type_symbol
_atom_site_label
_atom_site_fract_x
_atom_site_fract_y
_atom_site_fract_z
Si Si1 0.687451 0.812055 0.388452
Si Si2 0.060375 0.813626 0.997783
Si Si3 0.094334 0.688333 0.230188
Si Si4 0.806677 0.813862 0.371262
Si Si5 0.504730 0.810401 0.625565
Si Si6 0.897100 0.313438 0.229816
O O1 0.645877 0.764179 0.296597
O O2 0.746354 0.765519 0.360591
O O3 0.674866 0.745503 0.508816
O O4 0.685771 0.000000 0.396567
O O5 0.088151 0.747622 0.890202
O O6 0.060699 0.000000 0.993040
O O7 0.087884 0.757150 0.109202
O O8 0.000000 0.760921 0.000000
O O9 0.094112 0.500000 0.222348
O O10 0.044602 0.736084 0.302324
O O11 0.843117 0.746523 0.277310
O O12 0.808767 0.000000 0.369012
O O13 0.500000 0.756019 0.500000
O O14 0.557296 0.760610 0.686212
O O15 0.505063 0.000000 0.623040
O O16 0.896849 0.500000 0.228113
#
# Coordination Sequence:
#
# PCOD9187148 Si02
#       6
#     8   8   8   8   8   8
#     4   9  19  36  59  84 111 147 187 226 270 326
#     4  11  23  38  55  78 113 148 180 224 282 336
#     4  10  19  35  58  81 107 141 189 232 267 320
#     4  10  20  35  56  84 117 148 180 224 279 328
#     4   9  17  29  50  80 108 133 170 223 271 315
#     4  11  21  35  57  81 108 145 190 227 267 326
#
# _framework density 17.816414000000002
#
# number of rings (size 3 to 8) (size 9 to 14) (size 15 to 20)
#    0.000    2.000    1.667    2.500    0.000    4.667 
#    0.000    0.833    0.000    2.500    0.000    0.000 
#    0.000    0.000    0.000    0.000    0.000    0.000 
#
# Total GULP energy -134015.090205 kJ/mol
# GULP energy per Si atom -5583.962092 kJ/mol
# Density = 1.777586 g / cm^3
# Si number density = 17.816414 Si / 1000 Ang^3
#
#
#
# Elastic Constant Matrix: (Units=GPa)
#
#
# Indices 1 2 3 4 5 6 
#
# 1 86.3342 24.4108 60.5831 0.0000 -11.8607 0.0000
# 2 24.4108 23.5999 28.8440 0.0000 -4.5601 0.0000
# 3 60.5831 28.8440 147.5918 0.0000 -21.6645 0.0000
# 4 0.0000 0.0000 0.0000 25.5977 0.0000 -3.8000
# 5 -11.8607 -4.5601 -21.6645 0.0000 29.8003 0.0000
# 6 0.0000 0.0000 0.0000 -3.8000 0.0000 19.3329
#
#
#
# Elastic Compliance Matrix: (Units=1/GPa)
#
#
# Indices 1 2 3 4 5 6 
#
# 1 0.019089 -0.013323 -0.004943 0.000000 0.001965 0.000000
# 2 -0.013323 0.064982 -0.007332 0.000000 -0.000689 0.000000
# 3 -0.004943 -0.007332 0.010953 0.000000 0.004873 0.000000
# 4 0.000000 0.000000 0.000000 0.040240 0.000000 0.007909
# 5 0.001965 -0.000689 0.004873 0.000000 0.037776 0.000000
# 6 0.000000 0.000000 0.000000 0.007909 0.000000 0.053280
#
#
# Mechanical properties :
#
#
# Convention : Reuss Voigt Hill
#
# Bulk Modulus (GPa) = 22.81708 53.91128 38.36418
# Shear Modulus (GPa) = 17.11596 24.52538 20.82067
#
# Velocity S-wave (km/s) = 3.10285 3.71423 3.42222
# Velocity P-wave (km/s) = 5.06671 6.97990 6.09879
#
# Compressibility (1/GPa) = 0.04382682
#
# Stress axis : x y z
#
# Youngs Moduli (GPa) = 52.38667 15.38891 91.30149
#
# Poissons Ratio (x) = 0.20503 0.45133
# Poissons Ratio (y) = 0.69796 0.66940
# Poissons Ratio (z) = 0.25896 0.11283
#
# Static dielectric constant tensor:
#      x y z
#    x 1.609450 0.000000 0.003600 
#    y 0.000000 1.602850 0.000000 
#    z 0.003600 0.000000 1.569980 
# 
# From -- ./inp_files/172164.got.cif
#   From: 2010.05.17/outbox.cif.g08.bks.cpg/sg12_87_cif.got.tgz:172164.got - 2010.06.03 13:09:07.
