data_PCOD9187842
_publ_section_title
;
Structure prediction by ZEFSAII (Michael W. Deem and Ramdas Pophale) SiO2 
 PCOD9187842
Probable space group: C 2/M
;
_chemical_formula_sum "Si O2"
_cell_formula_units_Z 56
_cell_length_a 14.988009
_cell_length_b 11.954791
_cell_length_c 25.373453
_cell_angle_alpha 90.000000
_cell_angle_beta 40.088461
_cell_angle_gamma 90.000000
_cell_volume 2927.728832
_symmetry_space_group_name_H-M "C 2/M"
_symmetry_group_IT_number 12
_symmetry_cell_setting 'monoclinic'
loop_
_space_group_symop_operation_xyz
x,y,z
-x,y,-z
-x,-y,-z
x,-y,z
1/2+x,1/2+y,z
1/2-x,1/2+y,-z
1/2-x,1/2-y,-z
1/2+x,1/2-y,z
loop_
_atom_site_type_symbol
_atom_site_label
_atom_site_fract_x
_atom_site_fract_y
_atom_site_fract_z
Si Si1 0.193360 0.119531 0.168807
Si Si2 0.549229 0.738237 0.921654
Si Si3 0.882475 0.364803 0.510850
Si Si4 0.979467 0.367678 0.658323
Si Si5 0.406195 0.711147 0.310407
Si Si6 0.840757 0.131223 0.227320
Si Si7 0.211807 0.629317 0.990110
O O1 0.296943 0.214813 0.140187
O O2 0.195781 0.124509 0.104325
O O3 0.037824 0.130516 0.258988
O O4 0.252103 0.000000 0.158415
O O5 0.559582 0.656230 0.867254
O O6 0.500000 0.688170 0.000000
O O7 0.445473 0.841420 0.956785
O O8 0.880165 0.500000 0.511268
O O9 0.929263 0.323955 0.432091
O O10 0.733782 0.324374 0.597427
O O11 0.000000 0.331442 0.500000
O O12 0.993100 0.500000 0.652811
O O13 0.035677 0.321563 0.687960
O O14 0.818224 0.345804 0.717903
O O15 0.376785 0.707272 0.261338
O O16 0.849425 0.000000 0.238759
O O17 0.218054 0.500000 0.010205
O O18 0.250000 0.750000 0.000000
#
# Coordination Sequence:
#
# PCOD9187842 Si02
#       7
#     8   8   8   8   8   8   8
#     4  10  20  35  56  86 117 152 201 255 304 367
#     4  10  21  39  61  86 122 163 203 259 321 379
#     4  10  19  35  61  94 123 158 206 254 308 372
#     4  10  22  40  60  87 128 165 202 256 315 374
#     4  12  21  36  64  91 121 163 209 253 309 372
#     4  11  22  39  63  91 124 163 210 267 316 372
#     4  10  21  38  59  84 119 162 205 255 318 377
#
# _framework density 19.127454
#
# number of rings (size 3 to 8) (size 9 to 14) (size 15 to 20)
#    0.000    1.571    2.857    3.000    0.000    3.714 
#    0.000    5.714    0.000    0.429    0.000    0.000 
#    0.000    0.000    0.000    0.000    0.000    0.000 
#
# Total GULP energy -155968.924429 kJ/mol
# GULP energy per Si atom -5570.318730 kJ/mol
# Density = 1.908392 g / cm^3
# Si number density = 19.127454 Si / 1000 Ang^3
#
#
#
# Elastic Constant Matrix: (Units=GPa)
#
#
# Indices 1 2 3 4 5 6 
#
# 1 104.6202 42.0609 38.2203 0.0000 4.4231 0.0000
# 2 42.0609 47.7375 24.5917 0.0000 6.7940 0.0000
# 3 38.2203 24.5917 109.9442 0.0000 -4.0671 0.0000
# 4 0.0000 0.0000 0.0000 21.8042 0.0000 3.1383
# 5 4.4231 6.7940 -4.0671 0.0000 36.2265 0.0000
# 6 0.0000 0.0000 0.0000 3.1383 0.0000 28.7397
#
#
#
# Elastic Compliance Matrix: (Units=1/GPa)
#
#
# Indices 1 2 3 4 5 6 
#
# 1 0.015446 -0.012278 -0.002619 0.000000 0.000123 0.000000
# 2 -0.012278 0.034395 -0.003623 0.000000 -0.005358 0.000000
# 3 -0.002619 -0.003623 0.010899 0.000000 0.002223 0.000000
# 4 0.000000 0.000000 0.000000 0.046595 0.000000 -0.005088
# 5 0.000123 -0.005358 0.002223 0.000000 0.028844 0.000000
# 6 0.000000 0.000000 0.000000 -0.005088 0.000000 0.035351
#
#
# Mechanical properties :
#
#
# Convention : Reuss Voigt Hill
#
# Bulk Modulus (GPa) = 42.19461 52.44976 47.32218
# Shear Modulus (GPa) = 23.09812 27.84934 25.47373
#
# Velocity S-wave (km/s) = 3.47881 3.81988 3.65333
# Velocity P-wave (km/s) = 6.18415 6.85099 6.52609
#
# Compressibility (1/GPa) = 0.02369971
#
# Stress axis : x y z
#
# Youngs Moduli (GPa) = 64.74194 29.07429 91.75518
#
# Poissons Ratio (x) = 0.35696 0.24029
# Poissons Ratio (y) = 0.79488 0.33246
# Poissons Ratio (z) = 0.16955 0.10534
#
# Static dielectric constant tensor:
#      x y z
#    x 1.713280 0.000000 0.001050 
#    y 0.000000 1.668700 0.000000 
#    z 0.001050 0.000000 1.688740 
# 
# From -- ./inp_files/268839.got.cif
#   From: 2010.05.17/outbox.cif.g08.bks.cpg/sg12_135_cif.got.tgz:268839.got - 2010.06.03 13:09:07.
