data_PCOD9187617
_publ_section_title
;
Structure prediction by ZEFSAII (Michael W. Deem and Ramdas Pophale) SiO2 
 PCOD9187617
Probable space group: C 2/M
;
_chemical_formula_sum "Si O2"
_cell_formula_units_Z 56
_cell_length_a 29.806311
_cell_length_b 14.180288
_cell_length_c 12.817221
_cell_angle_alpha 90.000000
_cell_angle_beta 32.873791
_cell_angle_gamma 90.000000
_cell_volume 2940.486901
_symmetry_space_group_name_H-M "C 2/M"
_symmetry_group_IT_number 12
_symmetry_cell_setting 'monoclinic'
loop_
_space_group_symop_operation_xyz
x,y,z
-x,y,-z
-x,-y,-z
x,-y,z
1/2+x,1/2+y,z
1/2-x,1/2+y,-z
1/2-x,1/2-y,-z
1/2+x,1/2-y,z
loop_
_atom_site_type_symbol
_atom_site_label
_atom_site_fract_x
_atom_site_fract_y
_atom_site_fract_z
Si Si1 0.431461 0.396214 0.722362
Si Si2 0.753832 0.607132 0.997494
Si Si3 0.018344 0.766260 0.697698
Si Si4 0.801559 0.254006 0.291553
Si Si5 0.550938 0.604529 0.005628
Si Si6 0.048064 0.388005 0.015948
Si Si7 0.295559 0.248447 0.737160
O O1 0.500000 0.393843 0.500000
O O2 0.440236 0.500000 0.757970
O O3 0.342450 0.395337 0.845183
O O4 0.446492 0.302528 0.760524
O O5 0.783687 0.500000 0.954344
O O6 0.753519 0.670682 0.102166
O O7 0.792767 0.659085 0.821180
O O8 0.107258 0.766235 0.470898
O O9 0.014197 0.851735 0.787164
O O10 0.995715 0.672171 0.806132
O O11 0.750000 0.250000 0.500000
O O12 0.870386 0.171993 0.155558
O O13 0.858497 0.348132 0.175489
O O14 0.745994 0.240960 0.296105
O O15 0.579035 0.500000 0.976244
O O16 0.500000 0.603141 0.000000
O O17 0.045941 0.500000 0.038581
O O18 0.000000 0.368848 0.000000
#
# Coordination Sequence:
#
# PCOD9187617 Si02
#       7
#     8   8   8   8   8   8   8
#     4  10  19  35  60  86 110 144 189 237 291 347
#     4  10  22  40  58  83 119 154 194 242 290 344
#     4  11  20  36  60  84 115 149 195 239 287 339
#     4  11  22  39  61  88 122 153 188 237 297 354
#     4  10  21  37  59  89 119 148 188 238 290 346
#     4  10  22  40  59  80 111 155 202 237 273 336
#     4  11  23  36  58  88 118 154 191 236 295 353
#
# _framework density 19.044464999999999
#
# number of rings (size 3 to 8) (size 9 to 14) (size 15 to 20)
#    0.000    1.571    1.429    5.571    0.000    4.000 
#    0.000    0.000    0.000    0.429    0.000    0.000 
#    0.000    0.000    0.000    0.000    0.000    0.000 
#
# Total GULP energy -156097.626767 kJ/mol
# GULP energy per Si atom -5574.915242 kJ/mol
# Density = 1.900112 g / cm^3
# Si number density = 19.044465 Si / 1000 Ang^3
#
#
#
# Elastic Constant Matrix: (Units=GPa)
#
#
# Indices 1 2 3 4 5 6 
#
# 1 76.9215 27.9572 21.1781 0.0000 17.7951 0.0000
# 2 27.9572 131.6485 27.1593 0.0000 12.1441 0.0000
# 3 21.1781 27.1593 97.8503 0.0000 11.4186 0.0000
# 4 0.0000 0.0000 0.0000 -80.5909 0.0000 -6.2958
# 5 17.7951 12.1441 11.4186 0.0000 28.7078 0.0000
# 6 0.0000 0.0000 0.0000 -6.2958 0.0000 -0.2962
#
#
#
# Elastic Compliance Matrix: (Units=1/GPa)
#
#
# Indices 1 2 3 4 5 6 
#
# 1 0.016297 -0.002294 -0.001914 0.000000 -0.008371 0.000000
# 2 -0.002294 0.008576 -0.001706 0.000000 -0.001527 0.000000
# 3 -0.001914 -0.001706 0.011414 0.000000 -0.002632 0.000000
# 4 0.000000 0.000000 0.000000 0.018791 0.000000 -0.399374
# 5 -0.008371 -0.001527 -0.002632 0.000000 0.041716 0.000000
# 6 0.000000 0.000000 0.000000 -0.399374 0.000000 5.112277
#
#
# Mechanical properties :
#
#
# Convention : Reuss Voigt Hill
#
# Bulk Modulus (GPa) = 40.88121 51.00105 45.94113
# Shear Modulus (GPa) = 0.95620 4.90584 2.93102
#
# Velocity S-wave (km/s) = 0.70935 1.60673 1.24193
# Velocity P-wave (km/s) = 4.70996 5.50275 5.12171
#
# Compressibility (1/GPa) = 0.02446111
#
# Stress axis : x y z
#
# Youngs Moduli (GPa) = 61.35944 116.60579 87.60799
#
# Poissons Ratio (x) = 0.26749 0.16766
# Poissons Ratio (y) = 0.14076 0.14942
# Poissons Ratio (z) = 0.11743 0.19888
#
# Static dielectric constant tensor:
#      x y z
#    x 1.783310 0.000000 0.075190 
#    y 0.000000 1.713280 0.000000 
#    z 0.075190 0.000000 1.698870 
# 
# From -- ./inp_files/183490.got.cif
#   From: 2010.05.17/outbox.cif.g08.bks.cpg/sg12_92_cif.got.tgz:183490.got - 2010.06.03 13:09:07.
