data_PCOD9187237
_publ_section_title
;
Structure prediction by ZEFSAII (Michael W. Deem and Ramdas Pophale) SiO2 
 PCOD9187237
Probable space group: C 2/M
;
_chemical_formula_sum "Si O2"
_cell_formula_units_Z 56
_cell_length_a 10.266109
_cell_length_b 14.574630
_cell_length_c 27.077199
_cell_angle_alpha 90.000000
_cell_angle_beta 39.219543
_cell_angle_gamma 90.000000
_cell_volume 2561.686185
_symmetry_space_group_name_H-M "C 2/M"
_symmetry_group_IT_number 12
_symmetry_cell_setting 'monoclinic'
loop_
_space_group_symop_operation_xyz
x,y,z
-x,y,-z
-x,-y,-z
x,-y,z
1/2+x,1/2+y,z
1/2-x,1/2+y,-z
1/2-x,1/2-y,-z
1/2+x,1/2-y,z
loop_
_atom_site_type_symbol
_atom_site_label
_atom_site_fract_x
_atom_site_fract_y
_atom_site_fract_z
Si Si1 0.489855 0.803136 0.677564
Si Si2 0.823931 0.837881 0.509577
Si Si3 0.473051 0.896402 0.227203
Si Si4 0.519482 0.401264 0.638699
Si Si5 0.137953 0.601277 0.883880
Si Si6 0.412457 0.245674 0.172632
Si Si7 0.812834 0.101612 0.943373
O O1 0.618905 0.862542 0.600558
O O2 0.508647 0.850476 0.724923
O O3 0.575397 0.697478 0.647186
O O4 0.243080 0.794892 0.743806
O O5 0.750000 0.750000 0.500000
O O6 0.909986 0.898527 0.439531
O O7 0.000000 0.823856 0.500000
O O8 0.552908 0.825151 0.162296
O O9 0.228224 0.902154 0.289156
O O10 0.557692 0.000000 0.200201
O O11 0.591274 0.500000 0.639029
O O12 0.168389 0.500000 0.853201
O O13 0.217609 0.680138 0.825474
O O14 0.237289 0.601991 0.908515
O O15 0.893141 0.615270 0.964301
O O16 0.525279 0.317443 0.104389
O O17 0.895691 0.000000 0.930139
#
# Coordination Sequence:
#
# PCOD9187237 Si02
#       7
#     8   8   8   8   8   8   8
#     4  10  21  34  52  81 114 147 177 235 293 339
#     4  10  19  35  58  84 113 156 199 244 297 341
#     4  10  20  34  52  78 107 141 186 232 274 334
#     4   9  19  35  57  81 104 141 196 241 277 334
#     4   9  18  35  57  79 103 142 187 227 269 334
#     4  11  20  33  53  82 111 143 178 231 287 332
#     4   9  19  35  55  78 108 143 183 223 274 342
#
# _framework density 21.860603000000001
#
# number of rings (size 3 to 8) (size 9 to 14) (size 15 to 20)
#    0.000    2.286    1.429    2.571    0.000    2.000 
#    0.000    0.714    0.000    7.714    0.000    9.000 
#    0.000    0.000    0.000    0.000    0.000    0.000 
#
# Total GULP energy -155956.100333 kJ/mol
# GULP energy per Si atom -5569.860726 kJ/mol
# Density = 2.181085 g / cm^3
# Si number density = 21.860603 Si / 1000 Ang^3
#
#
#
# Elastic Constant Matrix: (Units=GPa)
#
#
# Indices 1 2 3 4 5 6 
#
# 1 29.6614 18.3617 8.7561 -0.0009 10.7865 0.0003
# 2 18.3617 100.9298 14.7564 -0.0003 1.9471 0.0005
# 3 8.7561 14.7564 39.4713 -0.0017 6.6806 0.0016
# 4 -0.0009 -0.0003 -0.0017 14.8747 0.0017 7.8594
# 5 10.7865 1.9471 6.6806 0.0017 28.0506 -0.0005
# 6 0.0003 0.0005 0.0016 7.8594 -0.0005 23.2620
#
#
#
# Elastic Compliance Matrix: (Units=1/GPa)
#
#
# Indices 1 2 3 4 5 6 
#
# 1 0.045339 -0.007261 -0.004666 0.000005 -0.015819 -0.000002
# 2 -0.007261 0.011645 -0.003208 -0.000001 0.002748 0.000001
# 3 -0.004666 -0.003208 0.028371 0.000005 -0.004740 -0.000004
# 4 0.000005 -0.000001 0.000005 0.081838 -0.000009 -0.027650
# 5 -0.015819 0.002748 -0.004740 -0.000009 0.042671 0.000004
# 6 -0.000002 0.000001 -0.000004 -0.027650 0.000004 0.052331
#
#
# Mechanical properties :
#
#
# Convention : Reuss Voigt Hill
#
# Bulk Modulus (GPa) = 18.15339 28.20120 23.17729
# Shear Modulus (GPa) = 16.08618 21.78334 18.93476
#
# Velocity S-wave (km/s) = 2.71560 3.16011 2.94625
# Velocity P-wave (km/s) = 4.26085 5.12284 4.71160
#
# Compressibility (1/GPa) = 0.05508613
#
# Stress axis : x y z
#
# Youngs Moduli (GPa) = 22.05618 85.87519 35.24672
#
# Poissons Ratio (x) = 0.62353 0.16445
# Poissons Ratio (y) = 0.16015 0.11306
# Poissons Ratio (z) = 0.10291 0.27547
#
# Static dielectric constant tensor:
#      x y z
#    x 1.812680 0.000000 -0.000030 
#    y 0.000000 1.886370 0.000000 
#    z -0.000030 0.000000 1.842570 
# 
# From -- ./inp_files/358162.got.cif
#   From: 2010.05.17/outbox.cif.g08.bks.cpg/sg12_180_cif.got.tgz:358162.got - 2010.06.03 13:09:07.
