data_PCOD9187769
_publ_section_title
;
Structure prediction by ZEFSAII (Michael W. Deem and Ramdas Pophale) SiO2 
 PCOD9187769
Probable space group: C 2/M
;
_chemical_formula_sum "Si O2"
_cell_formula_units_Z 40
_cell_length_a 19.800529
_cell_length_b 7.752110
_cell_length_c 26.587921
_cell_angle_alpha 90.000000
_cell_angle_beta 155.249215
_cell_angle_gamma 90.000000
_cell_volume 1708.658231
_symmetry_space_group_name_H-M "C 2/M"
_symmetry_group_IT_number 12
_symmetry_cell_setting 'monoclinic'
loop_
_space_group_symop_operation_xyz
x,y,z
-x,y,-z
-x,-y,-z
x,-y,z
1/2+x,1/2+y,z
1/2-x,1/2+y,-z
1/2-x,1/2-y,-z
1/2+x,1/2-y,z
loop_
_atom_site_type_symbol
_atom_site_label
_atom_site_fract_x
_atom_site_fract_y
_atom_site_fract_z
Si Si1 0.882536 0.209248 0.821437
Si Si2 0.713071 0.198109 0.605859
Si Si3 0.256430 0.801716 0.945775
Si Si4 0.557053 0.788784 0.646496
Si Si5 0.049694 0.302876 0.318535
O O1 0.810394 0.271756 0.718892
O O2 0.744212 0.257775 0.767623
O O3 0.061204 0.278367 0.949601
O O4 0.896270 0.000000 0.829575
O O5 0.545579 0.271130 0.471240
O O6 0.831198 0.203997 0.637829
O O7 0.680228 0.000000 0.597993
O O8 0.207215 0.000000 0.908654
O O9 0.250000 0.750000 0.000000
O O10 0.126310 0.697500 0.826083
O O11 0.474349 0.729986 0.641948
O O12 0.550719 0.000000 0.642642
O O13 0.108083 0.500000 0.361297
#
# Coordination Sequence:
#
# PCOD9187769 Si02
#       5
#     8   8   8   8   8
#     4  10  20  37  62  88 117 153 195 239 285 338
#     4  10  19  35  61  88 117 155 199 239 281 336
#     4  12  24  40  61  85 114 148 194 242 292 347
#     4   9  20  37  58  88 121 157 194 233 285 345
#     4  11  22  37  59  86 120 156 195 238 285 341
#
# _framework density 23.410178999999999
#
# number of rings (size 3 to 8) (size 9 to 14) (size 15 to 20)
#    0.000    1.600    2.000    3.600    0.000    3.200 
#    0.000    8.000    0.000    2.400    0.000    0.000 
#    0.000    0.000    0.000    0.000    0.000    0.000 
#
# Total GULP energy -111857.761816 kJ/mol
# GULP energy per Si atom -5592.888091 kJ/mol
# Density = 2.335690 g / cm^3
# Si number density = 23.410179 Si / 1000 Ang^3
#
#
#
# Elastic Constant Matrix: (Units=GPa)
#
#
# Indices 1 2 3 4 5 6 
#
# 1 65.1877 0.5849 -10.4747 0.0015 9.2693 -0.0005
# 2 0.5849 61.0113 -7.4378 0.0008 2.8572 -0.0005
# 3 -10.4747 -7.4378 96.9594 0.0068 13.9140 -0.0015
# 4 0.0015 0.0008 0.0068 14.2549 -0.0005 5.7192
# 5 9.2693 2.8572 13.9140 -0.0005 42.0869 -0.0001
# 6 -0.0005 -0.0005 -0.0015 5.7192 -0.0001 18.1256
#
#
#
# Elastic Compliance Matrix: (Units=1/GPa)
#
#
# Indices 1 2 3 4 5 6 
#
# 1 0.016357 0.000347 0.002429 -0.000004 -0.004429 0.000002
# 2 0.000347 0.016658 0.001563 -0.000002 -0.001724 0.000001
# 3 0.002429 0.001563 0.011325 -0.000007 -0.004385 0.000003
# 4 -0.000004 -0.000002 -0.000007 0.080319 0.000004 -0.025343
# 5 -0.004429 -0.001724 -0.004385 0.000004 0.026303 -0.000002
# 6 0.000002 0.000001 0.000003 -0.025343 -0.000002 0.063167
#
#
# Mechanical properties :
#
#
# Convention : Reuss Voigt Hill
#
# Bulk Modulus (GPa) = 18.86132 20.94480 19.90306
# Shear Modulus (GPa) = 22.40895 30.92588 26.66741
#
# Velocity S-wave (km/s) = 3.09727 3.63856 3.37877
# Velocity P-wave (km/s) = 4.56784 5.15931 4.87256
#
# Compressibility (1/GPa) = 0.05301856
#
# Stress axis : x y z
#
# Youngs Moduli (GPa) = 61.13446 60.03007 88.29854
#
# Poissons Ratio (x) = -0.02082 -0.21451
# Poissons Ratio (y) = -0.02120 -0.13799
# Poissons Ratio (z) = -0.14852 -0.09381
#
# Static dielectric constant tensor:
#      x y z
#    x 1.877450 0.000000 -0.009470 
#    y 0.000000 1.858150 0.000000 
#    z -0.009470 0.000000 1.891520 
# 
# From -- ./inp_files/151640.got.cif
#   From: 2010.05.17/outbox.cif.g08.bks.cpg/sg12_76_cif.got.tgz:151640.got - 2010.06.03 13:09:07.
