data_PCOD9187485
_publ_section_title
;
Structure prediction by ZEFSAII (Michael W. Deem and Ramdas Pophale) SiO2 
 PCOD9187485
Probable space group: C 2/M
;
_chemical_formula_sum "Si O2"
_cell_formula_units_Z 64
_cell_length_a 14.917490
_cell_length_b 7.969377
_cell_length_c 23.305795
_cell_angle_alpha 90.000000
_cell_angle_beta 83.693237
_cell_angle_gamma 90.000000
_cell_volume 2753.897120
_symmetry_space_group_name_H-M "C 2/M"
_symmetry_group_IT_number 12
_symmetry_cell_setting 'monoclinic'
loop_
_space_group_symop_operation_xyz
x,y,z
-x,y,-z
-x,-y,-z
x,-y,z
1/2+x,1/2+y,z
1/2-x,1/2+y,-z
1/2-x,1/2-y,-z
1/2+x,1/2-y,z
loop_
_atom_site_type_symbol
_atom_site_label
_atom_site_fract_x
_atom_site_fract_y
_atom_site_fract_z
Si Si1 0.427990 0.806175 0.961413
Si Si2 0.577389 0.304634 0.879274
Si Si3 0.764042 0.294199 0.906817
Si Si4 0.442549 0.802379 0.238965
Si Si5 0.792687 0.700298 0.436715
Si Si6 0.540642 0.698514 0.638646
Si Si7 0.151437 0.298181 0.219433
Si Si8 0.334836 0.701651 0.656194
O O1 0.487578 0.799030 0.898845
O O2 0.331613 0.731112 0.951330
O O3 0.414831 0.000000 0.979061
O O4 0.500000 0.725430 0.000000
O O5 0.559539 0.500000 0.891132
O O6 0.659633 0.244910 0.913737
O O7 0.605483 0.285522 0.811002
O O8 0.766148 0.500000 0.908034
O O9 0.802984 0.238883 0.842382
O O10 0.415090 0.770359 0.306199
O O11 0.546964 0.742021 0.228970
O O12 0.438331 0.000000 0.228446
O O13 0.794612 0.500000 0.433071
O O14 0.750000 0.750000 0.500000
O O15 0.894018 0.762598 0.418558
O O16 0.730199 0.766804 0.389007
O O17 0.534837 0.500000 0.646625
O O18 0.438148 0.764539 0.640696
O O19 0.151822 0.500000 0.218178
O O20 0.193886 0.243414 0.276817
O O21 0.336754 0.500000 0.651333
#
# Coordination Sequence:
#
# PCOD9187485 Si02
#       8
#     8   8   8   8   8   8   8   8
#     4  10  21  41  64  81 109 156 201 238 284 346
#     4  11  22  35  56  86 119 151 188 239 294 343
#     4   9  19  36  55  83 116 151 189 233 289 346
#     4  10  19  35  59  86 118 153 193 237 283 346
#     4  11  24  42  61  86 118 156 198 242 287 343
#     4  10  21  39  61  87 118 154 193 239 294 345
#     4   9  17  33  58  82 113 151 189 231 284 345
#     4   9  21  39  58  84 118 151 191 238 288 340
#
# _framework density 23.239792999999999
#
# number of rings (size 3 to 8) (size 9 to 14) (size 15 to 20)
#    0.000    2.125    1.250    1.500    1.750    3.250 
#    0.000    4.375    0.000    0.000    0.000    0.000 
#    0.000    0.000    0.000    0.000    0.000    0.000 
#
# Total GULP energy -178842.322483 kJ/mol
# GULP energy per Si atom -5588.822578 kJ/mol
# Density = 2.318690 g / cm^3
# Si number density = 23.239793 Si / 1000 Ang^3
#
#
#
# Elastic Constant Matrix: (Units=GPa)
#
#
# Indices 1 2 3 4 5 6 
#
# 1 95.2186 4.0809 19.9473 0.0000 7.2072 0.0000
# 2 4.0809 45.4257 -1.2277 0.0000 2.3499 0.0000
# 3 19.9473 -1.2277 79.6923 0.0000 3.5712 0.0000
# 4 0.0000 0.0000 0.0000 31.3672 0.0000 -3.7450
# 5 7.2072 2.3499 3.5712 0.0000 41.0987 0.0000
# 6 0.0000 0.0000 0.0000 -3.7450 0.0000 16.2438
#
#
#
# Elastic Compliance Matrix: (Units=1/GPa)
#
#
# Indices 1 2 3 4 5 6 
#
# 1 0.011249 -0.000998 -0.002756 0.000000 -0.001676 0.000000
# 2 -0.000998 0.022180 0.000643 0.000000 -0.001149 0.000000
# 3 -0.002756 0.000643 0.013280 0.000000 -0.000707 0.000000
# 4 0.000000 0.000000 0.000000 0.032783 0.000000 0.007558
# 5 -0.001676 -0.001149 -0.000707 0.000000 0.024753 0.000000
# 6 0.000000 0.000000 0.000000 0.007558 0.000000 0.063305
#
#
# Mechanical properties :
#
#
# Convention : Reuss Voigt Hill
#
# Bulk Modulus (GPa) = 24.69937 29.54860 27.12399
# Shear Modulus (GPa) = 26.69974 30.91100 28.80537
#
# Velocity S-wave (km/s) = 3.39319 3.65100 3.52445
# Velocity P-wave (km/s) = 5.09929 5.52406 5.31592
#
# Compressibility (1/GPa) = 0.04048686
#
# Stress axis : x y z
#
# Youngs Moduli (GPa) = 88.89557 45.08465 75.30294
#
# Poissons Ratio (x) = 0.04501 0.20753
# Poissons Ratio (y) = 0.08875 -0.04843
# Poissons Ratio (z) = 0.24499 -0.02899
#
# Static dielectric constant tensor:
#      x y z
#    x 1.827840 0.000000 0.044760 
#    y 0.000000 1.813780 0.000000 
#    z 0.044760 0.000000 1.893120 
# 
# From -- ./inp_files/338807.got.cif
#   From: 2010.05.17/outbox.cif.g08.bks.cpg/sg12_170_cif.got.tgz:338807.got - 2010.06.03 13:09:07.
