data_PCOD9187992
_publ_section_title
;
Structure prediction by ZEFSAII (Michael W. Deem and Ramdas Pophale) SiO2 
 PCOD9187992
Probable space group: C 2/M
;
_chemical_formula_sum "Si O2"
_cell_formula_units_Z 36
_cell_length_a 18.946001
_cell_length_b 12.917598
_cell_length_c 6.961396
_cell_angle_alpha 90.000000
_cell_angle_beta 64.405788
_cell_angle_gamma 90.000000
_cell_volume 1536.535408
_symmetry_space_group_name_H-M "C 2/M"
_symmetry_group_IT_number 12
_symmetry_cell_setting 'monoclinic'
loop_
_space_group_symop_operation_xyz
x,y,z
-x,y,-z
-x,-y,-z
x,-y,z
1/2+x,1/2+y,z
1/2-x,1/2+y,-z
1/2-x,1/2-y,-z
1/2+x,1/2-y,z
loop_
_atom_site_type_symbol
_atom_site_label
_atom_site_fract_x
_atom_site_fract_y
_atom_site_fract_z
Si Si1 0.286605 0.000000 0.211326
Si Si2 0.269590 0.500000 0.106930
Si Si3 0.354469 0.845641 0.856887
Si Si4 0.844510 0.000000 0.382643
Si Si5 0.912388 0.190242 0.533880
Si Si6 0.473046 0.115770 0.249386
O O1 0.248315 0.000000 0.460200
O O2 0.214305 0.000000 0.141084
O O3 0.331356 0.104385 0.091997
O O4 0.211026 0.401851 0.194568
O O5 0.343983 0.500000 0.153762
O O6 0.361177 0.727324 0.779587
O O7 0.444125 0.883478 0.733059
O O8 0.879701 0.899038 0.438823
O O9 0.000000 0.163264 0.500000
O O10 0.920354 0.293578 0.394333
O O11 0.439306 0.000000 0.293723
O O12 0.500000 0.138836 0.000000
#
# Coordination Sequence:
#
# PCOD9187992 Si02
#       6
#     4   4   8   4   8   8
#     4   8  20  39  59  89 116 158 199 250 298 341
#     4   8  20  39  59  90 116 156 200 256 293 344
#     4   8  18  40  58  94 118 149 201 262 308 335
#     4  12  23  42  61  88 126 177 202 224 303 383
#     4  10  23  39  63  88 125 161 201 253 302 359
#     4  10  19  35  65  98 118 150 200 262 320 357
#
# _framework density 23.429334999999998
#
# number of rings (size 3 to 8) (size 9 to 14) (size 15 to 20)
#    1.333    1.111    2.222    0.333    3.111    4.889 
#    8.000    0.556    0.000    0.000    0.000    0.000 
#    0.000    0.000    0.000    0.000    0.000    0.000 
#
# Total GULP energy -100249.057339 kJ/mol
# GULP energy per Si atom -5569.392074 kJ/mol
# Density = 2.337601 g / cm^3
# Si number density = 23.429335 Si / 1000 Ang^3
#
#
#
# Elastic Constant Matrix: (Units=GPa)
#
#
# Indices 1 2 3 4 5 6 
#
# 1 67.4588 22.4036 9.2100 0.0000 12.2897 0.0000
# 2 22.4036 93.7750 16.4269 0.0000 1.5071 0.0000
# 3 9.2100 16.4269 49.0021 0.0000 5.1535 0.0000
# 4 0.0000 0.0000 0.0000 12.8326 0.0000 -0.9206
# 5 12.2897 1.5071 5.1535 0.0000 22.6791 0.0000
# 6 0.0000 0.0000 0.0000 -0.9206 0.0000 41.6179
#
#
#
# Elastic Compliance Matrix: (Units=1/GPa)
#
#
# Indices 1 2 3 4 5 6 
#
# 1 0.017966 -0.003955 -0.001081 0.000000 -0.009227 0.000000
# 2 -0.003955 0.012200 -0.003572 0.000000 0.002144 0.000000
# 3 -0.001081 -0.003572 0.022253 0.000000 -0.004234 0.000000
# 4 0.000000 0.000000 0.000000 0.078051 0.000000 0.001726
# 5 -0.009227 0.002144 -0.004234 0.000000 0.049913 0.000000
# 6 0.000000 0.000000 0.000000 0.001726 0.000000 0.024066
#
#
# Mechanical properties :
#
#
# Convention : Reuss Voigt Hill
#
# Bulk Modulus (GPa) = 28.40551 34.03521 31.22036
# Shear Modulus (GPa) = 21.42267 26.23895 23.83081
#
# Velocity S-wave (km/s) = 3.02711 3.35015 3.19272
# Velocity P-wave (km/s) = 4.93640 5.43350 5.19091
#
# Compressibility (1/GPa) = 0.03520444
#
# Stress axis : x y z
#
# Youngs Moduli (GPa) = 55.66150 81.96822 44.93762
#
# Poissons Ratio (x) = 0.32415 0.04856
# Poissons Ratio (y) = 0.22012 0.16051
# Poissons Ratio (z) = 0.06015 0.29279
#
# Static dielectric constant tensor:
#      x y z
#    x 1.916860 0.000000 0.019570 
#    y 0.000000 1.881180 0.000000 
#    z 0.019570 0.000000 1.936500 
# 
# From -- ./inp_files/71160.got.cif
#   From: 2010.05.17/outbox.cif.g08.bks.cpg/sg12_36_cif.got.tgz:71160.got - 2010.06.03 13:09:07.
