data_PCOD9187902
_publ_section_title
;
Structure prediction by ZEFSAII (Michael W. Deem and Ramdas Pophale) SiO2 
 PCOD9187902
Probable space group: C 2/M
;
_chemical_formula_sum "Si O2"
_cell_formula_units_Z 42
_cell_length_a 16.710878
_cell_length_b 7.714953
_cell_length_c 15.218898
_cell_angle_alpha 90.000000
_cell_angle_beta 70.068383
_cell_angle_gamma 90.000000
_cell_volume 1844.547672
_symmetry_space_group_name_H-M "C 2/M"
_symmetry_group_IT_number 12
_symmetry_cell_setting 'monoclinic'
loop_
_space_group_symop_operation_xyz
x,y,z
-x,y,-z
-x,-y,-z
x,-y,z
1/2+x,1/2+y,z
1/2-x,1/2+y,-z
1/2-x,1/2-y,-z
1/2+x,1/2-y,z
loop_
_atom_site_type_symbol
_atom_site_label
_atom_site_fract_x
_atom_site_fract_y
_atom_site_fract_z
Si Si1 0.430960 0.701564 0.628313
Si Si2 0.403808 0.705900 0.018536
Si Si3 0.878599 0.292901 0.215692
Si Si4 0.070817 0.705109 0.178218
Si Si5 0.260999 0.292363 0.597161
Si Si6 0.500000 0.000000 0.500000
O O1 0.452424 0.500000 0.602434
O O2 0.402283 0.712379 0.740334
O O3 0.351482 0.767381 0.599976
O O4 0.501162 0.843960 0.576502
O O5 0.408755 0.500000 0.014829
O O6 0.352531 0.755749 0.124874
O O7 0.500000 0.778555 0.000000
O O8 0.377804 0.763183 0.930940
O O9 0.882424 0.500000 0.223108
O O10 0.813803 0.223498 0.312417
O O11 0.974473 0.226815 0.196064
O O12 0.068334 0.500000 0.192798
O O13 0.262034 0.500000 0.605995
O O14 0.250000 0.250000 0.500000
#
# Coordination Sequence:
#
# PCOD9187902 Si02
#       6
#     8   8   8   8   8   2
#     4  11  25  43  64  94 124 159 209 257 303 368
#     4   9  17  31  53  86 121 154 199 253 302 357
#     4   9  19  36  59  86 119 159 204 249 306 368
#     4  10  19  35  62  91 121 160 203 253 305 363
#     4  10  24  41  61  87 123 160 201 256 310 369
#     4  12  26  44  68  86 126 168 202 256 308 366
#
# _framework density 22.76981
#
# number of rings (size 3 to 8) (size 9 to 14) (size 15 to 20)
#    0.000    2.095    0.952    1.429    4.000    3.810 
#    0.000    0.952    0.000    0.000    0.000    0.000 
#    0.000    0.000    0.000    0.000    0.000    0.000 
#
# Total GULP energy -117011.921373 kJ/mol
# GULP energy per Si atom -5571.996256 kJ/mol
# Density = 2.271798 g / cm^3
# Si number density = 22.769810 Si / 1000 Ang^3
#
#
#
# Elastic Constant Matrix: (Units=GPa)
#
#
# Indices 1 2 3 4 5 6 
#
# 1 42.6438 2.6778 46.6105 0.0000 15.0838 0.0000
# 2 2.6778 83.9292 7.2043 0.0000 -3.6208 0.0000
# 3 46.6105 7.2043 213.2413 0.0000 19.4815 0.0000
# 4 0.0000 0.0000 0.0000 37.6904 0.0000 11.3370
# 5 15.0838 -3.6208 19.4815 0.0000 32.6257 0.0000
# 6 0.0000 0.0000 0.0000 11.3370 0.0000 -0.9784
#
#
#
# Elastic Compliance Matrix: (Units=1/GPa)
#
#
# Indices 1 2 3 4 5 6 
#
# 1 0.034996 -0.001097 -0.006476 0.000000 -0.012434 0.000000
# 2 -0.001097 0.012069 -0.000356 0.000000 0.002059 0.000000
# 3 -0.006476 -0.000356 0.006185 0.000000 -0.000738 0.000000
# 4 0.000000 0.000000 0.000000 0.005915 0.000000 0.068542
# 5 -0.012434 0.002059 -0.000738 0.000000 0.037069 0.000000
# 6 0.000000 0.000000 0.000000 0.068542 0.000000 -0.227871
#
#
# Mechanical properties :
#
#
# Convention : Reuss Voigt Hill
#
# Bulk Modulus (GPa) = 26.74458 50.31105 38.52781
# Shear Modulus (GPa) = -48.39597 32.75565 -7.82016
#
# Velocity S-wave (km/s) = -4.61526 3.79695 -1.85524
# Velocity P-wave (km/s) = 4.07795 6.43163 3.51683
#
# Compressibility (1/GPa) = 0.03739076
#
# Stress axis : x y z
#
# Youngs Moduli (GPa) = 28.57465 82.85545 161.69129
#
# Poissons Ratio (x) = 0.09090 1.04718
# Poissons Ratio (y) = 0.03135 0.05758
# Poissons Ratio (z) = 0.18506 0.02950
#
# Static dielectric constant tensor:
#      x y z
#    x 2.222620 0.000000 -0.042530 
#    y 0.000000 1.825190 0.000000 
#    z -0.042530 0.000000 1.911550 
# 
# From -- ./inp_files/220689.got.cif
#   From: 2010.05.17/outbox.cif.g08.bks.cpg/sg12_111_cif.got.tgz:220689.got - 2010.06.03 13:09:07.
