data_PCOD9187743
_publ_section_title
;
Structure prediction by ZEFSAII (Michael W. Deem and Ramdas Pophale) SiO2 
 PCOD9187743
Probable space group: C 2/M
;
_chemical_formula_sum "Si O2"
_cell_formula_units_Z 48
_cell_length_a 28.974989
_cell_length_b 9.663579
_cell_length_c 14.068785
_cell_angle_alpha 90.000000
_cell_angle_beta 141.163955
_cell_angle_gamma 90.000000
_cell_volume 2470.304559
_symmetry_space_group_name_H-M "C 2/M"
_symmetry_group_IT_number 12
_symmetry_cell_setting 'monoclinic'
loop_
_space_group_symop_operation_xyz
x,y,z
-x,y,-z
-x,-y,-z
x,-y,z
1/2+x,1/2+y,z
1/2-x,1/2+y,-z
1/2-x,1/2-y,-z
1/2+x,1/2-y,z
loop_
_atom_site_type_symbol
_atom_site_label
_atom_site_fract_x
_atom_site_fract_y
_atom_site_fract_z
Si Si1 0.473177 0.345952 0.349269
Si Si2 0.752818 0.655806 0.857901
Si Si3 0.824176 0.163590 0.634303
Si Si4 0.965740 0.836124 0.748904
Si Si5 0.630462 0.336379 0.072742
Si Si6 0.846764 0.346658 0.197375
O O1 0.500000 0.347382 0.500000
O O2 0.441438 0.500000 0.278593
O O3 0.532176 0.320557 0.361576
O O4 0.413084 0.227871 0.250578
O O5 0.738463 0.500000 0.798289
O O6 0.811261 0.741419 0.889622
O O7 0.681325 0.749133 0.762764
O O8 0.786176 0.640240 0.017423
O O9 0.750000 0.250000 0.500000
O O10 0.891921 0.218963 0.678607
O O11 0.851449 0.172629 0.786859
O O12 0.810903 0.000000 0.591829
O O13 0.964467 0.000000 0.769113
O O14 0.046237 0.790314 0.915892
O O15 0.637586 0.500000 0.056604
O O16 0.865530 0.500000 0.261754
#
# Coordination Sequence:
#
# PCOD9187743 Si02
#       6
#     8   8   8   8   8   8
#     4  10  20  34  55  83 113 149 190 232 284 341
#     4  10  20  33  54  82 112 145 184 232 283 334
#     4  10  22  39  59  85 114 149 191 235 292 349
#     4   9  18  36  60  82 110 148 192 240 281 334
#     4  10  19  35  61  86 109 146 197 244 286 337
#     4  10  20  34  52  78 113 151 188 227 276 334
#
# _framework density 19.430803000000001
#
# number of rings (size 3 to 8) (size 9 to 14) (size 15 to 20)
#    0.000    2.167    1.667    1.500    0.000    5.667 
#    0.000    3.333    0.000    2.000    0.000    0.000 
#    0.000    0.000    0.000    0.000    0.000    0.000 
#
# Total GULP energy -133763.573592 kJ/mol
# GULP energy per Si atom -5573.482233 kJ/mol
# Density = 1.938658 g / cm^3
# Si number density = 19.430803 Si / 1000 Ang^3
#
#
#
# Elastic Constant Matrix: (Units=GPa)
#
#
# Indices 1 2 3 4 5 6 
#
# 1 143.6721 68.8794 38.0004 0.0000 21.1728 0.0000
# 2 68.8794 114.5612 22.1557 0.0000 14.6444 0.0000
# 3 38.0004 22.1557 49.8563 0.0000 -7.5200 0.0000
# 4 0.0000 0.0000 0.0000 20.5040 0.0000 2.7096
# 5 21.1728 14.6444 -7.5200 0.0000 27.7363 0.0000
# 6 0.0000 0.0000 0.0000 2.7096 0.0000 -22.0469
#
#
#
# Elastic Compliance Matrix: (Units=1/GPa)
#
#
# Indices 1 2 3 4 5 6 
#
# 1 0.013306 -0.004860 -0.009517 0.000000 -0.010172 0.000000
# 2 -0.004860 0.012579 -0.002428 0.000000 -0.003590 0.000000
# 3 -0.009517 -0.002428 0.030945 0.000000 0.016936 0.000000
# 4 0.000000 0.000000 0.000000 0.047992 0.000000 0.005898
# 5 -0.010172 -0.003590 0.016936 0.000000 0.050306 0.000000
# 6 0.000000 0.000000 0.000000 0.005898 0.000000 -0.044633
#
#
# Mechanical properties :
#
#
# Convention : Reuss Voigt Hill
#
# Bulk Modulus (GPa) = 43.06216 62.90674 52.98445
# Shear Modulus (GPa) = 32.92861 17.17559 25.05210
#
# Velocity S-wave (km/s) = 4.12109 2.97633 3.59458
# Velocity P-wave (km/s) = 6.69735 6.65255 6.67499
#
# Compressibility (1/GPa) = 0.02322224
#
# Stress axis : x y z
#
# Youngs Moduli (GPa) = 75.15305 79.49646 32.31567
#
# Poissons Ratio (x) = 0.38631 0.30754
# Poissons Ratio (y) = 0.36521 0.07845
# Poissons Ratio (z) = 0.71521 0.19299
#
# Static dielectric constant tensor:
#      x y z
#    x 1.676630 0.000000 -0.007050 
#    y 0.000000 1.700650 0.000000 
#    z -0.007050 0.000000 1.710500 
# 
# From -- ./inp_files/244874.got.cif
#   From: 2010.05.17/outbox.cif.g08.bks.cpg/sg12_123_cif.got.tgz:244874.got - 2010.06.03 13:09:07.
