data_PCOD9187491
_publ_section_title
;
Structure prediction by ZEFSAII (Michael W. Deem and Ramdas Pophale) SiO2 
 PCOD9187491
Probable space group: C 2/M
;
_chemical_formula_sum "Si O2"
_cell_formula_units_Z 56
_cell_length_a 25.395788
_cell_length_b 16.999788
_cell_length_c 8.586403
_cell_angle_alpha 90.000000
_cell_angle_beta 136.031500
_cell_angle_gamma 90.000000
_cell_volume 2573.595890
_symmetry_space_group_name_H-M "C 2/M"
_symmetry_group_IT_number 12
_symmetry_cell_setting 'monoclinic'
loop_
_space_group_symop_operation_xyz
x,y,z
-x,y,-z
-x,-y,-z
x,-y,z
1/2+x,1/2+y,z
1/2-x,1/2+y,-z
1/2-x,1/2-y,-z
1/2+x,1/2-y,z
loop_
_atom_site_type_symbol
_atom_site_label
_atom_site_fract_x
_atom_site_fract_y
_atom_site_fract_z
Si Si1 0.581748 0.905926 0.109476
Si Si2 0.029133 0.815936 0.844684
Si Si3 0.147313 0.091461 0.908793
Si Si4 0.627858 0.687884 0.343353
Si Si5 0.440604 0.838264 0.268863
Si Si6 0.746632 0.094002 0.577031
Si Si7 0.668331 0.259999 0.754292
O O1 0.659580 0.881772 0.361380
O O2 0.578745 0.000000 0.119058
O O3 0.500000 0.875524 0.000000
O O4 0.588100 0.884090 0.941660
O O5 0.073956 0.885353 0.855310
O O6 0.018188 0.741023 0.709765
O O7 0.949639 0.845637 0.743066
O O8 0.087566 0.781358 0.099532
O O9 0.144901 0.152389 0.762221
O O10 0.148367 0.000000 0.868237
O O11 0.218629 0.108531 0.176592
O O12 0.696160 0.634696 0.424114
O O13 0.661298 0.740227 0.553707
O O14 0.500000 0.885386 0.500000
O O15 0.378159 0.806107 0.253231
O O16 0.751202 0.000000 0.564204
O O17 0.750000 0.250000 0.000000
#
# Coordination Sequence:
#
# PCOD9187491 Si02
#       7
#     8   8   8   8   8   8   8
#     4  10  23  41  62  85 111 154 207 252 300 351
#     4   9  20  36  59  87 118 155 199 233 280 359
#     4   9  20  38  59  84 121 160 194 240 295 352
#     4  10  19  35  59  86 120 154 193 236 290 355
#     4  11  22  38  59  84 119 152 190 249 298 348
#     4   9  19  38  59  85 119 152 196 246 290 350
#     4  11  23  37  56  88 123 155 199 243 297 356
#
# _framework density 21.759436000000001
#
# number of rings (size 3 to 8) (size 9 to 14) (size 15 to 20)
#    0.000    2.143    1.429    0.857    2.000    3.714 
#    0.000    8.571    0.000    0.000    0.000    0.000 
#    0.000    0.000    0.000    0.000    0.000    0.000 
#
# Total GULP energy -156177.376093 kJ/mol
# GULP energy per Si atom -5577.763432 kJ/mol
# Density = 2.170991 g / cm^3
# Si number density = 21.759436 Si / 1000 Ang^3
#
#
#
# Elastic Constant Matrix: (Units=GPa)
#
#
# Indices 1 2 3 4 5 6 
#
# 1 55.8447 30.0789 47.0047 0.0000 1.3594 0.0000
# 2 30.0789 46.3265 26.5458 0.0000 -2.3997 0.0000
# 3 47.0047 26.5458 135.4976 0.0000 3.1254 0.0000
# 4 0.0000 0.0000 0.0000 23.7455 0.0000 1.4311
# 5 1.3594 -2.3997 3.1254 0.0000 44.1438 0.0000
# 6 0.0000 0.0000 0.0000 1.4311 0.0000 10.2157
#
#
#
# Elastic Compliance Matrix: (Units=1/GPa)
#
#
# Indices 1 2 3 4 5 6 
#
# 1 0.034634 -0.017680 -0.008518 0.000000 -0.001425 0.000000
# 2 -0.017680 0.033463 -0.000478 0.000000 0.002397 0.000000
# 3 -0.008518 -0.000478 0.010440 0.000000 -0.000503 0.000000
# 4 0.000000 0.000000 0.000000 0.042472 0.000000 -0.005950
# 5 -0.001425 0.002397 -0.000503 0.000000 0.022863 0.000000
# 6 0.000000 0.000000 0.000000 -0.005950 0.000000 0.098722
#
#
# Mechanical properties :
#
#
# Convention : Reuss Voigt Hill
#
# Bulk Modulus (GPa) = 39.70520 49.43640 44.57080
# Shear Modulus (GPa) = 16.42891 24.55696 20.49294
#
# Velocity S-wave (km/s) = 2.75075 3.36306 3.07220
# Velocity P-wave (km/s) = 5.32690 6.15216 5.75434
#
# Compressibility (1/GPa) = 0.02518562
#
# Stress axis : x y z
#
# Youngs Moduli (GPa) = 28.87354 29.88363 95.78191
#
# Poissons Ratio (x) = 0.52834 0.81587
# Poissons Ratio (y) = 0.51048 0.04578
# Poissons Ratio (z) = 0.24595 0.01428
#
# Static dielectric constant tensor:
#      x y z
#    x 1.902260 0.000000 0.045800 
#    y 0.000000 1.794080 0.000000 
#    z 0.045800 0.000000 1.836000 
# 
# From -- ./inp_files/106055.got.cif
#   From: 2010.05.17/outbox.cif.g08.bks.cpg/sg12_54_cif.got.tgz:106055.got - 2010.06.03 13:09:07.
