data_PCOD9187645
_publ_section_title
;
Structure prediction by ZEFSAII (Michael W. Deem and Ramdas Pophale) SiO2 
 PCOD9187645
Probable space group: C 2/M
;
_chemical_formula_sum "Si O2"
_cell_formula_units_Z 58
_cell_length_a 24.143925
_cell_length_b 7.511205
_cell_length_c 25.615156
_cell_angle_alpha 90.000000
_cell_angle_beta 144.989085
_cell_angle_gamma 90.000000
_cell_volume 2665.163935
_symmetry_space_group_name_H-M "C 2/M"
_symmetry_group_IT_number 12
_symmetry_cell_setting 'monoclinic'
loop_
_space_group_symop_operation_xyz
x,y,z
-x,y,-z
-x,-y,-z
x,-y,z
1/2+x,1/2+y,z
1/2-x,1/2+y,-z
1/2-x,1/2-y,-z
1/2+x,1/2-y,z
loop_
_atom_site_type_symbol
_atom_site_label
_atom_site_fract_x
_atom_site_fract_y
_atom_site_fract_z
Si Si1 0.281434 0.215372 0.246302
Si Si2 0.358772 0.209796 0.035508
Si Si3 0.358788 0.295312 0.148052
Si Si4 0.968011 0.703175 0.333184
Si Si5 0.183798 0.711699 0.498707
Si Si6 0.592323 0.285958 0.040180
Si Si7 0.500000 0.500000 0.500000
Si Si8 0.333611 0.784843 0.400200
O O1 0.385293 0.285732 0.306320
O O2 0.192845 0.280934 0.142715
O O3 0.271860 0.251838 0.300213
O O4 0.284104 0.000000 0.241891
O O5 0.398168 0.288168 0.119599
O O6 0.349911 0.000000 0.037672
O O7 0.249967 0.280020 0.940497
O O8 0.415761 0.242723 0.026844
O O9 0.351834 0.500000 0.159579
O O10 0.421507 0.200848 0.239848
O O11 0.980150 0.500000 0.361438
O O12 0.074089 0.785132 0.410878
O O13 0.175501 0.500000 0.490912
O O14 0.250000 0.750000 0.500000
O O15 0.216934 0.756378 0.583275
O O16 0.594416 0.500000 0.046603
O O17 0.500000 0.218704 0.000000
O O18 0.426453 0.658516 0.465929
O O19 0.356079 0.000000 0.416547
#
# Coordination Sequence:
#
# PCOD9187645 Si02
#       8
#     8   8   8   8   8   8   2   8
#     4   9  18  37  63  86 120 156 198 256 311 369
#     4  10  20  35  55  81 116 153 189 240 295 350
#     4  10  20  34  55  85 113 147 193 244 290 351
#     4  10  19  35  60  87 112 153 197 247 310 362
#     4  10  23  42  64  86 124 167 207 258 316 387
#     4  10  20  36  59  87 117 158 200 244 300 364
#     4  12  22  36  68 106 126 164 206 274 328 372
#     4  10  22  42  63  95 131 168 212 262 326 389
#
# _framework density 21.762264999999999
#
# number of rings (size 3 to 8) (size 9 to 14) (size 15 to 20)
#    0.000    2.069    1.379    1.862    0.966    4.138 
#    7.448    0.000    0.000    0.000    0.000    0.000 
#    0.000    0.000    0.000    0.000    0.000    0.000 
#
# Total GULP energy -161580.286448 kJ/mol
# GULP energy per Si atom -5571.734015 kJ/mol
# Density = 2.171273 g / cm^3
# Si number density = 21.762265 Si / 1000 Ang^3
#
#
#
# Elastic Constant Matrix: (Units=GPa)
#
#
# Indices 1 2 3 4 5 6 
#
# 1 157.4972 0.8046 33.5244 0.0000 -21.4042 0.0001
# 2 0.8046 77.2506 -7.0250 0.0001 2.9522 0.0004
# 3 33.5244 -7.0250 55.5057 -0.0001 -18.8677 0.0000
# 4 0.0000 0.0001 -0.0001 4.6333 0.0000 -1.9869
# 5 -21.4042 2.9522 -18.8677 0.0000 33.4497 0.0000
# 6 0.0001 0.0004 0.0000 -1.9869 0.0000 19.3038
#
#
#
# Elastic Compliance Matrix: (Units=1/GPa)
#
#
# Indices 1 2 3 4 5 6 
#
# 1 0.007509 -0.000517 -0.003652 0.000000 0.002790 0.000000
# 2 -0.000517 0.013133 0.001816 0.000000 -0.000465 0.000000
# 3 -0.003652 0.001816 0.024253 0.000000 0.011183 0.000000
# 4 0.000000 0.000000 0.000000 0.225794 0.000000 0.023240
# 5 0.002790 -0.000465 0.011183 0.000000 0.038030 0.000000
# 6 0.000000 0.000000 0.000000 0.023240 0.000000 0.054195
#
#
# Mechanical properties :
#
#
# Convention : Reuss Voigt Hill
#
# Bulk Modulus (GPa) = 24.88215 38.31797 31.60006
# Shear Modulus (GPa) = 13.12282 29.00734 21.06508
#
# Velocity S-wave (km/s) = 2.45829 3.65488 3.11459
# Velocity P-wave (km/s) = 4.41769 5.95454 5.24274
#
# Compressibility (1/GPa) = 0.04018945
#
# Stress axis : x y z
#
# Youngs Moduli (GPa) = 133.18220 76.14287 41.23184
#
# Poissons Ratio (x) = 0.03936 0.15058
# Poissons Ratio (y) = 0.06885 -0.07488
# Poissons Ratio (z) = 0.48637 -0.13829
#
# Static dielectric constant tensor:
#      x y z
#    x 1.811890 0.000000 -0.011340 
#    y 0.000000 1.826100 0.000000 
#    z -0.011340 0.000000 1.810390 
# 
# From -- ./inp_files/346553.got.cif
#   From: 2010.05.17/outbox.cif.g08.bks.cpg/sg12_174_cif.got.tgz:346553.got - 2010.06.03 13:09:07.
