data_PCOD9187665
_publ_section_title
;
Structure prediction by ZEFSAII (Michael W. Deem and Ramdas Pophale) SiO2 
 PCOD9187665
Probable space group: C 2/M
;
_chemical_formula_sum "Si O2"
_cell_formula_units_Z 48
_cell_length_a 29.538305
_cell_length_b 10.415948
_cell_length_c 26.755981
_cell_angle_alpha 90.000000
_cell_angle_beta 19.891428
_cell_angle_gamma 90.000000
_cell_volume 2800.845675
_symmetry_space_group_name_H-M "C 2/M"
_symmetry_group_IT_number 12
_symmetry_cell_setting 'monoclinic'
loop_
_space_group_symop_operation_xyz
x,y,z
-x,y,-z
-x,-y,-z
x,-y,z
1/2+x,1/2+y,z
1/2-x,1/2+y,-z
1/2-x,1/2-y,-z
1/2+x,1/2-y,z
loop_
_atom_site_type_symbol
_atom_site_label
_atom_site_fract_x
_atom_site_fract_y
_atom_site_fract_z
Si Si1 0.460241 0.500000 0.771939
Si Si2 0.476693 0.000000 0.740920
Si Si3 0.363165 0.241325 0.028111
Si Si4 0.660383 0.852682 0.840952
Si Si5 0.167144 0.343569 0.722840
Si Si6 0.648555 0.742212 0.559096
Si Si7 0.698591 0.000000 0.977170
Si Si8 0.289674 0.500000 0.048367
O O1 0.547959 0.625956 0.673443
O O2 0.339470 0.500000 0.858390
O O3 0.396083 0.500000 0.893124
O O4 0.566482 0.873922 0.640957
O O5 0.354416 0.000000 0.828725
O O6 0.412533 0.000000 0.863416
O O7 0.311254 0.226611 0.138800
O O8 0.315224 0.124715 0.043006
O O9 0.316147 0.373564 0.053215
O O10 0.523288 0.221793 0.863988
O O11 0.714066 0.814490 0.730853
O O12 0.699176 0.000000 0.810747
O O13 0.500000 0.852112 0.000000
O O14 0.151483 0.500000 0.735477
O O15 0.268237 0.292103 0.576781
O O16 0.750000 0.750000 0.500000
#
# Coordination Sequence:
#
# PCOD9187665 Si02
#       8
#     4   4   8   8   8   8   4   4
#     4  11  23  38  53  83 109 150 195 227 267 326
#     4  11  25  40  53  81 119 152 185 229 283 326
#     4  11  19  35  60  87 110 146 187 229 282 330
#     4   8  15  31  56  86 110 137 183 238 282 316
#     4  10  19  35  60  88 115 141 182 241 283 322
#     4  12  23  37  59  83 115 150 184 225 281 341
#     4  11  20  36  62  77 107 149 197 235 262 319
#     4  11  24  38  54  81 119 151 185 231 272 337
#
# _framework density 17.137682000000002
#
# number of rings (size 3 to 8) (size 9 to 14) (size 15 to 20)
#    0.000    1.500    2.500    5.500    0.000    3.333 
#    0.000    4.583    0.000    6.000    0.000    0.000 
#    0.000    0.000    0.000    0.000    0.000    0.000 
#
# Total GULP energy -133994.207654 kJ/mol
# GULP energy per Si atom -5583.091986 kJ/mol
# Density = 1.709868 g / cm^3
# Si number density = 17.137682 Si / 1000 Ang^3
#
#
#
# Elastic Constant Matrix: (Units=GPa)
#
#
# Indices 1 2 3 4 5 6 
#
# 1 163.3847 87.9937 71.9326 0.0001 28.2721 -0.0002
# 2 87.9937 157.2658 55.5950 0.0001 5.9629 -0.0002
# 3 71.9326 55.5950 95.6656 -0.0002 18.0812 -0.0004
# 4 0.0001 0.0001 -0.0002 21.3810 0.0000 14.6809
# 5 28.2721 5.9629 18.0812 0.0000 25.0672 0.0004
# 6 -0.0002 -0.0002 -0.0004 14.6809 0.0004 40.3788
#
#
#
# Elastic Compliance Matrix: (Units=1/GPa)
#
#
# Indices 1 2 3 4 5 6 
#
# 1 0.012536 -0.004981 -0.004728 0.000000 -0.009544 0.000000
# 2 -0.004981 0.010043 -0.003128 0.000000 0.005485 0.000000
# 3 -0.004728 -0.003128 0.016994 0.000000 -0.006182 0.000000
# 4 0.000000 0.000000 0.000000 0.062331 0.000001 -0.022662
# 5 -0.009544 0.005485 -0.006182 0.000001 0.053811 -0.000001
# 6 0.000000 0.000000 0.000000 -0.022662 -0.000001 0.033005
#
#
# Mechanical properties :
#
#
# Convention : Reuss Voigt Hill
#
# Bulk Modulus (GPa) = 71.94089 94.15096 83.04593
# Shear Modulus (GPa) = 22.82816 30.75171 26.78994
#
# Velocity S-wave (km/s) = 3.65368 4.24062 3.95804
# Velocity P-wave (km/s) = 7.73747 8.89013 8.33375
#
# Compressibility (1/GPa) = 0.01390030
#
# Stress axis : x y z
#
# Youngs Moduli (GPa) = 79.77023 99.56693 58.84433
#
# Poissons Ratio (x) = 0.49595 0.27819
# Poissons Ratio (y) = 0.39734 0.18406
# Poissons Ratio (z) = 0.37711 0.31145
#
# Static dielectric constant tensor:
#      x y z
#    x 1.584080 0.000000 0.014120 
#    y 0.000000 1.555830 0.000000 
#    z 0.014120 0.000000 1.572310 
# 
# From -- ./inp_files/351917.got.cif
#   From: 2010.05.17/outbox.cif.g08.bks.cpg/sg12_176_cif.got.tgz:351917.got - 2010.06.03 13:09:07.
