data_PCOD9187221
_publ_section_title
;
Structure prediction by ZEFSAII (Michael W. Deem and Ramdas Pophale) SiO2 
 PCOD9187221
Probable space group: C 2/M
;
_chemical_formula_sum "Si O2"
_cell_formula_units_Z 48
_cell_length_a 28.485528
_cell_length_b 16.287060
_cell_length_c 14.586921
_cell_angle_alpha 90.000000
_cell_angle_beta 15.995116
_cell_angle_gamma 90.000000
_cell_volume 1864.831304
_symmetry_space_group_name_H-M "C 2/M"
_symmetry_group_IT_number 12
_symmetry_cell_setting 'monoclinic'
loop_
_space_group_symop_operation_xyz
x,y,z
-x,y,-z
-x,-y,-z
x,-y,z
1/2+x,1/2+y,z
1/2-x,1/2+y,-z
1/2-x,1/2-y,-z
1/2+x,1/2-y,z
loop_
_atom_site_type_symbol
_atom_site_label
_atom_site_fract_x
_atom_site_fract_y
_atom_site_fract_z
Si Si1 0.125399 0.402547 0.900078
Si Si2 0.756914 0.097348 0.465737
Si Si3 0.251923 0.407309 0.977176
Si Si4 0.499089 0.335635 0.360963
Si Si5 0.621003 0.596010 0.950477
Si Si6 0.981120 0.351544 0.354482
O O1 0.158611 0.500000 0.856098
O O2 0.245268 0.371262 0.591840
O O3 0.109134 0.354490 0.025963
O O4 0.935054 0.398394 0.214023
O O5 0.871698 0.131343 0.166803
O O6 0.794684 0.000000 0.403508
O O7 0.277414 0.500000 0.961525
O O8 0.376736 0.386039 0.657625
O O9 0.316166 0.347330 0.936673
O O10 0.068415 0.397138 0.275553
O O11 0.455252 0.240943 0.435324
O O12 0.502796 0.368858 0.251322
O O13 0.586996 0.500000 0.005994
O O14 0.810087 0.607966 0.637787
#
# Coordination Sequence:
#
# PCOD9187221 Si02
#       6
#     8   8   8   8   8   8
#     4   8  13  26  48  78 108 137 170 210 257 312
#     4   7  12  24  48  77 106 135 170 211 255 304
#     4  11  23  41  58  74 102 148 186 212 260 333
#     4  11  23  38  53  76 111 144 172 216 278 328
#     4  10  19  35  58  84 106 136 182 226 256 301
#     4  11  21  34  56  85 108 132 176 231 268 300
#
# _framework density 25.739591000000001
#
# number of rings (size 3 to 8) (size 9 to 14) (size 15 to 20)
#    0.000    2.333    0.000    7.000    0.000    2.000 
#    0.000    2.500    0.000    3.000    0.000    4.667 
#    0.000    0.000    0.000    0.000    0.000    0.000 
#
# Total GULP energy -134345.277798 kJ/mol
# GULP energy per Si atom -5597.719908 kJ/mol
# Density = 2.568101 g / cm^3
# Si number density = 25.739591 Si / 1000 Ang^3
#
#
#
# Elastic Constant Matrix: (Units=GPa)
#
#
# Indices 1 2 3 4 5 6 
#
# 1 176.7931 10.5808 45.4699 -0.0023 6.3266 0.0074
# 2 10.5808 61.6507 11.9628 -0.0041 4.8671 0.0103
# 3 45.4699 11.9628 96.0831 -0.0038 27.6319 0.0121
# 4 -0.0023 -0.0041 -0.0038 12.8434 0.0022 -11.3858
# 5 6.3266 4.8671 27.6319 0.0022 61.8724 -0.0075
# 6 0.0074 0.0103 0.0121 -11.3858 -0.0075 -53.9179
#
#
#
# Elastic Compliance Matrix: (Units=1/GPa)
#
#
# Indices 1 2 3 4 5 6 
#
# 1 0.006494 -0.000551 -0.003242 0.000000 0.000827 0.000000
# 2 -0.000551 0.016679 -0.001669 0.000006 -0.000510 0.000001
# 3 -0.003242 -0.001669 0.013788 0.000006 -0.005695 0.000002
# 4 0.000000 0.000006 0.000006 0.065583 -0.000007 -0.013849
# 5 0.000827 -0.000510 -0.005695 -0.000007 0.018661 -0.000002
# 6 0.000000 0.000001 0.000002 -0.013849 -0.000002 -0.015622
#
#
# Mechanical properties :
#
#
# Convention : Reuss Voigt Hill
#
# Bulk Modulus (GPa) = 38.40890 52.28377 45.34633
# Shear Modulus (GPa) = 39.94068 21.92716 30.93392
#
# Velocity S-wave (km/s) = 3.94346 2.92187 3.47046
# Velocity P-wave (km/s) = 5.97403 5.63381 5.80641
#
# Compressibility (1/GPa) = 0.02603563
#
# Stress axis : x y z
#
# Youngs Moduli (GPa) = 153.99803 59.95522 72.52911
#
# Poissons Ratio (x) = 0.03301 0.23517
# Poissons Ratio (y) = 0.08479 0.12107
# Poissons Ratio (z) = 0.49932 0.10008
#
# Static dielectric constant tensor:
#      x y z
#    x 2.023050 0.000000 -0.021350 
#    y 0.000000 1.884930 0.000000 
#    z -0.021350 0.000000 2.210310 
# 
# From -- ./inp_files/251435.got.cif
#   From: 2010.05.17/outbox.cif.g08.bks.cpg/sg12_126_cif.got.tgz:251435.got - 2010.06.03 13:09:07.
