data_PCOD9187740
_publ_section_title
;
Structure prediction by ZEFSAII (Michael W. Deem and Ramdas Pophale) SiO2 
 PCOD9187740
Probable space group: C 2/M
;
_chemical_formula_sum "Si O2"
_cell_formula_units_Z 48
_cell_length_a 19.887073
_cell_length_b 18.948239
_cell_length_c 19.702130
_cell_angle_alpha 90.000000
_cell_angle_beta 159.104410
_cell_angle_gamma 90.000000
_cell_volume 2647.980162
_symmetry_space_group_name_H-M "C 2/M"
_symmetry_group_IT_number 12
_symmetry_cell_setting 'monoclinic'
loop_
_space_group_symop_operation_xyz
x,y,z
-x,y,-z
-x,-y,-z
x,-y,z
1/2+x,1/2+y,z
1/2-x,1/2+y,-z
1/2-x,1/2-y,-z
1/2+x,1/2-y,z
loop_
_atom_site_type_symbol
_atom_site_label
_atom_site_fract_x
_atom_site_fract_y
_atom_site_fract_z
Si Si1 0.688363 0.367254 0.452363
Si Si2 0.923349 0.418647 0.235101
Si Si3 0.662923 0.251829 0.317034
Si Si4 0.717415 0.418451 0.899367
Si Si5 0.365196 0.801970 0.934608
Si Si6 0.451880 0.812068 0.381263
O O1 0.616224 0.304845 0.334414
O O2 0.788318 0.325157 0.607576
O O3 0.507675 0.410446 0.305073
O O4 0.853891 0.410181 0.571639
O O5 0.879811 0.500000 0.209584
O O6 0.880935 0.367567 0.258149
O O7 0.811275 0.398963 0.060598
O O8 0.853679 0.280739 0.464076
O O9 0.495050 0.245286 0.106251
O O10 0.767508 0.500000 0.932935
O O11 0.787094 0.366173 0.906204
O O12 0.195527 0.751989 0.749759
O O13 0.500000 0.825086 0.000000
O O14 0.500000 0.844191 0.500000
#
# Coordination Sequence:
#
# PCOD9187740 Si02
#       6
#     8   8   8   8   8   8
#     4  10  19  35  61  85 114 142 191 237 288 330
#     4  10  22  38  59  87 118 151 188 232 281 342
#     4  10  20  34  58  90 108 145 190 243 282 332
#     4  11  23  38  58  84 117 154 189 232 287 339
#     4  12  23  37  59  83 117 149 194 239 282 331
#     4  11  22  38  60  86 115 151 193 233 286 335
#
# _framework density 18.127025
#
# number of rings (size 3 to 8) (size 9 to 14) (size 15 to 20)
#    0.000    1.333    5.000    1.500    0.000    2.000 
#    0.000    0.000    0.000    2.000    0.000    0.000 
#    0.000    0.000    0.000    0.000    0.000    0.000 
#
# Total GULP energy -133959.545770 kJ/mol
# GULP energy per Si atom -5581.647740 kJ/mol
# Density = 1.808577 g / cm^3
# Si number density = 18.127025 Si / 1000 Ang^3
#
#
#
# Elastic Constant Matrix: (Units=GPa)
#
#
# Indices 1 2 3 4 5 6 
#
# 1 91.4668 40.1385 11.5430 0.0070 0.6273 -0.0019
# 2 40.1385 68.0986 12.5923 0.0062 -1.1047 -0.0024
# 3 11.5430 12.5923 57.2378 -0.0108 2.2265 -0.0016
# 4 0.0070 0.0062 -0.0108 21.2355 -0.0046 -2.9107
# 5 0.6273 -1.1047 2.2265 -0.0046 27.7742 -0.0049
# 6 -0.0019 -0.0024 -0.0016 -2.9107 -0.0049 9.4853
#
#
#
# Elastic Compliance Matrix: (Units=1/GPa)
#
#
# Indices 1 2 3 4 5 6 
#
# 1 0.014825 -0.008546 -0.001087 -0.000003 -0.000588 -0.000001
# 2 -0.008546 0.020256 -0.002780 -0.000004 0.001222 0.000002
# 3 -0.001087 -0.002780 0.018362 0.000011 -0.001558 0.000005
# 4 -0.000003 -0.000004 0.000011 0.049159 0.000010 0.015085
# 5 -0.000588 0.001222 -0.001558 0.000010 0.036191 0.000022
# 6 -0.000001 0.000002 0.000005 0.015085 0.000022 0.110055
#
#
# Mechanical properties :
#
#
# Convention : Reuss Voigt Hill
#
# Bulk Modulus (GPa) = 34.94515 38.37230 36.65873
# Shear Modulus (GPa) = 17.65456 21.86764 19.76110
#
# Velocity S-wave (km/s) = 3.12418 3.47703 3.30532
# Velocity P-wave (km/s) = 5.68628 6.11017 5.90203
#
# Compressibility (1/GPa) = 0.02861628
#
# Stress axis : x y z
#
# Youngs Moduli (GPa) = 67.45580 49.36821 54.45925
#
# Poissons Ratio (x) = 0.42192 0.05917
# Poissons Ratio (y) = 0.57651 0.15141
# Poissons Ratio (z) = 0.07329 0.13726
#
# Static dielectric constant tensor:
#      x y z
#    x 1.624220 0.000000 -0.009060 
#    y 0.000000 1.614360 0.000000 
#    z -0.009060 0.000000 1.620290 
# 
# From -- ./inp_files/25528.got.cif
#   From: 2010.05.17/outbox.cif.g08.bks.cpg/sg12_13_cif.got.tgz:25528.got - 2010.06.03 13:09:07.
