data_PCOD9187273
_publ_section_title
;
Structure prediction by ZEFSAII (Michael W. Deem and Ramdas Pophale) SiO2 
 PCOD9187273
Probable space group: C 2/M
;
_chemical_formula_sum "Si O2"
_cell_formula_units_Z 64
_cell_length_a 26.644886
_cell_length_b 14.945624
_cell_length_c 12.358961
_cell_angle_alpha 90.000000
_cell_angle_beta 137.081030
_cell_angle_gamma 90.000000
_cell_volume 3351.456838
_symmetry_space_group_name_H-M "C 2/M"
_symmetry_group_IT_number 12
_symmetry_cell_setting 'monoclinic'
loop_
_space_group_symop_operation_xyz
x,y,z
-x,y,-z
-x,-y,-z
x,-y,z
1/2+x,1/2+y,z
1/2-x,1/2+y,-z
1/2-x,1/2-y,-z
1/2+x,1/2-y,z
loop_
_atom_site_type_symbol
_atom_site_label
_atom_site_fract_x
_atom_site_fract_y
_atom_site_fract_z
Si Si1 0.838087 0.256923 0.132536
Si Si2 0.167255 0.215501 0.638212
Si Si3 0.681116 0.107071 0.077461
Si Si4 0.705870 0.172801 0.494239
Si Si5 0.930797 0.895759 0.674807
Si Si6 0.644844 0.600397 0.230631
Si Si7 0.584226 0.892769 0.138779
Si Si8 0.606225 0.395229 0.936075
O O1 0.861917 0.254625 0.294825
O O2 0.867110 0.169344 0.116392
O O3 0.750000 0.250000 0.000000
O O4 0.852506 0.343577 0.081011
O O5 0.240044 0.154293 0.773534
O O6 0.187465 0.292301 0.584420
O O7 0.107025 0.155714 0.482460
O O8 0.628002 0.123284 0.096150
O O9 0.689778 0.000000 0.076864
O O10 0.750000 0.250000 0.500000
O O11 0.769660 0.098792 0.602926
O O12 0.634317 0.145515 0.314264
O O13 0.900868 0.858835 0.742450
O O14 0.018219 0.891746 0.806374
O O15 0.907800 0.000000 0.634049
O O16 0.614511 0.500000 0.168804
O O17 0.636992 0.641198 0.099395
O O18 0.580888 0.000000 0.148901
O O19 0.500000 0.858925 0.000000
O O20 0.628249 0.500000 0.954568
#
# Coordination Sequence:
#
# PCOD9187273 Si02
#       8
#     8   8   8   8   8   8   8   8
#     4  10  23  39  56  80 114 151 206 247 288 349
#     4  11  22  37  55  87 121 155 195 249 292 361
#     4  10  20  39  63  85 114 158 204 249 297 350
#     4  12  21  36  58  90 118 149 196 245 306 355
#     4  10  20  35  56  86 120 157 191 231 300 373
#     4  10  19  35  58  85 118 153 191 241 297 358
#     4  10  22  40  62  89 119 155 203 254 305 359
#     4  10  22  38  59  87 122 156 193 243 300 360
#
# _framework density 19.096173
#
# number of rings (size 3 to 8) (size 9 to 14) (size 15 to 20)
#    0.000    1.625    2.500    2.625    0.000    7.500 
#    0.000    2.500    0.000    0.000    0.000    4.375 
#    0.000    0.000    0.000    0.000    0.000    0.000 
#
# Total GULP energy -178602.850721 kJ/mol
# GULP energy per Si atom -5581.339085 kJ/mol
# Density = 1.905271 g / cm^3
# Si number density = 19.096173 Si / 1000 Ang^3
#
#
#
# Elastic Constant Matrix: (Units=GPa)
#
#
# Indices 1 2 3 4 5 6 
#
# 1 105.5604 53.1065 69.2473 0.0000 -27.4661 0.0000
# 2 53.1065 76.4234 30.0921 0.0000 -11.4158 0.0000
# 3 69.2473 30.0921 99.9180 0.0000 -13.2254 0.0000
# 4 0.0000 0.0000 0.0000 33.1123 0.0000 -2.0844
# 5 -27.4661 -11.4158 -13.2254 0.0000 43.1063 0.0000
# 6 0.0000 0.0000 0.0000 -2.0844 0.0000 13.8630
#
#
#
# Elastic Compliance Matrix: (Units=1/GPa)
#
#
# Indices 1 2 3 4 5 6 
#
# 1 0.027199 -0.011931 -0.013947 0.000000 0.009891 0.000000
# 2 -0.011931 0.020379 0.001917 0.000000 -0.001617 0.000000
# 3 -0.013947 0.001917 0.018749 0.000000 -0.002627 0.000000
# 4 0.000000 0.000000 0.000000 0.030489 0.000000 0.004584
# 5 0.009891 -0.001617 -0.002627 0.000000 0.028267 0.000000
# 6 0.000000 0.000000 0.000000 0.004584 0.000000 0.072824
#
#
# Mechanical properties :
#
#
# Convention : Reuss Voigt Hill
#
# Bulk Modulus (GPa) = 54.33364 65.19929 59.76647
# Shear Modulus (GPa) = 19.84409 26.64673 23.24541
#
# Velocity S-wave (km/s) = 3.22711 3.73955 3.49274
# Velocity P-wave (km/s) = 6.51153 7.27065 6.90154
#
# Compressibility (1/GPa) = 0.01840480
#
# Stress axis : x y z
#
# Youngs Moduli (GPa) = 36.76646 49.06902 53.33547
#
# Poissons Ratio (x) = 0.58544 0.74389
# Poissons Ratio (y) = 0.43866 -0.10224
# Poissons Ratio (z) = 0.51279 -0.09407
#
# Static dielectric constant tensor:
#      x y z
#    x 1.656790 0.000000 -0.010920 
#    y 0.000000 1.715920 0.000000 
#    z -0.010920 0.000000 1.645910 
# 
# From -- ./inp_files/183853.got.cif
#   From: 2010.05.17/outbox.cif.g08.bks.cpg/sg12_92_cif.got.tgz:183853.got - 2010.06.03 13:09:07.
