data_PCOD9187369
_publ_section_title
;
Structure prediction by ZEFSAII (Michael W. Deem and Ramdas Pophale) SiO2 
 PCOD9187369
Probable space group: C 2/M
;
_chemical_formula_sum "Si O2"
_cell_formula_units_Z 64
_cell_length_a 31.485492
_cell_length_b 7.580303
_cell_length_c 16.647996
_cell_angle_alpha 90.000000
_cell_angle_beta 45.589227
_cell_angle_gamma 90.000000
_cell_volume 2838.341576
_symmetry_space_group_name_H-M "C 2/M"
_symmetry_group_IT_number 12
_symmetry_cell_setting 'monoclinic'
loop_
_space_group_symop_operation_xyz
x,y,z
-x,y,-z
-x,-y,-z
x,-y,z
1/2+x,1/2+y,z
1/2-x,1/2+y,-z
1/2-x,1/2-y,-z
1/2+x,1/2-y,z
loop_
_atom_site_type_symbol
_atom_site_label
_atom_site_fract_x
_atom_site_fract_y
_atom_site_fract_z
Si Si1 0.202932 0.711696 0.632006
Si Si2 0.414172 0.215676 0.302038
Si Si3 0.085529 0.785863 0.222198
Si Si4 0.253787 0.297388 0.731612
Si Si5 0.633828 0.703763 0.325432
Si Si6 0.552803 0.207544 0.570860
Si Si7 0.974196 0.713496 0.948413
Si Si8 0.144299 0.795896 0.979319
O O1 0.195950 0.500000 0.650394
O O2 0.250000 0.750000 0.500000
O O3 0.139305 0.777175 0.683879
O O4 0.227512 0.782398 0.684149
O O5 0.411173 0.273527 0.398465
O O6 0.477556 0.268258 0.181703
O O7 0.413193 0.000000 0.303837
O O8 0.118623 0.720603 0.258571
O O9 0.117570 0.724744 0.098308
O O10 0.016662 0.733249 0.319415
O O11 0.086119 0.000000 0.220316
O O12 0.269509 0.500000 0.690163
O O13 0.312315 0.215369 0.694309
O O14 0.201443 0.295673 0.866327
O O15 0.650592 0.500000 0.288222
O O16 0.575989 0.707911 0.458570
O O17 0.563732 0.000000 0.547989
O O18 0.970173 0.500000 0.953602
O O19 0.909651 0.783417 0.012523
O O20 0.000000 0.767624 0.000000
O O21 0.160307 0.000000 0.970332
#
# Coordination Sequence:
#
# PCOD9187369 Si02
#       8
#     8   8   8   8   8   8   8   8
#     4  10  20  36  57  83 114 149 189 231 280 336
#     4   9  18  32  52  80 112 144 178 223 278 335
#     4  10  22  40  59  82 116 155 191 238 298 351
#     4  10  22  40  61  84 114 155 200 239 284 350
#     4  10  22  40  60  82 112 153 197 240 294 352
#     4  11  21  35  58  88 118 147 189 242 294 349
#     4  10  19  35  59  82 109 149 191 230 280 342
#     4  11  23  38  58  85 118 152 191 243 294 341
#
# _framework density 22.548379000000001
#
# number of rings (size 3 to 8) (size 9 to 14) (size 15 to 20)
#    0.000    1.875    1.250    2.625    0.000    6.250 
#    0.000    1.250    0.000    0.000    0.000    0.000 
#    0.000    0.000    0.000    0.000    0.000    0.000 
#
# Total GULP energy -178869.512703 kJ/mol
# GULP energy per Si atom -5589.672272 kJ/mol
# Density = 2.249706 g / cm^3
# Si number density = 22.548379 Si / 1000 Ang^3
#
#
#
# Elastic Constant Matrix: (Units=GPa)
#
#
# Indices 1 2 3 4 5 6 
#
# 1 136.1408 4.0653 38.4255 -0.0003 18.4054 0.0001
# 2 4.0653 54.1207 -10.8875 0.0062 3.4860 0.0003
# 3 38.4255 -10.8875 98.0132 -0.0002 10.9797 0.0000
# 4 -0.0003 0.0062 -0.0002 19.3163 -0.0003 -4.3115
# 5 18.4054 3.4860 10.9797 -0.0003 42.0784 0.0000
# 6 0.0001 0.0003 0.0000 -4.3115 0.0000 7.7768
#
#
#
# Elastic Compliance Matrix: (Units=1/GPa)
#
#
# Indices 1 2 3 4 5 6 
#
# 1 0.008669 -0.001111 -0.003201 0.000000 -0.002865 0.000000
# 2 -0.001111 0.019237 0.002778 -0.000007 -0.001833 -0.000005
# 3 -0.003201 0.002778 0.011986 -0.000001 -0.001957 -0.000001
# 4 0.000000 -0.000007 -0.000001 0.059081 0.000001 0.032755
# 5 -0.002865 -0.001833 -0.001957 0.000001 0.025681 0.000001
# 6 0.000000 -0.000005 -0.000001 0.032755 0.000001 0.146746
#
#
# Mechanical properties :
#
#
# Convention : Reuss Voigt Hill
#
# Bulk Modulus (GPa) = 27.15624 39.05346 33.10485
# Shear Modulus (GPa) = 17.43720 30.94573 24.19146
#
# Velocity S-wave (km/s) = 2.78389 3.70863 3.27902
# Velocity P-wave (km/s) = 4.73319 5.97462 5.38976
#
# Compressibility (1/GPa) = 0.03682394
#
# Stress axis : x y z
#
# Youngs Moduli (GPa) = 115.34909 51.98183 83.43380
#
# Poissons Ratio (x) = 0.05773 0.26709
# Poissons Ratio (y) = 0.12812 -0.23175
# Poissons Ratio (z) = 0.36926 -0.14439
#
# Static dielectric constant tensor:
#      x y z
#    x 1.887100 -0.000010 0.015700 
#    y -0.000010 1.785700 0.000000 
#    z 0.015700 0.000000 1.800770 
# 
# From -- ./inp_files/249708.got.cif
#   From: 2010.05.17/outbox.cif.g08.bks.cpg/sg12_125_cif.got.tgz:249708.got - 2010.06.03 13:09:07.
