data_PCOD9187626
_publ_section_title
;
Structure prediction by ZEFSAII (Michael W. Deem and Ramdas Pophale) SiO2 
 PCOD9187626
Probable space group: C 2/M
;
_chemical_formula_sum "Si O2"
_cell_formula_units_Z 56
_cell_length_a 14.667320
_cell_length_b 17.311332
_cell_length_c 11.518490
_cell_angle_alpha 90.000000
_cell_angle_beta 85.285905
_cell_angle_gamma 90.000000
_cell_volume 2914.775968
_symmetry_space_group_name_H-M "C 2/M"
_symmetry_group_IT_number 12
_symmetry_cell_setting 'monoclinic'
loop_
_space_group_symop_operation_xyz
x,y,z
-x,y,-z
-x,-y,-z
x,-y,z
1/2+x,1/2+y,z
1/2-x,1/2+y,-z
1/2-x,1/2-y,-z
1/2+x,1/2-y,z
loop_
_atom_site_type_symbol
_atom_site_label
_atom_site_fract_x
_atom_site_fract_y
_atom_site_fract_z
Si Si1 0.338568 0.277744 0.639650
Si Si2 0.134574 0.909088 0.179495
Si Si3 0.742011 0.593375 0.944620
Si Si4 0.996065 0.656252 0.369089
Si Si5 0.448023 0.907093 0.886608
Si Si6 0.926450 0.909182 0.204871
Si Si7 0.348394 0.284393 0.373338
O O1 0.353611 0.352153 0.715531
O O2 0.424243 0.220590 0.636675
O O3 0.327591 0.304706 0.508254
O O4 0.247492 0.229964 0.680225
O O5 0.029537 0.900511 0.146445
O O6 0.146273 0.000000 0.205972
O O7 0.209337 0.885989 0.076562
O O8 0.747717 0.500000 0.940383
O O9 0.842785 0.622468 0.902025
O O10 0.655561 0.612198 0.873146
O O11 0.010495 0.612139 0.245159
O O12 0.000000 0.618738 0.500000
O O13 0.902089 0.703502 0.368466
O O14 0.446844 0.000000 0.894348
O O15 0.500000 0.879844 0.000000
O O16 0.910374 0.850996 0.312232
O O17 0.916343 0.000000 0.237000
#
# Coordination Sequence:
#
# PCOD9187626 Si02
#       7
#     8   8   8   8   8   8   8
#     4  10  21  38  56  81 118 157 190 243 299 351
#     4  10  20  35  59  88 116 152 195 240 296 357
#     4   9  19  36  57  81 116 150 184 238 299 349
#     4  10  21  40  60  83 118 155 196 243 299 359
#     4  10  22  40  61  86 118 156 201 251 295 340
#     4  10  19  35  60  86 114 150 194 243 297 356
#     4  10  21  37  57  81 117 155 193 241 300 349
#
# _framework density 19.212453
#
# number of rings (size 3 to 8) (size 9 to 14) (size 15 to 20)
#    0.000    2.143    1.429    1.286    2.000    2.571 
#    2.571    2.857    0.000    5.143    0.000    0.000 
#    0.000    0.000    0.000    0.000    0.000    0.000 
#
# Total GULP energy -155976.982406 kJ/mol
# GULP energy per Si atom -5570.606515 kJ/mol
# Density = 1.916873 g / cm^3
# Si number density = 19.212453 Si / 1000 Ang^3
#
#
#
# Elastic Constant Matrix: (Units=GPa)
#
#
# Indices 1 2 3 4 5 6 
#
# 1 81.6596 9.1587 39.6796 0.0000 -4.6429 0.0000
# 2 9.1587 22.6006 32.3276 0.0000 0.3166 0.0000
# 3 39.6796 32.3276 114.8649 0.0000 -2.9499 0.0000
# 4 0.0000 0.0000 0.0000 34.6783 0.0000 -4.2702
# 5 -4.6429 0.3166 -2.9499 0.0000 29.8165 0.0000
# 6 0.0000 0.0000 0.0000 -4.2702 0.0000 23.8150
#
#
#
# Elastic Compliance Matrix: (Units=1/GPa)
#
#
# Indices 1 2 3 4 5 6 
#
# 1 0.014870 0.002065 -0.005673 0.000000 0.001732 0.000000
# 2 0.002065 0.074592 -0.021774 0.000000 -0.002625 0.000000
# 3 -0.005673 -0.021774 0.016820 0.000000 0.001012 0.000000
# 4 0.000000 0.000000 0.000000 0.029488 0.000000 0.005287
# 5 0.001732 -0.002625 0.001012 0.000000 0.033936 0.000000
# 6 0.000000 0.000000 0.000000 0.005287 0.000000 0.042938
#
#
# Mechanical properties :
#
#
# Convention : Reuss Voigt Hill
#
# Bulk Modulus (GPa) = 18.01263 42.38410 30.19837
# Shear Modulus (GPa) = 17.73597 26.85924 22.29760
#
# Velocity S-wave (km/s) = 3.04163 3.74306 3.41043
# Velocity P-wave (km/s) = 4.66168 6.38665 5.59109
#
# Compressibility (1/GPa) = 0.05551660
#
# Stress axis : x y z
#
# Youngs Moduli (GPa) = 67.25136 13.40633 59.45394
#
# Poissons Ratio (x) = -0.02768 0.33730
# Poissons Ratio (y) = -0.13887 1.29454
# Poissons Ratio (z) = 0.38154 0.29191
#
# Static dielectric constant tensor:
#      x y z
#    x 1.695290 0.000000 -0.002130 
#    y 0.000000 1.645900 0.000000 
#    z -0.002130 0.000000 1.705210 
# 
# From -- ./inp_files/143699.got.cif
#   From: 2010.05.17/outbox.cif.g08.bks.cpg/sg12_72_cif.got.tgz:143699.got - 2010.06.03 13:09:07.
