data_PCOD9187907
_publ_section_title
;
Structure prediction by ZEFSAII (Michael W. Deem and Ramdas Pophale) SiO2 
 PCOD9187907
Probable space group: C 2/M
;
_chemical_formula_sum "Si O2"
_cell_formula_units_Z 64
_cell_length_a 12.108401
_cell_length_b 18.455678
_cell_length_c 29.880380
_cell_angle_alpha 90.000000
_cell_angle_beta 149.815634
_cell_angle_gamma 90.000000
_cell_volume 3357.255926
_symmetry_space_group_name_H-M "C 2/M"
_symmetry_group_IT_number 12
_symmetry_cell_setting 'monoclinic'
loop_
_space_group_symop_operation_xyz
x,y,z
-x,y,-z
-x,-y,-z
x,-y,z
1/2+x,1/2+y,z
1/2-x,1/2+y,-z
1/2-x,1/2-y,-z
1/2+x,1/2-y,z
loop_
_atom_site_type_symbol
_atom_site_label
_atom_site_fract_x
_atom_site_fract_y
_atom_site_fract_z
Si Si1 0.747150 0.678536 0.804556
Si Si2 0.095365 0.794642 0.244001
Si Si3 0.409014 0.290945 0.090444
Si Si4 0.600793 0.083906 0.673526
Si Si5 0.089889 0.416146 0.980762
Si Si6 0.285965 0.412749 0.397281
Si Si7 0.848872 0.415168 0.490534
Si Si8 0.611389 0.340420 0.659172
O O1 0.517229 0.686977 0.748987
O O2 0.716835 0.646460 0.744619
O O3 0.853387 0.759173 0.839716
O O4 0.909500 0.626176 0.888289
O O5 0.186318 0.867294 0.253629
O O6 0.302019 0.740833 0.320636
O O7 0.909929 0.767671 0.143503
O O8 0.250000 0.250000 0.000000
O O9 0.318175 0.372324 0.056575
O O10 0.428869 0.110329 0.650633
O O11 0.487086 0.088608 0.584825
O O12 0.651260 0.000000 0.699679
O O13 0.110664 0.500000 0.975437
O O14 0.000000 0.412170 0.000000
O O15 0.500000 0.387501 0.500000
O O16 0.289665 0.500000 0.399166
O O17 0.300670 0.386200 0.351838
O O18 0.771672 0.500000 0.459555
O O19 0.644068 0.360861 0.424310
O O20 0.000000 0.400253 0.500000
#
# Coordination Sequence:
#
# PCOD9187907 Si02
#       8
#     8   8   8   8   8   8   8   8
#     4  10  22  39  58  89 123 163 192 244 306 364
#     4  11  23  38  59  88 125 153 201 251 302 355
#     4   9  20  38  60  85 117 158 195 233 294 369
#     4  10  22  39  59  86 118 160 206 249 303 361
#     4  10  19  35  62  92 119 151 196 247 297 358
#     4  10  20  40  64  82 113 165 212 246 296 361
#     4  10  20  38  60  83 117 159 203 250 304 356
#     4  11  23  36  60  89 119 159 205 252 295 360
#
# _framework density 19.063186999999999
#
# number of rings (size 3 to 8) (size 9 to 14) (size 15 to 20)
#    0.000    1.875    2.500    1.125    3.500    2.500 
#    0.000    0.000    0.000    0.000    0.000    2.625 
#    0.000    0.000    0.000    0.000    0.000    0.000 
#
# Total GULP energy -178313.826619 kJ/mol
# GULP energy per Si atom -5572.307082 kJ/mol
# Density = 1.901980 g / cm^3
# Si number density = 19.063187 Si / 1000 Ang^3
#
#
#
# Elastic Constant Matrix: (Units=GPa)
#
#
# Indices 1 2 3 4 5 6 
#
# 1 147.0238 38.6854 39.9865 0.0003 -1.6377 0.0000
# 2 38.6854 82.1622 34.1754 0.0004 13.3887 0.0000
# 3 39.9865 34.1754 69.8860 0.0016 -3.4487 -0.0001
# 4 0.0003 0.0004 0.0016 21.2642 0.0005 9.6741
# 5 -1.6377 13.3887 -3.4487 0.0005 29.2305 0.0000
# 6 0.0000 0.0000 -0.0001 9.6741 0.0000 30.5519
#
#
#
# Elastic Compliance Matrix: (Units=1/GPa)
#
#
# Indices 1 2 3 4 5 6 
#
# 1 0.008481 -0.002790 -0.003422 0.000000 0.001349 0.000000
# 2 -0.002790 0.018270 -0.007804 0.000001 -0.009445 0.000000
# 3 -0.003422 -0.007804 0.020369 -0.000002 0.005786 0.000001
# 4 0.000000 0.000001 -0.000002 0.054942 -0.000001 -0.017397
# 5 0.001349 -0.009445 0.005786 -0.000001 0.039296 0.000000
# 6 0.000000 0.000000 0.000001 -0.017397 0.000000 0.038240
#
#
# Mechanical properties :
#
#
# Convention : Reuss Voigt Hill
#
# Bulk Modulus (GPa) = 52.38814 58.30740 55.34777
# Shear Modulus (GPa) = 23.36531 28.62429 25.99480
#
# Velocity S-wave (km/s) = 3.50477 3.87919 3.69672
# Velocity P-wave (km/s) = 6.62713 7.12158 6.87880
#
# Compressibility (1/GPa) = 0.01908829
#
# Stress axis : x y z
#
# Youngs Moduli (GPa) = 117.90487 54.73452 49.09478
#
# Poissons Ratio (x) = 0.15271 0.16800
# Poissons Ratio (y) = 0.32895 0.38314
# Poissons Ratio (z) = 0.40345 0.42715
#
# Static dielectric constant tensor:
#      x y z
#    x 1.671280 0.000000 -0.008610 
#    y 0.000000 1.685180 0.000000 
#    z -0.008610 0.000000 1.687250 
# 
# From -- ./inp_files/374484.got.cif
#   From: 2010.05.17/outbox.cif.g08.bks.cpg/sg12_188_cif.got.tgz:374484.got - 2010.06.03 13:09:07.
