data_PCOD9187166
_publ_section_title
;
Structure prediction by ZEFSAII (Michael W. Deem and Ramdas Pophale) SiO2 
 PCOD9187166
Probable space group: C 2/M
;
_chemical_formula_sum "Si O2"
_cell_formula_units_Z 56
_cell_length_a 12.332264
_cell_length_b 14.938919
_cell_length_c 21.388587
_cell_angle_alpha 90.000000
_cell_angle_beta 40.421850
_cell_angle_gamma 90.000000
_cell_volume 2555.018007
_symmetry_space_group_name_H-M "C 2/M"
_symmetry_group_IT_number 12
_symmetry_cell_setting 'monoclinic'
loop_
_space_group_symop_operation_xyz
x,y,z
-x,y,-z
-x,-y,-z
x,-y,z
1/2+x,1/2+y,z
1/2-x,1/2+y,-z
1/2-x,1/2-y,-z
1/2+x,1/2-y,z
loop_
_atom_site_type_symbol
_atom_site_label
_atom_site_fract_x
_atom_site_fract_y
_atom_site_fract_z
Si Si1 0.527219 0.903079 0.201190
Si Si2 0.925035 0.233806 0.887663
Si Si3 0.566897 0.335756 0.705494
Si Si4 0.479042 0.398170 0.613306
Si Si5 0.376980 0.399716 0.112965
Si Si6 0.658306 0.851875 0.601661
Si Si7 0.594519 0.802065 0.392609
O O1 0.497344 0.830212 0.161880
O O2 0.695832 0.877493 0.164869
O O3 0.391502 0.905576 0.315071
O O4 0.553959 0.000000 0.161135
O O5 0.924818 0.188239 0.818664
O O6 0.046075 0.173892 0.876102
O O7 0.750000 0.250000 0.000000
O O8 0.503349 0.397289 0.677786
O O9 0.637497 0.249358 0.636201
O O10 0.732619 0.355343 0.673303
O O11 0.422938 0.500000 0.620329
O O12 0.661589 0.380318 0.502207
O O13 0.385515 0.303610 0.636724
O O14 0.370080 0.500000 0.143944
O O15 0.500000 0.403730 0.000000
O O16 0.522798 0.852890 0.605647
O O17 0.500000 0.800509 0.500000
#
# Coordination Sequence:
#
# PCOD9187166 Si02
#       7
#     8   8   8   8   8   8   8
#     4  10  21  38  60  86 115 148 191 240 285 339
#     4  11  22  37  63  89 111 150 196 240 290 342
#     4  10  21  38  56  81 114 151 186 229 284 340
#     4  11  22  36  56  85 116 145 187 236 278 329
#     4  10  20  37  60  86 115 147 189 238 287 343
#     4  10  19  35  58  81 113 152 189 227 278 336
#     4  11  18  36  59  80 112 157 189 222 279 344
#
# _framework density 21.917653000000001
#
# number of rings (size 3 to 8) (size 9 to 14) (size 15 to 20)
#    0.000    1.571    4.286    2.143    0.000    0.857 
#    0.000    2.857    0.000    1.286    0.000    0.000 
#    0.000    0.000    0.000    0.000    0.000    0.000 
#
# Total GULP energy -156267.140260 kJ/mol
# GULP energy per Si atom -5580.969295 kJ/mol
# Density = 2.186777 g / cm^3
# Si number density = 21.917653 Si / 1000 Ang^3
#
#
#
# Elastic Constant Matrix: (Units=GPa)
#
#
# Indices 1 2 3 4 5 6 
#
# 1 79.1258 34.0795 29.0532 0.0000 3.2288 0.0001
# 2 34.0795 115.2642 15.1426 -0.0001 16.6487 0.0001
# 3 29.0532 15.1426 138.2099 -0.0005 4.7795 0.0004
# 4 0.0000 -0.0001 -0.0005 28.2366 0.0001 -14.4433
# 5 3.2288 16.6487 4.7795 0.0001 26.3404 -0.0001
# 6 0.0001 0.0001 0.0004 -14.4433 -0.0001 57.7643
#
#
#
# Elastic Compliance Matrix: (Units=1/GPa)
#
#
# Indices 1 2 3 4 5 6 
#
# 1 0.015523 -0.004421 -0.002827 0.000000 0.001405 0.000000
# 2 -0.004421 0.010905 -0.000046 0.000000 -0.006342 0.000000
# 3 -0.002827 -0.000046 0.007871 0.000000 -0.001053 0.000000
# 4 0.000000 0.000000 0.000000 0.040609 0.000000 0.010154
# 5 0.001405 -0.006342 -0.001053 0.000000 0.041992 0.000000
# 6 0.000000 0.000000 0.000000 0.010154 0.000000 0.019851
#
#
# Mechanical properties :
#
#
# Convention : Reuss Voigt Hill
#
# Bulk Modulus (GPa) = 50.73489 54.35005 52.54247
# Shear Modulus (GPa) = 31.66367 39.42323 35.54345
#
# Velocity S-wave (km/s) = 3.80500 4.24571 4.03138
# Velocity P-wave (km/s) = 6.51937 6.99185 6.75974
#
# Compressibility (1/GPa) = 0.01971030
#
# Stress axis : x y z
#
# Youngs Moduli (GPa) = 64.42025 91.70098 127.04621
#
# Poissons Ratio (x) = 0.40542 0.35920
# Poissons Ratio (y) = 0.28481 0.00586
# Poissons Ratio (z) = 0.18214 0.00423
#
# Static dielectric constant tensor:
#      x y z
#    x 1.869790 0.000000 -0.020950 
#    y 0.000000 1.867420 0.000000 
#    z -0.020950 0.000000 1.813400 
# 
# From -- ./inp_files/310793.got.cif
#   From: 2010.05.17/outbox.cif.g08.bks.cpg/sg12_156_cif.got.tgz:310793.got - 2010.06.03 13:09:07.
