data_PCOD9187938
_publ_section_title
;
Structure prediction by ZEFSAII (Michael W. Deem and Ramdas Pophale) SiO2 
 PCOD9187938
Probable space group: C 2/M
;
_chemical_formula_sum "Si O2"
_cell_formula_units_Z 56
_cell_length_a 31.341035
_cell_length_b 8.093844
_cell_length_c 12.045968
_cell_angle_alpha 90.000000
_cell_angle_beta 64.131593
_cell_angle_gamma 90.000000
_cell_volume 2749.508913
_symmetry_space_group_name_H-M "C 2/M"
_symmetry_group_IT_number 12
_symmetry_cell_setting 'monoclinic'
loop_
_space_group_symop_operation_xyz
x,y,z
-x,y,-z
-x,-y,-z
x,-y,z
1/2+x,1/2+y,z
1/2-x,1/2+y,-z
1/2-x,1/2-y,-z
1/2+x,1/2-y,z
loop_
_atom_site_type_symbol
_atom_site_label
_atom_site_fract_x
_atom_site_fract_y
_atom_site_fract_z
Si Si1 0.644153 0.806992 0.061699
Si Si2 0.730954 0.304945 0.835351
Si Si3 0.159571 0.702051 0.288104
Si Si4 0.295966 0.198634 0.376932
Si Si5 0.029832 0.309470 0.805417
Si Si6 0.934685 0.814002 0.011764
Si Si7 0.383698 0.202119 0.431022
O O1 0.698477 0.784512 0.962402
O O2 0.631835 0.000000 0.072585
O O3 0.638764 0.744972 0.193522
O O4 0.610974 0.718649 0.010475
O O5 0.730716 0.500000 0.859814
O O6 0.785347 0.246937 0.768398
O O7 0.708415 0.274397 0.739925
O O8 0.159653 0.500000 0.288726
O O9 0.131396 0.756459 0.429115
O O10 0.250000 0.250000 0.500000
O O11 0.342663 0.252093 0.391149
O O12 0.296928 0.000000 0.365733
O O13 0.017604 0.500000 0.796283
O O14 0.065052 0.244504 0.671077
O O15 0.981405 0.214029 0.883839
O O16 0.059108 0.301251 0.888082
O O17 0.934390 0.000000 0.055093
O O18 0.384199 0.000000 0.429850
#
# Coordination Sequence:
#
# PCOD9187938 Si02
#       7
#     8   8   8   8   8   8   8
#     4  11  22  37  58  81 108 146 196 236 274 331
#     4  11  21  36  57  81 114 149 187 234 288 335
#     4   9  19  36  56  79 111 150 188 232 276 330
#     4  11  20  33  54  81 115 149 185 227 274 329
#     4  10  19  35  63  90 112 140 181 229 279 338
#     4  11  22  38  58  82 116 146 179 229 286 336
#     4   9  18  34  56  82 112 145 181 226 278 327
#
# _framework density 20.367272
#
# number of rings (size 3 to 8) (size 9 to 14) (size 15 to 20)
#    0.000    1.714    1.429    5.143    0.000    1.143 
#    0.000    5.000    0.000    4.286    0.000    0.000 
#    0.000    0.000    0.000    0.000    0.000    0.000 
#
# Total GULP energy -156481.967345 kJ/mol
# GULP energy per Si atom -5588.641691 kJ/mol
# Density = 2.032092 g / cm^3
# Si number density = 20.367272 Si / 1000 Ang^3
#
#
#
# Elastic Constant Matrix: (Units=GPa)
#
#
# Indices 1 2 3 4 5 6 
#
# 1 39.4428 -2.0164 26.3196 0.0000 -9.0772 0.0000
# 2 -2.0164 31.3901 -14.0042 0.0000 -0.4996 0.0000
# 3 26.3196 -14.0042 92.6804 0.0000 -14.4882 0.0000
# 4 0.0000 0.0000 0.0000 17.3889 0.0000 -5.7352
# 5 -9.0772 -0.4996 -14.4882 0.0000 26.5361 0.0000
# 6 0.0000 0.0000 0.0000 -5.7352 0.0000 21.6548
#
#
#
# Elastic Compliance Matrix: (Units=1/GPa)
#
#
# Indices 1 2 3 4 5 6 
#
# 1 0.032378 -0.001576 -0.008425 0.000000 0.006446 0.000000
# 2 -0.001576 0.034588 0.006223 0.000000 0.003509 0.000000
# 3 -0.008425 0.006223 0.014968 0.000000 0.005407 0.000000
# 4 0.000000 0.000000 0.000000 0.063012 0.000000 0.016689
# 5 0.006446 0.003509 0.005407 0.000000 0.042908 0.000000
# 6 0.000000 0.000000 0.000000 0.016689 0.000000 0.050599
#
#
# Mechanical properties :
#
#
# Convention : Reuss Voigt Hill
#
# Bulk Modulus (GPa) = 13.44527 20.45679 16.95103
# Shear Modulus (GPa) = 18.46361 23.33026 20.89694
#
# Velocity S-wave (km/s) = 3.01414 3.38816 3.20661
# Velocity P-wave (km/s) = 4.32771 5.03706 4.69580
#
# Compressibility (1/GPa) = 0.07437560
#
# Stress axis : x y z
#
# Youngs Moduli (GPa) = 30.88508 28.91186 66.80941
#
# Poissons Ratio (x) = 0.04558 0.56289
# Poissons Ratio (y) = 0.04869 -0.41573
# Poissons Ratio (z) = 0.26022 -0.17991
#
# Static dielectric constant tensor:
#      x y z
#    x 1.705150 0.000000 -0.008950 
#    y 0.000000 1.732460 0.000000 
#    z -0.008950 0.000000 1.726370 
# 
# From -- ./inp_files/186402.got.cif
#   From: 2010.05.17/outbox.cif.g08.bks.cpg/sg12_94_cif.got.tgz:186402.got - 2010.06.03 13:09:07.
