data_PCOD9187873
_publ_section_title
;
Structure prediction by ZEFSAII (Michael W. Deem and Ramdas Pophale) SiO2 
 PCOD9187873
Probable space group: C 2/M
;
_chemical_formula_sum "Si O2"
_cell_formula_units_Z 48
_cell_length_a 12.542978
_cell_length_b 14.908145
_cell_length_c 12.713575
_cell_angle_alpha 90.000000
_cell_angle_beta 73.487095
_cell_angle_gamma 90.000000
_cell_volume 2279.291838
_symmetry_space_group_name_H-M "C 2/M"
_symmetry_group_IT_number 12
_symmetry_cell_setting 'monoclinic'
loop_
_space_group_symop_operation_xyz
x,y,z
-x,y,-z
-x,-y,-z
x,-y,z
1/2+x,1/2+y,z
1/2-x,1/2+y,-z
1/2-x,1/2-y,-z
1/2+x,1/2-y,z
loop_
_atom_site_type_symbol
_atom_site_label
_atom_site_fract_x
_atom_site_fract_y
_atom_site_fract_z
Si Si1 0.483061 0.102920 0.120748
Si Si2 0.224968 0.396239 0.700253
Si Si3 0.152226 0.845973 0.129770
Si Si4 0.590815 0.394241 0.767453
Si Si5 0.116288 0.890369 0.520834
Si Si6 0.275625 0.859941 0.885988
O O1 0.387047 0.145411 0.219342
O O2 0.600850 0.100601 0.144961
O O3 0.445172 0.000000 0.110828
O O4 0.500000 0.145280 0.000000
O O5 0.199374 0.500000 0.681527
O O6 0.313189 0.393077 0.771227
O O7 0.283142 0.356729 0.580859
O O8 0.201087 0.746146 0.122540
O O9 0.019536 0.846664 0.157326
O O10 0.211841 0.886901 0.011023
O O11 0.562100 0.500000 0.770653
O O12 0.617303 0.363056 0.641789
O O13 0.696985 0.383796 0.811792
O O14 0.000000 0.863581 0.500000
O O15 0.119694 0.000000 0.517402
#
# Coordination Sequence:
#
# PCOD9187873 Si02
#       6
#     8   8   8   8   8   8
#     4  10  20  35  59  83 112 154 198 237 285 362
#     4  10  19  35  62  89 110 149 206 247 281 352
#     4  11  23  37  59  84 121 162 191 242 304 361
#     4  11  23  40  65  93 120 155 205 259 300 349
#     4   9  17  34  61  89 116 150 198 253 302 347
#     4  11  25  38  56  87 128 157 191 241 312 360
#
# _framework density 21.059170999999999
#
# number of rings (size 3 to 8) (size 9 to 14) (size 15 to 20)
#    0.000    1.667    3.333    1.500    2.333    2.667 
#    0.000    1.667    3.667    4.000    0.000    0.000 
#    0.000    0.000    0.000    0.000    0.000    0.000 
#
# Total GULP energy -134061.817055 kJ/mol
# GULP energy per Si atom -5585.909044 kJ/mol
# Density = 2.101124 g / cm^3
# Si number density = 21.059171 Si / 1000 Ang^3
#
#
#
# Elastic Constant Matrix: (Units=GPa)
#
#
# Indices 1 2 3 4 5 6 
#
# 1 137.8621 -4.0808 62.8783 0.0000 -14.4283 0.0000
# 2 -4.0808 33.1668 13.8890 0.0000 -4.1165 0.0000
# 3 62.8783 13.8890 130.0308 0.0000 -21.1342 0.0000
# 4 0.0000 0.0000 0.0000 11.3429 0.0000 3.6486
# 5 -14.4283 -4.1165 -21.1342 0.0000 42.4956 0.0000
# 6 0.0000 0.0000 0.0000 3.6486 0.0000 20.8422
#
#
#
# Elastic Compliance Matrix: (Units=1/GPa)
#
#
# Indices 1 2 3 4 5 6 
#
# 1 0.009692 0.003374 -0.004851 0.000000 0.001205 0.000000
# 2 0.003374 0.032825 -0.004824 0.000000 0.001926 0.000000
# 3 -0.004851 -0.004824 0.011106 0.000000 0.003409 0.000000
# 4 0.000000 0.000000 0.000000 0.093421 0.000000 -0.016354
# 5 0.001205 0.001926 0.003409 0.000000 0.025823 0.000000
# 6 0.000000 0.000000 0.000000 -0.016354 0.000000 0.050842
#
#
# Mechanical properties :
#
#
# Convention : Reuss Voigt Hill
#
# Bulk Modulus (GPa) = 24.37916 49.60362 36.99139
# Shear Modulus (GPa) = 20.00106 30.16102 25.08104
#
# Velocity S-wave (km/s) = 3.08515 3.78855 3.45480
# Velocity P-wave (km/s) = 4.92875 6.53782 5.78945
#
# Compressibility (1/GPa) = 0.04101864
#
# Stress axis : x y z
#
# Youngs Moduli (GPa) = 103.17508 30.46453 90.04330
#
# Poissons Ratio (x) = -0.10278 0.43683
# Poissons Ratio (y) = -0.34807 0.43441
# Poissons Ratio (z) = 0.50054 0.14698
#
# Static dielectric constant tensor:
#      x y z
#    x 1.727600 0.000000 -0.028210 
#    y 0.000000 1.821720 0.000000 
#    z -0.028210 0.000000 1.769200 
# 
# From -- ./inp_files/131087.got.cif
#   From: 2010.05.17/outbox.cif.g08.bks.cpg/sg12_66_cif.got.tgz:131087.got - 2010.06.03 13:09:07.
