data_PCOD9187904
_publ_section_title
;
Structure prediction by ZEFSAII (Michael W. Deem and Ramdas Pophale) SiO2 
 PCOD9187904
Probable space group: C 2/M
;
_chemical_formula_sum "Si O2"
_cell_formula_units_Z 32
_cell_length_a 22.146049
_cell_length_b 7.762656
_cell_length_c 21.287019
_cell_angle_alpha 90.000000
_cell_angle_beta 151.120595
_cell_angle_gamma 90.000000
_cell_volume 1767.418927
_symmetry_space_group_name_H-M "C 2/M"
_symmetry_group_IT_number 12
_symmetry_cell_setting 'monoclinic'
loop_
_space_group_symop_operation_xyz
x,y,z
-x,y,-z
-x,-y,-z
x,-y,z
1/2+x,1/2+y,z
1/2-x,1/2+y,-z
1/2-x,1/2-y,-z
1/2+x,1/2-y,z
loop_
_atom_site_type_symbol
_atom_site_label
_atom_site_fract_x
_atom_site_fract_y
_atom_site_fract_z
Si Si1 0.113654 0.801080 0.295306
Si Si2 0.593167 0.197181 0.642808
Si Si3 0.707381 0.000000 0.176573
Si Si4 0.603410 0.706649 0.433633
Si Si5 0.019959 0.500000 0.123311
O O1 0.263123 0.779224 0.422290
O O2 0.091186 0.757541 0.348290
O O3 0.042677 0.667859 0.186564
O O4 0.079487 0.000000 0.253294
O O5 0.500000 0.235038 0.500000
O O6 0.704581 0.332888 0.744202
O O7 0.509401 0.219254 0.628749
O O8 0.636494 0.000000 0.676267
O O9 0.623859 0.000000 0.163119
O O10 0.613410 0.000000 0.032155
O O11 0.607006 0.500000 0.444893
#
# Coordination Sequence:
#
# PCOD9187904 Si02
#       5
#     8   8   4   8   4
#     4  10  21  36  60  92 119 153 196 243 296 347
#     4  11  23  38  62  92 120 152 193 247 303 348
#     4  11  25  42  60  86 119 161 203 239 288 358
#     4  10  19  35  62  91 122 150 191 249 298 350
#     4  11  24  42  62  82 119 164 201 240 290 353
#
# _framework density 18.105498999999998
#
# number of rings (size 3 to 8) (size 9 to 14) (size 15 to 20)
#    0.000    1.500    2.500    2.625    3.500    4.000 
#    0.000    3.750    0.000    0.000    0.000    0.000 
#    0.000    0.000    0.000    0.000    0.000    0.000 
#
# Total GULP energy -89443.976903 kJ/mol
# GULP energy per Si atom -5590.248556 kJ/mol
# Density = 1.806429 g / cm^3
# Si number density = 18.105499 Si / 1000 Ang^3
#
#
#
# Elastic Constant Matrix: (Units=GPa)
#
#
# Indices 1 2 3 4 5 6 
#
# 1 58.4447 45.3993 50.6043 0.0000 8.7502 0.0000
# 2 45.3993 132.5885 109.2129 0.0000 -4.4213 0.0000
# 3 50.6043 109.2129 133.7250 0.0000 -3.4703 0.0000
# 4 0.0000 0.0000 0.0000 -72.0668 0.0000 -62.2544
# 5 8.7502 -4.4213 -3.4703 0.0000 23.1616 0.0000
# 6 0.0000 0.0000 0.0000 -62.2544 0.0000 -8.2843
#
#
#
# Elastic Compliance Matrix: (Units=1/GPa)
#
#
# Indices 1 2 3 4 5 6 
#
# 1 0.029086 -0.003201 -0.008728 0.000000 -0.012907 0.000000
# 2 -0.003201 0.023455 -0.017866 0.000000 0.003010 0.000000
# 3 -0.008728 -0.017866 0.025468 0.000000 0.003703 0.000000
# 4 0.000000 0.000000 0.000000 0.002527 0.000000 -0.018988
# 5 -0.012907 0.003010 0.003703 0.000000 0.049180 0.000000
# 6 0.000000 0.000000 0.000000 -0.018988 0.000000 0.021981
#
#
# Mechanical properties :
#
#
# Convention : Reuss Voigt Hill
#
# Bulk Modulus (GPa) = 54.28985 81.68790 67.98887
# Shear Modulus (GPa) = 22.99647 -3.46846 9.76401
#
# Velocity S-wave (km/s) = 3.56777 -1.38559 2.32477
# Velocity P-wave (km/s) = 6.85728 6.53115 6.69620
#
# Compressibility (1/GPa) = 0.01841965
#
# Stress axis : x y z
#
# Youngs Moduli (GPa) = 34.38134 42.63548 39.26504
#
# Poissons Ratio (x) = 0.13646 0.34269
# Poissons Ratio (y) = 0.11004 0.70151
# Poissons Ratio (z) = 0.30006 0.76173
#
# Static dielectric constant tensor:
#      x y z
#    x 1.618850 0.000000 -0.014460 
#    y 0.000000 1.620290 0.000000 
#    z -0.014460 0.000000 1.580270 
# 
# From -- ./inp_files/281936.got.cif
#   From: 2010.05.17/outbox.cif.g08.bks.cpg/sg12_141_cif.got.tgz:281936.got - 2010.06.03 13:09:07.
