data_PCOD9187384
_publ_section_title
;
Structure prediction by ZEFSAII (Michael W. Deem and Ramdas Pophale) SiO2 
 PCOD9187384
Probable space group: C 2/M
;
_chemical_formula_sum "Si O2"
_cell_formula_units_Z 64
_cell_length_a 23.415822
_cell_length_b 7.891671
_cell_length_c 16.175478
_cell_angle_alpha 90.000000
_cell_angle_beta 90.751109
_cell_angle_gamma 90.000000
_cell_volume 2988.809149
_symmetry_space_group_name_H-M "C 2/M"
_symmetry_group_IT_number 12
_symmetry_cell_setting 'monoclinic'
loop_
_space_group_symop_operation_xyz
x,y,z
-x,y,-z
-x,-y,-z
x,-y,z
1/2+x,1/2+y,z
1/2-x,1/2+y,-z
1/2-x,1/2-y,-z
1/2+x,1/2-y,z
loop_
_atom_site_type_symbol
_atom_site_label
_atom_site_fract_x
_atom_site_fract_y
_atom_site_fract_z
Si Si1 0.757478 0.204892 0.095240
Si Si2 0.917102 0.698430 0.658920
Si Si3 0.832451 0.802081 0.529972
Si Si4 0.724091 0.804467 0.631681
Si Si5 0.153752 0.196004 0.780088
Si Si6 0.140579 0.706192 0.172654
Si Si7 0.468906 0.302124 0.258161
Si Si8 0.474433 0.794495 0.912036
O O1 0.815730 0.270342 0.138429
O O2 0.702357 0.266655 0.145586
O O3 0.758329 0.000000 0.101955
O O4 0.750000 0.250000 0.000000
O O5 0.905088 0.500000 0.651601
O O6 0.892660 0.781329 0.575929
O O7 0.882211 0.766179 0.738596
O O8 0.983461 0.721226 0.681993
O O9 0.783496 0.741184 0.593420
O O10 0.821480 0.709532 0.443807
O O11 0.821019 0.000000 0.514123
O O12 0.700801 0.704209 0.709107
O O13 0.731271 0.000000 0.656020
O O14 0.094931 0.272677 0.745095
O O15 0.139761 0.000000 0.798246
O O16 0.142053 0.500000 0.176643
O O17 0.091775 0.750521 0.104831
O O18 0.467045 0.500000 0.280802
O O19 0.491685 0.280045 0.165057
O O20 0.478826 0.000000 0.906994
O O21 0.500000 0.740224 0.000000
#
# Coordination Sequence:
#
# PCOD9187384 Si02
#       8
#     8   8   8   8   8   8   8   8
#     4  10  21  36  53  76 105 140 181 223 273 331
#     4  10  19  35  59  83 108 143 187 233 279 328
#     4  10  20  35  58  88 121 148 179 226 280 330
#     4  10  21  36  58  89 117 148 189 226 269 326
#     4  10  22  39  56  76 113 154 186 227 285 339
#     4   8  16  31  50  73 101 134 173 220 272 321
#     4  10  21  36  53  77 109 147 187 230 286 340
#     4   9  18  32  52  76 101 134 181 233 281 330
#
# _framework density 21.413212999999999
#
# number of rings (size 3 to 8) (size 9 to 14) (size 15 to 20)
#    0.000    2.375    0.000    3.000    1.750    4.250 
#    0.000    3.750    0.000    3.750    0.000    0.000 
#    0.000    0.000    0.000    0.000    0.000    0.000 
#
# Total GULP energy -178647.997858 kJ/mol
# GULP energy per Si atom -5582.749933 kJ/mol
# Density = 2.136448 g / cm^3
# Si number density = 21.413213 Si / 1000 Ang^3
#
#
#
# Elastic Constant Matrix: (Units=GPa)
#
#
# Indices 1 2 3 4 5 6 
#
# 1 81.5267 2.8193 26.6150 0.0000 19.1731 0.0000
# 2 2.8193 29.8720 -6.7389 0.0000 2.2647 0.0000
# 3 26.6150 -6.7389 58.7221 0.0000 30.5845 0.0000
# 4 0.0000 0.0000 0.0000 20.8259 0.0000 -1.5736
# 5 19.1731 2.2647 30.5845 0.0000 32.1639 0.0000
# 6 0.0000 0.0000 0.0000 -1.5736 0.0000 12.2895
#
#
#
# Elastic Compliance Matrix: (Units=1/GPa)
#
#
# Indices 1 2 3 4 5 6 
#
# 1 0.014894 -0.002194 -0.004871 0.000000 -0.004092 0.000000
# 2 -0.002194 0.037299 0.011811 0.000000 -0.012549 0.000000
# 3 -0.004871 0.011811 0.038660 0.000000 -0.034690 0.000000
# 4 0.000000 0.000000 0.000000 0.048486 0.000000 0.006208
# 5 -0.004092 -0.012549 -0.034690 0.000000 0.067400 0.000000
# 6 0.000000 0.000000 0.000000 0.006208 0.000000 0.082165
#
#
# Mechanical properties :
#
#
# Convention : Reuss Voigt Hill
#
# Bulk Modulus (GPa) = 9.96564 23.94574 16.95569
# Shear Modulus (GPa) = 15.98145 22.88421 19.43283
#
# Velocity S-wave (km/s) = 2.73488 3.27264 3.01577
# Velocity P-wave (km/s) = 3.82581 5.04848 4.47906
#
# Compressibility (1/GPa) = 0.10034476
#
# Stress axis : x y z
#
# Youngs Moduli (GPa) = 67.13923 26.81030 25.86641
#
# Poissons Ratio (x) = 0.05883 0.12600
# Poissons Ratio (y) = 0.14733 -0.30551
# Poissons Ratio (z) = 0.32705 -0.31666
#
# Static dielectric constant tensor:
#      x y z
#    x 1.809850 0.000000 0.027090 
#    y 0.000000 1.769430 0.000000 
#    z 0.027090 0.000000 1.747200 
# 
# From -- ./inp_files/238655.got.cif
#   From: 2010.05.17/outbox.cif.g08.bks.cpg/sg12_120_cif.got.tgz:238655.got - 2010.06.03 13:09:07.
