data_PCOD9187771
_publ_section_title
;
Structure prediction by ZEFSAII (Michael W. Deem and Ramdas Pophale) SiO2 
 PCOD9187771
Probable space group: C 2/M
;
_chemical_formula_sum "Si O2"
_cell_formula_units_Z 64
_cell_length_a 10.833893
_cell_length_b 32.157570
_cell_length_c 16.963356
_cell_angle_alpha 90.000000
_cell_angle_beta 147.324164
_cell_angle_gamma 90.000000
_cell_volume 3190.664227
_symmetry_space_group_name_H-M "C 2/M"
_symmetry_group_IT_number 12
_symmetry_cell_setting 'monoclinic'
loop_
_space_group_symop_operation_xyz
x,y,z
-x,y,-z
-x,-y,-z
x,-y,z
1/2+x,1/2+y,z
1/2-x,1/2+y,-z
1/2-x,1/2-y,-z
1/2+x,1/2-y,z
loop_
_atom_site_type_symbol
_atom_site_label
_atom_site_fract_x
_atom_site_fract_y
_atom_site_fract_z
Si Si1 0.540072 0.398812 0.612542
Si Si2 0.332698 0.601900 0.986057
Si Si3 0.981751 0.548422 0.895609
Si Si4 0.673821 0.145204 0.486077
Si Si5 0.528565 0.823963 0.774486
Si Si6 0.343273 0.336328 0.743669
Si Si7 0.869459 0.800859 0.351009
Si Si8 0.172639 0.761730 0.151468
O O1 0.500000 0.408701 0.500000
O O2 0.301050 0.397977 0.532431
O O3 0.598971 0.349584 0.648592
O O4 0.751662 0.425901 0.753389
O O5 0.475105 0.631383 0.122685
O O6 0.500000 0.591869 0.000000
O O7 0.202016 0.566405 0.966171
O O8 0.123531 0.630524 0.842942
O O9 0.954131 0.500000 0.859878
O O10 0.000000 0.551648 0.000000
O O11 0.654476 0.171645 0.394881
O O12 0.406673 0.145621 0.365189
O O13 0.814803 0.164442 0.634315
O O14 0.403384 0.800768 0.777445
O O15 0.739223 0.797412 0.859899
O O16 0.387146 0.290882 0.804991
O O17 0.883420 0.767317 0.290308
O O18 0.000000 0.787177 0.500000
O O19 0.000000 0.738119 0.000000
#
# Coordination Sequence:
#
# PCOD9187771 Si02
#       8
#     8   8   8   8   8   8   8   8
#     4  11  21  42  65  92 124 166 217 253 318 391
#     4  12  20  41  74  92 129 171 217 266 323 388
#     4  11  26  45  69 103 136 166 207 266 330 398
#     4  10  19  35  61  88 118 159 214 260 311 382
#     4  11  20  41  58  85 123 166 216 275 318 377
#     4  10  21  36  60  91 119 167 213 263 321 368
#     4  11  24  37  57  87 118 170 216 269 318 374
#     4  11  23  39  52  82 122 164 216 265 317 365
#
# _framework density 20.058517999999999
#
# number of rings (size 3 to 8) (size 9 to 14) (size 15 to 20)
#    0.000    1.125    7.500    0.750    3.500    3.000 
#    2.250    0.000    0.000    0.000    0.000    3.500 
#    0.000    0.000    0.000    0.000    0.000    0.000 
#
# Total GULP energy -178162.362844 kJ/mol
# GULP energy per Si atom -5567.573839 kJ/mol
# Density = 2.001286 g / cm^3
# Si number density = 20.058518 Si / 1000 Ang^3
#
#
#
# Elastic Constant Matrix: (Units=GPa)
#
#
# Indices 1 2 3 4 5 6 
#
# 1 62.8166 11.7265 24.7730 0.0000 3.6075 0.0000
# 2 11.7265 86.9848 50.3126 0.0000 -3.1986 0.0000
# 3 24.7730 50.3126 126.2286 0.0000 -20.7477 0.0000
# 4 0.0000 0.0000 0.0000 48.8835 0.0000 -40.1061
# 5 3.6075 -3.1986 -20.7477 0.0000 28.0928 0.0000
# 6 0.0000 0.0000 0.0000 -40.1061 0.0000 31.2222
#
#
#
# Elastic Compliance Matrix: (Units=1/GPa)
#
#
# Indices 1 2 3 4 5 6 
#
# 1 0.017997 -0.000075 -0.004420 0.000000 -0.005584 0.000000
# 2 -0.000075 0.015177 -0.006543 0.000000 -0.003095 0.000000
# 3 -0.004420 -0.006543 0.012939 0.000000 0.009379 0.000000
# 4 0.000000 0.000000 0.000000 -0.379588 0.000000 -0.487596
# 5 -0.005584 -0.003095 0.009379 0.000000 0.042888 0.000000
# 6 0.000000 0.000000 0.000000 -0.487596 0.000000 -0.594308
#
#
# Mechanical properties :
#
#
# Convention : Reuss Voigt Hill
#
# Bulk Modulus (GPa) = 41.60261 49.96157 45.78209
# Shear Modulus (GPa) = -5.84928 34.25424 14.20248
#
# Velocity S-wave (km/s) = -1.70951 4.13693 2.66381
# Velocity P-wave (km/s) = 4.10963 6.91238 5.68639
#
# Compressibility (1/GPa) = 0.02403695
#
# Stress axis : x y z
#
# Youngs Moduli (GPa) = 55.56445 65.88780 77.28453
#
# Poissons Ratio (x) = 0.00494 0.34159
# Poissons Ratio (y) = 0.00417 0.50570
# Poissons Ratio (z) = 0.24559 0.43113
#
# Static dielectric constant tensor:
#      x y z
#    x 1.876180 0.000000 0.050880 
#    y 0.000000 1.669910 0.000000 
#    z 0.050880 0.000000 1.828520 
# 
# From -- ./inp_files/266302.got.cif
#   From: 2010.05.17/outbox.cif.g08.bks.cpg/sg12_134_cif.got.tgz:266302.got - 2010.06.03 13:09:07.
