data_PCOD9187487
_publ_section_title
;
Structure prediction by ZEFSAII (Michael W. Deem and Ramdas Pophale) SiO2 
 PCOD9187487
Probable space group: C 2/M
;
_chemical_formula_sum "Si O2"
_cell_formula_units_Z 56
_cell_length_a 30.048349
_cell_length_b 9.222846
_cell_length_c 11.476949
_cell_angle_alpha 90.000000
_cell_angle_beta 67.053526
_cell_angle_gamma 90.000000
_cell_volume 2928.937474
_symmetry_space_group_name_H-M "C 2/M"
_symmetry_group_IT_number 12
_symmetry_cell_setting 'monoclinic'
loop_
_space_group_symop_operation_xyz
x,y,z
-x,y,-z
-x,-y,-z
x,-y,z
1/2+x,1/2+y,z
1/2-x,1/2+y,-z
1/2-x,1/2-y,-z
1/2+x,1/2-y,z
loop_
_atom_site_type_symbol
_atom_site_label
_atom_site_fract_x
_atom_site_fract_y
_atom_site_fract_z
Si Si1 0.011422 0.330384 0.352522
Si Si2 0.442942 0.169821 0.067381
Si Si3 0.892486 0.328993 0.868336
Si Si4 0.680079 0.326185 0.505904
Si Si5 0.733073 0.326885 0.693659
Si Si6 0.576154 0.673223 0.682341
Si Si7 0.794771 0.826321 0.017142
O O1 0.007054 0.500000 0.321695
O O2 0.066114 0.287060 0.266086
O O3 0.000000 0.318034 0.500000
O O4 0.972183 0.239781 0.322012
O O5 0.419720 0.267096 0.190959
O O6 0.438996 0.000000 0.103971
O O7 0.500000 0.203989 0.000000
O O8 0.417681 0.189196 0.968898
O O9 0.880851 0.500000 0.865456
O O10 0.844412 0.235125 0.914833
O O11 0.683417 0.500000 0.489036
O O12 0.700443 0.289206 0.614561
O O13 0.715498 0.249954 0.378696
O O14 0.624002 0.283168 0.561451
O O15 0.740125 0.500000 0.684617
O O16 0.708938 0.289170 0.841198
O O17 0.573921 0.500000 0.686208
O O18 0.792189 0.000000 0.007893
O O19 0.750000 0.750000 0.000000
#
# Coordination Sequence:
#
# PCOD9187487 Si02
#       7
#     8   8   8   8   8   8   8
#     4  10  22  41  61  80 111 155 198 238 283 344
#     4  10  19  35  59  86 119 153 190 237 285 343
#     4  10  21  39  62  88 117 150 192 242 292 342
#     4   9  19  35  56  84 117 147 180 230 289 342
#     4   9  19  37  58  81 111 147 189 234 281 339
#     4  11  22  35  55  86 121 152 188 236 289 347
#     4  11  24  41  61  85 116 153 196 242 290 345
#
# _framework density 19.119562999999999
#
# number of rings (size 3 to 8) (size 9 to 14) (size 15 to 20)
#    0.000    2.000    1.429    1.714    0.000    6.286 
#    0.000    7.143    0.000    0.000    0.000    0.000 
#    0.000    0.000    0.000    0.000    0.000    0.000 
#
# Total GULP energy -156401.605421 kJ/mol
# GULP energy per Si atom -5585.771622 kJ/mol
# Density = 1.907605 g / cm^3
# Si number density = 19.119563 Si / 1000 Ang^3
#
#
#
# Elastic Constant Matrix: (Units=GPa)
#
#
# Indices 1 2 3 4 5 6 
#
# 1 84.5467 38.8507 42.5602 0.0000 -34.4506 0.0000
# 2 38.8507 41.3731 43.5319 0.0000 -17.9615 0.0000
# 3 42.5602 43.5319 102.8665 0.0000 -33.7810 0.0000
# 4 0.0000 0.0000 0.0000 29.8333 0.0000 -8.8988
# 5 -34.4506 -17.9615 -33.7810 0.0000 34.3770 0.0000
# 6 0.0000 0.0000 0.0000 -8.8988 0.0000 25.0943
#
#
#
# Elastic Compliance Matrix: (Units=1/GPa)
#
#
# Indices 1 2 3 4 5 6 
#
# 1 0.028519 -0.022455 0.004778 0.000000 0.021543 0.000000
# 2 -0.022455 0.062375 -0.020365 0.000000 -0.009925 0.000000
# 3 0.004778 -0.020365 0.021321 0.000000 0.015099 0.000000
# 4 0.000000 0.000000 0.000000 0.037485 0.000000 0.013293
# 5 0.021543 -0.009925 0.015099 0.000000 0.060330 0.000000
# 6 0.000000 0.000000 0.000000 0.013293 0.000000 0.044564
#
#
# Mechanical properties :
#
#
# Convention : Reuss Voigt Hill
#
# Bulk Modulus (GPa) = 27.67726 53.18577 40.43151
# Shear Modulus (GPa) = 14.58904 24.78382 19.68643
#
# Velocity S-wave (km/s) = 2.76532 3.60426 3.21229
# Velocity P-wave (km/s) = 4.97024 6.72300 5.91194
#
# Compressibility (1/GPa) = 0.03613074
#
# Stress axis : x y z
#
# Youngs Moduli (GPa) = 35.06386 16.03198 46.90106
#
# Poissons Ratio (x) = 0.36000 -0.22408
# Poissons Ratio (y) = 0.78736 0.95515
# Poissons Ratio (z) = -0.16752 0.32650
#
# Static dielectric constant tensor:
#      x y z
#    x 1.656820 0.000000 0.001700 
#    y 0.000000 1.636630 0.000000 
#    z 0.001700 0.000000 1.668640 
# 
# From -- ./inp_files/186365.got.cif
#   From: 2010.05.17/outbox.cif.g08.bks.cpg/sg12_94_cif.got.tgz:186365.got - 2010.06.03 13:09:07.
