data_PCOD9187516
_publ_section_title
;
Structure prediction by ZEFSAII (Michael W. Deem and Ramdas Pophale) SiO2 
 PCOD9187516
Probable space group: C 2/M
;
_chemical_formula_sum "Si O2"
_cell_formula_units_Z 64
_cell_length_a 17.839483
_cell_length_b 20.431061
_cell_length_c 12.228190
_cell_angle_alpha 90.000000
_cell_angle_beta 51.715860
_cell_angle_gamma 90.000000
_cell_volume 3498.454219
_symmetry_space_group_name_H-M "C 2/M"
_symmetry_group_IT_number 12
_symmetry_cell_setting 'monoclinic'
loop_
_space_group_symop_operation_xyz
x,y,z
-x,y,-z
-x,-y,-z
x,-y,z
1/2+x,1/2+y,z
1/2-x,1/2+y,-z
1/2-x,1/2-y,-z
1/2+x,1/2-y,z
loop_
_atom_site_type_symbol
_atom_site_label
_atom_site_fract_x
_atom_site_fract_y
_atom_site_fract_z
Si Si1 0.397245 0.750604 0.327788
Si Si2 0.277049 0.175165 0.817114
Si Si3 0.891861 0.573750 0.574169
Si Si4 0.931429 0.227837 0.961610
Si Si5 0.287227 0.283925 0.643266
Si Si6 0.875751 0.627640 0.949169
Si Si7 0.423967 0.094862 0.298492
Si Si8 0.726319 0.072364 0.754649
O O1 0.496750 0.717485 0.204721
O O2 0.356848 0.725797 0.478292
O O3 0.313053 0.751444 0.311360
O O4 0.417667 0.827228 0.318557
O O5 0.312047 0.119816 0.699733
O O6 0.311986 0.242684 0.728901
O O7 0.325026 0.155916 0.887728
O O8 0.165349 0.186901 0.943246
O O9 0.885893 0.500000 0.625266
O O10 0.886262 0.569717 0.448183
O O11 0.000000 0.599095 0.500000
O O12 0.907089 0.305884 0.985302
O O13 0.000000 0.212895 0.000000
O O14 0.280706 0.360817 0.673806
O O15 0.965457 0.584628 0.828769
O O16 0.812300 0.585831 0.088839
O O17 0.361030 0.073229 0.253137
O O18 0.771737 0.000000 0.706589
#
# Coordination Sequence:
#
# PCOD9187516 Si02
#       8
#     8   8   8   8   8   8   8   8
#     4   9  18  33  58  86 118 150 194 255 304 340
#     4  12  22  37  62  87 120 163 204 247 308 370
#     4  11  23  39  57  87 126 158 191 248 315 372
#     4  11  20  36  57  88 119 153 199 256 305 352
#     4  10  19  35  59  87 119 155 205 255 300 352
#     4  11  22  35  55  84 123 155 200 243 302 370
#     4  10  19  36  57  83 119 155 197 241 292 373
#     4  11  23  36  56  86 121 164 200 240 303 369
#
# _framework density 18.293793999999998
#
# number of rings (size 3 to 8) (size 9 to 14) (size 15 to 20)
#    0.000    1.375    5.000    2.625    0.000    2.000 
#    0.000    0.000    0.000    1.125    0.000    0.875 
#    0.000    0.000    0.000    0.000    0.000    0.000 
#
# Total GULP energy -178420.232747 kJ/mol
# GULP energy per Si atom -5575.632273 kJ/mol
# Density = 1.825216 g / cm^3
# Si number density = 18.293794 Si / 1000 Ang^3
#
#
#
# Elastic Constant Matrix: (Units=GPa)
#
#
# Indices 1 2 3 4 5 6 
#
# 1 35.0308 20.2815 14.9619 0.0000 16.2184 0.0000
# 2 20.2815 91.6764 49.9704 0.0000 -1.6366 0.0000
# 3 14.9619 49.9704 115.7127 0.0000 -0.7373 0.0000
# 4 0.0000 0.0000 0.0000 14.4450 0.0000 1.2877
# 5 16.2184 -1.6366 -0.7373 0.0000 32.1539 0.0000
# 6 0.0000 0.0000 0.0000 1.2877 0.0000 -34.3807
#
#
#
# Elastic Compliance Matrix: (Units=1/GPa)
#
#
# Indices 1 2 3 4 5 6 
#
# 1 0.045828 -0.009480 -0.001982 0.000000 -0.023643 0.000000
# 2 -0.009480 0.016238 -0.005752 0.000000 0.005476 0.000000
# 3 -0.001982 -0.005752 0.011388 0.000000 0.000968 0.000000
# 4 0.000000 0.000000 0.000000 0.068998 0.000000 0.002584
# 5 -0.023643 0.005476 0.000968 0.000000 0.043327 0.000000
# 6 0.000000 0.000000 0.000000 0.002584 0.000000 -0.028989
#
#
# Mechanical properties :
#
#
# Convention : Reuss Voigt Hill
#
# Bulk Modulus (GPa) = 25.62379 45.87196 35.74787
# Shear Modulus (GPa) = 24.48259 12.92405 18.70332
#
# Velocity S-wave (km/s) = 3.66225 2.66084 3.20095
# Velocity P-wave (km/s) = 5.64978 5.87960 5.76583
#
# Compressibility (1/GPa) = 0.03902624
#
# Stress axis : x y z
#
# Youngs Moduli (GPa) = 21.82077 61.58378 87.80815
#
# Poissons Ratio (x) = 0.58381 0.17407
# Poissons Ratio (y) = 0.20686 0.50505
# Poissons Ratio (z) = 0.04326 0.35421
#
# Static dielectric constant tensor:
#      x y z
#    x 1.657680 0.000000 0.008070 
#    y 0.000000 1.645110 0.000000 
#    z 0.008070 0.000000 1.663570 
# 
# From -- ./inp_files/159515.got.cif
#   From: 2010.05.17/outbox.cif.g08.bks.cpg/sg12_80_cif.got.tgz:159515.got - 2010.06.03 13:09:07.
