data_PCOD9187443
_publ_section_title
;
Structure prediction by ZEFSAII (Michael W. Deem and Ramdas Pophale) SiO2 
 PCOD9187443
Probable space group: C 2/M
;
_chemical_formula_sum "Si O2"
_cell_formula_units_Z 44
_cell_length_a 16.524786
_cell_length_b 23.897584
_cell_length_c 8.978048
_cell_angle_alpha 90.000000
_cell_angle_beta 135.954492
_cell_angle_gamma 90.000000
_cell_volume 2464.903684
_symmetry_space_group_name_H-M "C 2/M"
_symmetry_group_IT_number 12
_symmetry_cell_setting 'monoclinic'
loop_
_space_group_symop_operation_xyz
x,y,z
-x,y,-z
-x,-y,-z
x,-y,z
1/2+x,1/2+y,z
1/2-x,1/2+y,-z
1/2-x,1/2-y,-z
1/2+x,1/2-y,z
loop_
_atom_site_type_symbol
_atom_site_label
_atom_site_fract_x
_atom_site_fract_y
_atom_site_fract_z
Si Si1 0.668681 0.065212 0.439462
Si Si2 0.554169 0.437800 0.238494
Si Si3 0.031218 0.294098 0.766448
Si Si4 0.665076 0.157709 0.660920
Si Si5 0.936193 0.173495 0.074467
Si Si6 0.500000 0.867481 0.000000
O O1 0.806948 0.070604 0.589538
O O2 0.642665 0.096644 0.560807
O O3 0.640889 0.000000 0.411193
O O4 0.593022 0.094806 0.211174
O O5 0.532506 0.500000 0.276459
O O6 0.493348 0.382216 0.222224
O O7 0.500000 0.439953 0.000000
O O8 0.103889 0.324992 0.733526
O O9 0.055315 0.228867 0.815186
O O10 0.895914 0.302362 0.542285
O O11 0.056100 0.326687 0.951567
O O12 0.801694 0.163676 0.860293
O O13 0.000000 0.183719 0.000000
#
# Coordination Sequence:
#
# PCOD9187443 Si02
#       6
#     8   8   8   8   8   4
#     4  10  19  35  59  85 113 146 190 236 280 334
#     4   9  17  31  54  86 113 137 183 238 277 327
#     4  10  22  37  53  80 117 153 187 233 279 335
#     4  10  21  37  55  82 115 147 192 236 278 328
#     4  11  19  33  57  86 109 147 189 228 289 330
#     4  10  21  36  54  80 115 154 190 228 280 336
#
# _framework density 17.850597
#
# number of rings (size 3 to 8) (size 9 to 14) (size 15 to 20)
#    0.000    2.000    4.545    0.818    0.000    2.182 
#    0.000    8.182    0.000    0.000    0.000    5.091 
#    0.000    0.000    0.000    0.000    0.000    0.000 
#
# Total GULP energy -122536.578359 kJ/mol
# GULP energy per Si atom -5569.844471 kJ/mol
# Density = 1.780997 g / cm^3
# Si number density = 17.850597 Si / 1000 Ang^3
#
#
#
# Elastic Constant Matrix: (Units=GPa)
#
#
# Indices 1 2 3 4 5 6 
#
# 1 71.0826 50.8954 35.9019 0.0000 -1.8565 0.0000
# 2 50.8954 183.6506 69.3167 0.0000 -1.6845 0.0000
# 3 35.9019 69.3167 76.7180 0.0000 5.7031 0.0000
# 4 0.0000 0.0000 0.0000 19.8206 0.0000 1.9349
# 5 -1.8565 -1.6845 5.7031 0.0000 26.3967 0.0000
# 6 0.0000 0.0000 0.0000 1.9349 0.0000 15.3989
#
#
#
# Elastic Compliance Matrix: (Units=1/GPa)
#
#
# Indices 1 2 3 4 5 6 
#
# 1 0.019611 -0.002840 -0.006810 0.000000 0.002669 0.000000
# 2 -0.002840 0.008799 -0.006757 0.000000 0.001822 0.000000
# 3 -0.006810 -0.006757 0.022759 0.000000 -0.005827 0.000000
# 4 0.000000 0.000000 0.000000 0.051079 0.000000 -0.006418
# 5 0.002669 0.001822 -0.005827 0.000000 0.039446 0.000000
# 6 0.000000 0.000000 0.000000 -0.006418 0.000000 0.065746
#
#
# Mechanical properties :
#
#
# Convention : Reuss Voigt Hill
#
# Bulk Modulus (GPa) = 54.47600 71.51991 62.99796
# Shear Modulus (GPa) = 20.29449 24.01238 22.15344
#
# Velocity S-wave (km/s) = 3.37546 3.67166 3.52667
# Velocity P-wave (km/s) = 6.76577 7.62414 7.20775
#
# Compressibility (1/GPa) = 0.01835671
#
# Stress axis : x y z
#
# Youngs Moduli (GPa) = 50.99258 113.64829 43.93798
#
# Poissons Ratio (x) = 0.32277 0.29920
# Poissons Ratio (y) = 0.14482 0.29687
# Poissons Ratio (z) = 0.34724 0.76787
#
# Static dielectric constant tensor:
#      x y z
#    x 1.609330 0.000000 0.001850 
#    y 0.000000 1.645650 0.000000 
#    z 0.001850 0.000000 1.611200 
# 
# From -- ./inp_files/65570.got.cif
#   From: 2010.05.17/outbox.cif.g08.bks.cpg/sg12_33_cif.got.tgz:65570.got - 2010.06.03 13:09:07.
