data_PCOD9187680
_publ_section_title
;
Structure prediction by ZEFSAII (Michael W. Deem and Ramdas Pophale) SiO2 
 PCOD9187680
Probable space group: C 2/M
;
_chemical_formula_sum "Si O2"
_cell_formula_units_Z 56
_cell_length_a 23.514779
_cell_length_b 14.268907
_cell_length_c 9.176702
_cell_angle_alpha 90.000000
_cell_angle_beta 97.146739
_cell_angle_gamma 90.000000
_cell_volume 3055.138709
_symmetry_space_group_name_H-M "C 2/M"
_symmetry_group_IT_number 12
_symmetry_cell_setting 'monoclinic'
loop_
_space_group_symop_operation_xyz
x,y,z
-x,y,-z
-x,-y,-z
x,-y,z
1/2+x,1/2+y,z
1/2-x,1/2+y,-z
1/2-x,1/2-y,-z
1/2+x,1/2-y,z
loop_
_atom_site_type_symbol
_atom_site_label
_atom_site_fract_x
_atom_site_fract_y
_atom_site_fract_z
Si Si1 0.157325 0.612213 0.143031
Si Si2 0.748732 0.267813 0.669843
Si Si3 0.359130 0.394999 0.364080
Si Si4 0.756820 0.608916 0.091062
Si Si5 0.444264 0.748635 0.884925
Si Si6 0.543180 0.391122 0.377838
Si Si7 0.128097 0.105200 0.949665
O O1 0.156346 0.500000 0.160808
O O2 0.199555 0.664283 0.268119
O O3 0.095088 0.658996 0.143911
O O4 0.189161 0.631242 0.996753
O O5 0.750000 0.250000 0.500000
O O6 0.689021 0.319534 0.671110
O O7 0.749090 0.177027 0.773578
O O8 0.333878 0.500000 0.356813
O O9 0.395366 0.383568 0.521539
O O10 0.394018 0.389457 0.223599
O O11 0.761573 0.500000 0.136225
O O12 0.697086 0.617896 0.981987
O O13 0.460711 0.689270 0.745311
O O14 0.500000 0.767925 0.000000
O O15 0.403043 0.678917 0.960905
O O16 0.500000 0.378937 0.500000
O O17 0.536659 0.500000 0.322771
O O18 0.116542 0.000000 0.999848
#
# Coordination Sequence:
#
# PCOD9187680 Si02
#       7
#     8   8   8   8   8   8   8
#     4  11  23  42  63  86 119 161 205 252 297 349
#     4  12  22  35  57  87 123 156 193 239 300 355
#     4  10  20  34  55  82 114 154 192 233 292 353
#     4  10  21  38  61  88 121 157 197 244 301 359
#     4  12  24  38  60  88 116 155 205 253 295 354
#     4  10  22  40  58  84 123 159 196 243 301 366
#     4  10  19  35  60  89 119 150 191 245 300 358
#
# _framework density 18.329774
#
# number of rings (size 3 to 8) (size 9 to 14) (size 15 to 20)
#    0.000    1.286    2.857    3.857    0.000    3.714 
#    0.000    0.000    0.000    0.429    0.000    0.000 
#    0.000    0.000    0.000    0.000    0.000    0.000 
#
# Total GULP energy -156256.912798 kJ/mol
# GULP energy per Si atom -5580.604029 kJ/mol
# Density = 1.828805 g / cm^3
# Si number density = 18.329774 Si / 1000 Ang^3
#
#
#
# Elastic Constant Matrix: (Units=GPa)
#
#
# Indices 1 2 3 4 5 6 
#
# 1 77.8593 46.3602 24.7391 0.0000 4.7084 0.0000
# 2 46.3602 118.4188 69.7089 0.0000 0.2705 0.0000
# 3 24.7391 69.7089 110.3010 0.0000 4.5171 0.0000
# 4 0.0000 0.0000 0.0000 23.4064 0.0000 -4.9126
# 5 4.7084 0.2705 4.5171 0.0000 21.6437 0.0000
# 6 0.0000 0.0000 0.0000 -4.9126 0.0000 25.7542
#
#
#
# Elastic Compliance Matrix: (Units=1/GPa)
#
#
# Indices 1 2 3 4 5 6 
#
# 1 0.017078 -0.007189 0.000869 0.000000 -0.003807 0.000000
# 2 -0.007189 0.016530 -0.008967 0.000000 0.003229 0.000000
# 3 0.000869 -0.008967 0.014667 0.000000 -0.003138 0.000000
# 4 0.000000 0.000000 0.000000 0.044505 0.000000 0.008489
# 5 -0.003807 0.003229 -0.003138 0.000000 0.047646 0.000000
# 6 0.000000 0.000000 0.000000 0.008489 0.000000 0.040448
#
#
# Mechanical properties :
#
#
# Convention : Reuss Voigt Hill
#
# Bulk Modulus (GPa) = 56.49261 65.35505 60.92383
# Shear Modulus (GPa) = 23.00470 25.21226 24.10848
#
# Velocity S-wave (km/s) = 3.54651 3.71277 3.63059
# Velocity P-wave (km/s) = 6.90343 7.35609 7.13335
#
# Compressibility (1/GPa) = 0.01770143
#
# Stress axis : x y z
#
# Youngs Moduli (GPa) = 58.55398 60.49664 68.18235
#
# Poissons Ratio (x) = 0.43489 -0.05922
# Poissons Ratio (y) = 0.42092 0.61136
# Poissons Ratio (z) = -0.05086 0.54245
#
# Static dielectric constant tensor:
#      x y z
#    x 2.234570 0.000000 -0.692770 
#    y 0.000000 1.641240 0.000000 
#    z -0.692770 0.000000 2.444730 
# 
# From -- ./inp_files/86362.got.cif
#   From: 2010.05.17/outbox.cif.g08.bks.cpg/sg12_44_cif.got.tgz:86362.got - 2010.06.03 13:09:07.
