data_PCOD9187206
_publ_section_title
;
Structure prediction by ZEFSAII (Michael W. Deem and Ramdas Pophale) SiO2 
 PCOD9187206
Probable space group: C 2/M
;
_chemical_formula_sum "Si O2"
_cell_formula_units_Z 64
_cell_length_a 20.839840
_cell_length_b 8.433057
_cell_length_c 16.737954
_cell_angle_alpha 90.000000
_cell_angle_beta 101.880505
_cell_angle_gamma 90.000000
_cell_volume 2878.576116
_symmetry_space_group_name_H-M "C 2/M"
_symmetry_group_IT_number 12
_symmetry_cell_setting 'monoclinic'
loop_
_space_group_symop_operation_xyz
x,y,z
-x,y,-z
-x,-y,-z
x,-y,z
1/2+x,1/2+y,z
1/2-x,1/2+y,-z
1/2-x,1/2-y,-z
1/2+x,1/2-y,z
loop_
_atom_site_type_symbol
_atom_site_label
_atom_site_fract_x
_atom_site_fract_y
_atom_site_fract_z
Si Si1 0.301408 0.320799 0.743040
Si Si2 0.503361 0.690395 0.807176
Si Si3 0.588430 0.182943 0.337161
Si Si4 0.168879 0.188335 0.676130
Si Si5 0.147632 0.810353 0.859306
Si Si6 0.576983 0.686243 0.506104
Si Si7 0.431992 0.310838 0.946820
Si Si8 0.708402 0.815608 0.086524
O O1 0.305903 0.500000 0.775954
O O2 0.359091 0.286893 0.696866
O O3 0.233679 0.290449 0.680071
O O4 0.298220 0.206252 0.818924
O O5 0.508120 0.500000 0.798041
O O6 0.481686 0.767453 0.718587
O O7 0.573809 0.745079 0.860051
O O8 0.445634 0.720718 0.856555
O O9 0.594277 0.216008 0.432009
O O10 0.600396 0.000000 0.322229
O O11 0.148894 0.212625 0.763343
O O12 0.115156 0.229649 0.596466
O O13 0.183264 0.000000 0.672032
O O14 0.217830 0.746515 0.910761
O O15 0.149588 0.000000 0.875525
O O16 0.500000 0.703437 0.500000
O O17 0.590420 0.500000 0.492991
O O18 0.432500 0.500000 0.959247
O O19 0.361236 0.255107 0.959270
O O20 0.500000 0.245863 0.000000
O O21 0.709264 0.000000 0.066174
#
# Coordination Sequence:
#
# PCOD9187206 Si02
#       8
#     8   8   8   8   8   8   8   8
#     4  11  21  35  56  80 107 144 186 227 280 339
#     4  10  19  36  60  82 110 148 193 233 276 341
#     4  12  24  36  54  81 113 144 185 238 285 328
#     4   9  18  34  55  79 108 140 184 235 278 327
#     4   8  16  32  57  84 107 144 190 231 275 329
#     4  10  21  38  58  78 106 148 191 229 280 344
#     4  10  21  36  57  86 117 150 188 232 281 335
#     4  10  19  35  58  83 113 145 186 233 279 332
#
# _framework density 22.233214
#
# number of rings (size 3 to 8) (size 9 to 14) (size 15 to 20)
#    0.000    2.000    1.250    4.125    0.000    3.500 
#    0.000    6.250    0.000    0.000    0.000    0.000 
#    0.000    0.000    0.000    0.000    0.000    0.000 
#
# Total GULP energy -178670.158797 kJ/mol
# GULP energy per Si atom -5583.442462 kJ/mol
# Density = 2.218261 g / cm^3
# Si number density = 22.233214 Si / 1000 Ang^3
#
#
#
# Elastic Constant Matrix: (Units=GPa)
#
#
# Indices 1 2 3 4 5 6 
#
# 1 133.1430 24.5718 27.6137 0.0000 27.8358 0.0000
# 2 24.5718 22.5774 14.0151 0.0000 3.8198 0.0000
# 3 27.6137 14.0151 83.8981 0.0000 21.7668 0.0000
# 4 0.0000 0.0000 0.0000 20.5563 0.0000 5.1366
# 5 27.8358 3.8198 21.7668 0.0000 36.8376 0.0000
# 6 0.0000 0.0000 0.0000 5.1366 0.0000 25.1973
#
#
#
# Elastic Compliance Matrix: (Units=1/GPa)
#
#
# Indices 1 2 3 4 5 6 
#
# 1 0.011000 -0.010784 0.000056 0.000000 -0.007227 0.000000
# 2 -0.010784 0.059991 -0.008235 0.000000 0.006794 0.000000
# 3 0.000056 -0.008235 0.015432 0.000000 -0.008307 0.000000
# 4 0.000000 0.000000 0.000000 0.051258 0.000000 -0.010449
# 5 -0.007227 0.006794 -0.008307 0.000000 0.036811 0.000000
# 6 0.000000 0.000000 0.000000 -0.010449 0.000000 0.041817
#
#
# Mechanical properties :
#
#
# Convention : Reuss Voigt Hill
#
# Bulk Modulus (GPa) = 20.61975 41.33552 30.97763
# Shear Modulus (GPa) = 18.49114 28.07943 23.28528
#
# Velocity S-wave (km/s) = 2.88703 3.55766 3.23974
# Velocity P-wave (km/s) = 4.51749 5.95886 5.28752
#
# Compressibility (1/GPa) = 0.04849720
#
# Stress axis : x y z
#
# Youngs Moduli (GPa) = 90.90702 16.66919 64.80235
#
# Poissons Ratio (x) = 0.17976 -0.00362
# Poissons Ratio (y) = 0.98034 0.53363
# Poissons Ratio (z) = -0.00508 0.13727
#
# Static dielectric constant tensor:
#      x y z
#    x 1.842680 0.000000 0.033400 
#    y 0.000000 1.764860 0.000000 
#    z 0.033400 0.000000 1.867640 
# 
# From -- ./inp_files/320170.got.cif
#   From: 2010.05.17/outbox.cif.g08.bks.cpg/sg12_161_cif.got.tgz:320170.got - 2010.06.03 13:09:07.
