data_PCOD9187995
_publ_section_title
;
Structure prediction by ZEFSAII (Michael W. Deem and Ramdas Pophale) SiO2 
 PCOD9187995
Probable space group: C 2/M
;
_chemical_formula_sum "Si O2"
_cell_formula_units_Z 52
_cell_length_a 19.488380
_cell_length_b 11.646506
_cell_length_c 21.273425
_cell_angle_alpha 90.000000
_cell_angle_beta 27.211457
_cell_angle_gamma 90.000000
_cell_volume 2207.938631
_symmetry_space_group_name_H-M "C 2/M"
_symmetry_group_IT_number 12
_symmetry_cell_setting 'monoclinic'
loop_
_space_group_symop_operation_xyz
x,y,z
-x,y,-z
-x,-y,-z
x,-y,z
1/2+x,1/2+y,z
1/2-x,1/2+y,-z
1/2-x,1/2-y,-z
1/2+x,1/2-y,z
loop_
_atom_site_type_symbol
_atom_site_label
_atom_site_fract_x
_atom_site_fract_y
_atom_site_fract_z
Si Si1 0.338348 0.363794 0.003948
Si Si2 0.745366 0.749240 0.808363
Si Si3 0.350457 0.000000 0.081338
Si Si4 0.944897 0.500000 0.202904
Si Si5 0.918592 0.236796 0.433599
Si Si6 0.822314 0.632388 0.624263
Si Si7 0.486641 0.226781 0.778703
Si Si8 0.614873 0.500000 0.464099
O O1 0.328212 0.500000 0.013721
O O2 0.362235 0.313917 0.054443
O O3 0.179444 0.310561 0.110379
O O4 0.458389 0.320670 0.855438
O O5 0.733576 0.883763 0.832877
O O6 0.732362 0.711748 0.746819
O O7 0.914528 0.715220 0.688325
O O8 0.500000 0.000000 0.000000
O O9 0.410871 0.000000 0.960385
O O10 0.784536 0.500000 0.299228
O O11 0.948607 0.612654 0.242501
O O12 0.813598 0.318828 0.560879
O O13 0.916486 0.234966 0.360168
O O14 0.906607 0.112342 0.475589
O O15 0.775674 0.500000 0.667150
O O16 0.000000 0.638084 0.500000
O O17 0.500000 0.500000 0.500000
#
# Coordination Sequence:
#
# PCOD9187995 Si02
#       8
#     8   8   4   4   8   8   8   4
#     4  10  19  35  65  98 137 176 221 271 326 412
#     4  10  20  38  62  97 130 168 231 277 338 404
#     4  12  27  40  64  94 134 185 221 289 354 401
#     4  12  26  46  68  97 145 175 229 292 337 415
#     4  10  23  37  67  95 130 176 221 283 324 410
#     4   9  18  33  57  92 128 167 222 275 324 386
#     4  10  22  39  64 101 135 180 226 268 340 404
#     4  12  27  46  71  98 133 179 236 290 348 403
#
# _framework density 23.551379000000001
#
# number of rings (size 3 to 8) (size 9 to 14) (size 15 to 20)
#    0.000    1.692    2.308    2.308    6.462    2.462 
#    0.000    0.385    0.000    3.692    0.000    0.000 
#    0.000    0.000    0.000    0.000    0.000    0.000 
#
# Total GULP energy -145478.952831 kJ/mol
# GULP energy per Si atom -5595.344340 kJ/mol
# Density = 2.349777 g / cm^3
# Si number density = 23.551379 Si / 1000 Ang^3
#
#
#
# Elastic Constant Matrix: (Units=GPa)
#
#
# Indices 1 2 3 4 5 6 
#
# 1 81.2929 23.2286 65.2725 0.0011 36.1008 0.0000
# 2 23.2286 130.8404 67.8596 0.0010 63.1219 -0.0004
# 3 65.2725 67.8596 164.4688 0.0035 48.5320 -0.0015
# 4 0.0011 0.0010 0.0035 17.8714 -0.0019 20.0236
# 5 36.1008 63.1219 48.5320 -0.0019 60.1796 0.0005
# 6 0.0000 -0.0004 -0.0015 20.0236 0.0005 7.1805
#
#
#
# Elastic Compliance Matrix: (Units=1/GPa)
#
#
# Indices 1 2 3 4 5 6 
#
# 1 0.023209 0.007271 -0.007680 0.000001 -0.015356 -0.000003
# 2 0.007271 0.018319 -0.004576 0.000002 -0.019886 -0.000004
# 3 -0.007680 -0.004576 0.010814 0.000002 0.000686 -0.000003
# 4 0.000001 0.000002 0.000002 -0.026339 -0.000005 0.073449
# 5 -0.015356 -0.019886 0.000686 -0.000005 0.046134 0.000011
# 6 -0.000003 -0.000004 -0.000003 0.073449 0.000011 -0.065554
#
#
# Mechanical properties :
#
#
# Convention : Reuss Voigt Hill
#
# Bulk Modulus (GPa) = 23.60037 76.59149 50.09593
# Shear Modulus (GPa) = 162.99144 31.72905 97.36024
#
# Velocity S-wave (km/s) = 8.32808 3.67444 6.43656
# Velocity P-wave (km/s) = 10.12514 7.11292 8.74963
#
# Compressibility (1/GPa) = 0.04237222
#
# Stress axis : x y z
#
# Youngs Moduli (GPa) = 43.08656 54.58780 92.47616
#
# Poissons Ratio (x) = -0.39689 0.71018
# Poissons Ratio (y) = -0.31327 0.42316
# Poissons Ratio (z) = 0.33089 0.24979
#
# Static dielectric constant tensor:
#      x y z
#    x 1.919990 0.000000 -0.015820 
#    y 0.000000 1.774630 0.000000 
#    z -0.015820 0.000000 1.943290 
# 
# From -- ./inp_files/321562.got.cif
#   From: 2010.05.17/outbox.cif.g08.bks.cpg/sg12_161_cif.got.tgz:321562.got - 2010.06.03 13:09:07.
