data_PCOD9187325
_publ_section_title
;
Structure prediction by ZEFSAII (Michael W. Deem and Ramdas Pophale) SiO2 
 PCOD9187325
Probable space group: C 2/M
;
_chemical_formula_sum "Si O2"
_cell_formula_units_Z 56
_cell_length_a 9.650630
_cell_length_b 23.006490
_cell_length_c 17.718727
_cell_angle_alpha 90.000000
_cell_angle_beta 136.924771
_cell_angle_gamma 90.000000
_cell_volume 2686.782842
_symmetry_space_group_name_H-M "C 2/M"
_symmetry_group_IT_number 12
_symmetry_cell_setting 'monoclinic'
loop_
_space_group_symop_operation_xyz
x,y,z
-x,y,-z
-x,-y,-z
x,-y,z
1/2+x,1/2+y,z
1/2-x,1/2+y,-z
1/2-x,1/2-y,-z
1/2+x,1/2-y,z
loop_
_atom_site_type_symbol
_atom_site_label
_atom_site_fract_x
_atom_site_fract_y
_atom_site_fract_z
Si Si1 0.985173 0.567978 0.174537
Si Si2 0.369818 0.264457 0.623548
Si Si3 0.804094 0.313670 0.302146
Si Si4 0.018324 0.236564 0.923946
Si Si5 0.266740 0.650868 0.209794
Si Si6 0.195447 0.933794 0.917630
Si Si7 0.784920 0.564328 0.258102
O O1 0.043888 0.500000 0.191167
O O2 0.876516 0.574669 0.211601
O O3 0.172430 0.611229 0.237884
O O4 0.829645 0.581129 0.044083
O O5 0.250000 0.250000 0.500000
O O6 0.217396 0.273928 0.632373
O O7 0.532623 0.212080 0.691571
O O8 0.515465 0.321341 0.682896
O O9 0.584171 0.306333 0.176192
O O10 0.846504 0.380877 0.333625
O O11 0.885363 0.295404 0.866037
O O12 0.250000 0.250000 0.000000
O O13 0.000000 0.211559 0.000000
O O14 0.272592 0.610337 0.138258
O O15 0.958481 0.935598 0.843914
O O16 0.251296 0.000000 0.916424
O O17 0.848255 0.500000 0.309546
#
# Coordination Sequence:
#
# PCOD9187325 Si02
#       7
#     8   8   8   8   8   8   8
#     4  10  21  34  56  93 135 183 218 251 307 383
#     4  11  25  46  67  91 119 157 218 285 340 382
#     4  11  24  42  66  95 124 167 216 263 329 390
#     4  11  24  36  54  89 131 169 203 251 315 386
#     4  11  22  37  59  88 126 170 218 263 325 377
#     4  10  19  35  58  89 133 181 222 254 302 385
#     4  10  22  38  60  90 133 176 216 256 305 375
#
# _framework density 20.842770999999999
#
# number of rings (size 3 to 8) (size 9 to 14) (size 15 to 20)
#    0.000    1.429    1.429    4.286    8.000    2.857 
#    0.000    0.000    0.000    3.429    0.000    2.000 
#    0.000    0.000    0.000    0.000    0.000    0.000 
#
# Total GULP energy -156501.499102 kJ/mol
# GULP energy per Si atom -5589.339254 kJ/mol
# Density = 2.079533 g / cm^3
# Si number density = 20.842771 Si / 1000 Ang^3
#
#
#
# Elastic Constant Matrix: (Units=GPa)
#
#
# Indices 1 2 3 4 5 6 
#
# 1 94.6925 33.7756 7.9499 0.0000 -4.3859 0.0000
# 2 33.7756 116.5251 12.4603 0.0000 -6.0503 0.0000
# 3 7.9499 12.4603 54.2062 -0.0001 -7.5657 0.0000
# 4 0.0000 0.0000 -0.0001 8.7783 0.0000 -3.1423
# 5 -4.3859 -6.0503 -7.5657 0.0000 28.6916 0.0000
# 6 0.0000 0.0000 0.0000 -3.1423 0.0000 33.7423
#
#
#
# Elastic Compliance Matrix: (Units=1/GPa)
#
#
# Indices 1 2 3 4 5 6 
#
# 1 0.011850 -0.003297 -0.000856 0.000000 0.000890 0.000000
# 2 -0.003297 0.009768 -0.001604 0.000000 0.001133 0.000000
# 3 -0.000856 -0.001604 0.019598 0.000000 0.004699 0.000000
# 4 0.000000 0.000000 0.000000 0.117846 0.000000 0.010975
# 5 0.000890 0.001133 0.004699 0.000000 0.036467 0.000000
# 6 0.000000 0.000000 0.000000 0.010975 0.000000 0.030658
#
#
# Mechanical properties :
#
#
# Convention : Reuss Voigt Hill
#
# Bulk Modulus (GPa) = 33.66687 41.53284 37.59986
# Shear Modulus (GPa) = 20.19378 28.32497 24.25938
#
# Velocity S-wave (km/s) = 3.11603 3.69044 3.41533
# Velocity P-wave (km/s) = 5.39760 6.17488 5.79927
#
# Compressibility (1/GPa) = 0.02970279
#
# Stress axis : x y z
#
# Youngs Moduli (GPa) = 84.39132 102.37732 51.02546
#
# Poissons Ratio (x) = 0.33753 0.04366
# Poissons Ratio (y) = 0.27823 0.08183
# Poissons Ratio (z) = 0.07221 0.16418
#
# Static dielectric constant tensor:
#      x y z
#    x 1.777140 0.000000 0.024410 
#    y 0.000000 1.801020 0.000000 
#    z 0.024410 0.000000 1.746500 
# 
# From -- ./inp_files/259234.got.cif
#   From: 2010.05.17/outbox.cif.g08.bks.cpg/sg12_130_cif.got.tgz:259234.got - 2010.06.03 13:09:07.
