data_PCOD9187327
_publ_section_title
;
Structure prediction by ZEFSAII (Michael W. Deem and Ramdas Pophale) SiO2 
 PCOD9187327
Probable space group: C 2/M
;
_chemical_formula_sum "Si O2"
_cell_formula_units_Z 58
_cell_length_a 20.538314
_cell_length_b 10.384571
_cell_length_c 16.955164
_cell_angle_alpha 90.000000
_cell_angle_beta 51.868542
_cell_angle_gamma 90.000000
_cell_volume 2844.507907
_symmetry_space_group_name_H-M "C 2/M"
_symmetry_group_IT_number 12
_symmetry_cell_setting 'monoclinic'
loop_
_space_group_symop_operation_xyz
x,y,z
-x,y,-z
-x,-y,-z
x,-y,z
1/2+x,1/2+y,z
1/2-x,1/2+y,-z
1/2-x,1/2-y,-z
1/2+x,1/2-y,z
loop_
_atom_site_type_symbol
_atom_site_label
_atom_site_fract_x
_atom_site_fract_y
_atom_site_fract_z
Si Si1 0.132767 0.851377 0.629308
Si Si2 0.148888 0.189828 0.438440
Si Si3 0.330218 0.147689 0.261283
Si Si4 0.558256 0.640515 0.273002
Si Si5 0.682333 0.643220 0.033463
Si Si6 0.000000 0.000000 0.500000
Si Si7 0.664442 0.354672 0.869024
Si Si8 0.639574 0.139971 0.313657
O O1 0.167801 0.819594 0.516590
O O2 0.153771 0.741964 0.676550
O O3 0.034193 0.848452 0.688922
O O4 0.155700 0.000000 0.634378
O O5 0.230102 0.138859 0.331986
O O6 0.138516 0.330038 0.407591
O O7 0.066567 0.110668 0.482221
O O8 0.362639 0.234334 0.164009
O O9 0.361471 0.000000 0.242876
O O10 0.564971 0.500000 0.310701
O O11 0.617090 0.642804 0.152958
O O12 0.588220 0.751236 0.307848
O O13 0.720875 0.500000 0.001880
O O14 0.750000 0.750000 0.000000
O O15 0.643011 0.663781 0.976742
O O16 0.636965 0.500000 0.864659
O O17 0.764949 0.355690 0.786876
O O18 0.605689 0.000000 0.321060
#
# Coordination Sequence:
#
# PCOD9187327 Si02
#       8
#     8   8   8   8   8   2   8   8
#     4  11  23  41  60  85 118 164 208 250 306 353
#     4  11  23  37  62  87 122 159 200 244 304 366
#     4  11  23  40  60  89 116 156 211 254 295 356
#     4  10  22  36  59  89 120 158 203 249 303 368
#     4  10  19  35  58  90 123 156 199 252 311 375
#     4  12  20  40  62  92 120 152 194 266 300 356
#     4   9  19  36  58  85 120 159 195 245 308 365
#     4  10  21  35  56  88 126 157 194 247 309 361
#
# _framework density 20.390170000000001
#
# number of rings (size 3 to 8) (size 9 to 14) (size 15 to 20)
#    0.000    1.655    2.759    1.655    2.897    2.759 
#    0.000    3.103    0.000    4.138    0.000    0.000 
#    0.000    0.000    0.000    0.000    0.000    0.000 
#
# Total GULP energy -161632.909897 kJ/mol
# GULP energy per Si atom -5573.548617 kJ/mol
# Density = 2.034376 g / cm^3
# Si number density = 20.390170 Si / 1000 Ang^3
#
#
#
# Elastic Constant Matrix: (Units=GPa)
#
#
# Indices 1 2 3 4 5 6 
#
# 1 40.0992 42.4092 -4.3723 0.0000 13.3158 0.0000
# 2 42.4092 179.2974 45.7263 0.0000 32.6638 0.0000
# 3 -4.3723 45.7263 41.5518 0.0000 16.9653 0.0000
# 4 0.0000 0.0000 0.0000 22.7362 0.0000 6.1837
# 5 13.3158 32.6638 16.9653 0.0000 30.1032 0.0000
# 6 0.0000 0.0000 0.0000 6.1837 0.0000 28.0510
#
#
#
# Elastic Compliance Matrix: (Units=1/GPa)
#
#
# Indices 1 2 3 4 5 6 
#
# 1 0.056324 -0.017806 0.036116 0.000000 -0.025948 0.000000
# 2 -0.017806 0.013926 -0.018502 0.000000 0.003193 0.000000
# 3 0.036116 -0.018502 0.060467 0.000000 -0.029977 0.000000
# 4 0.000000 0.000000 0.000000 0.046788 0.000000 -0.010314
# 5 -0.025948 0.003193 -0.029977 0.000000 0.058126 0.000000
# 6 0.000000 0.000000 0.000000 -0.010314 0.000000 0.037923
#
#
# Mechanical properties :
#
#
# Convention : Reuss Voigt Hill
#
# Bulk Modulus (GPa) = 7.67269 47.60833 27.64051
# Shear Modulus (GPa) = 15.75380 27.99043 21.87212
#
# Velocity S-wave (km/s) = 2.78262 3.70907 3.27873
# Velocity P-wave (km/s) = 3.75434 6.46083 5.28381
#
# Compressibility (1/GPa) = 0.13033245
#
# Stress axis : x y z
#
# Youngs Moduli (GPa) = 17.75429 71.80858 16.53790
#
# Poissons Ratio (x) = 1.27862 -0.59728
# Poissons Ratio (y) = 0.31613 0.30599
# Poissons Ratio (z) = -0.64121 1.32863
#
# Static dielectric constant tensor:
#      x y z
#    x 1.708510 0.000000 -0.000030 
#    y 0.000000 1.745600 0.000000 
#    z -0.000030 0.000000 1.574170 
# 
# From -- ./inp_files/282172.got.cif
#   From: 2010.05.17/outbox.cif.g08.bks.cpg/sg12_142_cif.got.tgz:282172.got - 2010.06.03 13:09:07.
