data_PCOD9187220
_publ_section_title
;
Structure prediction by ZEFSAII (Michael W. Deem and Ramdas Pophale) SiO2 
 PCOD9187220
Probable space group: C 2/M
;
_chemical_formula_sum "Si O2"
_cell_formula_units_Z 44
_cell_length_a 17.317997
_cell_length_b 12.332666
_cell_length_c 11.170398
_cell_angle_alpha 90.000000
_cell_angle_beta 69.728318
_cell_angle_gamma 90.000000
_cell_volume 2237.968808
_symmetry_space_group_name_H-M "C 2/M"
_symmetry_group_IT_number 12
_symmetry_cell_setting 'monoclinic'
loop_
_space_group_symop_operation_xyz
x,y,z
-x,y,-z
-x,-y,-z
x,-y,z
1/2+x,1/2+y,z
1/2-x,1/2+y,-z
1/2-x,1/2-y,-z
1/2+x,1/2-y,z
loop_
_atom_site_type_symbol
_atom_site_label
_atom_site_fract_x
_atom_site_fract_y
_atom_site_fract_z
Si Si1 0.036720 0.626355 0.239862
Si Si2 0.282947 0.772076 0.849658
Si Si3 0.372496 0.622915 0.160531
Si Si4 0.619251 0.751522 0.605563
Si Si5 0.500000 0.209126 0.000000
Si Si6 0.274156 0.372424 0.635514
O O1 0.042803 0.500000 0.266405
O O2 0.124451 0.684810 0.201938
O O3 0.008123 0.640656 0.116437
O O4 0.966823 0.686517 0.354713
O O5 0.222825 0.859463 0.819586
O O6 0.273244 0.665060 0.773463
O O7 0.250000 0.750000 0.000000
O O8 0.397925 0.500000 0.124781
O O9 0.387528 0.658400 0.289239
O O10 0.422710 0.710134 0.055865
O O11 0.654514 0.696209 0.468277
O O12 0.689048 0.833704 0.618914
O O13 0.285134 0.500000 0.616096
#
# Coordination Sequence:
#
# PCOD9187220 Si02
#       6
#     8   8   8   8   4   8
#     4  11  22  39  61  86 120 158 196 253 306 348
#     4  11  23  40  55  89 126 156 205 243 288 368
#     4  10  19  35  58  83 120 159 191 243 301 345
#     4   9  21  39  62  94 118 147 212 252 290 366
#     4  10  20  36  56  88 116 148 208 246 282 366
#     4  10  21  41  66  88 121 162 197 250 306 353
#
# _framework density 19.660684
#
# number of rings (size 3 to 8) (size 9 to 14) (size 15 to 20)
#    0.000    1.818    1.818    2.182    0.000    2.182 
#    0.000    6.364    0.000    0.000    0.000    0.000 
#    0.000    0.000    0.000    0.000    0.000    0.000 
#
# Total GULP energy -122897.290497 kJ/mol
# GULP energy per Si atom -5586.240477 kJ/mol
# Density = 1.961594 g / cm^3
# Si number density = 19.660684 Si / 1000 Ang^3
#
#
#
# Elastic Constant Matrix: (Units=GPa)
#
#
# Indices 1 2 3 4 5 6 
#
# 1 105.1354 43.4809 24.2702 0.0000 -28.9043 0.0000
# 2 43.4809 111.4723 34.6470 0.0000 -7.3983 0.0000
# 3 24.2702 34.6470 95.6507 0.0000 -15.2585 0.0000
# 4 0.0000 0.0000 0.0000 8.1530 0.0000 -2.1582
# 5 -28.9043 -7.3983 -15.2585 0.0000 33.1910 0.0000
# 6 0.0000 0.0000 0.0000 -2.1582 0.0000 7.8659
#
#
#
# Elastic Compliance Matrix: (Units=1/GPa)
#
#
# Indices 1 2 3 4 5 6 
#
# 1 0.014821 -0.004975 -0.000083 0.000000 0.011760 0.000000
# 2 -0.004975 0.011791 -0.003540 0.000000 -0.003332 0.000000
# 3 -0.000083 -0.003540 0.012540 0.000000 0.004904 0.000000
# 4 0.000000 0.000000 0.000000 0.132261 0.000000 0.036290
# 5 0.011760 -0.003332 0.004904 0.000000 0.041882 0.000000
# 6 0.000000 0.000000 0.000000 0.036290 0.000000 0.137089
#
#
# Mechanical properties :
#
#
# Convention : Reuss Voigt Hill
#
# Bulk Modulus (GPa) = 45.54385 57.45053 51.49719
# Shear Modulus (GPa) = 13.33696 23.83265 18.58481
#
# Velocity S-wave (km/s) = 2.60735 3.48544 3.07787
# Velocity P-wave (km/s) = 5.68152 6.74405 6.23546
#
# Compressibility (1/GPa) = 0.02195686
#
# Stress axis : x y z
#
# Youngs Moduli (GPa) = 67.47042 84.81381 79.74339
#
# Poissons Ratio (x) = 0.42195 0.00659
# Poissons Ratio (y) = 0.33567 0.28229
# Poissons Ratio (z) = 0.00558 0.30024
#
# Static dielectric constant tensor:
#      x y z
#    x 1.701110 0.000000 -0.006180 
#    y 0.000000 1.637250 0.000000 
#    z -0.006180 0.000000 1.710370 
# 
# From -- ./inp_files/153419.got.cif
#   From: 2010.05.17/outbox.cif.g08.bks.cpg/sg12_77_cif.got.tgz:153419.got - 2010.06.03 13:09:07.
