data_PCOD9187792
_publ_section_title
;
Structure prediction by ZEFSAII (Michael W. Deem and Ramdas Pophale) SiO2 
 PCOD9187792
Probable space group: C 2/M
;
_chemical_formula_sum "Si O2"
_cell_formula_units_Z 40
_cell_length_a 8.562917
_cell_length_b 27.471831
_cell_length_c 12.760354
_cell_angle_alpha 90.000000
_cell_angle_beta 138.240489
_cell_angle_gamma 90.000000
_cell_volume 1999.170708
_symmetry_space_group_name_H-M "C 2/M"
_symmetry_group_IT_number 12
_symmetry_cell_setting 'monoclinic'
loop_
_space_group_symop_operation_xyz
x,y,z
-x,y,-z
-x,-y,-z
x,-y,z
1/2+x,1/2+y,z
1/2-x,1/2+y,-z
1/2-x,1/2-y,-z
1/2+x,1/2-y,z
loop_
_atom_site_type_symbol
_atom_site_label
_atom_site_fract_x
_atom_site_fract_y
_atom_site_fract_z
Si Si1 0.381960 0.300643 0.055815
Si Si2 0.748397 0.701833 0.428603
Si Si3 0.732540 0.000000 0.045095
Si Si4 0.731568 0.500000 0.417084
Si Si5 0.368394 0.101107 0.547439
Si Si6 0.258585 0.900979 0.079988
O O1 0.562925 0.300601 0.242054
O O2 0.500000 0.300255 0.000000
O O3 0.250000 0.250000 0.000000
O O4 0.233266 0.350758 0.982016
O O5 0.750000 0.750000 0.500000
O O6 0.725813 0.651378 0.481150
O O7 0.000000 0.701864 0.500000
O O8 0.500000 0.000000 0.000000
O O9 0.712414 0.049605 0.969172
O O10 0.997828 0.000000 0.227674
O O11 0.726962 0.550629 0.477991
O O12 0.000000 0.500000 0.500000
O O13 0.500000 0.101609 0.500000
O O14 0.558231 0.101352 0.733897
O O15 0.000000 0.903265 0.000000
#
# Coordination Sequence:
#
# PCOD9187792 Si02
#       6
#     8   8   4   4   8   8
#     4  11  22  38  61  90 121 160 207 257 307 368
#     4  11  21  37  57  85 119 155 196 247 302 359
#     4  12  26  42  61  93 131 163 201 265 326 368
#     4  10  19  38  64  87 114 157 201 245 301 370
#     4  10  19  35  61  90 113 146 200 257 297 352
#     4  11  21  39  64  90 117 162 214 253 302 381
#
# _framework density 20.008295
#
# number of rings (size 3 to 8) (size 9 to 14) (size 15 to 20)
#    0.000    1.200    0.000   11.700    0.000    0.800 
#    0.000    8.000    0.000    0.000    0.000    0.000 
#    0.000    0.000    0.000    0.000    0.000    0.000 
#
# Total GULP energy -111593.916214 kJ/mol
# GULP energy per Si atom -5579.695811 kJ/mol
# Density = 1.996276 g / cm^3
# Si number density = 20.008295 Si / 1000 Ang^3
#
#
#
# Elastic Constant Matrix: (Units=GPa)
#
#
# Indices 1 2 3 4 5 6 
#
# 1 39.3317 48.6267 27.4555 0.0000 -0.5255 0.0000
# 2 48.6267 266.0222 108.6226 0.0000 -14.7487 0.0000
# 3 27.4555 108.6226 252.6968 0.0000 -9.6940 0.0000
# 4 0.0000 0.0000 0.0000 44.4618 0.0000 -3.6346
# 5 -0.5255 -14.7487 -9.6940 0.0000 18.3987 0.0000
# 6 0.0000 0.0000 0.0000 -3.6346 0.0000 26.1010
#
#
#
# Elastic Compliance Matrix: (Units=1/GPa)
#
#
# Indices 1 2 3 4 5 6 
#
# 1 0.033487 -0.005835 -0.001299 0.000000 -0.004405 0.000000
# 2 -0.005835 0.005709 -0.001685 0.000000 0.003522 0.000000
# 3 -0.001299 -0.001685 0.004868 0.000000 0.001177 0.000000
# 4 0.000000 0.000000 0.000000 0.022750 0.000000 0.003168
# 5 -0.004405 0.003522 0.001177 0.000000 0.057669 0.000000
# 6 0.000000 0.000000 0.000000 0.003168 0.000000 0.038754
#
#
# Mechanical properties :
#
#
# Convention : Reuss Voigt Hill
#
# Bulk Modulus (GPa) = 37.84228 103.05114 70.44671
# Shear Modulus (GPa) = 26.35978 42.68204 34.52091
#
# Velocity S-wave (km/s) = 3.63360 4.62369 4.15822
# Velocity P-wave (km/s) = 6.04635 8.95101 7.63803
#
# Compressibility (1/GPa) = 0.02642547
#
# Stress axis : x y z
#
# Youngs Moduli (GPa) = 29.86272 175.16515 205.42758
#
# Poissons Ratio (x) = 1.02206 0.26689
# Poissons Ratio (y) = 0.17424 0.34613
# Poissons Ratio (z) = 0.03880 0.29514
#
# Static dielectric constant tensor:
#      x y z
#    x 1.743310 0.000000 -0.006680 
#    y 0.000000 1.773000 0.000000 
#    z -0.006680 0.000000 1.722040 
# 
# From -- ./inp_files/125517.got.cif
#   From: 2010.05.17/outbox.cif.g08.bks.cpg/sg12_63_cif.got.tgz:125517.got - 2010.06.03 13:09:07.
