data_PCOD9187040
_publ_section_title
;
Structure prediction by ZEFSAII (Michael W. Deem and Ramdas Pophale) SiO2 
 PCOD9187040
Probable space group: C 2/M
;
_chemical_formula_sum "Si O2"
_cell_formula_units_Z 64
_cell_length_a 26.025293
_cell_length_b 9.000873
_cell_length_c 14.848196
_cell_angle_alpha 90.000000
_cell_angle_beta 78.100587
_cell_angle_gamma 90.000000
_cell_volume 3403.452618
_symmetry_space_group_name_H-M "C 2/M"
_symmetry_group_IT_number 12
_symmetry_cell_setting 'monoclinic'
loop_
_space_group_symop_operation_xyz
x,y,z
-x,y,-z
-x,-y,-z
x,-y,z
1/2+x,1/2+y,z
1/2-x,1/2+y,-z
1/2-x,1/2-y,-z
1/2+x,1/2-y,z
loop_
_atom_site_type_symbol
_atom_site_label
_atom_site_fract_x
_atom_site_fract_y
_atom_site_fract_z
Si Si1 0.205895 0.177321 0.293268
Si Si2 0.232396 0.323532 0.913785
Si Si3 0.496540 0.822349 0.291209
Si Si4 0.095631 0.321499 0.380131
Si Si5 0.638934 0.670832 0.853771
Si Si6 0.100116 0.179095 0.572430
Si Si7 0.973056 0.322168 0.102452
Si Si8 0.298934 0.328239 0.358018
O O1 0.230631 0.211814 0.185916
O O2 0.150709 0.259085 0.324028
O O3 0.247537 0.233081 0.353598
O O4 0.199451 0.000000 0.303556
O O5 0.231662 0.500000 0.923796
O O6 0.175429 0.263130 0.907477
O O7 0.250000 0.250000 0.000000
O O8 0.546998 0.782496 0.332657
O O9 0.444500 0.738916 0.344071
O O10 0.505076 0.791600 0.182355
O O11 0.487721 0.000000 0.304506
O O12 0.097723 0.500000 0.387103
O O13 0.087617 0.248197 0.480336
O O14 0.636027 0.500000 0.883698
O O15 0.582284 0.742300 0.867976
O O16 0.666877 0.674319 0.746302
O O17 0.159166 0.223296 0.582326
O O18 0.098975 0.000000 0.571133
O O19 0.964907 0.500000 0.100938
O O20 0.000000 0.274889 0.000000
O O21 0.284020 0.500000 0.381411
#
# Coordination Sequence:
#
# PCOD9187040 Si02
#       8
#     8   8   8   8   8   8   8   8
#     4  10  22  39  59  86 118 153 196 244 295 348
#     4  10  21  37  59  87 116 152 197 242 293 353
#     4  10  22  40  60  83 117 157 199 243 293 356
#     4  11  24  40  58  84 120 163 200 240 297 357
#     4  10  19  35  57  83 114 149 191 241 294 349
#     4  11  22  38  62  90 116 151 199 248 298 352
#     4  10  21  37  58  86 117 152 195 242 296 355
#     4   9  19  36  59  85 114 149 190 237 294 354
#
# _framework density 18.804433
#
# number of rings (size 3 to 8) (size 9 to 14) (size 15 to 20)
#    0.000    1.875    1.250    2.250    0.000    7.250 
#    0.000    1.250    0.000    0.000    0.000    0.000 
#    0.000    0.000    0.000    0.000    0.000    0.000 
#
# Total GULP energy -178719.388423 kJ/mol
# GULP energy per Si atom -5584.980888 kJ/mol
# Density = 1.876163 g / cm^3
# Si number density = 18.804433 Si / 1000 Ang^3
#
#
#
# Elastic Constant Matrix: (Units=GPa)
#
#
# Indices 1 2 3 4 5 6 
#
# 1 89.6332 32.5122 43.1620 0.0000 17.7299 0.0000
# 2 32.5122 40.2776 41.4170 0.0000 7.9401 0.0000
# 3 43.1620 41.4170 102.4105 0.0000 22.2096 0.0000
# 4 0.0000 0.0000 0.0000 27.3910 0.0000 -1.6054
# 5 17.7299 7.9401 22.2096 0.0000 23.5678 0.0000
# 6 0.0000 0.0000 0.0000 -1.6054 0.0000 33.5087
#
#
#
# Elastic Compliance Matrix: (Units=1/GPa)
#
#
# Indices 1 2 3 4 5 6 
#
# 1 0.017409 -0.011513 -0.000857 0.000000 -0.008410 0.000000
# 2 -0.011513 0.050222 -0.017178 0.000000 0.007930 0.000000
# 3 -0.000857 -0.017178 0.019705 0.000000 -0.012138 0.000000
# 4 0.000000 0.000000 0.000000 0.036611 0.000000 0.001754
# 5 -0.008410 0.007930 -0.012138 0.000000 0.057524 0.000000
# 6 0.000000 0.000000 0.000000 0.001754 0.000000 0.029927
#
#
# Mechanical properties :
#
#
# Convention : Reuss Voigt Hill
#
# Bulk Modulus (GPa) = 35.41157 51.83374 43.62265
# Shear Modulus (GPa) = 17.86291 24.57551 21.21921
#
# Velocity S-wave (km/s) = 3.08544 3.61903 3.36283
# Velocity P-wave (km/s) = 5.61833 6.71473 6.19085
#
# Compressibility (1/GPa) = 0.02823936
#
# Stress axis : x y z
#
# Youngs Moduli (GPa) = 57.44127 19.91147 50.74778
#
# Poissons Ratio (x) = 0.22925 0.04349
# Poissons Ratio (y) = 0.66135 0.87175
# Poissons Ratio (z) = 0.04923 0.34204
#
# Static dielectric constant tensor:
#      x y z
#    x 1.626310 0.000000 0.004290 
#    y 0.000000 1.626490 0.000000 
#    z 0.004290 0.000000 1.666810 
# 
# From -- ./inp_files/238643.got.cif
#   From: 2010.05.17/outbox.cif.g08.bks.cpg/sg12_120_cif.got.tgz:238643.got - 2010.06.03 13:09:07.
