data_PCOD9187566
_publ_section_title
;
Structure prediction by ZEFSAII (Michael W. Deem and Ramdas Pophale) SiO2 
 PCOD9187566
Probable space group: C 2/M
;
_chemical_formula_sum "Si O2"
_cell_formula_units_Z 52
_cell_length_a 11.336289
_cell_length_b 15.894641
_cell_length_c 21.673313
_cell_angle_alpha 90.000000
_cell_angle_beta 35.372024
_cell_angle_gamma 90.000000
_cell_volume 2260.673299
_symmetry_space_group_name_H-M "C 2/M"
_symmetry_group_IT_number 12
_symmetry_cell_setting 'monoclinic'
loop_
_space_group_symop_operation_xyz
x,y,z
-x,y,-z
-x,-y,-z
x,-y,z
1/2+x,1/2+y,z
1/2-x,1/2+y,-z
1/2-x,1/2-y,-z
1/2+x,1/2-y,z
loop_
_atom_site_type_symbol
_atom_site_label
_atom_site_fract_x
_atom_site_fract_y
_atom_site_fract_z
Si Si1 0.651824 0.903541 0.255307
Si Si2 0.430008 0.095180 0.166420
Si Si3 0.338850 0.905036 0.614123
Si Si4 0.000000 0.648708 0.000000
Si Si5 0.354215 0.778362 0.832547
Si Si6 0.325258 0.598176 0.525545
Si Si7 0.976844 0.152949 0.337435
O O1 0.689273 0.865915 0.307286
O O2 0.762494 0.849173 0.157138
O O3 0.405799 0.901720 0.350515
O O4 0.719384 0.000000 0.224987
O O5 0.535511 0.169335 0.160896
O O6 0.191323 0.117117 0.268303
O O7 0.466885 0.000000 0.174690
O O8 0.488941 0.099411 0.069037
O O9 0.500000 0.861829 0.500000
O O10 0.134303 0.908451 0.662979
O O11 0.418930 0.000000 0.592854
O O12 0.200013 0.707197 0.919664
O O13 0.491228 0.733926 0.720185
O O14 0.500000 0.621646 0.500000
O O15 0.364331 0.500000 0.491092
O O16 0.343706 0.654551 0.456403
#
# Coordination Sequence:
#
# PCOD9187566 Si02
#       7
#     8   8   8   4   8   8   8
#     4  10  21  38  60  88 125 171 214 254 308 376
#     4  11  23  45  72  97 126 165 214 262 318 393
#     4  10  19  36  60  86 127 173 217 261 305 364
#     4  10  25  46  71  96 128 158 206 266 341 390
#     4  11  25  43  67  93 130 163 204 269 332 384
#     4  10  19  35  59  91 131 174 220 263 306 366
#     4  11  23  37  64  95 131 170 216 258 319 369
#
# _framework density 23.001996999999999
#
# number of rings (size 3 to 8) (size 9 to 14) (size 15 to 20)
#    0.000    1.538    1.538    3.462    4.308    1.846 
#    0.000    1.538    0.000    0.000    0.000    0.000 
#    0.000    0.000    0.000    0.000    0.000    0.000 
#
# Total GULP energy -145187.990371 kJ/mol
# GULP energy per Si atom -5584.153476 kJ/mol
# Density = 2.294964 g / cm^3
# Si number density = 23.001997 Si / 1000 Ang^3
#
#
#
# Elastic Constant Matrix: (Units=GPa)
#
#
# Indices 1 2 3 4 5 6 
#
# 1 109.4001 15.5806 -7.7361 0.0009 8.0475 -0.0010
# 2 15.5806 100.0097 21.6366 -0.0004 4.4022 -0.0014
# 3 -7.7361 21.6366 35.7292 -0.0025 16.9097 -0.0038
# 4 0.0009 -0.0004 -0.0025 16.8373 -0.0003 9.9520
# 5 8.0475 4.4022 16.9097 -0.0003 26.0930 0.0010
# 6 -0.0010 -0.0014 -0.0038 9.9520 0.0010 21.1864
#
#
#
# Elastic Compliance Matrix: (Units=1/GPa)
#
#
# Indices 1 2 3 4 5 6 
#
# 1 0.010713 -0.003029 0.007898 -0.000001 -0.007911 0.000003
# 2 -0.003029 0.012618 -0.011152 0.000000 0.006033 -0.000001
# 3 0.007898 -0.011152 0.052956 0.000000 -0.034873 0.000011
# 4 -0.000001 0.000000 0.000000 0.082220 0.000003 -0.038622
# 5 -0.007911 0.006033 -0.034873 0.000003 0.062346 -0.000011
# 6 0.000003 -0.000001 0.000011 -0.038622 -0.000011 0.065342
#
#
# Mechanical properties :
#
#
# Convention : Reuss Voigt Hill
#
# Bulk Modulus (GPa) = 15.69357 33.78903 24.74130
# Shear Modulus (GPa) = 15.62487 27.20054 21.41271
#
# Velocity S-wave (km/s) = 2.60913 3.44252 3.05439
# Velocity P-wave (km/s) = 3.98927 5.52474 4.81856
#
# Compressibility (1/GPa) = 0.06372038
#
# Stress axis : x y z
#
# Youngs Moduli (GPa) = 93.34725 79.25065 18.88344
#
# Poissons Ratio (x) = 0.24009 -0.14915
# Poissons Ratio (y) = 0.28279 0.21059
# Poissons Ratio (z) = -0.73728 0.88383
#
# Static dielectric constant tensor:
#      x y z
#    x 1.853370 0.000000 0.018810 
#    y 0.000000 1.968140 0.000000 
#    z 0.018810 0.000000 1.868200 
# 
# From -- ./inp_files/306145.got.cif
#   From: 2010.05.17/outbox.cif.g08.bks.cpg/sg12_154_cif.got.tgz:306145.got - 2010.06.03 13:09:07.
