data_PCOD9187927
_publ_section_title
;
Structure prediction by ZEFSAII (Michael W. Deem and Ramdas Pophale) SiO2 
 PCOD9187927
Probable space group: C 2/M
;
_chemical_formula_sum "Si O2"
_cell_formula_units_Z 46
_cell_length_a 15.890565
_cell_length_b 18.635215
_cell_length_c 9.948993
_cell_angle_alpha 90.000000
_cell_angle_beta 42.181710
_cell_angle_gamma 90.000000
_cell_volume 1978.283776
_symmetry_space_group_name_H-M "C 2/M"
_symmetry_group_IT_number 12
_symmetry_cell_setting 'monoclinic'
loop_
_space_group_symop_operation_xyz
x,y,z
-x,y,-z
-x,-y,-z
x,-y,z
1/2+x,1/2+y,z
1/2-x,1/2+y,-z
1/2-x,1/2-y,-z
1/2+x,1/2-y,z
loop_
_atom_site_type_symbol
_atom_site_label
_atom_site_fract_x
_atom_site_fract_y
_atom_site_fract_z
Si Si1 0.693804 0.605100 0.748024
Si Si2 0.059045 0.770451 0.271692
Si Si3 0.000000 0.500000 0.500000
Si Si4 0.211270 0.260010 0.818076
Si Si5 0.969142 0.609514 0.337242
Si Si6 0.000000 0.370194 0.000000
Si Si7 0.474476 0.577803 0.801484
O O1 0.697824 0.691573 0.739106
O O2 0.831606 0.581643 0.542374
O O3 0.592826 0.578669 0.761457
O O4 0.643530 0.584951 0.955552
O O5 0.147116 0.773221 0.299920
O O6 0.009510 0.851121 0.307124
O O7 0.985417 0.694366 0.348047
O O8 0.143199 0.760519 0.037700
O O9 0.054529 0.563296 0.333828
O O10 0.127833 0.322787 0.853956
O O11 0.994825 0.593333 0.151155
O O12 0.466979 0.500000 0.741699
#
# Coordination Sequence:
#
# PCOD9187927 Si02
#       7
#     8   8   2   8   8   4   8
#     4  10  19  35  62  96 134 177 231 287 343 394
#     4   9  19  37  59  95 138 182 229 271 347 409
#     4  12  28  42  68  98 130 174 236 290 352 414
#     4   9  17  34  61  89 135 183 226 282 329 414
#     4  11  24  42  66 101 142 183 233 293 348 428
#     4  10  22  41  64  98 139 184 230 278 363 414
#     4  10  21  37  63 101 141 176 231 296 340 410
#
# _framework density 23.252479000000001
#
# number of rings (size 3 to 8) (size 9 to 14) (size 15 to 20)
#    0.000    2.087    0.000    5.217    2.435    4.522 
#    0.000    0.000    1.913    0.000    0.000    6.696 
#    0.000    0.000    0.000    0.000    0.000    0.000 
#
# Total GULP energy -128088.263050 kJ/mol
# GULP energy per Si atom -5569.054915 kJ/mol
# Density = 2.319956 g / cm^3
# Si number density = 23.252479 Si / 1000 Ang^3
#
#
#
# Elastic Constant Matrix: (Units=GPa)
#
#
# Indices 1 2 3 4 5 6 
#
# 1 93.3002 46.7141 29.7768 0.0000 10.8341 0.0002
# 2 46.7141 183.5816 40.9521 0.0000 13.2659 0.0001
# 3 29.7768 40.9521 81.4565 0.0000 2.4036 0.0003
# 4 0.0000 0.0000 0.0000 55.6258 0.0000 -195.9454
# 5 10.8341 13.2659 2.4036 0.0000 45.7728 -0.0002
# 6 0.0002 0.0001 0.0003 -195.9454 -0.0002 1006.0256
#
#
#
# Elastic Compliance Matrix: (Units=1/GPa)
#
#
# Indices 1 2 3 4 5 6 
#
# 1 0.013344 -0.002431 -0.003589 0.000000 -0.002265 0.000000
# 2 -0.002431 0.006700 -0.002443 0.000000 -0.001238 0.000000
# 3 -0.003589 -0.002443 0.014794 0.000000 0.000781 0.000000
# 4 0.000000 0.000000 0.000000 0.057270 0.000000 0.011155
# 5 -0.002265 -0.001238 0.000781 0.000000 0.022701 0.000000
# 6 0.000000 0.000000 0.000000 0.011155 0.000000 0.003167
#
#
# Mechanical properties :
#
#
# Convention : Reuss Voigt Hill
#
# Bulk Modulus (GPa) = 55.83074 65.91381 60.87228
# Shear Modulus (GPa) = 35.49316 237.54455 136.51885
#
# Velocity S-wave (km/s) = 3.91119 10.11833 7.67066
# Velocity P-wave (km/s) = 6.66778 12.84196 10.23170
#
# Compressibility (1/GPa) = 0.01791128
#
# Stress axis : x y z
#
# Youngs Moduli (GPa) = 74.94145 149.24672 67.59642
#
# Poissons Ratio (x) = 0.36285 0.24259
# Poissons Ratio (y) = 0.18220 0.16516
# Poissons Ratio (z) = 0.26894 0.36465
#
# Static dielectric constant tensor:
#      x y z
#    x 1.990500 0.000000 -0.052610 
#    y 0.000000 1.910410 0.000000 
#    z -0.052610 0.000000 1.913840 
# 
# From -- ./inp_files/159140.got.cif
#   From: 2010.05.17/outbox.cif.g08.bks.cpg/sg12_80_cif.got.tgz:159140.got - 2010.06.03 13:09:07.
