data_PCOD9187826
_publ_section_title
;
Structure prediction by ZEFSAII (Michael W. Deem and Ramdas Pophale) SiO2 
 PCOD9187826
Probable space group: C 2/M
;
_chemical_formula_sum "Si O2"
_cell_formula_units_Z 48
_cell_length_a 16.227716
_cell_length_b 31.132345
_cell_length_c 7.891294
_cell_angle_alpha 90.000000
_cell_angle_beta 145.482135
_cell_angle_gamma 90.000000
_cell_volume 2259.136369
_symmetry_space_group_name_H-M "C 2/M"
_symmetry_group_IT_number 12
_symmetry_cell_setting 'monoclinic'
loop_
_space_group_symop_operation_xyz
x,y,z
-x,y,-z
-x,-y,-z
x,-y,z
1/2+x,1/2+y,z
1/2-x,1/2+y,-z
1/2-x,1/2-y,-z
1/2+x,1/2-y,z
loop_
_atom_site_type_symbol
_atom_site_label
_atom_site_fract_x
_atom_site_fract_y
_atom_site_fract_z
Si Si1 0.089886 0.725968 0.309276
Si Si2 0.725847 0.779388 0.119331
Si Si3 0.170784 0.451890 0.345134
Si Si4 0.329804 0.546216 0.255659
Si Si5 0.302395 0.134020 0.043743
Si Si6 0.378411 0.864996 0.554215
O O1 0.202712 0.756257 0.596755
O O2 0.146308 0.677309 0.371142
O O3 0.000000 0.745692 0.000000
O O4 0.948807 0.716351 0.184295
O O5 0.750000 0.750000 0.000000
O O6 0.783899 0.827588 0.193228
O O7 0.193509 0.500000 0.460495
O O8 0.278545 0.449501 0.365243
O O9 0.189268 0.408995 0.489118
O O10 0.000000 0.450849 0.000000
O O11 0.500000 0.545262 0.500000
O O12 0.267579 0.500000 0.093664
O O13 0.269613 0.588044 0.065503
O O14 0.450186 0.126420 0.187005
O O15 0.326366 0.147971 0.278314
#
# Coordination Sequence:
#
# PCOD9187826 Si02
#       6
#     8   8   8   8   8   8
#     4  11  23  39  62  91 128 165 211 271 326 382
#     4  11  22  41  63  90 125 171 215 263 322 391
#     4  10  19  35  61  92 123 161 210 260 312 380
#     4  10  22  40  61  89 127 167 208 260 323 384
#     4  10  21  37  61  90 122 165 217 262 319 382
#     4  10  20  36  61  92 122 160 210 273 320 370
#
# _framework density 21.247059
#
# number of rings (size 3 to 8) (size 9 to 14) (size 15 to 20)
#    0.000    1.667    3.333    1.500    2.333    2.000 
#    0.000    2.500    0.000    3.000    0.000    0.000 
#    0.000    0.000    0.000    0.000    0.000    0.000 
#
# Total GULP energy -133678.909142 kJ/mol
# GULP energy per Si atom -5569.954548 kJ/mol
# Density = 2.119870 g / cm^3
# Si number density = 21.247059 Si / 1000 Ang^3
#
#
#
# Elastic Constant Matrix: (Units=GPa)
#
#
# Indices 1 2 3 4 5 6 
#
# 1 78.0218 24.1295 18.7542 0.0000 4.5442 0.0000
# 2 24.1295 154.5789 60.4059 0.0000 -10.7354 0.0000
# 3 18.7542 60.4059 68.8445 0.0000 -10.5963 0.0000
# 4 0.0000 0.0000 0.0000 31.3298 0.0000 -2.3114
# 5 4.5442 -10.7354 -10.5963 0.0000 33.2544 0.0000
# 6 0.0000 0.0000 0.0000 -2.3114 0.0000 32.8055
#
#
#
# Elastic Compliance Matrix: (Units=1/GPa)
#
#
# Indices 1 2 3 4 5 6 
#
# 1 0.014177 -0.001119 -0.003401 0.000000 -0.003382 0.000000
# 2 -0.001119 0.009939 -0.008306 0.000000 0.000715 0.000000
# 3 -0.003401 -0.008306 0.023554 0.000000 0.005289 0.000000
# 4 0.000000 0.000000 0.000000 0.032085 0.000000 0.002261
# 5 -0.003382 0.000715 0.005289 0.000000 0.032449 0.000000
# 6 0.000000 0.000000 0.000000 0.002261 0.000000 0.030642
#
#
# Mechanical properties :
#
#
# Convention : Reuss Voigt Hill
#
# Bulk Modulus (GPa) = 45.41599 56.44717 50.93158
# Shear Modulus (GPa) = 28.43505 32.68830 30.56168
#
# Velocity S-wave (km/s) = 3.66225 3.92661 3.79673
# Velocity P-wave (km/s) = 6.26932 6.86894 6.57597
#
# Compressibility (1/GPa) = 0.02201868
#
# Stress axis : x y z
#
# Youngs Moduli (GPa) = 70.53448 100.60990 42.45560
#
# Poissons Ratio (x) = 0.11258 0.14439
# Poissons Ratio (y) = 0.07893 0.35264
# Poissons Ratio (z) = 0.23988 0.83569
#
# Static dielectric constant tensor:
#      x y z
#    x 1.908030 0.000000 -0.011230 
#    y 0.000000 1.922590 0.000000 
#    z -0.011230 0.000000 1.771190 
# 
# From -- ./inp_files/80845.got.cif
#   From: 2010.05.17/outbox.cif.g08.bks.cpg/sg12_41_cif.got.tgz:80845.got - 2010.06.03 13:09:07.
