data_PCOD9187896
_publ_section_title
;
Structure prediction by ZEFSAII (Michael W. Deem and Ramdas Pophale) SiO2 
 PCOD9187896
Probable space group: C 2/M
;
_chemical_formula_sum "Si O2"
_cell_formula_units_Z 48
_cell_length_a 22.781229
_cell_length_b 14.585952
_cell_length_c 12.122145
_cell_angle_alpha 90.000000
_cell_angle_beta 150.797044
_cell_angle_gamma 90.000000
_cell_volume 1965.288898
_symmetry_space_group_name_H-M "C 2/M"
_symmetry_group_IT_number 12
_symmetry_cell_setting 'monoclinic'
loop_
_space_group_symop_operation_xyz
x,y,z
-x,y,-z
-x,-y,-z
x,-y,z
1/2+x,1/2+y,z
1/2-x,1/2+y,-z
1/2-x,1/2-y,-z
1/2+x,1/2-y,z
loop_
_atom_site_type_symbol
_atom_site_label
_atom_site_fract_x
_atom_site_fract_y
_atom_site_fract_z
Si Si1 0.264425 0.612151 0.189483
Si Si2 0.975138 0.110353 0.684065
Si Si3 0.630803 0.308821 0.266834
Si Si4 0.966120 0.392854 0.071836
Si Si5 0.244641 0.887796 0.072911
Si Si6 0.678043 0.889950 0.572297
O O1 0.268489 0.500000 0.194776
O O2 0.392542 0.640727 0.446337
O O3 0.231088 0.642265 0.011881
O O4 0.163717 0.645512 0.110869
O O5 0.911169 0.139072 0.692132
O O6 0.110653 0.141603 0.887590
O O7 0.979253 0.000000 0.690601
O O8 0.750000 0.250000 0.500000
O O9 0.694721 0.368800 0.276546
O O10 0.500000 0.277752 0.000000
O O11 0.958082 0.500000 0.089705
O O12 0.070042 0.352216 0.319198
O O13 0.000000 0.395078 0.000000
O O14 0.248489 0.000000 0.077259
O O15 0.327262 0.857833 0.310245
O O16 0.667879 0.000000 0.556588
#
# Coordination Sequence:
#
# PCOD9187896 Si02
#       6
#     8   8   8   8   8   8
#     4   9  17  29  51  90 130 156 186 236 303 367
#     4  10  19  35  62  91 119 152 198 251 303 356
#     4  12  26  42  61  88 121 162 205 255 308 365
#     4   9  17  29  47  78 121 159 190 233 291 352
#     4   9  17  30  54  90 124 151 189 245 301 356
#     4  10  20  36  61  89 118 154 200 252 304 357
#
# _framework density 24.423891000000001
#
# number of rings (size 3 to 8) (size 9 to 14) (size 15 to 20)
#    0.000    2.167    1.667    2.000    0.000    8.000 
#    0.000    3.333    0.000    1.500    4.333    0.000 
#    0.000    0.000    0.000    0.000    0.000    0.000 
#
# Total GULP energy -134054.200575 kJ/mol
# GULP energy per Si atom -5585.591691 kJ/mol
# Density = 2.436830 g / cm^3
# Si number density = 24.423891 Si / 1000 Ang^3
#
#
#
# Elastic Constant Matrix: (Units=GPa)
#
#
# Indices 1 2 3 4 5 6 
#
# 1 102.5773 -9.9483 36.7547 0.0000 -24.3726 0.0000
# 2 -9.9483 45.0177 13.1692 0.0000 -2.5843 0.0000
# 3 36.7547 13.1692 164.2514 0.0000 -25.7007 0.0000
# 4 0.0000 0.0000 0.0000 13.0747 0.0000 8.2899
# 5 -24.3726 -2.5843 -25.7007 0.0000 35.7404 0.0000
# 6 0.0000 0.0000 0.0000 8.2899 0.0000 2.1940
#
#
#
# Elastic Compliance Matrix: (Units=1/GPa)
#
#
# Indices 1 2 3 4 5 6 
#
# 1 0.012586 0.003781 -0.001954 0.000000 0.007451 0.000000
# 2 0.003781 0.023887 -0.002352 0.000000 0.002614 0.000000
# 3 -0.001954 -0.002352 0.007300 0.000000 0.003747 0.000000
# 4 0.000000 0.000000 0.000000 -0.054802 0.000000 0.207061
# 5 0.007451 0.002614 0.003747 0.000000 0.035945 0.000000
# 6 0.000000 0.000000 0.000000 0.207061 0.000000 -0.326574
#
#
# Mechanical properties :
#
#
# Convention : Reuss Voigt Hill
#
# Bulk Modulus (GPa) = 23.40667 43.53304 33.46986
# Shear Modulus (GPa) = -17.46016 28.32654 5.43319
#
# Velocity S-wave (km/s) = -2.67663 3.40926 1.49311
# Velocity P-wave (km/s) = 0.22779 5.77582 4.08729
#
# Compressibility (1/GPa) = 0.04272287
#
# Stress axis : x y z
#
# Youngs Moduli (GPa) = 79.45452 41.86363 136.98036
#
# Poissons Ratio (x) = -0.15827 0.26760
# Poissons Ratio (y) = -0.30038 0.32220
# Poissons Ratio (z) = 0.15522 0.09847
#
# Static dielectric constant tensor:
#      x y z
#    x 1.903700 0.000000 -0.036040 
#    y 0.000000 2.019380 0.000000 
#    z -0.036040 0.000000 1.951300 
# 
# From -- ./inp_files/169723.got.cif
#   From: 2010.05.17/outbox.cif.g08.bks.cpg/sg12_85_cif.got.tgz:169723.got - 2010.06.03 13:09:07.
