data_PCOD9187047
_publ_section_title
;
Structure prediction by ZEFSAII (Michael W. Deem and Ramdas Pophale) SiO2 
 PCOD9187047
Probable space group: C 2/M
;
_chemical_formula_sum "Si O2"
_cell_formula_units_Z 56
_cell_length_a 13.571087
_cell_length_b 19.726650
_cell_length_c 12.950290
_cell_angle_alpha 90.000000
_cell_angle_beta 60.209747
_cell_angle_gamma 90.000000
_cell_volume 3008.791737
_symmetry_space_group_name_H-M "C 2/M"
_symmetry_group_IT_number 12
_symmetry_cell_setting 'monoclinic'
loop_
_space_group_symop_operation_xyz
x,y,z
-x,y,-z
-x,-y,-z
x,-y,z
1/2+x,1/2+y,z
1/2-x,1/2+y,-z
1/2-x,1/2-y,-z
1/2+x,1/2-y,z
loop_
_atom_site_type_symbol
_atom_site_label
_atom_site_fract_x
_atom_site_fract_y
_atom_site_fract_z
Si Si1 0.380780 0.226637 0.512244
Si Si2 0.127316 0.579049 0.904598
Si Si3 0.153437 0.168127 0.641894
Si Si4 0.309629 0.424108 0.995097
Si Si5 0.370979 0.701235 0.105005
Si Si6 0.224678 0.181205 0.255635
Si Si7 0.539612 0.575892 0.272708
O O1 0.500000 0.207198 0.500000
O O2 0.287974 0.167664 0.551350
O O3 0.394110 0.268565 0.400127
O O4 0.317672 0.278926 0.622849
O O5 0.131353 0.500000 0.874080
O O6 0.174999 0.626298 0.789391
O O7 0.209381 0.586573 0.962404
O O8 0.000000 0.597431 0.000000
O O9 0.126773 0.182220 0.775258
O O10 0.087729 0.100481 0.644893
O O11 0.294295 0.500000 0.048064
O O12 0.322643 0.362770 0.066942
O O13 0.423959 0.425599 0.866353
O O14 0.280536 0.763547 0.148362
O O15 0.500000 0.717036 0.000000
O O16 0.118904 0.135236 0.276001
O O17 0.562478 0.500000 0.301285
#
# Coordination Sequence:
#
# PCOD9187047 Si02
#       7
#     8   8   8   8   8   8   8
#     4  10  20  38  59  76 112 146 182 241 289 336
#     4   9  18  35  55  79 114 152 184 226 287 346
#     4  10  21  37  55  83 108 148 192 221 289 347
#     4   9  19  34  53  80 117 155 184 222 283 342
#     4  11  21  34  53  85 115 150 190 237 279 335
#     4  10  20  34  53  84 112 143 189 237 286 328
#     4  10  19  35  57  83 116 147 186 236 281 337
#
# _framework density 18.612121999999999
#
# number of rings (size 3 to 8) (size 9 to 14) (size 15 to 20)
#    0.000    2.143    2.857    1.714    0.000    3.143 
#    5.143    2.143    0.000    0.429    0.000    0.000 
#    0.000    0.000    0.000    0.000    0.000    0.000 
#
# Total GULP energy -155926.281571 kJ/mol
# GULP energy per Si atom -5568.795770 kJ/mol
# Density = 1.856976 g / cm^3
# Si number density = 18.612122 Si / 1000 Ang^3
#
#
#
# Elastic Constant Matrix: (Units=GPa)
#
#
# Indices 1 2 3 4 5 6 
#
# 1 77.1371 33.3725 19.9038 0.0000 -29.0657 0.0000
# 2 33.3725 92.7806 19.7151 0.0000 -11.4307 0.0000
# 3 19.9038 19.7151 40.1494 0.0000 -12.9552 0.0000
# 4 0.0000 0.0000 0.0000 15.4239 0.0000 -13.1202
# 5 -29.0657 -11.4307 -12.9552 0.0000 29.2735 0.0000
# 6 0.0000 0.0000 0.0000 -13.1202 0.0000 27.5301
#
#
#
# Elastic Compliance Matrix: (Units=1/GPa)
#
#
# Indices 1 2 3 4 5 6 
#
# 1 0.023570 -0.005463 -0.002495 0.000000 0.020165 0.000000
# 2 -0.005463 0.013450 -0.004610 0.000000 -0.002213 0.000000
# 3 -0.002495 -0.004610 0.031530 0.000000 0.009676 0.000000
# 4 0.000000 0.000000 0.000000 0.109038 0.000000 0.051965
# 5 0.020165 -0.002213 0.009676 0.000000 0.057600 0.000000
# 6 0.000000 0.000000 0.000000 0.051965 0.000000 0.061089
#
#
# Mechanical properties :
#
#
# Convention : Reuss Voigt Hill
#
# Bulk Modulus (GPa) = 23.03486 39.56111 31.29798
# Shear Modulus (GPa) = 14.88602 23.58387 19.23495
#
# Velocity S-wave (km/s) = 2.83115 3.56353 3.21824
# Velocity P-wave (km/s) = 4.80524 6.18331 5.53731
#
# Compressibility (1/GPa) = 0.04341246
#
# Stress axis : x y z
#
# Youngs Moduli (GPa) = 42.42757 74.34811 31.71580
#
# Poissons Ratio (x) = 0.40619 0.07914
# Poissons Ratio (y) = 0.23179 0.14622
# Poissons Ratio (z) = 0.10586 0.34276
#
# Static dielectric constant tensor:
#      x y z
#    x 1.691710 0.000000 -0.009290 
#    y 0.000000 1.674140 0.000000 
#    z -0.009290 0.000000 1.651210 
# 
# From -- ./inp_files/216322.got.cif
#   From: 2010.05.17/outbox.cif.g08.bks.cpg/sg12_109_cif.got.tgz:216322.got - 2010.06.03 13:09:07.
