data_PCOD9187505
_publ_section_title
;
Structure prediction by ZEFSAII (Michael W. Deem and Ramdas Pophale) SiO2 
 PCOD9187505
Probable space group: C 2/M
;
_chemical_formula_sum "Si O2"
_cell_formula_units_Z 64
_cell_length_a 9.573140
_cell_length_b 17.380050
_cell_length_c 32.688173
_cell_angle_alpha 90.000000
_cell_angle_beta 36.911226
_cell_angle_gamma 90.000000
_cell_volume 3266.364906
_symmetry_space_group_name_H-M "C 2/M"
_symmetry_group_IT_number 12
_symmetry_cell_setting 'monoclinic'
loop_
_space_group_symop_operation_xyz
x,y,z
-x,y,-z
-x,-y,-z
x,-y,z
1/2+x,1/2+y,z
1/2-x,1/2+y,-z
1/2-x,1/2-y,-z
1/2+x,1/2-y,z
loop_
_atom_site_type_symbol
_atom_site_label
_atom_site_fract_x
_atom_site_fract_y
_atom_site_fract_z
Si Si1 0.746602 0.273911 0.845132
Si Si2 0.754375 0.737115 0.243687
Si Si3 0.372713 0.335744 0.429844
Si Si4 0.698541 0.193447 0.610715
Si Si5 0.063495 0.409722 0.571598
Si Si6 0.923658 0.680186 0.971285
Si Si7 0.968405 0.088951 0.322994
Si Si8 0.497542 0.588876 0.951824
O O1 0.658388 0.271216 0.819546
O O2 0.643700 0.198618 0.891623
O O3 0.659963 0.349429 0.890130
O O4 0.024237 0.269497 0.779004
O O5 0.546299 0.788407 0.310109
O O6 0.647076 0.651677 0.263935
O O7 0.276445 0.262971 0.427437
O O8 0.595954 0.312109 0.404704
O O9 0.183864 0.368426 0.505140
O O10 0.446027 0.395231 0.377045
O O11 0.675881 0.119077 0.587411
O O12 0.095752 0.500000 0.558903
O O13 0.787441 0.393952 0.635383
O O14 0.750000 0.750000 0.000000
O O15 0.767534 0.605617 0.999998
O O16 0.000000 0.685365 0.000000
O O17 0.027484 0.000000 0.301505
O O18 0.562941 0.500000 0.929222
O O19 0.500000 0.603805 0.000000
#
# Coordination Sequence:
#
# PCOD9187505 Si02
#       8
#     8   8   8   8   8   8   8   8
#     4  11  20  36  60  84 112 152 196 231 269 335
#     4  11  22  37  57  82 114 154 197 230 271 336
#     4  11  22  38  61  85 110 144 191 243 298 354
#     4  11  23  39  57  83 117 151 190 239 289 341
#     4  11  23  39  59  83 111 145 190 245 303 354
#     4  10  19  35  59  87 116 147 187 234 284 327
#     4  10  22  40  59  82 115 150 188 239 292 341
#     4  10  21  38  60  90 123 150 185 238 291 329
#
# _framework density 19.593648000000002
#
# number of rings (size 3 to 8) (size 9 to 14) (size 15 to 20)
#    0.000    1.375    0.000    9.000    0.000    5.250 
#    0.000    1.250    0.000    3.000    0.000    0.000 
#    0.000    0.000    0.000    0.000    0.000    0.000 
#
# Total GULP energy -178813.432174 kJ/mol
# GULP energy per Si atom -5587.919755 kJ/mol
# Density = 1.954905 g / cm^3
# Si number density = 19.593648 Si / 1000 Ang^3
#
#
#
# Elastic Constant Matrix: (Units=GPa)
#
#
# Indices 1 2 3 4 5 6 
#
# 1 104.2431 11.1186 2.3919 -0.0022 3.5314 -0.0027
# 2 11.1186 28.8301 8.3705 -0.0056 -2.4609 0.0023
# 3 2.3919 8.3705 56.4553 -0.0062 -0.4673 -0.0007
# 4 -0.0022 -0.0056 -0.0062 25.8407 -0.0008 0.4279
# 5 3.5314 -2.4609 -0.4673 -0.0008 35.3238 0.0017
# 6 -0.0027 0.0023 -0.0007 0.4279 0.0017 25.3812
#
#
#
# Elastic Compliance Matrix: (Units=1/GPa)
#
#
# Indices 1 2 3 4 5 6 
#
# 1 0.010063 -0.004038 0.000162 0.000000 -0.001285 0.000002
# 2 -0.004038 0.038080 -0.005450 0.000007 0.002985 -0.000004
# 3 0.000162 -0.005450 0.018513 0.000003 -0.000151 0.000001
# 4 0.000000 0.000007 0.000003 0.038709 0.000001 -0.000653
# 5 -0.001285 0.002985 -0.000151 0.000001 0.028644 -0.000002
# 6 0.000002 -0.000004 0.000001 -0.000653 -0.000002 0.039410
#
#
# Mechanical properties :
#
#
# Convention : Reuss Voigt Hill
#
# Bulk Modulus (GPa) = 20.83149 25.92114 23.37631
# Shear Modulus (GPa) = 24.02982 28.48564 26.25773
#
# Velocity S-wave (km/s) = 3.50581 3.81704 3.66473
# Velocity P-wave (km/s) = 5.20024 5.71703 5.46475
#
# Compressibility (1/GPa) = 0.04800425
#
# Stress axis : x y z
#
# Youngs Moduli (GPa) = 99.36944 26.26022 54.01565
#
# Poissons Ratio (x) = 0.10603 -0.00873
# Poissons Ratio (y) = 0.40122 0.29440
# Poissons Ratio (z) = -0.01606 0.14313
#
# Static dielectric constant tensor:
#      x y z
#    x 1.669120 0.000000 -0.013890 
#    y 0.000000 1.694360 0.000000 
#    z -0.013890 0.000000 1.703440 
# 
# From -- ./inp_files/300794.got.cif
#   From: 2010.05.17/outbox.cif.g08.bks.cpg/sg12_151_cif.got.tgz:300794.got - 2010.06.03 13:09:07.
