data_PCOD9187818
_publ_section_title
;
Structure prediction by ZEFSAII (Michael W. Deem and Ramdas Pophale) SiO2 
 PCOD9187818
Probable space group: C 2/M
;
_chemical_formula_sum "Si O2"
_cell_formula_units_Z 44
_cell_length_a 24.092171
_cell_length_b 11.654729
_cell_length_c 12.887551
_cell_angle_alpha 90.000000
_cell_angle_beta 31.784233
_cell_angle_gamma 90.000000
_cell_volume 1906.030680
_symmetry_space_group_name_H-M "C 2/M"
_symmetry_group_IT_number 12
_symmetry_cell_setting 'monoclinic'
loop_
_space_group_symop_operation_xyz
x,y,z
-x,y,-z
-x,-y,-z
x,-y,z
1/2+x,1/2+y,z
1/2-x,1/2+y,-z
1/2-x,1/2-y,-z
1/2+x,1/2-y,z
loop_
_atom_site_type_symbol
_atom_site_label
_atom_site_fract_x
_atom_site_fract_y
_atom_site_fract_z
Si Si1 0.012185 0.500000 0.198468
Si Si2 0.286587 0.767536 0.772706
Si Si3 0.585775 0.206450 0.745075
Si Si4 0.893672 0.683001 0.799280
Si Si5 0.542039 0.365358 0.627469
Si Si6 0.197138 0.868596 0.715042
O O1 0.994557 0.602287 0.139837
O O2 0.028364 0.598791 0.264717
O O3 0.359059 0.839481 0.736983
O O4 0.355903 0.682279 0.593879
O O5 0.223476 0.847028 0.793336
O O6 0.209591 0.691020 0.965125
O O7 0.548044 0.310527 0.731774
O O8 0.692897 0.151387 0.523036
O O9 0.620270 0.269240 0.795557
O O10 0.944442 0.809128 0.722537
O O11 0.537975 0.500000 0.636903
O O12 0.162604 0.000000 0.752896
#
# Coordination Sequence:
#
# PCOD9187818 Si02
#       6
#     4   8   8   8   8   8
#     4  10  20  40  64  84 125 170 203 260 324 370
#     4  10  23  40  59  97 127 166 218 258 329 385
#     4   9  19  37  59  93 124 159 213 260 315 381
#     4  10  23  41  61  93 130 167 214 271 317 379
#     4  10  21  40  65  90 123 171 214 263 320 384
#     4  10  19  35  61  91 125 164 205 261 318 383
#
# _framework density 23.084622
#
# number of rings (size 3 to 8) (size 9 to 14) (size 15 to 20)
#    0.000    2.182    0.909    1.091    2.545    2.182 
#    4.909    7.273    0.000    5.455    0.000    0.000 
#    0.000    0.000    0.000    0.000    0.000    0.000 
#
# Total GULP energy -122469.646270 kJ/mol
# GULP energy per Si atom -5566.802103 kJ/mol
# Density = 2.303208 g / cm^3
# Si number density = 23.084622 Si / 1000 Ang^3
#
#
#
# Elastic Constant Matrix: (Units=GPa)
#
#
# Indices 1 2 3 4 5 6 
#
# 1 139.3473 79.3229 8.3296 0.0000 29.4673 0.0000
# 2 79.3229 188.3739 22.5580 0.0000 17.3530 0.0000
# 3 8.3296 22.5580 42.1448 0.0000 6.1231 0.0000
# 4 0.0000 0.0000 0.0000 7.5127 0.0000 -4.8271
# 5 29.4673 17.3530 6.1231 0.0000 27.7387 0.0000
# 6 0.0000 0.0000 0.0000 -4.8271 0.0000 35.6894
#
#
#
# Elastic Compliance Matrix: (Units=1/GPa)
#
#
# Indices 1 2 3 4 5 6 
#
# 1 0.011545 -0.004104 0.001368 0.000000 -0.009999 0.000000
# 2 -0.004104 0.007379 -0.003204 0.000000 0.000451 0.000000
# 3 0.001368 -0.003204 0.025924 0.000000 -0.005171 0.000000
# 4 0.000000 0.000000 0.000000 0.145776 0.000000 0.019716
# 5 -0.009999 0.000451 -0.005171 0.000000 0.047532 0.000000
# 6 0.000000 0.000000 0.000000 0.019716 0.000000 0.030686
#
#
# Mechanical properties :
#
#
# Convention : Reuss Voigt Hill
#
# Bulk Modulus (GPa) = 30.33346 65.58743 47.96045
# Shear Modulus (GPa) = 17.14016 31.49852 24.31934
#
# Velocity S-wave (km/s) = 2.72783 3.69790 3.24927
# Velocity P-wave (km/s) = 4.80521 6.83418 5.90745
#
# Compressibility (1/GPa) = 0.03296689
#
# Stress axis : x y z
#
# Youngs Moduli (GPa) = 86.61418 135.51920 38.57485
#
# Poissons Ratio (x) = 0.55622 -0.05276
# Poissons Ratio (y) = 0.35550 0.12359
# Poissons Ratio (z) = -0.11846 0.43420
#
# Static dielectric constant tensor:
#      x y z
#    x 1.913550 0.000000 -0.044670 
#    y 0.000000 1.793180 0.000000 
#    z -0.044670 0.000000 1.965790 
# 
# From -- ./inp_files/175085.got.cif
#   From: 2010.05.17/outbox.cif.g08.bks.cpg/sg12_88_cif.got.tgz:175085.got - 2010.06.03 13:09:07.
