data_PCOD9187385
_publ_section_title
;
Structure prediction by ZEFSAII (Michael W. Deem and Ramdas Pophale) SiO2 
 PCOD9187385
Probable space group: C 2/M
;
_chemical_formula_sum "Si O2"
_cell_formula_units_Z 64
_cell_length_a 20.961861
_cell_length_b 8.712413
_cell_length_c 22.294922
_cell_angle_alpha 90.000000
_cell_angle_beta 61.708060
_cell_angle_gamma 90.000000
_cell_volume 3585.298576
_symmetry_space_group_name_H-M "C 2/M"
_symmetry_group_IT_number 12
_symmetry_cell_setting 'monoclinic'
loop_
_space_group_symop_operation_xyz
x,y,z
-x,y,-z
-x,-y,-z
x,-y,z
1/2+x,1/2+y,z
1/2-x,1/2+y,-z
1/2-x,1/2-y,-z
1/2+x,1/2-y,z
loop_
_atom_site_type_symbol
_atom_site_label
_atom_site_fract_x
_atom_site_fract_y
_atom_site_fract_z
Si Si1 0.100560 0.317515 0.201383
Si Si2 0.418769 0.184339 0.426559
Si Si3 0.327429 0.683929 0.946939
Si Si4 0.079217 0.183631 0.338819
Si Si5 0.169338 0.686869 0.652782
Si Si6 0.024648 0.814957 0.054808
Si Si7 0.949668 0.683601 0.202734
Si Si8 0.836033 0.814467 0.578080
O O1 0.111498 0.500000 0.195887
O O2 0.150950 0.240150 0.129047
O O3 0.109554 0.252509 0.263686
O O4 0.017837 0.287397 0.216602
O O5 0.498621 0.253206 0.385164
O O6 0.371554 0.232753 0.389822
O O7 0.379957 0.241094 0.503958
O O8 0.423806 0.000000 0.424087
O O9 0.324736 0.500000 0.949550
O O10 0.394505 0.734579 0.960213
O O11 0.250000 0.750000 0.000000
O O12 0.127281 0.224602 0.375021
O O13 0.076848 0.000000 0.334933
O O14 0.168858 0.500000 0.654429
O O15 0.122406 0.737710 0.731093
O O16 0.252423 0.736104 0.615049
O O17 0.969765 0.759563 0.130825
O O18 0.024835 0.000000 0.054256
O O19 0.000000 0.761143 0.000000
O O20 0.945404 0.500000 0.195987
O O21 0.838308 0.000000 0.570429
#
# Coordination Sequence:
#
# PCOD9187385 Si02
#       8
#     8   8   8   8   8   8   8   8
#     4  10  19  35  59  83 109 142 184 229 269 315
#     4  11  21  36  59  81 104 139 184 228 270 321
#     4  10  20  36  58  84 114 147 183 222 268 320
#     4  11  22  36  55  80 111 145 182 221 271 328
#     4   9  18  36  57  78 107 140 178 225 272 318
#     4   9  19  36  56  80 113 144 176 220 269 316
#     4   9  17  33  57  81 105 138 182 222 262 315
#     4  10  22  38  54  77 112 145 175 222 278 327
#
# _framework density 17.850674999999999
#
# number of rings (size 3 to 8) (size 9 to 14) (size 15 to 20)
#    0.000    2.125    1.250    2.250    0.000    3.750 
#    2.250    1.250    0.000    0.000    0.000    0.000 
#    0.000    0.000    0.000    0.000    0.000    0.000 
#
# Total GULP energy -178632.332941 kJ/mol
# GULP energy per Si atom -5582.260404 kJ/mol
# Density = 1.781005 g / cm^3
# Si number density = 17.850675 Si / 1000 Ang^3
#
#
#
# Elastic Constant Matrix: (Units=GPa)
#
#
# Indices 1 2 3 4 5 6 
#
# 1 94.1932 35.0085 61.6522 -0.0001 5.5105 -0.0002
# 2 35.0085 27.6810 39.2466 0.0000 2.1340 -0.0007
# 3 61.6522 39.2466 139.7265 0.0000 5.9548 -0.0001
# 4 -0.0001 0.0000 0.0000 29.4039 0.0000 3.3960
# 5 5.5105 2.1340 5.9548 0.0000 33.2737 0.0001
# 6 -0.0002 -0.0007 -0.0001 3.3960 0.0001 17.9989
#
#
#
# Elastic Compliance Matrix: (Units=1/GPa)
#
#
# Indices 1 2 3 4 5 6 
#
# 1 0.020822 -0.022073 -0.002923 0.000000 -0.001510 -0.000001
# 2 -0.022073 0.083456 -0.013734 0.000000 0.000761 0.000003
# 3 -0.002923 -0.013734 0.012340 0.000000 -0.000843 0.000000
# 4 0.000000 0.000000 0.000000 0.034767 0.000000 -0.006560
# 5 -0.001510 0.000761 -0.000843 0.000000 0.030406 0.000000
# 6 -0.000001 0.000003 0.000000 -0.006560 0.000000 0.056796
#
#
# Mechanical properties :
#
#
# Convention : Reuss Voigt Hill
#
# Bulk Modulus (GPa) = 25.53796 59.26837 42.40316
# Shear Modulus (GPa) = 15.19297 24.51487 19.85392
#
# Velocity S-wave (km/s) = 2.92055 3.70987 3.33862
# Velocity P-wave (km/s) = 5.07054 7.18507 6.21834
#
# Compressibility (1/GPa) = 0.03915739
#
# Stress axis : x y z
#
# Youngs Moduli (GPa) = 48.02670 11.98241 81.03532
#
# Poissons Ratio (x) = 0.26448 0.23688
# Poissons Ratio (y) = 1.06008 1.11297
# Poissons Ratio (z) = 0.14039 0.16457
#
# Static dielectric constant tensor:
#      x y z
#    x 1.601830 0.000000 0.002750 
#    y 0.000000 1.602980 0.000000 
#    z 0.002750 0.000000 1.583330 
# 
# From -- ./inp_files/319772.got.cif
#   From: 2010.05.17/outbox.cif.g08.bks.cpg/sg12_160_cif.got.tgz:319772.got - 2010.06.03 13:09:07.
