data_PCOD9187600
_publ_section_title
;
Structure prediction by ZEFSAII (Michael W. Deem and Ramdas Pophale) SiO2 
 PCOD9187600
Probable space group: C 2/M
;
_chemical_formula_sum "Si O2"
_cell_formula_units_Z 64
_cell_length_a 19.494667
_cell_length_b 14.404254
_cell_length_c 27.463120
_cell_angle_alpha 90.000000
_cell_angle_beta 27.879555
_cell_angle_gamma 90.000000
_cell_volume 3606.154832
_symmetry_space_group_name_H-M "C 2/M"
_symmetry_group_IT_number 12
_symmetry_cell_setting 'monoclinic'
loop_
_space_group_symop_operation_xyz
x,y,z
-x,y,-z
-x,-y,-z
x,-y,z
1/2+x,1/2+y,z
1/2-x,1/2+y,-z
1/2-x,1/2-y,-z
1/2+x,1/2-y,z
loop_
_atom_site_type_symbol
_atom_site_label
_atom_site_fract_x
_atom_site_fract_y
_atom_site_fract_z
Si Si1 0.953655 0.606418 0.976852
Si Si2 0.281350 0.607806 0.749947
Si Si3 0.322919 0.397440 0.413129
Si Si4 0.914369 0.768376 0.746897
Si Si5 0.119643 0.268918 0.383268
Si Si6 0.814791 0.192463 0.914134
Si Si7 0.125954 0.105276 0.734525
Si Si8 0.516941 0.893742 0.361454
O O1 0.912084 0.500000 0.014235
O O2 0.106578 0.608772 0.851937
O O3 0.824025 0.644513 0.024960
O O4 0.000000 0.650879 0.000000
O O5 0.328493 0.500000 0.718958
O O6 0.314345 0.655359 0.781822
O O7 0.353373 0.676048 0.665171
O O8 0.380693 0.500000 0.391603
O O9 0.426128 0.313112 0.363197
O O10 0.327742 0.396618 0.351374
O O11 0.158372 0.389756 0.535286
O O12 0.884803 0.757135 0.822627
O O13 0.903091 0.670349 0.727855
O O14 0.272104 0.315493 0.305632
O O15 0.000000 0.250957 0.500000
O O16 0.050506 0.346985 0.391816
O O17 0.952295 0.129581 0.845628
O O18 0.750000 0.250000 0.000000
O O19 0.151124 0.000000 0.737875
O O20 0.563250 0.000000 0.330872
#
# Coordination Sequence:
#
# PCOD9187600 Si02
#       8
#     8   8   8   8   8   8   8   8
#     4  10  19  35  60  85 109 142 189 240 287 340
#     4  10  21  36  57  83 111 145 186 233 284 345
#     4   9  17  30  53  79 104 137 182 232 276 325
#     4  10  20  34  54  79 111 144 185 234 287 341
#     4  11  21  35  56  82 114 151 186 229 281 340
#     4  11  22  37  57  85 115 148 189 245 297 339
#     4  10  20  34  55  83 113 145 189 238 280 329
#     4  10  20  34  53  77 107 150 193 229 273 333
#
# _framework density 17.747434999999999
#
# number of rings (size 3 to 8) (size 9 to 14) (size 15 to 20)
#    0.000    1.875    2.500    2.250    0.000    1.750 
#    0.000    1.250    0.000    3.000    0.000    4.375 
#    0.000    0.000    0.000    0.000    0.000    0.000 
#
# Total GULP energy -178184.308842 kJ/mol
# GULP energy per Si atom -5568.259651 kJ/mol
# Density = 1.770704 g / cm^3
# Si number density = 17.747435 Si / 1000 Ang^3
#
#
#
# Elastic Constant Matrix: (Units=GPa)
#
#
# Indices 1 2 3 4 5 6 
#
# 1 73.2662 32.4675 33.5665 -0.0009 -5.5420 0.0014
# 2 32.4675 114.1592 42.2053 -0.0011 8.1973 0.0000
# 3 33.5665 42.2053 57.1180 -0.0044 -0.3136 0.0017
# 4 -0.0009 -0.0011 -0.0044 14.0593 0.0011 -4.5162
# 5 -5.5420 8.1973 -0.3136 0.0011 29.8243 -0.0009
# 6 0.0014 0.0000 0.0017 -4.5162 -0.0009 22.8885
#
#
#
# Elastic Compliance Matrix: (Units=1/GPa)
#
#
# Indices 1 2 3 4 5 6 
#
# 1 0.019405 -0.002210 -0.009748 -0.000003 0.004111 -0.000001
# 2 -0.002210 0.012660 -0.008078 -0.000001 -0.003975 0.000000
# 3 -0.009748 -0.008078 0.029209 0.000008 0.000716 0.000000
# 4 -0.000003 -0.000001 0.000008 0.075940 -0.000002 0.014984
# 5 0.004111 -0.003975 0.000716 -0.000002 0.035394 0.000001
# 6 -0.000001 0.000000 0.000000 0.014984 0.000001 0.046647
#
#
# Mechanical properties :
#
#
# Convention : Reuss Voigt Hill
#
# Bulk Modulus (GPa) = 47.16484 51.22466 49.19475
# Shear Modulus (GPa) = 18.76913 22.44136 20.60525
#
# Velocity S-wave (km/s) = 3.25556 3.55982 3.41108
# Velocity P-wave (km/s) = 6.38473 6.76921 6.57978
#
# Compressibility (1/GPa) = 0.02120224
#
# Stress axis : x y z
#
# Youngs Moduli (GPa) = 51.53221 78.98829 34.23606
#
# Poissons Ratio (x) = 0.17458 0.33374
# Poissons Ratio (y) = 0.11390 0.27655
# Poissons Ratio (z) = 0.50235 0.63804
#
# Static dielectric constant tensor:
#      x y z
#    x 1.632280 0.000000 -0.026920 
#    y 0.000000 1.606160 0.000000 
#    z -0.026920 0.000000 1.624690 
# 
# From -- ./inp_files/366011.got.cif
#   From: 2010.05.17/outbox.cif.g08.bks.cpg/sg12_184_cif.got.tgz:366011.got - 2010.06.03 13:09:07.
