data_PCOD9187981
_publ_section_title
;
Structure prediction by ZEFSAII (Michael W. Deem and Ramdas Pophale) SiO2 
 PCOD9187981
Probable space group: C 2/M
;
_chemical_formula_sum "Si O2"
_cell_formula_units_Z 56
_cell_length_a 10.243811
_cell_length_b 15.684566
_cell_length_c 24.614451
_cell_angle_alpha 90.000000
_cell_angle_beta 53.171054
_cell_angle_gamma 90.000000
_cell_volume 3165.532937
_symmetry_space_group_name_H-M "C 2/M"
_symmetry_group_IT_number 12
_symmetry_cell_setting 'monoclinic'
loop_
_space_group_symop_operation_xyz
x,y,z
-x,y,-z
-x,-y,-z
x,-y,z
1/2+x,1/2+y,z
1/2-x,1/2+y,-z
1/2-x,1/2-y,-z
1/2+x,1/2-y,z
loop_
_atom_site_type_symbol
_atom_site_label
_atom_site_fract_x
_atom_site_fract_y
_atom_site_fract_z
Si Si1 0.019743 0.902347 0.086272
Si Si2 0.126291 0.904301 0.643429
Si Si3 0.148298 0.329813 0.503223
Si Si4 0.905720 0.246022 0.737780
Si Si5 0.024501 0.740541 0.830384
Si Si6 0.225622 0.597936 0.074145
Si Si7 0.075065 0.596883 0.347899
O O1 0.021387 0.831307 0.131709
O O2 0.856381 0.891950 0.090533
O O3 0.022138 0.000000 0.105983
O O4 0.170046 0.891238 0.007024
O O5 0.231845 0.887164 0.563021
O O6 0.255699 0.898001 0.660701
O O7 0.994502 0.830618 0.684039
O O8 0.058340 0.000000 0.659823
O O9 0.250000 0.250000 0.500000
O O10 0.000000 0.302711 0.500000
O O11 0.065427 0.379860 0.573593
O O12 0.987733 0.257081 0.775757
O O13 0.715384 0.226370 0.792323
O O14 0.923166 0.332905 0.699280
O O15 0.915042 0.666776 0.884339
O O16 0.166435 0.500000 0.090566
O O17 0.055847 0.500000 0.332927
#
# Coordination Sequence:
#
# PCOD9187981 Si02
#       7
#     8   8   8   8   8   8   8
#     4   9  19  38  64  88 113 152 195 237 286 343
#     4  10  21  39  61  86 116 153 198 242 290 346
#     4  10  19  35  65  87 112 147 193 250 294 334
#     4  12  24  37  58  85 120 162 191 234 288 346
#     4  12  23  38  59  88 121 154 195 232 290 344
#     4   9  19  38  63  89 115 148 195 242 284 338
#     4  10  21  39  62  86 113 154 203 240 285 348
#
# _framework density 17.690545
#
# number of rings (size 3 to 8) (size 9 to 14) (size 15 to 20)
#    0.000    1.714    4.286    1.714    0.000    4.000 
#    0.000    0.000    0.000    2.571    0.000    0.000 
#    0.000    0.000    0.000    0.000    0.000    0.000 
#
# Total GULP energy -156342.138990 kJ/mol
# GULP energy per Si atom -5583.647821 kJ/mol
# Density = 1.765028 g / cm^3
# Si number density = 17.690545 Si / 1000 Ang^3
#
#
#
# Elastic Constant Matrix: (Units=GPa)
#
#
# Indices 1 2 3 4 5 6 
#
# 1 11.1486 22.6821 -0.9837 0.0000 -3.4717 0.0000
# 2 22.6821 152.4894 51.6122 0.0001 -8.5282 0.0000
# 3 -0.9837 51.6122 48.9337 0.0002 -5.9508 0.0000
# 4 0.0000 0.0001 0.0002 -8.0142 0.0000 12.1598
# 5 -3.4717 -8.5282 -5.9508 0.0000 31.7652 0.0000
# 6 0.0000 0.0000 0.0000 12.1598 0.0000 25.4656
#
#
#
# Elastic Compliance Matrix: (Units=1/GPa)
#
#
# Indices 1 2 3 4 5 6 
#
# 1 0.196413 -0.047071 0.055944 0.000001 0.019309 0.000000
# 2 -0.047071 0.021496 -0.024092 0.000000 -0.003886 0.000000
# 3 0.055944 -0.024092 0.048022 0.000001 0.008642 0.000000
# 4 0.000001 0.000000 0.000001 -0.072356 0.000000 0.034550
# 5 0.019309 -0.003886 0.008642 0.000000 0.034167 0.000000
# 6 0.000000 0.000000 0.000000 0.034550 0.000000 0.022771
#
#
# Mechanical properties :
#
#
# Convention : Reuss Voigt Hill
#
# Bulk Modulus (GPa) = 4.24639 39.91034 22.07837
# Shear Modulus (GPa) = 13.91020 19.12738 16.51879
#
# Velocity S-wave (km/s) = 2.80716 3.29176 3.05907
# Velocity P-wave (km/s) = 3.59339 6.08743 4.99846
#
# Compressibility (1/GPa) = 0.23549393
#
# Stress axis : x y z
#
# Youngs Moduli (GPa) = 5.09131 46.51978 20.82384
#
# Poissons Ratio (x) = 2.18972 -1.16496
# Poissons Ratio (y) = 0.23965 0.50168
# Poissons Ratio (z) = -0.28483 1.12074
#
# Static dielectric constant tensor:
#      x y z
#    x 1.576490 0.000000 0.000430 
#    y 0.000000 1.584710 0.000000 
#    z 0.000430 0.000000 1.603250 
# 
# From -- ./inp_files/332820.got.cif
#   From: 2010.05.17/outbox.cif.g08.bks.cpg/sg12_167_cif.got.tgz:332820.got - 2010.06.03 13:09:07.
