data_PCOD9187874
_publ_section_title
;
Structure prediction by ZEFSAII (Michael W. Deem and Ramdas Pophale) SiO2 
 PCOD9187874
Probable space group: C 2/M
;
_chemical_formula_sum "Si O2"
_cell_formula_units_Z 64
_cell_length_a 21.069145
_cell_length_b 8.291478
_cell_length_c 34.994625
_cell_angle_alpha 90.000000
_cell_angle_beta 147.114228
_cell_angle_gamma 90.000000
_cell_volume 3319.348041
_symmetry_space_group_name_H-M "C 2/M"
_symmetry_group_IT_number 12
_symmetry_cell_setting 'monoclinic'
loop_
_space_group_symop_operation_xyz
x,y,z
-x,y,-z
-x,-y,-z
x,-y,z
1/2+x,1/2+y,z
1/2-x,1/2+y,-z
1/2-x,1/2-y,-z
1/2+x,1/2-y,z
loop_
_atom_site_type_symbol
_atom_site_label
_atom_site_fract_x
_atom_site_fract_y
_atom_site_fract_z
Si Si1 0.126979 0.694686 0.549128
Si Si2 0.467847 0.197157 0.148569
Si Si3 0.722543 0.194663 0.305107
Si Si4 0.763973 0.304930 0.830972
Si Si5 0.520385 0.194723 0.933531
Si Si6 0.139891 0.692807 0.468519
Si Si7 0.385756 0.305171 0.317214
Si Si8 0.746808 0.192732 0.907637
O O1 0.125140 0.500000 0.547916
O O2 0.225466 0.749139 0.628514
O O3 0.145835 0.752238 0.515418
O O4 0.000000 0.750673 0.500000
O O5 0.590787 0.248162 0.229323
O O6 0.463505 0.249343 0.102188
O O7 0.356953 0.252302 0.117062
O O8 0.467193 0.000000 0.148038
O O9 0.808620 0.250131 0.314522
O O10 0.722546 0.000000 0.304549
O O11 0.764816 0.500000 0.831289
O O12 0.676176 0.250967 0.753171
O O13 0.729807 0.247843 0.855633
O O14 0.895397 0.250380 0.886695
O O15 0.517790 0.000000 0.931857
O O16 0.628673 0.248370 0.013825
O O17 0.139878 0.500000 0.469523
O O18 0.250000 0.750000 0.500000
O O19 0.017927 0.749333 0.388848
O O20 0.383708 0.500000 0.316363
O O21 0.745648 0.000000 0.908168
#
# Coordination Sequence:
#
# PCOD9187874 Si02
#       8
#     8   8   8   8   8   8   8   8
#     4  10  21  38  58  84 118 151 182 227 287 338
#     4   9  19  37  58  82 112 147 188 235 286 335
#     4  10  19  35  62  89 111 144 196 243 277 333
#     4  10  21  38  60  83 110 150 195 234 279 342
#     4  10  19  37  62  81 105 149 197 235 278 338
#     4  11  24  41  61  86 121 157 190 232 284 342
#     4  10  20  37  62  88 113 146 193 242 285 335
#     4  11  23  36  53  83 121 150 182 237 293 338
#
# _framework density 19.280895000000001
#
# number of rings (size 3 to 8) (size 9 to 14) (size 15 to 20)
#    0.000    1.875    2.500    1.500    0.000    4.750 
#    0.000    5.000    0.000    0.000    0.000    0.000 
#    0.000    0.000    0.000    0.000    0.000    0.000 
#
# Total GULP energy -178771.872719 kJ/mol
# GULP energy per Si atom -5586.621022 kJ/mol
# Density = 1.923701 g / cm^3
# Si number density = 19.280895 Si / 1000 Ang^3
#
#
#
# Elastic Constant Matrix: (Units=GPa)
#
#
# Indices 1 2 3 4 5 6 
#
# 1 96.4280 9.6820 23.6918 -0.0024 -12.7717 0.0000
# 2 9.6820 9.3825 7.0083 -0.0091 -0.8155 -0.0005
# 3 23.6918 7.0083 114.8613 0.0016 -13.6450 -0.0001
# 4 -0.0024 -0.0091 0.0016 -549.7251 0.0013 57.1777
# 5 -12.7717 -0.8155 -13.6450 0.0013 28.1625 -0.0001
# 6 0.0000 -0.0005 -0.0001 57.1777 -0.0001 18.3142
#
#
#
# Elastic Compliance Matrix: (Units=1/GPa)
#
#
# Indices 1 2 3 4 5 6 
#
# 1 0.012466 -0.011475 -0.001315 0.000000 0.004684 -0.000001
# 2 -0.011475 0.122234 -0.005612 -0.000001 -0.004383 0.000007
# 3 -0.001315 -0.005612 0.009793 0.000000 0.003986 0.000000
# 4 0.000000 -0.000001 0.000000 -0.001373 0.000000 0.004287
# 5 0.004684 -0.004383 0.003986 0.000000 0.039437 0.000000
# 6 -0.000001 0.000007 0.000000 0.004287 0.000000 0.041218
#
#
# Mechanical properties :
#
#
# Convention : Reuss Voigt Hill
#
# Bulk Modulus (GPa) = 9.28590 33.49286 21.38938
# Shear Modulus (GPa) = 16.86487 -88.63038 -35.88276
#
# Velocity S-wave (km/s) = 2.96073 -6.78732 -4.31867
# Velocity P-wave (km/s) = 4.06380 6.63438 3.70813
#
# Compressibility (1/GPa) = 0.10769019
#
# Stress axis : x y z
#
# Youngs Moduli (GPa) = 80.21830 8.18104 102.11074
#
# Poissons Ratio (x) = 0.09388 0.13425
# Poissons Ratio (y) = 0.92048 0.57305
# Poissons Ratio (z) = 0.10546 0.04591
#
# Static dielectric constant tensor:
#      x y z
#    x 1.661970 0.000000 -0.001490 
#    y 0.000000 1.679350 0.000000 
#    z -0.001490 0.000000 1.638160 
# 
# From -- ./inp_files/378494.got.cif
#   From: 2010.05.17/outbox.cif.g08.bks.cpg/sg12_190_cif.got.tgz:378494.got - 2010.06.03 13:09:07.
