data_PCOD9187869
_publ_section_title
;
Structure prediction by ZEFSAII (Michael W. Deem and Ramdas Pophale) SiO2 
 PCOD9187869
Probable space group: C 2/M
;
_chemical_formula_sum "Si O2"
_cell_formula_units_Z 64
_cell_length_a 23.884797
_cell_length_b 14.489380
_cell_length_c 14.821925
_cell_angle_alpha 90.000000
_cell_angle_beta 137.292410
_cell_angle_gamma 90.000000
_cell_volume 3479.126859
_symmetry_space_group_name_H-M "C 2/M"
_symmetry_group_IT_number 12
_symmetry_cell_setting 'monoclinic'
loop_
_space_group_symop_operation_xyz
x,y,z
-x,y,-z
-x,-y,-z
x,-y,z
1/2+x,1/2+y,z
1/2-x,1/2+y,-z
1/2-x,1/2-y,-z
1/2+x,1/2-y,z
loop_
_atom_site_type_symbol
_atom_site_label
_atom_site_fract_x
_atom_site_fract_y
_atom_site_fract_z
Si Si1 0.638143 0.708160 0.443883
Si Si2 0.422763 0.602340 0.458235
Si Si3 0.156808 0.392722 0.995303
Si Si4 0.417191 0.607594 0.962122
Si Si5 0.401071 0.107741 0.868349
Si Si6 0.161215 0.104706 0.827052
Si Si7 0.048091 0.771813 0.817367
Si Si8 0.188260 0.787232 0.307868
O O1 0.619075 0.639354 0.502431
O O2 0.547108 0.746140 0.316394
O O3 0.713671 0.770519 0.568943
O O4 0.664847 0.670083 0.377503
O O5 0.500000 0.651768 0.500000
O O6 0.454201 0.500000 0.519950
O O7 0.357089 0.598900 0.300840
O O8 0.145999 0.500000 0.960873
O O9 0.089495 0.326710 0.874652
O O10 0.145267 0.385112 0.089938
O O11 0.244775 0.362403 0.059297
O O12 0.400249 0.500000 0.964568
O O13 0.345276 0.652375 0.815058
O O14 0.500000 0.610182 0.000000
O O15 0.435895 0.670189 0.071665
O O16 0.358595 0.187272 0.757482
O O17 0.393644 0.000000 0.828673
O O18 0.500000 0.125587 0.000000
O O19 0.094912 0.168259 0.797244
O O20 0.155514 0.000000 0.856681
#
# Coordination Sequence:
#
# PCOD9187869 Si02
#       8
#     8   8   8   8   8   8   8   8
#     4  11  24  36  59  84 122 163 204 249 300 365
#     4  10  20  36  58  87 120 155 198 252 306 360
#     4  10  21  36  58  88 119 150 194 251 306 359
#     4  11  23  39  62  87 120 161 201 249 305 371
#     4  10  19  35  62  88 115 152 193 244 301 354
#     4  10  21  37  58  90 122 151 198 254 308 364
#     4  12  21  38  61  91 119 162 201 253 307 365
#     4  11  22  41  56  87 124 162 204 248 300 366
#
# _framework density 18.395420000000001
#
# number of rings (size 3 to 8) (size 9 to 14) (size 15 to 20)
#    0.000    1.375    3.750    2.625    0.000    2.500 
#    0.000    2.500    0.000    0.000    0.000    0.875 
#    0.000    0.000    0.000    0.000    0.000    0.000 
#
# Total GULP energy -178343.038485 kJ/mol
# GULP energy per Si atom -5573.219953 kJ/mol
# Density = 1.835355 g / cm^3
# Si number density = 18.395420 Si / 1000 Ang^3
#
#
#
# Elastic Constant Matrix: (Units=GPa)
#
#
# Indices 1 2 3 4 5 6 
#
# 1 97.3124 30.9985 41.2641 0.0000 15.0346 0.0000
# 2 30.9985 46.2024 34.6498 0.0000 7.1571 0.0000
# 3 41.2641 34.6498 115.5253 0.0000 14.0320 0.0000
# 4 0.0000 0.0000 0.0000 17.5468 0.0000 -2.2881
# 5 15.0346 7.1571 14.0320 0.0000 33.1379 0.0000
# 6 0.0000 0.0000 0.0000 -2.2881 0.0000 36.4238
#
#
#
# Elastic Compliance Matrix: (Units=1/GPa)
#
#
# Indices 1 2 3 4 5 6 
#
# 1 0.014169 -0.007051 -0.002478 0.000000 -0.003856 0.000000
# 2 -0.007051 0.031651 -0.006887 0.000000 -0.000721 0.000000
# 3 -0.002478 -0.006887 0.011902 0.000000 -0.002428 0.000000
# 4 0.000000 0.000000 0.000000 0.057461 0.000000 0.003610
# 5 -0.003856 -0.000721 -0.002428 0.000000 0.033110 0.000000
# 6 0.000000 0.000000 0.000000 0.003610 0.000000 0.027681
#
#
# Mechanical properties :
#
#
# Convention : Reuss Voigt Hill
#
# Bulk Modulus (GPa) = 40.17628 52.54056 46.35842
# Shear Modulus (GPa) = 23.03064 27.56355 25.29710
#
# Velocity S-wave (km/s) = 3.54217 3.87511 3.71237
# Velocity P-wave (km/s) = 6.21426 6.97465 6.60540
#
# Compressibility (1/GPa) = 0.02489031
#
# Stress axis : x y z
#
# Youngs Moduli (GPa) = 70.57883 31.59447 84.02115
#
# Poissons Ratio (x) = 0.22276 0.20818
# Poissons Ratio (y) = 0.49762 0.57868
# Poissons Ratio (z) = 0.17488 0.21760
#
# Static dielectric constant tensor:
#      x y z
#    x 1.661200 0.000000 0.029470 
#    y 0.000000 1.640120 0.000000 
#    z 0.029470 0.000000 1.699640 
# 
# From -- ./inp_files/240705.got.cif
#   From: 2010.05.17/outbox.cif.g08.bks.cpg/sg12_121_cif.got.tgz:240705.got - 2010.06.03 13:09:07.
