data_PCOD9187337
_publ_section_title
;
Structure prediction by ZEFSAII (Michael W. Deem and Ramdas Pophale) SiO2 
 PCOD9187337
Probable space group: C 2/M
;
_chemical_formula_sum "Si O2"
_cell_formula_units_Z 58
_cell_length_a 18.213691
_cell_length_b 18.771056
_cell_length_c 9.672126
_cell_angle_alpha 90.000000
_cell_angle_beta 132.249615
_cell_angle_gamma 90.000000
_cell_volume 2447.772112
_symmetry_space_group_name_H-M "C 2/M"
_symmetry_group_IT_number 12
_symmetry_cell_setting 'monoclinic'
loop_
_space_group_symop_operation_xyz
x,y,z
-x,y,-z
-x,-y,-z
x,-y,z
1/2+x,1/2+y,z
1/2-x,1/2+y,-z
1/2-x,1/2-y,-z
1/2+x,1/2-y,z
loop_
_atom_site_type_symbol
_atom_site_label
_atom_site_fract_x
_atom_site_fract_y
_atom_site_fract_z
Si Si1 0.716085 0.081428 0.305474
Si Si2 0.107264 0.300564 0.328321
Si Si3 0.500000 0.500000 0.500000
Si Si4 0.387340 0.227784 0.131898
Si Si5 0.205512 0.418784 0.960109
Si Si6 0.391014 0.415146 0.733372
Si Si7 0.219155 0.199505 0.257809
Si Si8 0.925825 0.881261 0.196271
O O1 0.636764 0.128734 0.283380
O O2 0.715725 0.089000 0.140108
O O3 0.823070 0.096664 0.509155
O O4 0.694548 0.000000 0.309347
O O5 0.157191 0.240546 0.297792
O O6 0.166734 0.298856 0.549132
O O7 0.991055 0.292041 0.192237
O O8 0.475009 0.438254 0.356475
O O9 0.412603 0.301647 0.241823
O O10 0.352270 0.153538 0.155388
O O11 0.309253 0.258448 0.917983
O O12 0.167936 0.500000 0.885134
O O13 0.314999 0.410785 0.038273
O O14 0.402187 0.500000 0.768885
O O15 0.325134 0.378932 0.769648
O O16 0.498076 0.380463 0.836942
#
# Coordination Sequence:
#
# PCOD9187337 Si02
#       8
#     8   8   2   8   8   8   8   8
#     4   9  19  33  58  89 125 163 218 268 327 383
#     4  10  20  37  61  90 126 174 214 263 331 394
#     4  12  24  44  68  94 130 168 220 284 338 392
#     4  12  25  41  64  98 132 178 222 278 336 404
#     4  11  23  40  59  88 125 174 219 279 325 384
#     4  10  19  35  58  91 123 168 215 267 335 403
#     4  10  21  38  60  90 132 168 213 272 326 400
#     4  12  24  39  63  94 128 170 219 279 338 391
#
# _framework density 23.695017
#
# number of rings (size 3 to 8) (size 9 to 14) (size 15 to 20)
#    0.000    1.379    4.138    1.655    1.931    1.655 
#    1.241    2.069    0.000    0.000    0.000    1.448 
#    0.000    0.000    0.000    0.000    0.000    0.000 
#
# Total GULP energy -161769.779804 kJ/mol
# GULP energy per Si atom -5578.268269 kJ/mol
# Density = 2.364109 g / cm^3
# Si number density = 23.695017 Si / 1000 Ang^3
#
#
#
# Elastic Constant Matrix: (Units=GPa)
#
#
# Indices 1 2 3 4 5 6 
#
# 1 30.6399 21.8554 -8.9740 0.0000 -11.1010 0.0000
# 2 21.8554 148.5005 -17.4584 0.0000 -15.7661 0.0000
# 3 -8.9740 -17.4584 1.2274 0.0000 -36.4000 0.0000
# 4 0.0000 0.0000 0.0000 26.9428 0.0000 -20.5575
# 5 -11.1010 -15.7661 -36.4000 0.0000 14.4891 0.0000
# 6 0.0000 0.0000 0.0000 -20.5575 0.0000 33.8434
#
#
#
# Elastic Compliance Matrix: (Units=1/GPa)
#
#
# Indices 1 2 3 4 5 6 
#
# 1 0.032620 -0.006447 -0.009250 0.000000 -0.005262 0.000000
# 2 -0.006447 0.007246 -0.001949 0.000000 -0.001952 0.000000
# 3 -0.009250 -0.001949 -0.006071 0.000000 -0.024462 0.000000
# 4 0.000000 0.000000 0.000000 0.069178 0.000000 0.042021
# 5 -0.005262 -0.001952 -0.024462 0.000000 0.001409 0.000000
# 6 0.000000 0.000000 0.000000 0.042021 0.000000 0.055073
#
#
# Mechanical properties :
#
#
# Convention : Reuss Voigt Hill
#
# Bulk Modulus (GPa) = -667.31816 19.02373 -324.14721
# Shear Modulus (GPa) = 25.74027 27.38470 26.56248
#
# Velocity S-wave (km/s) = 3.29951 3.40327 3.35179
# Velocity P-wave (km/s) = 16.36227 4.84655 11.05067
#
# Compressibility (1/GPa) = -0.00149854
#
# Stress axis : x y z
#
# Youngs Moduli (GPa) = 30.65595 137.99961 -164.70399
#
# Poissons Ratio (x) = 0.88968 -1.52357
# Poissons Ratio (y) = 0.19764 -0.32108
# Poissons Ratio (z) = 0.28358 0.26902
#
# Static dielectric constant tensor:
#      x y z
#    x 1.911280 0.000000 -0.037180 
#    y 0.000000 1.976460 0.000000 
#    z -0.037180 0.000000 1.953540 
# 
# From -- ./inp_files/168997.got.cif
#   From: 2010.05.17/outbox.cif.g08.bks.cpg/sg12_85_cif.got.tgz:168997.got - 2010.06.03 13:09:07.
