data_PCOD9187247
_publ_section_title
;
Structure prediction by ZEFSAII (Michael W. Deem and Ramdas Pophale) SiO2 
 PCOD9187247
Probable space group: C 2/M
;
_chemical_formula_sum "Si O2"
_cell_formula_units_Z 56
_cell_length_a 16.806367
_cell_length_b 15.555373
_cell_length_c 12.600038
_cell_angle_alpha 90.000000
_cell_angle_beta 112.695243
_cell_angle_gamma 90.000000
_cell_volume 3038.963717
_symmetry_space_group_name_H-M "C 2/M"
_symmetry_group_IT_number 12
_symmetry_cell_setting 'monoclinic'
loop_
_space_group_symop_operation_xyz
x,y,z
-x,y,-z
-x,-y,-z
x,-y,z
1/2+x,1/2+y,z
1/2-x,1/2+y,-z
1/2-x,1/2-y,-z
1/2+x,1/2-y,z
loop_
_atom_site_type_symbol
_atom_site_label
_atom_site_fract_x
_atom_site_fract_y
_atom_site_fract_z
Si Si1 0.453846 0.092250 0.590473
Si Si2 0.937186 0.341440 0.167836
Si Si3 0.297081 0.189329 0.938959
Si Si4 0.364241 0.682665 0.266800
Si Si5 0.936151 0.213619 0.876432
Si Si6 0.156486 0.237040 0.502217
Si Si7 0.953417 0.899000 0.678544
O O1 0.500000 0.092957 0.500000
O O2 0.522493 0.097823 0.722072
O O3 0.396837 0.178025 0.559149
O O4 0.406960 0.000000 0.575865
O O5 0.894337 0.264175 0.212545
O O6 0.016606 0.297718 0.146784
O O7 0.866299 0.366493 0.042361
O O8 0.221541 0.144756 0.832540
O O9 0.349720 0.252456 0.887012
O O10 0.250000 0.250000 0.000000
O O11 0.343224 0.720169 0.371816
O O12 0.447492 0.621103 0.304052
O O13 0.932469 0.143817 0.781983
O O14 0.000000 0.179318 0.000000
O O15 0.250000 0.250000 0.500000
O O16 0.107767 0.154314 0.430861
O O17 0.937907 0.000000 0.670044
#
# Coordination Sequence:
#
# PCOD9187247 Si02
#       7
#     8   8   8   8   8   8   8
#     4  11  21  38  63  90 118 154 199 246 298 356
#     4   9  17  34  58  84 117 150 195 240 295 348
#     4   9  18  32  58  90 114 151 199 237 290 354
#     4  10  19  35  58  84 118 157 200 238 291 352
#     4   9  17  33  59  86 114 155 194 241 291 345
#     4  12  23  38  62  86 119 157 199 248 303 355
#     4  11  23  39  60  87 120 158 200 243 296 357
#
# _framework density 18.427336
#
# number of rings (size 3 to 8) (size 9 to 14) (size 15 to 20)
#    0.000    1.857    4.286    2.143    0.000    2.000 
#    0.000    0.714    0.000    3.857    0.000    0.000 
#    0.000    0.000    0.000    0.000    0.000    0.000 
#
# Total GULP energy -155990.756851 kJ/mol
# GULP energy per Si atom -5571.098459 kJ/mol
# Density = 1.838539 g / cm^3
# Si number density = 18.427336 Si / 1000 Ang^3
#
#
#
# Elastic Constant Matrix: (Units=GPa)
#
#
# Indices 1 2 3 4 5 6 
#
# 1 127.1711 30.1053 49.2857 0.0000 -2.2956 0.0000
# 2 30.1053 59.1442 29.5533 0.0000 13.5961 0.0000
# 3 49.2857 29.5533 110.5761 0.0000 8.2249 0.0000
# 4 0.0000 0.0000 0.0000 -3.5606 0.0000 -4.4218
# 5 -2.2956 13.5961 8.2249 0.0000 32.8586 0.0000
# 6 0.0000 0.0000 0.0000 -4.4218 0.0000 5.3494
#
#
#
# Elastic Compliance Matrix: (Units=1/GPa)
#
#
# Indices 1 2 3 4 5 6 
#
# 1 0.010371 -0.004182 -0.003757 0.000000 0.003395 0.000000
# 2 -0.004182 0.022865 -0.003588 0.000000 -0.008855 0.000000
# 3 -0.003757 -0.003588 0.011806 0.000000 -0.001733 0.000000
# 4 0.000000 0.000000 0.000000 -0.138589 0.000000 -0.114556
# 5 0.003395 -0.008855 -0.001733 0.000000 0.034768 0.000000
# 6 0.000000 0.000000 0.000000 -0.114556 0.000000 0.092246
#
#
# Mechanical properties :
#
#
# Convention : Reuss Voigt Hill
#
# Bulk Modulus (GPa) = 45.48199 57.19778 51.33988
# Shear Modulus (GPa) = 78.30576 19.45928 48.88252
#
# Velocity S-wave (km/s) = 6.52584 3.25314 5.15604
# Velocity P-wave (km/s) = 9.02871 6.72440 7.96037
#
# Compressibility (1/GPa) = 0.02198672
#
# Stress axis : x y z
#
# Youngs Moduli (GPa) = 96.42364 43.73456 84.70100
#
# Poissons Ratio (x) = 0.18290 0.31825
# Poissons Ratio (y) = 0.40325 0.30394
# Poissons Ratio (z) = 0.36230 0.15694
#
# Static dielectric constant tensor:
#      x y z
#    x 1.650050 0.000000 0.017000 
#    y 0.000000 1.613300 0.000000 
#    z 0.017000 0.000000 1.712840 
# 
# From -- ./inp_files/156719.got.cif
#   From: 2010.05.17/outbox.cif.g08.bks.cpg/sg12_79_cif.got.tgz:156719.got - 2010.06.03 13:09:07.
