data_PCOD9187643
_publ_section_title
;
Structure prediction by ZEFSAII (Michael W. Deem and Ramdas Pophale) SiO2 
 PCOD9187643
Probable space group: C 2/M
;
_chemical_formula_sum "Si O2"
_cell_formula_units_Z 58
_cell_length_a 28.703560
_cell_length_b 7.383875
_cell_length_c 25.324177
_cell_angle_alpha 90.000000
_cell_angle_beta 149.643314
_cell_angle_gamma 90.000000
_cell_volume 2712.531887
_symmetry_space_group_name_H-M "C 2/M"
_symmetry_group_IT_number 12
_symmetry_cell_setting 'monoclinic'
loop_
_space_group_symop_operation_xyz
x,y,z
-x,y,-z
-x,-y,-z
x,-y,z
1/2+x,1/2+y,z
1/2-x,1/2+y,-z
1/2-x,1/2-y,-z
1/2+x,1/2-y,z
loop_
_atom_site_type_symbol
_atom_site_label
_atom_site_fract_x
_atom_site_fract_y
_atom_site_fract_z
Si Si1 0.695598 0.214655 0.393027
Si Si2 0.533935 0.709436 0.716150
Si Si3 0.914208 0.776624 0.003746
Si Si4 0.797563 0.704302 0.191960
Si Si5 0.500000 0.000000 0.000000
Si Si6 0.107166 0.781207 0.605804
Si Si7 0.357276 0.278539 0.476437
Si Si8 0.515023 0.296587 0.812935
O O1 0.750000 0.250000 0.500000
O O2 0.764818 0.277967 0.415387
O O3 0.595709 0.300621 0.296356
O O4 0.681545 0.000000 0.373236
O O5 0.507705 0.500000 0.699556
O O6 0.627980 0.711110 0.774933
O O7 0.449175 0.783533 0.597730
O O8 0.542615 0.789626 0.783511
O O9 0.805853 0.726488 0.902287
O O10 0.922368 0.000000 0.004263
O O11 0.956506 0.723721 0.102207
O O12 0.961525 0.660337 0.003832
O O13 0.788048 0.500000 0.163230
O O14 0.843025 0.708053 0.294241
O O15 0.145324 0.722103 0.586742
O O16 0.000000 0.732769 0.500000
O O17 0.113102 0.000000 0.615233
O O18 0.360537 0.500000 0.479384
O O19 0.554757 0.500000 0.851793
#
# Coordination Sequence:
#
# PCOD9187643 Si02
#       8
#     8   8   8   8   2   8   8   8
#     4  11  21  35  58  90 129 171 222 269 325 402
#     4  10  19  37  66  91 124 174 218 255 327 405
#     4  10  26  49  71 103 139 172 227 286 336 400
#     4  11  24  41  61  94 135 171 211 281 338 392
#     4  12  26  48  84  98 126 188 230 274 348 400
#     4  10  19  35  60  86 120 167 218 268 319 393
#     4   9  18  34  54  85 122 163 211 263 319 383
#     4  10  22  43  66  92 133 175 215 283 343 389
#
# _framework density 21.382238000000001
#
# number of rings (size 3 to 8) (size 9 to 14) (size 15 to 20)
#    0.000    1.793    2.759    1.034    2.897    2.483 
#    2.483    2.759    0.000    0.000    0.000    0.000 
#    0.000    0.000    0.000    0.000    0.000    0.000 
#
# Total GULP energy -161598.797772 kJ/mol
# GULP energy per Si atom -5572.372337 kJ/mol
# Density = 2.133357 g / cm^3
# Si number density = 21.382238 Si / 1000 Ang^3
#
#
#
# Elastic Constant Matrix: (Units=GPa)
#
#
# Indices 1 2 3 4 5 6 
#
# 1 223.0141 22.7389 77.3003 0.0000 -9.9081 0.0000
# 2 22.7389 92.8664 7.0227 -0.0001 -0.7295 -0.0001
# 3 77.3003 7.0227 128.7805 0.0000 -8.3562 0.0000
# 4 0.0000 -0.0001 0.0000 1.3518 0.0000 17.6764
# 5 -9.9081 -0.7295 -8.3562 0.0000 14.8637 0.0000
# 6 0.0000 -0.0001 0.0000 17.6764 0.0000 6.7587
#
#
#
# Elastic Compliance Matrix: (Units=1/GPa)
#
#
# Indices 1 2 3 4 5 6 
#
# 1 0.005839 -0.001164 -0.003313 0.000000 0.001972 0.000000
# 2 -0.001164 0.011045 0.000084 0.000000 -0.000186 0.000000
# 3 -0.003313 0.000084 0.009970 0.000000 0.003401 0.000000
# 4 0.000000 0.000000 0.000000 -0.022282 0.000000 0.058277
# 5 0.001972 -0.000186 0.003401 0.000000 0.070495 0.000000
# 6 0.000000 0.000000 0.000000 0.058277 0.000000 -0.004457
#
#
# Mechanical properties :
#
#
# Convention : Reuss Voigt Hill
#
# Bulk Modulus (GPa) = 55.34542 73.19829 64.27185
# Shear Modulus (GPa) = 58.53530 27.10145 42.81838
#
# Velocity S-wave (km/s) = 5.23785 3.56402 4.47981
# Velocity P-wave (km/s) = 7.90697 7.15848 7.54202
#
# Compressibility (1/GPa) = 0.01806834
#
# Stress axis : x y z
#
# Youngs Moduli (GPa) = 171.27064 90.53660 100.30098
#
# Poissons Ratio (x) = 0.10535 0.33232
# Poissons Ratio (y) = 0.19929 -0.00843
# Poissons Ratio (z) = 0.56746 -0.00761
#
# Static dielectric constant tensor:
#      x y z
#    x 1.790030 0.000000 -0.004210 
#    y 0.000000 1.916770 0.000000 
#    z -0.004210 0.000000 1.736630 
# 
# From -- ./inp_files/351474.got.cif
#   From: 2010.05.17/outbox.cif.g08.bks.cpg/sg12_176_cif.got.tgz:351474.got - 2010.06.03 13:09:07.
