data_PCOD9187556
_publ_section_title
;
Structure prediction by ZEFSAII (Michael W. Deem and Ramdas Pophale) SiO2 
 PCOD9187556
Probable space group: C 2/M
;
_chemical_formula_sum "Si O2"
_cell_formula_units_Z 48
_cell_length_a 23.855595
_cell_length_b 8.603677
_cell_length_c 12.476715
_cell_angle_alpha 90.000000
_cell_angle_beta 111.368419
_cell_angle_gamma 90.000000
_cell_volume 2384.756596
_symmetry_space_group_name_H-M "C 2/M"
_symmetry_group_IT_number 12
_symmetry_cell_setting 'monoclinic'
loop_
_space_group_symop_operation_xyz
x,y,z
-x,y,-z
-x,-y,-z
x,-y,z
1/2+x,1/2+y,z
1/2-x,1/2+y,-z
1/2-x,1/2-y,-z
1/2+x,1/2-y,z
loop_
_atom_site_type_symbol
_atom_site_label
_atom_site_fract_x
_atom_site_fract_y
_atom_site_fract_z
Si Si1 0.922924 0.312438 0.750645
Si Si2 0.236179 0.813957 0.108257
Si Si3 0.551130 0.810211 0.771206
Si Si4 0.148604 0.687796 0.666458
Si Si5 0.104841 0.312845 0.036472
Si Si6 0.817423 0.815879 0.538216
O O1 0.919645 0.500000 0.743558
O O2 0.930974 0.268514 0.881156
O O3 0.861513 0.245678 0.661276
O O4 0.981492 0.262511 0.724299
O O5 0.290931 0.773311 0.225163
O O6 0.172780 0.744136 0.099058
O O7 0.232366 0.000000 0.101618
O O8 0.250000 0.750000 0.000000
O O9 0.591917 0.761647 0.699509
O O10 0.552489 0.000000 0.772613
O O11 0.580078 0.757805 0.904533
O O12 0.146115 0.500000 0.653128
O O13 0.153717 0.762173 0.553961
O O14 0.104413 0.500000 0.031069
O O15 0.750000 0.750000 0.500000
O O16 0.813934 0.000000 0.541599
#
# Coordination Sequence:
#
# PCOD9187556 Si02
#       6
#     8   8   8   8   8   8
#     4  10  21  38  64  91 119 158 202 243 291 349
#     4  11  21  34  56  86 119 154 193 242 295 349
#     4   9  18  36  61  91 123 158 197 241 290 350
#     4  10  21  39  62  88 122 159 200 244 291 348
#     4  10  19  35  59  90 123 157 200 245 290 345
#     4  12  26  44  64  86 117 153 199 250 300 355
#
# _framework density 20.127839000000002
#
# number of rings (size 3 to 8) (size 9 to 14) (size 15 to 20)
#    0.000    1.667    1.667    3.500    0.000    7.333 
#    0.000    5.000    0.000    2.000    0.000    0.000 
#    0.000    0.000    0.000    0.000    0.000    0.000 
#
# Total GULP energy -134110.474983 kJ/mol
# GULP energy per Si atom -5587.936458 kJ/mol
# Density = 2.008203 g / cm^3
# Si number density = 20.127839 Si / 1000 Ang^3
#
#
#
# Elastic Constant Matrix: (Units=GPa)
#
#
# Indices 1 2 3 4 5 6 
#
# 1 139.0457 18.4827 38.1011 0.0000 -7.3864 0.0000
# 2 18.4827 10.4074 24.6971 0.0000 -5.1373 0.0000
# 3 38.1011 24.6971 88.8223 0.0000 -13.6098 0.0000
# 4 0.0000 0.0000 0.0000 26.5881 0.0000 1.9591
# 5 -7.3864 -5.1373 -13.6098 0.0000 30.9644 0.0000
# 6 0.0000 0.0000 0.0000 1.9591 0.0000 20.2018
#
#
#
# Elastic Compliance Matrix: (Units=1/GPa)
#
#
# Indices 1 2 3 4 5 6 
#
# 1 0.009519 -0.021399 0.001791 0.000000 -0.000492 0.000000
# 2 -0.021399 0.335712 -0.081931 0.000000 0.014582 0.000000
# 3 0.001791 -0.081931 0.033511 0.000000 0.001563 0.000000
# 4 0.000000 0.000000 0.000000 0.037882 0.000000 -0.003674
# 5 -0.000492 0.014582 0.001563 0.000000 0.035284 0.000000
# 6 0.000000 0.000000 0.000000 -0.003674 0.000000 0.049857
#
#
# Mechanical properties :
#
#
# Convention : Reuss Voigt Hill
#
# Bulk Modulus (GPa) = 5.69270 44.53748 25.11509
# Shear Modulus (GPa) = 6.54966 26.01717 16.28342
#
# Velocity S-wave (km/s) = 1.80585 3.59917 2.84738
# Velocity P-wave (km/s) = 2.68003 6.28071 4.82856
#
# Compressibility (1/GPa) = 0.17566343
#
# Stress axis : x y z
#
# Youngs Moduli (GPa) = 105.04860 2.97874 29.84124
#
# Poissons Ratio (x) = 0.06374 -0.05345
# Poissons Ratio (y) = 2.24796 2.44493
# Poissons Ratio (z) = -0.18817 0.24405
#
# Static dielectric constant tensor:
#      x y z
#    x 1.713930 0.000000 -0.008240 
#    y 0.000000 1.685630 0.000000 
#    z -0.008240 0.000000 1.708710 
# 
# From -- ./inp_files/173071.got.cif
#   From: 2010.05.17/outbox.cif.g08.bks.cpg/sg12_87_cif.got.tgz:173071.got - 2010.06.03 13:09:07.
