data_PCOD9187736
_publ_section_title
;
Structure prediction by ZEFSAII (Michael W. Deem and Ramdas Pophale) SiO2 
 PCOD9187736
Probable space group: C 2/M
;
_chemical_formula_sum "Si O2"
_cell_formula_units_Z 48
_cell_length_a 10.270674
_cell_length_b 31.335138
_cell_length_c 11.581400
_cell_angle_alpha 90.000000
_cell_angle_beta 37.501670
_cell_angle_gamma 90.000000
_cell_volume 2269.108391
_symmetry_space_group_name_H-M "C 2/M"
_symmetry_group_IT_number 12
_symmetry_cell_setting 'monoclinic'
loop_
_space_group_symop_operation_xyz
x,y,z
-x,y,-z
-x,-y,-z
x,-y,z
1/2+x,1/2+y,z
1/2-x,1/2+y,-z
1/2-x,1/2-y,-z
1/2+x,1/2-y,z
loop_
_atom_site_type_symbol
_atom_site_label
_atom_site_fract_x
_atom_site_fract_y
_atom_site_fract_z
Si Si1 0.106845 0.872529 0.044527
Si Si2 0.457060 0.831886 0.199117
Si Si3 0.200659 0.347233 0.429411
Si Si4 0.233248 0.914572 0.278966
Si Si5 0.763185 0.748868 0.628845
Si Si6 0.834390 0.549514 0.953629
O O1 0.217844 0.918263 0.949475
O O2 0.912182 0.874808 0.270972
O O3 0.292914 0.842371 0.964042
O O4 0.000000 0.858632 0.000000
O O5 0.366198 0.839654 0.392428
O O6 0.327378 0.866163 0.213846
O O7 0.403366 0.783193 0.205531
O O8 0.255700 0.301259 0.331427
O O9 0.000000 0.365168 0.500000
O O10 0.252793 0.935004 0.137936
O O11 0.000000 0.916109 0.500000
O O12 0.412399 0.940397 0.225855
O O13 0.750000 0.750000 0.500000
O O14 0.000000 0.762766 0.500000
O O15 0.793238 0.500000 0.965771
#
# Coordination Sequence:
#
# PCOD9187736 Si02
#       6
#     8   8   8   8   8   8
#     4  11  22  37  60  81 110 153 195 235 288 347
#     4  10  20  35  58  87 115 151 195 232 284 344
#     4  10  19  36  58  80 115 153 193 237 282 335
#     4  10  19  35  61  84 114 148 182 230 290 351
#     4   9  19  34  57  85 118 157 194 239 284 333
#     4  10  23  39  56  85 115 144 187 240 295 352
#
# _framework density 21.153683000000001
#
# number of rings (size 3 to 8) (size 9 to 14) (size 15 to 20)
#    0.000    2.000    1.667    2.500    0.000    3.667 
#    0.000    0.000    7.333    0.500    0.000    0.000 
#    0.000    0.000    0.000    0.000    0.000    0.000 
#
# Total GULP energy -134006.149930 kJ/mol
# GULP energy per Si atom -5583.589580 kJ/mol
# Density = 2.110554 g / cm^3
# Si number density = 21.153683 Si / 1000 Ang^3
#
#
#
# Elastic Constant Matrix: (Units=GPa)
#
#
# Indices 1 2 3 4 5 6 
#
# 1 77.2714 14.5872 42.1917 0.0000 -19.6852 0.0000
# 2 14.5872 88.7850 20.6775 0.0000 -26.1566 0.0000
# 3 42.1917 20.6775 129.3430 0.0000 -28.0396 0.0000
# 4 0.0000 0.0000 0.0000 16.7307 0.0000 5.6554
# 5 -19.6852 -26.1566 -28.0396 0.0000 36.8654 0.0000
# 6 0.0000 0.0000 0.0000 5.6554 0.0000 11.9482
#
#
#
# Elastic Compliance Matrix: (Units=1/GPa)
#
#
# Indices 1 2 3 4 5 6 
#
# 1 0.016695 -0.000101 -0.004206 0.000000 0.005644 0.000000
# 2 -0.000101 0.014241 -0.000078 0.000000 0.009992 0.000000
# 3 -0.004206 -0.000078 0.010318 0.000000 0.005547 0.000000
# 4 0.000000 0.000000 0.000000 0.071155 0.000000 -0.033679
# 5 0.005644 0.009992 0.005547 0.000000 0.041448 0.000000
# 6 0.000000 0.000000 0.000000 -0.033679 0.000000 0.099636
#
#
# Mechanical properties :
#
#
# Convention : Reuss Voigt Hill
#
# Bulk Modulus (GPa) = 30.78313 50.03469 40.40891
# Shear Modulus (GPa) = 18.30891 27.63840 22.97365
#
# Velocity S-wave (km/s) = 2.94516 3.61855 3.29908
# Velocity P-wave (km/s) = 5.11361 6.41583 5.80137
#
# Compressibility (1/GPa) = 0.03248532
#
# Stress axis : x y z
#
# Youngs Moduli (GPa) = 59.89840 70.21778 96.91446
#
# Poissons Ratio (x) = 0.00706 0.40765
# Poissons Ratio (y) = 0.00602 0.00755
# Poissons Ratio (z) = 0.25195 0.00547
#
# Static dielectric constant tensor:
#      x y z
#    x 1.799750 0.000000 0.002410 
#    y 0.000000 1.784530 0.000000 
#    z 0.002410 0.000000 1.771430 
# 
# From -- ./inp_files/209789.got.cif
#   From: 2010.05.17/outbox.cif.g08.bks.cpg/sg12_105_cif.got.tgz:209789.got - 2010.06.03 13:09:07.
