data_PCOD9187282
_publ_section_title
;
Structure prediction by ZEFSAII (Michael W. Deem and Ramdas Pophale) SiO2 
 PCOD9187282
Probable space group: C 2/M
;
_chemical_formula_sum "Si O2"
_cell_formula_units_Z 56
_cell_length_a 34.918178
_cell_length_b 14.657987
_cell_length_c 10.057285
_cell_angle_alpha 90.000000
_cell_angle_beta 27.936271
_cell_angle_gamma 90.000000
_cell_volume 2411.605332
_symmetry_space_group_name_H-M "C 2/M"
_symmetry_group_IT_number 12
_symmetry_cell_setting 'monoclinic'
loop_
_space_group_symop_operation_xyz
x,y,z
-x,y,-z
-x,-y,-z
x,-y,z
1/2+x,1/2+y,z
1/2-x,1/2+y,-z
1/2-x,1/2-y,-z
1/2+x,1/2-y,z
loop_
_atom_site_type_symbol
_atom_site_label
_atom_site_fract_x
_atom_site_fract_y
_atom_site_fract_z
Si Si1 0.814960 0.107201 0.176643
Si Si2 0.444080 0.398616 0.009668
Si Si3 0.028179 0.687680 0.106591
Si Si4 0.803354 0.153525 0.632762
Si Si5 0.126000 0.647892 0.553568
Si Si6 0.701458 0.598064 0.049726
Si Si7 0.172159 0.610224 0.817336
O O1 0.893127 0.108922 0.030077
O O2 0.832282 0.148369 0.978247
O O3 0.737951 0.140015 0.500597
O O4 0.797266 0.000000 0.208197
O O5 0.484715 0.500000 0.887259
O O6 0.482624 0.296445 0.895719
O O7 0.376498 0.399533 0.334128
O O8 0.073810 0.632563 0.846785
O O9 0.088068 0.664583 0.045606
O O10 0.935796 0.652556 0.380900
O O11 0.831625 0.256896 0.538231
O O12 0.720723 0.131695 0.805018
O O13 0.800377 0.137244 0.798378
O O14 0.203425 0.589691 0.279534
O O15 0.659468 0.500000 0.188127
O O16 0.160093 0.500000 0.846880
#
# Coordination Sequence:
#
# PCOD9187282 Si02
#       7
#     8   8   8   8   8   8   8
#     4   8  16  29  52  83 106 132 181 231 272 317
#     4   9  18  35  57  83 109 141 188 235 275 326
#     4  10  21  36  58  82 115 152 186 227 282 333
#     4  10  21  36  57  80 114 145 185 232 279 329
#     4  10  22  37  53  84 116 148 187 229 278 338
#     4  11  20  34  56  83 112 144 182 231 284 332
#     4  10  19  35  58  86 112 146 189 233 277 330
#
# _framework density 23.221046000000001
#
# number of rings (size 3 to 8) (size 9 to 14) (size 15 to 20)
#    0.000    2.286    1.429    2.571    2.000    2.286 
#    0.000    9.286    0.000    1.714    0.000    3.000 
#    0.000    0.000    0.000    0.000    0.000    0.000 
#
# Total GULP energy -155971.385923 kJ/mol
# GULP energy per Si atom -5570.406640 kJ/mol
# Density = 2.316819 g / cm^3
# Si number density = 23.221046 Si / 1000 Ang^3
#
#
#
# Elastic Constant Matrix: (Units=GPa)
#
#
# Indices 1 2 3 4 5 6 
#
# 1 149.7066 8.1795 26.4144 0.0000 17.4738 0.0000
# 2 8.1795 74.2555 13.1025 0.0000 2.9827 0.0000
# 3 26.4144 13.1025 25.2048 0.0000 12.5993 0.0000
# 4 0.0000 0.0000 0.0000 64.1646 0.0000 -29.8662
# 5 17.4738 2.9827 12.5993 0.0000 35.9647 0.0000
# 6 0.0000 0.0000 0.0000 -29.8662 0.0000 24.2387
#
#
#
# Elastic Compliance Matrix: (Units=1/GPa)
#
#
# Indices 1 2 3 4 5 6 
#
# 1 0.008262 0.000621 -0.008425 0.000000 -0.001115 0.000000
# 2 0.000621 0.014969 -0.009287 0.000000 0.001710 0.000000
# 3 -0.008425 -0.009287 0.061707 0.000000 -0.016754 0.000000
# 4 0.000000 0.000000 0.000000 0.036544 0.000000 0.045028
# 5 -0.001115 0.001710 -0.016754 0.000000 0.034074 0.000000
# 6 0.000000 0.000000 0.000000 0.045028 0.000000 0.096739
#
#
# Mechanical properties :
#
#
# Convention : Reuss Voigt Hill
#
# Bulk Modulus (GPa) = 19.70205 38.28443 28.99324
# Shear Modulus (GPa) = 16.48017 38.30497 27.39257
#
# Velocity S-wave (km/s) = 2.66693 4.06591 3.43832
# Velocity P-wave (km/s) = 4.24103 6.21006 5.31748
#
# Compressibility (1/GPa) = 0.05075614
#
# Stress axis : x y z
#
# Youngs Moduli (GPa) = 121.03106 66.80629 16.20570
#
# Poissons Ratio (x) = -0.04150 0.13653
# Poissons Ratio (y) = -0.07518 0.15051
# Poissons Ratio (z) = 1.01965 0.62045
#
# Static dielectric constant tensor:
#      x y z
#    x 1.979250 0.000000 0.034870 
#    y 0.000000 1.931480 0.000000 
#    z 0.034870 0.000000 1.897250 
# 
# From -- ./inp_files/112589.got.cif
#   From: 2010.05.17/outbox.cif.g08.bks.cpg/sg12_57_cif.got.tgz:112589.got - 2010.06.03 13:09:07.
