data_PCOD9187668
_publ_section_title
;
Structure prediction by ZEFSAII (Michael W. Deem and Ramdas Pophale) SiO2 
 PCOD9187668
Probable space group: C 2/M
;
_chemical_formula_sum "Si O2"
_cell_formula_units_Z 64
_cell_length_a 31.915283
_cell_length_b 8.847831
_cell_length_c 19.443874
_cell_angle_alpha 90.000000
_cell_angle_beta 144.396055
_cell_angle_gamma 90.000000
_cell_volume 3196.500801
_symmetry_space_group_name_H-M "C 2/M"
_symmetry_group_IT_number 12
_symmetry_cell_setting 'monoclinic'
loop_
_space_group_symop_operation_xyz
x,y,z
-x,y,-z
-x,-y,-z
x,-y,z
1/2+x,1/2+y,z
1/2-x,1/2+y,-z
1/2-x,1/2-y,-z
1/2+x,1/2-y,z
loop_
_atom_site_type_symbol
_atom_site_label
_atom_site_fract_x
_atom_site_fract_y
_atom_site_fract_z
Si Si1 0.443239 0.319239 0.983663
Si Si2 0.200009 0.322736 0.174641
Si Si3 0.182714 0.319983 0.448534
Si Si4 0.852036 0.823800 0.183895
Si Si5 0.520517 0.182141 0.217827
Si Si6 0.285461 0.673250 0.943170
Si Si7 0.340669 0.819125 0.422833
Si Si8 0.991039 0.818517 0.645525
O O1 0.437994 0.500000 0.980087
O O2 0.364188 0.250433 0.867049
O O3 0.500000 0.278074 0.000000
O O4 0.473018 0.254550 0.095070
O O5 0.203259 0.500000 0.190822
O O6 0.184513 0.284005 0.074393
O O7 0.276485 0.246663 0.292210
O O8 0.188414 0.500000 0.451261
O O9 0.250000 0.250000 0.500000
O O10 0.104229 0.277066 0.314982
O O11 0.179969 0.281133 0.525624
O O12 0.796890 0.719291 0.151217
O O13 0.935850 0.783423 0.298107
O O14 0.842373 0.000000 0.191785
O O15 0.827667 0.813854 0.071391
O O16 0.503700 0.245623 0.271320
O O17 0.513781 0.000000 0.209542
O O18 0.291070 0.500000 0.926737
O O19 0.418573 0.745437 0.514767
O O20 0.345534 0.000000 0.422953
O O21 0.986814 0.000000 0.646868
#
# Coordination Sequence:
#
# PCOD9187668 Si02
#       8
#     8   8   8   8   8   8   8   8
#     4  11  25  42  60  84 114 152 194 240 293 349
#     4  12  25  41  62  85 117 157 195 240 294 354
#     4   9  20  35  55  81 109 143 185 237 288 337
#     4   9  19  35  58  89 123 153 192 241 288 343
#     4  10  21  37  56  83 115 149 192 239 287 344
#     4  10  20  36  60  90 122 158 195 235 289 348
#     4  10  22  40  58  82 115 153 198 244 293 351
#     4  10  19  35  60  88 118 155 196 241 293 345
#
# _framework density 20.021892000000001
#
# number of rings (size 3 to 8) (size 9 to 14) (size 15 to 20)
#    0.000    1.875    0.000    4.500    1.750    6.500 
#    0.000    0.625    0.000    3.750    0.000    0.000 
#    0.000    0.000    0.000    0.000    0.000    0.000 
#
# Total GULP energy -178837.588579 kJ/mol
# GULP energy per Si atom -5588.674643 kJ/mol
# Density = 1.997632 g / cm^3
# Si number density = 20.021892 Si / 1000 Ang^3
#
#
#
# Elastic Constant Matrix: (Units=GPa)
#
#
# Indices 1 2 3 4 5 6 
#
# 1 63.7835 20.3762 15.6899 0.0000 28.9056 0.0000
# 2 20.3762 51.9805 16.2726 0.0000 8.5416 0.0000
# 3 15.6899 16.2726 61.0007 0.0000 13.8789 0.0000
# 4 0.0000 0.0000 0.0000 25.6590 0.0000 7.0306
# 5 28.9056 8.5416 13.8789 0.0000 26.8448 0.0000
# 6 0.0000 0.0000 0.0000 7.0306 0.0000 30.8584
#
#
#
# Elastic Compliance Matrix: (Units=1/GPa)
#
#
# Indices 1 2 3 4 5 6 
#
# 1 0.033280 -0.007858 0.001270 0.000000 -0.033991 0.000000
# 2 -0.007858 0.023291 -0.005022 0.000000 0.003646 0.000000
# 3 0.001270 -0.005022 0.019667 0.000000 -0.009938 0.000000
# 4 0.000000 0.000000 0.000000 0.041568 0.000000 -0.009471
# 5 -0.033991 0.003646 -0.009938 0.000000 0.077829 0.000000
# 6 0.000000 0.000000 0.000000 -0.009471 0.000000 0.034564
#
#
# Mechanical properties :
#
#
# Convention : Reuss Voigt Hill
#
# Bulk Modulus (GPa) = 18.86098 31.27133 25.06616
# Shear Modulus (GPa) = 18.44397 24.96752 21.70575
#
# Velocity S-wave (km/s) = 3.03840 3.53514 3.29614
# Velocity P-wave (km/s) = 4.66367 5.68466 5.19929
#
# Compressibility (1/GPa) = 0.05301952
#
# Stress axis : x y z
#
# Youngs Moduli (GPa) = 30.04795 42.93489 50.84603
#
# Poissons Ratio (x) = 0.33737 -0.06457
# Poissons Ratio (y) = 0.23611 0.25533
# Poissons Ratio (z) = -0.03816 0.21560
#
# Static dielectric constant tensor:
#      x y z
#    x 1.709570 0.000000 0.002280 
#    y 0.000000 1.667020 0.000000 
#    z 0.002280 0.000000 1.734790 
# 
# From -- ./inp_files/295763.got.cif
#   From: 2010.05.17/outbox.cif.g08.bks.cpg/sg12_148_cif.got.tgz:295763.got - 2010.06.03 13:09:07.
