data_PCOD9187447
_publ_section_title
;
Structure prediction by ZEFSAII (Michael W. Deem and Ramdas Pophale) SiO2 
 PCOD9187447
Probable space group: C 2/M
;
_chemical_formula_sum "Si O2"
_cell_formula_units_Z 48
_cell_length_a 18.267188
_cell_length_b 14.704477
_cell_length_c 8.554227
_cell_angle_alpha 90.000000
_cell_angle_beta 89.832495
_cell_angle_gamma 90.000000
_cell_volume 2297.736354
_symmetry_space_group_name_H-M "C 2/M"
_symmetry_group_IT_number 12
_symmetry_cell_setting 'monoclinic'
loop_
_space_group_symop_operation_xyz
x,y,z
-x,y,-z
-x,-y,-z
x,-y,z
1/2+x,1/2+y,z
1/2-x,1/2+y,-z
1/2-x,1/2-y,-z
1/2+x,1/2-y,z
loop_
_atom_site_type_symbol
_atom_site_label
_atom_site_fract_x
_atom_site_fract_y
_atom_site_fract_z
Si Si1 0.129627 0.396212 0.563965
Si Si2 0.078864 0.203034 0.063073
Si Si3 0.713336 0.607399 0.579939
Si Si4 0.728819 0.650518 0.940125
Si Si5 0.121230 0.400780 0.934608
Si Si6 0.577782 0.286949 0.432489
O O1 0.113310 0.500000 0.515253
O O2 0.215711 0.379816 0.529740
O O3 0.114452 0.387568 0.748333
O O4 0.086753 0.320041 0.469455
O O5 0.082031 0.196903 0.248813
O O6 0.144423 0.142571 0.990774
O O7 0.090456 0.309743 0.015469
O O8 0.000000 0.174880 0.000000
O O9 0.697002 0.500000 0.585678
O O10 0.733707 0.639577 0.754279
O O11 0.644543 0.662824 0.517475
O O12 0.750000 0.750000 0.000000
O O13 0.792822 0.594174 0.021052
O O14 0.089173 0.500000 0.977704
O O15 0.500000 0.317966 0.500000
#
# Coordination Sequence:
#
# PCOD9187447 Si02
#       6
#     8   8   8   8   8   8
#     4  10  21  38  62  92 122 155 198 246 298 356
#     4  11  23  39  58  83 115 153 196 241 296 354
#     4  11  23  40  63  90 121 158 201 247 295 350
#     4  10  19  35  59  85 114 148 190 237 286 341
#     4  10  20  36  59  87 119 152 190 238 291 351
#     4  12  24  40  62  85 119 160 200 249 300 357
#
# _framework density 20.890125000000001
#
# number of rings (size 3 to 8) (size 9 to 14) (size 15 to 20)
#    0.000    1.333    0.000    8.000    0.000    3.000 
#    0.000    0.833    0.000    3.500    0.000    0.000 
#    0.000    0.000    0.000    0.000    0.000    0.000 
#
# Total GULP energy -134159.234257 kJ/mol
# GULP energy per Si atom -5589.968094 kJ/mol
# Density = 2.084258 g / cm^3
# Si number density = 20.890125 Si / 1000 Ang^3
#
#
#
# Elastic Constant Matrix: (Units=GPa)
#
#
# Indices 1 2 3 4 5 6 
#
# 1 70.7481 -3.1421 -13.2384 0.0000 3.8250 0.0000
# 2 -3.1421 49.5181 -2.1346 0.0000 -1.0253 0.0000
# 3 -13.2384 -2.1346 64.3162 0.0000 4.2453 0.0000
# 4 0.0000 0.0000 0.0000 -54.8486 0.0000 -50.7778
# 5 3.8250 -1.0253 4.2453 0.0000 34.1252 0.0000
# 6 0.0000 0.0000 0.0000 -50.7778 0.0000 -19.0230
#
#
#
# Elastic Compliance Matrix: (Units=1/GPa)
#
#
# Indices 1 2 3 4 5 6 
#
# 1 0.014897 0.001042 0.003236 0.000000 -0.002041 0.000000
# 2 0.001042 0.020306 0.000863 0.000000 0.000386 0.000000
# 3 0.003236 0.000863 0.016400 0.000000 -0.002377 0.000000
# 4 0.000000 0.000000 0.000000 0.012393 0.000000 -0.033080
# 5 -0.002041 0.000386 -0.002377 0.000000 0.029840 0.000000
# 6 0.000000 0.000000 0.000000 -0.033080 0.000000 0.035732
#
#
# Mechanical properties :
#
#
# Convention : Reuss Voigt Hill
#
# Bulk Modulus (GPa) = 16.15910 16.39467 16.27688
# Shear Modulus (GPa) = 35.73643 5.59056 20.66350
#
# Velocity S-wave (km/s) = 4.14053 1.63768 3.14849
# Velocity P-wave (km/s) = 5.53270 3.38246 4.58540
#
# Compressibility (1/GPa) = 0.06188463
#
# Stress axis : x y z
#
# Youngs Moduli (GPa) = 67.12880 49.24657 60.97666
#
# Poissons Ratio (x) = -0.05134 -0.19729
# Poissons Ratio (y) = -0.06998 -0.05263
# Poissons Ratio (z) = -0.21720 -0.04250
#
# Static dielectric constant tensor:
#      x y z
#    x 1.783230 0.000000 -0.024310 
#    y 0.000000 1.753780 0.000000 
#    z -0.024310 0.000000 1.685660 
# 
# From -- ./inp_files/73615.got.cif
#   From: 2010.05.17/outbox.cif.g08.bks.cpg/sg12_37_cif.got.tgz:73615.got - 2010.06.03 13:09:07.
