data_PCOD9187126
_publ_section_title
;
Structure prediction by ZEFSAII (Michael W. Deem and Ramdas Pophale) SiO2 
 PCOD9187126
Probable space group: C 2/M
;
_chemical_formula_sum "Si O2"
_cell_formula_units_Z 40
_cell_length_a 20.220963
_cell_length_b 7.541761
_cell_length_c 12.138984
_cell_angle_alpha 90.000000
_cell_angle_beta 70.146338
_cell_angle_gamma 90.000000
_cell_volume 1741.184836
_symmetry_space_group_name_H-M "C 2/M"
_symmetry_group_IT_number 12
_symmetry_cell_setting 'monoclinic'
loop_
_space_group_symop_operation_xyz
x,y,z
-x,y,-z
-x,-y,-z
x,-y,z
1/2+x,1/2+y,z
1/2-x,1/2+y,-z
1/2-x,1/2-y,-z
1/2+x,1/2-y,z
loop_
_atom_site_type_symbol
_atom_site_label
_atom_site_fract_x
_atom_site_fract_y
_atom_site_fract_z
Si Si1 0.192500 0.783069 0.299220
Si Si2 0.630587 0.714598 0.097332
Si Si3 0.929827 0.216267 0.472253
Si Si4 0.026655 0.794647 0.789695
Si Si5 0.158650 0.295317 0.842619
O O1 0.161328 0.731900 0.197805
O O2 0.139780 0.723081 0.424508
O O3 0.273059 0.721419 0.258170
O O4 0.193775 0.000000 0.299765
O O5 0.633232 0.500000 0.090026
O O6 0.549561 0.779551 0.137590
O O7 0.670148 0.781421 0.966834
O O8 0.939803 0.279210 0.341681
O O9 0.000000 0.264554 0.500000
O O10 0.926365 0.000000 0.474657
O O11 0.084821 0.789035 0.851219
O O12 0.011547 0.000000 0.772820
O O13 0.151512 0.500000 0.816742
#
# Coordination Sequence:
#
# PCOD9187126 Si02
#       5
#     8   8   8   8   8
#     4   9  18  33  54  80 106 134 172 219 264 306
#     4  10  19  35  58  79 101 134 182 226 252 292
#     4   9  15  30  57  83 101 125 172 226 265 299
#     4  10  20  34  57  83 103 131 176 224 260 299
#     4  11  23  35  49  76 115 147 168 203 263 322
#
# _framework density 22.972861999999999
#
# number of rings (size 3 to 8) (size 9 to 14) (size 15 to 20)
#    0.000    2.200    2.000    1.800    0.000    4.000 
#    0.000    1.000    0.000    3.000    0.000    0.000 
#    0.000    0.000    0.000    0.000    0.000    0.000 
#
# Total GULP energy -111751.486732 kJ/mol
# GULP energy per Si atom -5587.574337 kJ/mol
# Density = 2.292057 g / cm^3
# Si number density = 22.972862 Si / 1000 Ang^3
#
#
#
# Elastic Constant Matrix: (Units=GPa)
#
#
# Indices 1 2 3 4 5 6 
#
# 1 63.4852 1.6047 -7.5214 0.0000 -24.7915 0.0000
# 2 1.6047 54.2354 -2.1367 0.0000 -5.2807 0.0000
# 3 -7.5214 -2.1367 86.7409 0.0000 -19.8900 0.0000
# 4 0.0000 0.0000 0.0000 11.0638 0.0000 -3.2647
# 5 -24.7915 -5.2807 -19.8900 0.0000 44.7394 0.0000
# 6 0.0000 0.0000 0.0000 -3.2647 0.0000 -10.7066
#
#
#
# Elastic Compliance Matrix: (Units=1/GPa)
#
#
# Indices 1 2 3 4 5 6 
#
# 1 0.022111 0.000990 0.005320 0.000000 0.014735 0.000000
# 2 0.000990 0.018787 0.001317 0.000000 0.003352 0.000000
# 3 0.005320 0.001317 0.014180 0.000000 0.009408 0.000000
# 4 0.000000 0.000000 0.000000 0.082924 0.000000 -0.025286
# 5 0.014735 0.003352 0.009408 0.000000 0.035094 0.000000
# 6 0.000000 0.000000 0.000000 -0.025286 0.000000 -0.085690
#
#
# Mechanical properties :
#
#
# Convention : Reuss Voigt Hill
#
# Bulk Modulus (GPa) = 14.21812 20.92830 17.57321
# Shear Modulus (GPa) = 52.30393 23.18697 37.74545
#
# Velocity S-wave (km/s) = 4.77673 3.18043 4.05785
# Velocity P-wave (km/s) = 6.05189 4.75569 5.44252
#
# Compressibility (1/GPa) = 0.07033278
#
# Stress axis : x y z
#
# Youngs Moduli (GPa) = 45.22636 53.22804 70.52411
#
# Poissons Ratio (x) = -0.05270 -0.37521
# Poissons Ratio (y) = -0.04478 -0.09289
# Poissons Ratio (z) = -0.24062 -0.07011
#
# Static dielectric constant tensor:
#      x y z
#    x 1.836840 0.000000 -0.020330 
#    y 0.000000 1.898810 0.000000 
#    z -0.020330 0.000000 1.828060 
# 
# From -- ./inp_files/151732.got.cif
#   From: 2010.05.17/outbox.cif.g08.bks.cpg/sg12_76_cif.got.tgz:151732.got - 2010.06.03 13:09:07.
