data_PCOD9187861
_publ_section_title
;
Structure prediction by ZEFSAII (Michael W. Deem and Ramdas Pophale) SiO2 
 PCOD9187861
Probable space group: C 2/M
;
_chemical_formula_sum "Si O2"
_cell_formula_units_Z 32
_cell_length_a 9.564619
_cell_length_b 32.436075
_cell_length_c 5.318893
_cell_angle_alpha 90.000000
_cell_angle_beta 55.399535
_cell_angle_gamma 90.000000
_cell_volume 1358.271485
_symmetry_space_group_name_H-M "C 2/M"
_symmetry_group_IT_number 12
_symmetry_cell_setting 'monoclinic'
loop_
_space_group_symop_operation_xyz
x,y,z
-x,y,-z
-x,-y,-z
x,-y,z
1/2+x,1/2+y,z
1/2-x,1/2+y,-z
1/2-x,1/2-y,-z
1/2+x,1/2-y,z
loop_
_atom_site_type_symbol
_atom_site_label
_atom_site_fract_x
_atom_site_fract_y
_atom_site_fract_z
Si Si1 0.792165 0.797920 0.961060
Si Si2 0.676426 0.332592 0.573835
Si Si3 0.165549 0.071682 0.690716
Si Si4 0.338727 0.951935 0.016770
O O1 0.730487 0.821277 0.776859
O O2 0.995525 0.808142 0.755363
O O3 0.750000 0.750000 0.000000
O O4 0.724111 0.816986 0.286445
O O5 0.638417 0.380597 0.645047
O O6 0.203891 0.050657 0.384231
O O7 0.297745 0.068260 0.789387
O O8 0.000000 0.054425 0.000000
O O9 0.372047 0.000000 0.926279
O O10 0.500000 0.933285 0.000000
#
# Coordination Sequence:
#
# PCOD9187861 Si02
#       4
#     8   8   8   8
#     4  10  19  35  62  85 120 164 211 260 339 401
#     4  10  21  37  61  92 125 170 210 281 339 388
#     4  12  23  41  75 102 139 181 229 295 344 405
#     4  11  26  46  69  99 143 188 229 281 347 416
#
# _framework density 23.559356000000001
#
# number of rings (size 3 to 8) (size 9 to 14) (size 15 to 20)
#    0.000    1.250    2.500    4.500    3.500    5.000 
#    0.000    0.000   55.000    0.000    0.000    0.000 
#    0.000    0.000    0.000    0.000    0.000    0.000 
#
# Total GULP energy -89318.206513 kJ/mol
# GULP energy per Si atom -5582.387907 kJ/mol
# Density = 2.350573 g / cm^3
# Si number density = 23.559356 Si / 1000 Ang^3
#
#
#
# Elastic Constant Matrix: (Units=GPa)
#
#
# Indices 1 2 3 4 5 6 
#
# 1 74.1317 16.9016 39.8168 0.0000 18.1085 0.0000
# 2 16.9016 84.0547 7.1172 0.0000 9.1202 0.0000
# 3 39.8168 7.1172 123.3463 0.0000 56.2466 0.0000
# 4 0.0000 0.0000 0.0000 32.0085 0.0000 17.1994
# 5 18.1085 9.1202 56.2466 0.0000 51.8213 0.0000
# 6 0.0000 0.0000 0.0000 17.1994 0.0000 39.3566
#
#
#
# Elastic Compliance Matrix: (Units=1/GPa)
#
#
# Indices 1 2 3 4 5 6 
#
# 1 0.017040 -0.003025 -0.005650 0.000000 0.000710 0.000000
# 2 -0.003025 0.012684 0.001545 0.000000 -0.002853 0.000000
# 3 -0.005650 0.001545 0.017950 0.000000 -0.017780 0.000000
# 4 0.000000 0.000000 0.000000 0.040829 0.000000 -0.017843
# 5 0.000710 -0.002853 -0.017780 0.000000 0.038850 0.000000
# 6 0.000000 0.000000 0.000000 -0.017843 0.000000 0.033206
#
#
# Mechanical properties :
#
#
# Convention : Reuss Voigt Hill
#
# Bulk Modulus (GPa) = 29.92695 45.46710 37.69702
# Shear Modulus (GPa) = 26.88788 39.15043 33.01915
#
# Velocity S-wave (km/s) = 3.38195 4.08091 3.74776
# Velocity P-wave (km/s) = 5.28966 6.44562 5.89604
#
# Compressibility (1/GPa) = 0.03341470
#
# Stress axis : x y z
#
# Youngs Moduli (GPa) = 58.68401 78.83971 55.71059
#
# Poissons Ratio (x) = 0.23850 0.31477
# Poissons Ratio (y) = 0.17753 -0.08610
# Poissons Ratio (z) = 0.33157 -0.12184
#
# Static dielectric constant tensor:
#      x y z
#    x 1.998110 0.000000 -0.054520 
#    y 0.000000 1.855940 0.000000 
#    z -0.054520 0.000000 1.967420 
# 
# From -- ./inp_files/7912.got.cif
#   From: 2010.05.17/outbox.cif.g08.bks.cpg/sg12_4_cif.got.tgz:7912.got - 2010.06.03 13:09:07.
