data_PCOD9187130
_publ_section_title
;
Structure prediction by ZEFSAII (Michael W. Deem and Ramdas Pophale) SiO2 
 PCOD9187130
Probable space group: C 2/M
;
_chemical_formula_sum "Si O2"
_cell_formula_units_Z 56
_cell_length_a 15.553787
_cell_length_b 7.837353
_cell_length_c 24.809350
_cell_angle_alpha 90.000000
_cell_angle_beta 116.385175
_cell_angle_gamma 90.000000
_cell_volume 2709.224419
_symmetry_space_group_name_H-M "C 2/M"
_symmetry_group_IT_number 12
_symmetry_cell_setting 'monoclinic'
loop_
_space_group_symop_operation_xyz
x,y,z
-x,y,-z
-x,-y,-z
x,-y,z
1/2+x,1/2+y,z
1/2-x,1/2+y,-z
1/2-x,1/2-y,-z
1/2+x,1/2-y,z
loop_
_atom_site_type_symbol
_atom_site_label
_atom_site_fract_x
_atom_site_fract_y
_atom_site_fract_z
Si Si1 0.755640 0.796716 0.064021
Si Si2 0.394663 0.290326 0.804823
Si Si3 0.182628 0.697979 0.724238
Si Si4 0.437143 0.298336 0.411677
Si Si5 0.647920 0.705529 0.499325
Si Si6 0.935326 0.195989 0.934863
Si Si7 0.585792 0.294837 0.807541
O O1 0.671738 0.700844 0.072081
O O2 0.854594 0.754030 0.121669
O O3 0.740698 0.000000 0.065326
O O4 0.750000 0.750000 0.000000
O O5 0.390878 0.500000 0.807238
O O6 0.289605 0.227634 0.759858
O O7 0.428375 0.229027 0.873291
O O8 0.476223 0.243500 0.785322
O O9 0.193475 0.500000 0.713694
O O10 0.116891 0.773039 0.659287
O O11 0.134181 0.716062 0.768936
O O12 0.445730 0.500000 0.423254
O O13 0.372878 0.234424 0.444575
O O14 0.547967 0.234440 0.442796
O O15 0.648525 0.500000 0.499328
O O16 0.750000 0.750000 0.500000
O O17 0.970538 0.000000 0.938172
O O18 0.000000 0.276954 0.000000
O O19 0.589529 0.500000 0.802285
#
# Coordination Sequence:
#
# PCOD9187130 Si02
#       7
#     8   8   8   8   8   8   8
#     4  11  22  35  55  81 110 143 187 238 293 354
#     4   9  19  36  56  78 108 145 187 231 284 347
#     4  11  22  37  58  85 116 150 193 245 288 332
#     4   9  20  39  59  83 119 161 194 228 283 346
#     4   9  19  37  62  89 120 156 195 237 280 329
#     4  10  19  35  58  79 106 144 185 233 293 355
#     4  10  21  39  59  79 108 151 192 231 288 356
#
# _framework density 20.670121999999999
#
# number of rings (size 3 to 8) (size 9 to 14) (size 15 to 20)
#    0.000    2.143    1.429    2.571    0.000    5.429 
#    0.000    7.857    0.000    0.000    0.000    0.000 
#    0.000    0.000    0.000    0.000    0.000    0.000 
#
# Total GULP energy -156194.317732 kJ/mol
# GULP energy per Si atom -5578.368490 kJ/mol
# Density = 2.062308 g / cm^3
# Si number density = 20.670122 Si / 1000 Ang^3
#
#
#
# Elastic Constant Matrix: (Units=GPa)
#
#
# Indices 1 2 3 4 5 6 
#
# 1 153.7491 7.8374 55.3830 0.0000 15.6405 0.0000
# 2 7.8374 28.0923 12.0017 0.0000 3.7625 0.0000
# 3 55.3830 12.0017 128.3218 0.0000 20.8356 0.0000
# 4 0.0000 0.0000 0.0000 -1.3028 0.0000 6.0606
# 5 15.6405 3.7625 20.8356 0.0000 22.3250 0.0000
# 6 0.0000 0.0000 0.0000 6.0606 0.0000 21.6869
#
#
#
# Elastic Compliance Matrix: (Units=1/GPa)
#
#
# Indices 1 2 3 4 5 6 
#
# 1 0.007852 -0.000592 -0.002895 0.000000 -0.002699 0.000000
# 2 -0.000592 0.037364 -0.002692 0.000000 -0.003370 0.000000
# 3 -0.002895 -0.002692 0.010479 0.000000 -0.007298 0.000000
# 4 0.000000 0.000000 0.000000 -0.333730 0.000000 0.093263
# 5 -0.002699 -0.003370 -0.007298 0.000000 0.054063 0.000000
# 6 0.000000 0.000000 0.000000 0.093263 0.000000 0.020048
#
#
# Mechanical properties :
#
#
# Convention : Reuss Voigt Hill
#
# Bulk Modulus (GPa) = 23.07538 51.17859 37.12698
# Shear Modulus (GPa) = -28.22931 24.20457 -2.01237
#
# Velocity S-wave (km/s) = -3.69956 3.42569 -0.98777
# Velocity P-wave (km/s) = 2.65727 6.36086 4.08653
#
# Compressibility (1/GPa) = 0.04333623
#
# Stress axis : x y z
#
# Youngs Moduli (GPa) = 127.36046 26.76407 95.42729
#
# Poissons Ratio (x) = 0.01585 0.27628
# Poissons Ratio (y) = 0.07542 0.25687
# Poissons Ratio (z) = 0.36873 0.07204
#
# Static dielectric constant tensor:
#      x y z
#    x 1.734590 0.000000 0.023700 
#    y 0.000000 1.786000 0.000000 
#    z 0.023700 0.000000 1.737520 
# 
# From -- ./inp_files/338197.got.cif
#   From: 2010.05.17/outbox.cif.g08.bks.cpg/sg12_170_cif.got.tgz:338197.got - 2010.06.03 13:09:07.
