data_PCOD9187709
_publ_section_title
;
Structure prediction by ZEFSAII (Michael W. Deem and Ramdas Pophale) SiO2 
 PCOD9187709
Probable space group: C 2/M
;
_chemical_formula_sum "Si O2"
_cell_formula_units_Z 36
_cell_length_a 9.741109
_cell_length_b 23.666241
_cell_length_c 12.877929
_cell_angle_alpha 90.000000
_cell_angle_beta 34.697694
_cell_angle_gamma 90.000000
_cell_volume 1689.989595
_symmetry_space_group_name_H-M "C 2/M"
_symmetry_group_IT_number 12
_symmetry_cell_setting 'monoclinic'
loop_
_space_group_symop_operation_xyz
x,y,z
-x,y,-z
-x,-y,-z
x,-y,z
1/2+x,1/2+y,z
1/2-x,1/2+y,-z
1/2-x,1/2-y,-z
1/2+x,1/2-y,z
loop_
_atom_site_type_symbol
_atom_site_label
_atom_site_fract_x
_atom_site_fract_y
_atom_site_fract_z
Si Si1 0.500000 0.363881 0.500000
Si Si2 0.773647 0.934390 0.823220
Si Si3 0.902405 0.938393 0.177524
Si Si4 0.776777 0.686680 0.714635
Si Si5 0.405891 0.775554 0.308268
O O1 0.439732 0.400779 0.639020
O O2 0.737149 0.325624 0.370096
O O3 0.890040 0.933667 0.864826
O O4 0.760615 0.000000 0.796771
O O5 0.500000 0.912185 0.000000
O O6 0.762238 0.879863 0.271379
O O7 0.781230 0.000000 0.271287
O O8 0.000000 0.939855 0.000000
O O9 0.572148 0.727003 0.792505
O O10 0.000000 0.699624 0.500000
O O11 0.854801 0.702489 0.782815
O O12 0.250000 0.750000 0.500000
#
# Coordination Sequence:
#
# PCOD9187709 Si02
#       5
#     4   8   8   8   8
#     4  12  21  38  70  94 127 168 216 264 322 384
#     4  10  23  42  64  94 130 170 216 267 321 380
#     4  10  23  43  62  88 128 168 211 268 323 378
#     4  10  20  37  61  89 121 162 211 255 320 381
#     4  10  19  35  60  91 125 161 205 258 322 378
#
# _framework density 21.301905999999999
#
# number of rings (size 3 to 8) (size 9 to 14) (size 15 to 20)
#    0.000    1.778    3.333    3.000    3.111    0.444 
#    0.000    3.333    0.000    0.000    0.000    0.000 
#    0.000    0.000    0.000    0.000    0.000    0.000 
#
# Total GULP energy -100390.078876 kJ/mol
# GULP energy per Si atom -5577.226604 kJ/mol
# Density = 2.125342 g / cm^3
# Si number density = 21.301906 Si / 1000 Ang^3
#
#
#
# Elastic Constant Matrix: (Units=GPa)
#
#
# Indices 1 2 3 4 5 6 
#
# 1 139.4150 75.7256 26.6458 0.0000 25.7099 0.0000
# 2 75.7256 136.8334 24.2574 0.0000 5.3834 0.0000
# 3 26.6458 24.2574 70.0853 -0.0001 18.7397 0.0000
# 4 0.0000 0.0000 -0.0001 184.0633 0.0001 31.6488
# 5 25.7099 5.3834 18.7397 0.0001 17.5184 0.0000
# 6 0.0000 0.0000 0.0000 31.6488 0.0000 45.6027
#
#
#
# Elastic Compliance Matrix: (Units=1/GPa)
#
#
# Indices 1 2 3 4 5 6 
#
# 1 0.015270 -0.008107 0.003259 0.000000 -0.023404 0.000000
# 2 -0.008107 0.012096 -0.004611 0.000000 0.013113 0.000000
# 3 0.003259 -0.004611 0.021745 0.000000 -0.026626 0.000000
# 4 0.000000 0.000000 0.000000 0.006169 0.000000 -0.004281
# 5 -0.023404 0.013113 -0.026626 0.000000 0.115883 0.000000
# 6 0.000000 0.000000 0.000000 -0.004281 0.000000 0.024900
#
#
# Mechanical properties :
#
#
# Convention : Reuss Voigt Hill
#
# Bulk Modulus (GPa) = 33.12167 66.62126 49.87147
# Shear Modulus (GPa) = 22.21777 64.08388 43.15082
#
# Velocity S-wave (km/s) = 3.23305 5.49081 4.50564
# Velocity P-wave (km/s) = 5.43316 8.45821 7.10846
#
# Compressibility (1/GPa) = 0.03019171
#
# Stress axis : x y z
#
# Youngs Moduli (GPa) = 65.48912 82.66961 45.98855
#
# Poissons Ratio (x) = 0.67023 -0.14985
# Poissons Ratio (y) = 0.53094 0.21203
# Poissons Ratio (z) = -0.21340 0.38116
#
# Static dielectric constant tensor:
#      x y z
#    x 1.799330 0.000000 -0.017360 
#    y 0.000000 1.823850 0.000000 
#    z -0.017360 0.000000 1.753100 
# 
# From -- ./inp_files/121634.got.cif
#   From: 2010.05.17/outbox.cif.g08.bks.cpg/sg12_61_cif.got.tgz:121634.got - 2010.06.03 13:09:07.
