data_PCOD9187382
_publ_section_title
;
Structure prediction by ZEFSAII (Michael W. Deem and Ramdas Pophale) SiO2 
 PCOD9187382
Probable space group: C 2/M
;
_chemical_formula_sum "Si O2"
_cell_formula_units_Z 56
_cell_length_a 20.821723
_cell_length_b 7.659459
_cell_length_c 18.175665
_cell_angle_alpha 90.000000
_cell_angle_beta 64.318484
_cell_angle_gamma 90.000000
_cell_volume 2612.368181
_symmetry_space_group_name_H-M "C 2/M"
_symmetry_group_IT_number 12
_symmetry_cell_setting 'monoclinic'
loop_
_space_group_symop_operation_xyz
x,y,z
-x,y,-z
-x,-y,-z
x,-y,z
1/2+x,1/2+y,z
1/2-x,1/2+y,-z
1/2-x,1/2-y,-z
1/2+x,1/2-y,z
loop_
_atom_site_type_symbol
_atom_site_label
_atom_site_fract_x
_atom_site_fract_y
_atom_site_fract_z
Si Si1 0.161935 0.788752 0.755233
Si Si2 0.673266 0.707787 0.313686
Si Si3 0.168395 0.299429 0.023488
Si Si4 0.411979 0.288000 0.787157
Si Si5 0.574549 0.299160 0.936292
Si Si6 0.077136 0.213133 0.493869
Si Si7 0.571566 0.713223 0.663915
O O1 0.243113 0.738631 0.727979
O O2 0.111700 0.721657 0.845942
O O3 0.130964 0.729919 0.692441
O O4 0.159542 0.000000 0.757524
O O5 0.660538 0.500000 0.319552
O O6 0.635087 0.773939 0.258805
O O7 0.636205 0.774935 0.406567
O O8 0.167901 0.500000 0.001163
O O9 0.121792 0.274667 0.120044
O O10 0.250000 0.250000 0.000000
O O11 0.130859 0.200789 0.974940
O O12 0.410301 0.500000 0.790486
O O13 0.493464 0.235195 0.732060
O O14 0.557322 0.500000 0.924535
O O15 0.500000 0.218212 0.000000
O O16 0.084134 0.273325 0.574319
O O17 0.000000 0.260982 0.500000
O O18 0.079297 0.000000 0.494953
O O19 0.571427 0.500000 0.662479
#
# Coordination Sequence:
#
# PCOD9187382 Si02
#       7
#     8   8   8   8   8   8   8
#     4  10  21  35  53  80 113 148 180 220 276 336
#     4  10  20  33  55  84 112 144 183 231 277 323
#     4  12  25  39  57  83 114 148 189 237 288 340
#     4  10  19  35  59  83 106 139 187 237 282 327
#     4  10  21  40  63  84 111 150 194 236 284 342
#     4   9  15  29  54  85 111 137 182 234 272 311
#     4   9  17  32  56  82 109 142 185 227 267 324
#
# _framework density 21.436487
#
# number of rings (size 3 to 8) (size 9 to 14) (size 15 to 20)
#    0.000    2.000    1.429    3.000    0.000    6.571 
#    0.000    2.143    0.000    1.286    0.000    0.000 
#    0.000    0.000    0.000    0.000    0.000    0.000 
#
# Total GULP energy -156473.404040 kJ/mol
# GULP energy per Si atom -5588.335859 kJ/mol
# Density = 2.138770 g / cm^3
# Si number density = 21.436487 Si / 1000 Ang^3
#
#
#
# Elastic Constant Matrix: (Units=GPa)
#
#
# Indices 1 2 3 4 5 6 
#
# 1 62.7159 -15.9795 -8.6659 -0.0004 5.8619 0.0006
# 2 -15.9795 41.3923 -9.3517 -0.0001 -3.4002 0.0006
# 3 -8.6659 -9.3517 95.7071 -0.0004 6.8877 0.0003
# 4 -0.0004 -0.0001 -0.0004 -24.2323 0.0000 -10.5444
# 5 5.8619 -3.4002 6.8877 0.0000 37.6406 0.0001
# 6 0.0006 0.0006 0.0003 -10.5444 0.0001 17.3910
#
#
#
# Elastic Compliance Matrix: (Units=1/GPa)
#
#
# Indices 1 2 3 4 5 6 
#
# 1 0.018463 0.007495 0.002596 0.000000 -0.002673 -0.000001
# 2 0.007495 0.027870 0.003349 0.000000 0.000738 -0.000001
# 3 0.002596 0.003349 0.011165 0.000000 -0.002145 0.000000
# 4 0.000000 0.000000 0.000000 -0.032653 0.000000 -0.019798
# 5 -0.002673 0.000738 -0.002145 0.000000 0.027443 0.000000
# 6 -0.000001 -0.000001 0.000000 -0.019798 0.000000 0.045498
#
#
# Mechanical properties :
#
#
# Convention : Reuss Voigt Hill
#
# Bulk Modulus (GPa) = 11.85145 14.64679 13.24912
# Shear Modulus (GPa) = 50.48892 21.74734 36.11813
#
# Velocity S-wave (km/s) = 4.85839 3.18858 4.10919
# Velocity P-wave (km/s) = 6.08379 4.51703 5.35799
#
# Compressibility (1/GPa) = 0.08437786
#
# Stress axis : x y z
#
# Youngs Moduli (GPa) = 54.16193 35.88137 89.56382
#
# Poissons Ratio (x) = -0.26892 -0.23255
# Poissons Ratio (y) = -0.40593 -0.29993
# Poissons Ratio (z) = -0.14063 -0.12016
#
# Static dielectric constant tensor:
#      x y z
#    x 1.743450 0.000000 0.006720 
#    y 0.000000 1.812850 0.000000 
#    z 0.006720 0.000000 1.758750 
# 
# From -- ./inp_files/275286.got.cif
#   From: 2010.05.17/outbox.cif.g08.bks.cpg/sg12_138_cif.got.tgz:275286.got - 2010.06.03 13:09:07.
