data_PCOD9187334
_publ_section_title
;
Structure prediction by ZEFSAII (Michael W. Deem and Ramdas Pophale) SiO2 
 PCOD9187334
Probable space group: C 2/M
;
_chemical_formula_sum "Si O2"
_cell_formula_units_Z 56
_cell_length_a 15.121636
_cell_length_b 19.345992
_cell_length_c 20.597967
_cell_angle_alpha 90.000000
_cell_angle_beta 151.367502
_cell_angle_gamma 90.000000
_cell_volume 2887.497918
_symmetry_space_group_name_H-M "C 2/M"
_symmetry_group_IT_number 12
_symmetry_cell_setting 'monoclinic'
loop_
_space_group_symop_operation_xyz
x,y,z
-x,y,-z
-x,-y,-z
x,-y,z
1/2+x,1/2+y,z
1/2-x,1/2+y,-z
1/2-x,1/2-y,-z
1/2+x,1/2-y,z
loop_
_atom_site_type_symbol
_atom_site_label
_atom_site_fract_x
_atom_site_fract_y
_atom_site_fract_z
Si Si1 0.627686 0.079765 0.906874
Si Si2 0.041669 0.701185 0.129242
Si Si3 0.700731 0.285291 0.829526
Si Si4 0.315670 0.278853 0.418693
Si Si5 0.626769 0.881162 0.520344
Si Si6 0.956229 0.078182 0.208534
Si Si7 0.039379 0.350860 0.325521
O O1 0.510562 0.123549 0.883598
O O2 0.578029 0.110229 0.805096
O O3 0.577386 0.000000 0.876545
O O4 0.839322 0.086719 0.066687
O O5 0.179904 0.705255 0.158324
O O6 0.147256 0.731267 0.259162
O O7 0.847804 0.733558 0.981351
O O8 0.608437 0.358120 0.788361
O O9 0.558681 0.223416 0.728535
O O10 0.500000 0.303446 0.500000
O O11 0.355820 0.202429 0.469833
O O12 0.239446 0.331315 0.423735
O O13 0.500000 0.899373 0.500000
O O14 0.551976 0.894366 0.399692
O O15 0.826268 0.913856 0.659295
O O16 0.913616 0.000000 0.204974
#
# Coordination Sequence:
#
# PCOD9187334 Si02
#       7
#     8   8   8   8   8   8   8
#     4   9  21  41  61  85 117 158 200 241 302 355
#     4   9  20  33  58  89 119 155 189 248 290 354
#     4  10  19  35  58  91 120 149 204 240 300 343
#     4  10  20  33  56  86 123 149 187 236 301 354
#     4  11  23  37  57  85 116 154 196 245 298 346
#     4  10  22  38  59  82 116 158 197 243 292 354
#     4  11  22  37  63  88 118 157 193 254 292 349
#
# _framework density 19.393953
#
# number of rings (size 3 to 8) (size 9 to 14) (size 15 to 20)
#    0.000    2.000    1.429    2.143    4.000    3.143 
#    0.000    2.857    0.000    3.429    0.000    0.000 
#    0.000    0.000    0.000    0.000    0.000    0.000 
#
# Total GULP energy -156230.749982 kJ/mol
# GULP energy per Si atom -5579.669642 kJ/mol
# Density = 1.934981 g / cm^3
# Si number density = 19.393953 Si / 1000 Ang^3
#
#
#
# Elastic Constant Matrix: (Units=GPa)
#
#
# Indices 1 2 3 4 5 6 
#
# 1 77.7986 10.3783 38.1552 0.0045 -1.0802 0.0003
# 2 10.3783 53.8405 25.4291 0.0017 2.1709 0.0004
# 3 38.1552 25.4291 82.2135 -0.0180 3.1475 0.0001
# 4 0.0045 0.0017 -0.0180 17.1988 -0.0015 -0.2784
# 5 -1.0802 2.1709 3.1475 -0.0015 27.3817 -0.0010
# 6 0.0003 0.0004 0.0001 -0.2784 -0.0010 1.3086
#
#
#
# Elastic Compliance Matrix: (Units=1/GPa)
#
#
# Indices 1 2 3 4 5 6 
#
# 1 0.016718 0.000478 -0.007965 -0.000013 0.001537 -0.000004
# 2 0.000478 0.021789 -0.006926 -0.000010 -0.000913 -0.000009
# 3 -0.007965 -0.006926 0.018073 0.000022 -0.001843 0.000005
# 4 -0.000013 -0.000010 0.000022 0.058345 0.000002 0.012414
# 5 0.001537 -0.000913 -0.001843 0.000002 0.036866 0.000029
# 6 -0.000004 -0.000009 0.000005 0.012414 0.000029 0.766839
#
#
# Mechanical properties :
#
#
# Convention : Reuss Voigt Hill
#
# Bulk Modulus (GPa) = 36.03319 40.19753 38.11536
# Shear Modulus (GPa) = 5.22626 18.50382 11.86504
#
# Velocity S-wave (km/s) = 1.64336 3.09221 2.47612
# Velocity P-wave (km/s) = 4.71389 5.78972 5.27928
#
# Compressibility (1/GPa) = 0.02775219
#
# Stress axis : x y z
#
# Youngs Moduli (GPa) = 59.81649 45.89383 55.33116
#
# Poissons Ratio (x) = -0.02192 0.44073
# Poissons Ratio (y) = -0.02856 0.38324
# Poissons Ratio (z) = 0.47645 0.31787
#
# Static dielectric constant tensor:
#      x y z
#    x 1.683660 0.000000 -0.017590 
#    y 0.000000 1.650990 0.000000 
#    z -0.017590 0.000000 1.720130 
# 
# From -- ./inp_files/217656.got.cif
#   From: 2010.05.17/outbox.cif.g08.bks.cpg/sg12_109_cif.got.tgz:217656.got - 2010.06.03 13:09:07.
