data_PCOD9187749
_publ_section_title
;
Structure prediction by ZEFSAII (Michael W. Deem and Ramdas Pophale) SiO2 
 PCOD9187749
Probable space group: C 2/M
;
_chemical_formula_sum "Si O2"
_cell_formula_units_Z 64
_cell_length_a 15.188486
_cell_length_b 15.118111
_cell_length_c 24.888253
_cell_angle_alpha 90.000000
_cell_angle_beta 35.056998
_cell_angle_gamma 90.000000
_cell_volume 3282.570709
_symmetry_space_group_name_H-M "C 2/M"
_symmetry_group_IT_number 12
_symmetry_cell_setting 'monoclinic'
loop_
_space_group_symop_operation_xyz
x,y,z
-x,y,-z
-x,-y,-z
x,-y,z
1/2+x,1/2+y,z
1/2-x,1/2+y,-z
1/2-x,1/2-y,-z
1/2+x,1/2-y,z
loop_
_atom_site_type_symbol
_atom_site_label
_atom_site_fract_x
_atom_site_fract_y
_atom_site_fract_z
Si Si1 0.641084 0.193414 0.895899
Si Si2 0.998681 0.265792 0.610510
Si Si3 0.796876 0.236831 0.387727
Si Si4 0.891657 0.404204 0.277296
Si Si5 0.473957 0.681574 0.893567
Si Si6 0.307795 0.402991 0.723916
Si Si7 0.693333 0.181860 0.102179
Si Si8 0.737955 0.395729 0.693853
O O1 0.570761 0.258241 0.886145
O O2 0.749583 0.124889 0.811584
O O3 0.733315 0.256601 0.889365
O O4 0.500000 0.152841 0.000000
O O5 0.066746 0.255755 0.637176
O O6 0.143041 0.274568 0.499030
O O7 0.915184 0.171995 0.645949
O O8 0.876215 0.342104 0.655268
O O9 0.800896 0.325810 0.350870
O O10 0.800642 0.155986 0.342949
O O11 0.855846 0.500000 0.319025
O O12 0.838966 0.405295 0.241759
O O13 0.072115 0.385030 0.187713
O O14 0.401795 0.750693 0.887607
O O15 0.587939 0.616544 0.806097
O O16 0.331288 0.641507 0.997990
O O17 0.379710 0.500000 0.688213
O O18 0.772394 0.500000 0.668915
#
# Coordination Sequence:
#
# PCOD9187749 Si02
#       8
#     8   8   8   8   8   8   8   8
#     4  10  19  35  61  86 120 165 206 249 308 369
#     4  11  24  44  68  89 126 167 204 263 327 386
#     4  11  24  44  67  93 122 164 212 260 324 385
#     4  11  22  38  63  90 122 163 208 252 305 373
#     4  10  20  37  59  89 123 164 211 252 304 376
#     4  11  22  38  61  90 124 161 204 256 311 370
#     4  10  19  36  63  85 122 172 204 250 312 365
#     4  12  25  43  69  98 131 169 215 270 327 384
#
# _framework density 19.496914
#
# number of rings (size 3 to 8) (size 9 to 14) (size 15 to 20)
#    0.000    1.250    5.000    1.125    0.000    3.250 
#    0.000    3.750    0.000    2.250    0.000    0.000 
#    0.000    0.000    0.000    0.000    0.000    0.000 
#
# Total GULP energy -178483.703822 kJ/mol
# GULP energy per Si atom -5577.615744 kJ/mol
# Density = 1.945254 g / cm^3
# Si number density = 19.496914 Si / 1000 Ang^3
#
#
#
# Elastic Constant Matrix: (Units=GPa)
#
#
# Indices 1 2 3 4 5 6 
#
# 1 123.5757 41.7024 34.4105 -0.0001 9.3236 0.0000
# 2 41.7024 127.6550 29.8476 -0.0002 6.1991 0.0000
# 3 34.4105 29.8476 53.9409 -0.0008 -2.7056 0.0002
# 4 -0.0001 -0.0002 -0.0008 -0.7890 0.0001 1.0283
# 5 9.3236 6.1991 -2.7056 0.0001 19.1649 0.0000
# 6 0.0000 0.0000 0.0002 1.0283 0.0000 13.3660
#
#
#
# Elastic Compliance Matrix: (Units=1/GPa)
#
#
# Indices 1 2 3 4 5 6 
#
# 1 0.010853 -0.001828 -0.006191 0.000005 -0.005562 0.000000
# 2 -0.001828 0.009565 -0.004267 0.000001 -0.002807 0.000000
# 3 -0.006191 -0.004267 0.025249 -0.000021 0.007957 0.000001
# 4 0.000005 0.000001 -0.000021 -1.151902 0.000002 0.088624
# 5 -0.005562 -0.002807 0.007957 0.000002 0.056916 0.000000
# 6 0.000000 0.000000 0.000001 0.088624 0.000000 0.067998
#
#
# Mechanical properties :
#
#
# Convention : Reuss Voigt Hill
#
# Bulk Modulus (GPa) = 47.40694 57.45475 52.43084
# Shear Modulus (GPa) = -5.26471 19.62912 7.18220
#
# Velocity S-wave (km/s) = -1.64504 3.17642 1.92140
# Velocity P-wave (km/s) = 4.55628 6.55633 5.64558
#
# Compressibility (1/GPa) = 0.02109396
#
# Stress axis : x y z
#
# Youngs Moduli (GPa) = 92.14421 104.55005 39.60621
#
# Poissons Ratio (x) = 0.19108 0.24520
# Poissons Ratio (y) = 0.16841 0.16902
# Poissons Ratio (z) = 0.57045 0.44616
#
# Static dielectric constant tensor:
#      x y z
#    x 1.732500 0.000000 -0.011320 
#    y 0.000000 1.668880 0.000000 
#    z -0.011320 0.000000 1.701200 
# 
# From -- ./inp_files/340124.got.cif
#   From: 2010.05.17/outbox.cif.g08.bks.cpg/sg12_171_cif.got.tgz:340124.got - 2010.06.03 13:09:07.
