data_PCOD9187989
_publ_section_title
;
Structure prediction by ZEFSAII (Michael W. Deem and Ramdas Pophale) SiO2 
 PCOD9187989
Probable space group: C 2/M
;
_chemical_formula_sum "Si O2"
_cell_formula_units_Z 64
_cell_length_a 9.766313
_cell_length_b 15.205150
_cell_length_c 32.609335
_cell_angle_alpha 90.000000
_cell_angle_beta 136.202714
_cell_angle_gamma 90.000000
_cell_volume 3351.488836
_symmetry_space_group_name_H-M "C 2/M"
_symmetry_group_IT_number 12
_symmetry_cell_setting 'monoclinic'
loop_
_space_group_symop_operation_xyz
x,y,z
-x,y,-z
-x,-y,-z
x,-y,z
1/2+x,1/2+y,z
1/2-x,1/2+y,-z
1/2-x,1/2-y,-z
1/2+x,1/2-y,z
loop_
_atom_site_type_symbol
_atom_site_label
_atom_site_fract_x
_atom_site_fract_y
_atom_site_fract_z
Si Si1 0.119212 0.604353 0.116561
Si Si2 0.292569 0.766534 0.709840
Si Si3 0.261379 0.756893 0.207096
Si Si4 0.295397 0.099612 0.361452
Si Si5 0.426744 0.604540 0.110536
Si Si6 0.515825 0.403794 0.380646
Si Si7 0.355729 0.837355 0.507415
Si Si8 0.163305 0.893368 0.002760
O O1 0.132486 0.500000 0.130771
O O2 0.215613 0.671096 0.169691
O O3 0.235787 0.613989 0.098707
O O4 0.888441 0.629312 0.062564
O O5 0.521010 0.791605 0.756019
O O6 0.237638 0.769699 0.745362
O O7 0.260475 0.669288 0.685008
O O8 0.148841 0.829446 0.653052
O O9 0.098411 0.831989 0.164028
O O10 0.138504 0.106940 0.364856
O O11 0.507558 0.121063 0.427897
O O12 0.292440 0.000000 0.345547
O O13 0.479769 0.500000 0.122635
O O14 0.382700 0.630969 0.054060
O O15 0.423134 0.500000 0.360804
O O16 0.679685 0.396715 0.451527
O O17 0.500000 0.818726 0.500000
O O18 0.250000 0.750000 0.500000
O O19 0.155400 0.000000 0.002168
O O20 0.000000 0.860146 0.000000
#
# Coordination Sequence:
#
# PCOD9187989 Si02
#       8
#     8   8   8   8   8   8   8   8
#     4  10  22  42  66  89 120 164 203 246 305 368
#     4  12  24  41  61  86 122 163 206 255 306 353
#     4  12  26  41  61  90 122 160 212 257 298 360
#     4  10  21  39  65  91 119 162 207 249 303 372
#     4  10  22  42  65  89 122 162 202 249 305 366
#     4  10  21  39  64  92 121 159 206 252 304 368
#     4  10  19  35  65  93 123 156 197 252 311 363
#     4   9  19  36  63  98 127 152 196 254 309 360
#
# _framework density 19.095991000000001
#
# number of rings (size 3 to 8) (size 9 to 14) (size 15 to 20)
#    0.000    1.625    3.750    0.750    1.750    5.500 
#    0.000    0.000    0.000    0.750    0.000    0.000 
#    0.000    0.000    0.000    0.000    0.000    0.000 
#
# Total GULP energy -178699.869421 kJ/mol
# GULP energy per Si atom -5584.370919 kJ/mol
# Density = 1.905253 g / cm^3
# Si number density = 19.095991 Si / 1000 Ang^3
#
#
#
# Elastic Constant Matrix: (Units=GPa)
#
#
# Indices 1 2 3 4 5 6 
#
# 1 131.4474 7.7649 41.5679 0.0000 27.1096 0.0000
# 2 7.7649 99.8025 22.4846 0.0000 4.3325 0.0000
# 3 41.5679 22.4846 81.3797 0.0000 13.6993 0.0000
# 4 0.0000 0.0000 0.0000 3.6122 0.0000 -14.0141
# 5 27.1096 4.3325 13.6993 0.0000 43.0828 0.0000
# 6 0.0000 0.0000 0.0000 -14.0141 0.0000 12.8311
#
#
#
# Elastic Compliance Matrix: (Units=1/GPa)
#
#
# Indices 1 2 3 4 5 6 
#
# 1 0.009988 0.000426 -0.004389 0.000000 -0.004932 0.000000
# 2 0.000426 0.010704 -0.003115 0.000000 -0.000354 0.000000
# 3 -0.004389 -0.003115 0.015714 0.000000 -0.001922 0.000000
# 4 0.000000 0.000000 0.000000 -0.085514 0.000000 -0.093398
# 5 -0.004932 -0.000354 -0.001922 0.000000 0.026961 0.000000
# 6 0.000000 0.000000 0.000000 -0.093398 0.000000 -0.024074
#
#
# Mechanical properties :
#
#
# Convention : Reuss Voigt Hill
#
# Bulk Modulus (GPa) = 44.94671 50.69606 47.82138
# Shear Modulus (GPa) = -202.85522 27.95938 -87.44792
#
# Velocity S-wave (km/s) = -10.31794 3.83057 -6.77446
# Velocity P-wave (km/s) = 10.87925 6.79485 6.00783
#
# Compressibility (1/GPa) = 0.02224857
#
# Stress axis : x y z
#
# Youngs Moduli (GPa) = 100.12503 93.42408 63.63685
#
# Poissons Ratio (x) = -0.03978 0.27930
# Poissons Ratio (y) = -0.04264 0.19825
# Poissons Ratio (z) = 0.43945 0.29105
#
# Static dielectric constant tensor:
#      x y z
#    x 1.634990 0.000000 0.003460 
#    y 0.000000 1.660130 0.000000 
#    z 0.003460 0.000000 1.649280 
# 
# From -- ./inp_files/372583.got.cif
#   From: 2010.05.17/outbox.cif.g08.bks.cpg/sg12_187_cif.got.tgz:372583.got - 2010.06.03 13:09:07.
