data_PCOD9187321
_publ_section_title
;
Structure prediction by ZEFSAII (Michael W. Deem and Ramdas Pophale) SiO2 
 PCOD9187321
Probable space group: C 2/M
;
_chemical_formula_sum "Si O2"
_cell_formula_units_Z 56
_cell_length_a 28.923913
_cell_length_b 17.075405
_cell_length_c 10.162989
_cell_angle_alpha 90.000000
_cell_angle_beta 145.867834
_cell_angle_gamma 90.000000
_cell_volume 2816.389463
_symmetry_space_group_name_H-M "C 2/M"
_symmetry_group_IT_number 12
_symmetry_cell_setting 'monoclinic'
loop_
_space_group_symop_operation_xyz
x,y,z
-x,y,-z
-x,-y,-z
x,-y,z
1/2+x,1/2+y,z
1/2-x,1/2+y,-z
1/2-x,1/2-y,-z
1/2+x,1/2-y,z
loop_
_atom_site_type_symbol
_atom_site_label
_atom_site_fract_x
_atom_site_fract_y
_atom_site_fract_z
Si Si1 0.865076 0.587824 0.810333
Si Si2 0.109733 0.685134 0.388771
Si Si3 0.042985 0.860379 0.232425
Si Si4 0.494401 0.866178 0.334403
Si Si5 0.768656 0.910885 0.309316
Si Si6 0.727053 0.252468 0.098121
Si Si7 0.550183 0.683156 0.740824
O O1 0.876343 0.500000 0.787939
O O2 0.890280 0.644988 0.753195
O O3 0.771012 0.597731 0.638333
O O4 0.921495 0.598863 0.073178
O O5 0.062068 0.767445 0.263900
O O6 0.200928 0.709338 0.646864
O O7 0.072552 0.631733 0.419171
O O8 0.133013 0.898072 0.466487
O O9 0.978327 0.864774 0.199511
O O10 0.000000 0.890341 0.000000
O O11 0.500000 0.895327 0.500000
O O12 0.479904 0.772988 0.312898
O O13 0.724860 0.839516 0.130317
O O14 0.749299 0.000000 0.220799
O O15 0.750000 0.250000 0.000000
O O16 0.645378 0.302546 0.932778
O O17 0.500000 0.649640 0.500000
#
# Coordination Sequence:
#
# PCOD9187321 Si02
#       7
#     8   8   8   8   8   8   8
#     4  11  23  39  58  84 127 172 204 254 317 380
#     4  10  22  35  59  91 121 156 209 262 313 371
#     4  10  21  35  61  89 116 157 205 257 306 356
#     4  10  19  36  57  85 121 156 204 257 305 375
#     4  10  23  40  60  89 128 165 203 251 319 379
#     4  11  21  38  68  94 122 160 211 263 312 368
#     4  10  19  35  58  89 121 149 200 258 304 362
#
# _framework density 19.883614000000001
#
# number of rings (size 3 to 8) (size 9 to 14) (size 15 to 20)
#    0.000    1.714    1.429    5.571    2.000    2.857 
#    0.000    0.714    0.000    4.286    0.000    0.000 
#    0.000    0.000    0.000    0.000    0.000    0.000 
#
# Total GULP energy -156092.520564 kJ/mol
# GULP energy per Si atom -5574.732877 kJ/mol
# Density = 1.983836 g / cm^3
# Si number density = 19.883614 Si / 1000 Ang^3
#
#
#
# Elastic Constant Matrix: (Units=GPa)
#
#
# Indices 1 2 3 4 5 6 
#
# 1 129.2046 29.0863 50.1074 0.0000 5.6983 0.0000
# 2 29.0863 52.2117 7.6488 0.0000 -3.8188 0.0000
# 3 50.1074 7.6488 87.7774 0.0000 -0.8528 0.0000
# 4 0.0000 0.0000 0.0000 -4.3897 0.0000 -4.2985
# 5 5.6983 -3.8188 -0.8528 0.0000 31.6964 0.0000
# 6 0.0000 0.0000 0.0000 -4.2985 0.0000 -1.3991
#
#
#
# Elastic Compliance Matrix: (Units=1/GPa)
#
#
# Indices 1 2 3 4 5 6 
#
# 1 0.011532 -0.005743 -0.006111 0.000000 -0.002929 0.000000
# 2 -0.005743 0.022429 0.001361 0.000000 0.003771 0.000000
# 3 -0.006111 0.001361 0.014778 0.000000 0.001660 0.000000
# 4 0.000000 0.000000 0.000000 0.113414 0.000000 -0.348457
# 5 -0.002929 0.003771 0.001660 0.000000 0.032575 0.000000
# 6 0.000000 0.000000 0.000000 -0.348457 0.000000 0.355849
#
#
# Mechanical properties :
#
#
# Convention : Reuss Voigt Hill
#
# Bulk Modulus (GPa) = 36.03323 49.20876 42.62099
# Shear Modulus (GPa) = 8.60861 17.33827 12.97344
#
# Velocity S-wave (km/s) = 2.08300 2.95615 2.55712
# Velocity P-wave (km/s) = 4.89353 6.03770 5.49547
#
# Compressibility (1/GPa) = 0.02775216
#
# Stress axis : x y z
#
# Youngs Moduli (GPa) = 86.71838 44.58574 67.66670
#
# Poissons Ratio (x) = 0.25606 0.41350
# Poissons Ratio (y) = 0.49803 -0.09207
# Poissons Ratio (z) = 0.52992 -0.06067
#
# Static dielectric constant tensor:
#      x y z
#    x 1.925350 0.000000 -0.238480 
#    y 0.000000 1.730600 0.000000 
#    z -0.238480 0.000000 2.120620 
# 
# From -- ./inp_files/106022.got.cif
#   From: 2010.05.17/outbox.cif.g08.bks.cpg/sg12_54_cif.got.tgz:106022.got - 2010.06.03 13:09:07.
