data_PCOD9187737
_publ_section_title
;
Structure prediction by ZEFSAII (Michael W. Deem and Ramdas Pophale) SiO2 
 PCOD9187737
Probable space group: C 2/M
;
_chemical_formula_sum "Si O2"
_cell_formula_units_Z 48
_cell_length_a 11.531403
_cell_length_b 14.177287
_cell_length_c 16.280988
_cell_angle_alpha 90.000000
_cell_angle_beta 55.105499
_cell_angle_gamma 90.000000
_cell_volume 2183.128980
_symmetry_space_group_name_H-M "C 2/M"
_symmetry_group_IT_number 12
_symmetry_cell_setting 'monoclinic'
loop_
_space_group_symop_operation_xyz
x,y,z
-x,y,-z
-x,-y,-z
x,-y,z
1/2+x,1/2+y,z
1/2-x,1/2+y,-z
1/2-x,1/2-y,-z
1/2+x,1/2-y,z
loop_
_atom_site_type_symbol
_atom_site_label
_atom_site_fract_x
_atom_site_fract_y
_atom_site_fract_z
Si Si1 0.446885 0.294405 0.113636
Si Si2 0.659774 0.633452 0.456899
Si Si3 0.210502 0.395123 0.770043
Si Si4 0.541443 0.703212 0.243121
Si Si5 0.223775 0.654231 0.422034
Si Si6 0.842082 0.394848 0.730065
O O1 0.385799 0.190158 0.159042
O O2 0.564213 0.307372 0.136571
O O3 0.319776 0.368930 0.179501
O O4 0.500000 0.299922 0.000000
O O5 0.500000 0.601098 0.500000
O O6 0.758298 0.612254 0.339379
O O7 0.738867 0.602527 0.508180
O O8 0.648877 0.746777 0.471495
O O9 0.161349 0.500000 0.810618
O O10 0.361817 0.371011 0.748941
O O11 0.379243 0.680994 0.325557
O O12 0.574217 0.807471 0.264239
O O13 0.148624 0.609178 0.373321
O O14 0.880706 0.500000 0.742105
#
# Coordination Sequence:
#
# PCOD9187737 Si02
#       6
#     8   8   8   8   8   8
#     4  10  23  44  64  84 116 157 196 244 303 355
#     4  11  19  35  60  89 121 160 201 238 288 342
#     4  11  23  38  59  92 120 152 201 245 291 347
#     4  10  19  41  59  84 117 159 190 247 294 350
#     4  10  19  35  61  84 123 165 198 233 290 348
#     4  10  21  37  60  91 120 153 197 244 294 349
#
# _framework density 21.986792000000001
#
# number of rings (size 3 to 8) (size 9 to 14) (size 15 to 20)
#    0.000    1.667    6.667    0.000    0.000    7.667 
#    0.000    1.667    0.000    4.500    0.000    0.000 
#    0.000    0.000    0.000    0.000    0.000    0.000 
#
# Total GULP energy -134040.499502 kJ/mol
# GULP energy per Si atom -5585.020813 kJ/mol
# Density = 2.193675 g / cm^3
# Si number density = 21.986792 Si / 1000 Ang^3
#
#
#
# Elastic Constant Matrix: (Units=GPa)
#
#
# Indices 1 2 3 4 5 6 
#
# 1 62.8128 -12.8191 25.1901 0.0000 29.5302 0.0000
# 2 -12.8191 88.5656 3.5688 0.0000 9.3891 0.0000
# 3 25.1901 3.5688 115.0048 0.0000 40.5063 0.0000
# 4 0.0000 0.0000 0.0000 -0.2952 0.0000 4.0565
# 5 29.5302 9.3891 40.5063 0.0000 36.4391 0.0000
# 6 0.0000 0.0000 0.0000 4.0565 0.0000 -28.5365
#
#
#
# Elastic Compliance Matrix: (Units=1/GPa)
#
#
# Indices 1 2 3 4 5 6 
#
# 1 0.030487 0.007554 0.004068 0.000000 -0.031175 0.000000
# 2 0.007554 0.013571 0.002156 0.000000 -0.012015 0.000000
# 3 0.004068 0.002156 0.014946 0.000000 -0.020467 0.000000
# 4 0.000000 0.000000 0.000000 3.553632 0.000000 0.505157
# 5 -0.031175 -0.012015 -0.020467 0.000000 0.078554 0.000000
# 6 0.000000 0.000000 0.000000 0.505157 0.000000 0.036766
#
#
# Mechanical properties :
#
#
# Convention : Reuss Voigt Hill
#
# Bulk Modulus (GPa) = 11.55263 33.14029 22.34646
# Shear Modulus (GPa) = 1.34075 18.21770 9.77923
#
# Velocity S-wave (km/s) = 0.78174 2.88162 2.11126
# Velocity P-wave (km/s) = 2.46588 5.11636 4.01608
#
# Compressibility (1/GPa) = 0.08656038
#
# Stress axis : x y z
#
# Youngs Moduli (GPa) = 32.80118 73.68493 66.90786
#
# Poissons Ratio (x) = -0.55659 -0.27219
# Poissons Ratio (y) = -0.24777 -0.14427
# Poissons Ratio (z) = -0.13344 -0.15889
#
# Static dielectric constant tensor:
#      x y z
#    x 1.877560 0.000000 0.032890 
#    y 0.000000 1.801150 0.000000 
#    z 0.032890 0.000000 1.808610 
# 
# From -- ./inp_files/204860.got.cif
#   From: 2010.05.17/outbox.cif.g08.bks.cpg/sg12_103_cif.got.tgz:204860.got - 2010.06.03 13:09:07.
