data_PCOD9187742
_publ_section_title
;
Structure prediction by ZEFSAII (Michael W. Deem and Ramdas Pophale) SiO2 
 PCOD9187742
Probable space group: C 2/M
;
_chemical_formula_sum "Si O2"
_cell_formula_units_Z 40
_cell_length_a 17.721689
_cell_length_b 13.690291
_cell_length_c 13.553154
_cell_angle_alpha 90.000000
_cell_angle_beta 144.781226
_cell_angle_gamma 90.000000
_cell_volume 1896.304795
_symmetry_space_group_name_H-M "C 2/M"
_symmetry_group_IT_number 12
_symmetry_cell_setting 'monoclinic'
loop_
_space_group_symop_operation_xyz
x,y,z
-x,y,-z
-x,-y,-z
x,-y,z
1/2+x,1/2+y,z
1/2-x,1/2+y,-z
1/2-x,1/2-y,-z
1/2+x,1/2-y,z
loop_
_atom_site_type_symbol
_atom_site_label
_atom_site_fract_x
_atom_site_fract_y
_atom_site_fract_z
Si Si1 0.685224 0.111470 0.223986
Si Si2 0.654910 0.390119 0.143315
Si Si3 0.271816 0.722526 0.137503
Si Si4 0.526938 0.385919 0.367686
Si Si5 0.355906 0.711068 0.688456
O O1 0.692361 0.140605 0.116066
O O2 0.833830 0.117669 0.427175
O O3 0.609791 0.195297 0.206112
O O4 0.641433 0.000000 0.191710
O O5 0.667214 0.500000 0.123310
O O6 0.729689 0.318563 0.151408
O O7 0.710468 0.368175 0.311110
O O8 0.500000 0.371140 0.000000
O O9 0.419676 0.683166 0.302388
O O10 0.250000 0.750000 0.000000
O O11 0.486061 0.500000 0.322937
O O12 0.541345 0.344771 0.271130
O O13 0.250000 0.750000 0.500000
#
# Coordination Sequence:
#
# PCOD9187742 Si02
#       5
#     8   8   8   8   8
#     4   9  19  36  58  82 109 144 183 224 270 320
#     4  10  21  38  58  79 107 145 185 224 270 325
#     4  11  22  33  52  83 114 141 179 228 273 320
#     4  10  19  35  61  86 108 140 181 225 272 321
#     4   9  18  33  57  86 111 137 179 227 268 319
#
# _framework density 21.093654999999998
#
# number of rings (size 3 to 8) (size 9 to 14) (size 15 to 20)
#    0.000    2.200    0.000    3.000    0.000    5.600 
#    0.000    1.000    0.000   47.400    0.000    0.000 
#    0.000    0.000    0.000    0.000    0.000    0.000 
#
# Total GULP energy -111453.796743 kJ/mol
# GULP energy per Si atom -5572.689837 kJ/mol
# Density = 2.104564 g / cm^3
# Si number density = 21.093655 Si / 1000 Ang^3
#
#
#
# Elastic Constant Matrix: (Units=GPa)
#
#
# Indices 1 2 3 4 5 6 
#
# 1 135.2807 60.9899 29.1781 0.0000 -15.2050 0.0000
# 2 60.9899 172.8079 25.3784 0.0000 14.2858 0.0000
# 3 29.1781 25.3784 70.1910 0.0000 4.0712 0.0000
# 4 0.0000 0.0000 0.0000 18.6407 0.0000 10.2297
# 5 -15.2050 14.2858 4.0712 0.0000 34.7042 0.0000
# 6 0.0000 0.0000 0.0000 10.2297 0.0000 31.6272
#
#
#
# Elastic Compliance Matrix: (Units=1/GPa)
#
#
# Indices 1 2 3 4 5 6 
#
# 1 0.010569 -0.003774 -0.003411 0.000000 0.006584 0.000000
# 2 -0.003774 0.007642 -0.000922 0.000000 -0.004691 0.000000
# 3 -0.003411 -0.000922 0.016173 0.000000 -0.003012 0.000000
# 4 0.000000 0.000000 0.000000 0.065223 0.000000 -0.021096
# 5 0.006584 -0.004691 -0.003012 0.000000 0.033984 0.000000
# 6 0.000000 0.000000 0.000000 -0.021096 0.000000 0.038442
#
#
# Mechanical properties :
#
#
# Convention : Reuss Voigt Hill
#
# Bulk Modulus (GPa) = 55.03537 67.70805 61.37171
# Shear Modulus (GPa) = 25.73298 34.50997 30.12148
#
# Velocity S-wave (km/s) = 3.49655 4.04918 3.78297
# Velocity P-wave (km/s) = 6.51527 7.35048 6.94544
#
# Compressibility (1/GPa) = 0.01817013
#
# Stress axis : x y z
#
# Youngs Moduli (GPa) = 94.61605 130.85908 61.83160
#
# Poissons Ratio (x) = 0.49380 0.21091
# Poissons Ratio (y) = 0.35704 0.05703
# Poissons Ratio (z) = 0.32274 0.12069
#
# Static dielectric constant tensor:
#      x y z
#    x 1.787680 0.000000 -0.010640 
#    y 0.000000 1.752980 0.000000 
#    z -0.010640 0.000000 1.877190 
# 
# From -- ./inp_files/155080.got.cif
#   From: 2010.05.17/outbox.cif.g08.bks.cpg/sg12_78_cif.got.tgz:155080.got - 2010.06.03 13:09:07.
