data_PCOD9187483
_publ_section_title
;
Structure prediction by ZEFSAII (Michael W. Deem and Ramdas Pophale) SiO2 
 PCOD9187483
Probable space group: C 2/M
;
_chemical_formula_sum "Si O2"
_cell_formula_units_Z 56
_cell_length_a 8.771485
_cell_length_b 20.586667
_cell_length_c 27.618610
_cell_angle_alpha 90.000000
_cell_angle_beta 147.434838
_cell_angle_gamma 90.000000
_cell_volume 2684.428448
_symmetry_space_group_name_H-M "C 2/M"
_symmetry_group_IT_number 12
_symmetry_cell_setting 'monoclinic'
loop_
_space_group_symop_operation_xyz
x,y,z
-x,y,-z
-x,-y,-z
x,-y,z
1/2+x,1/2+y,z
1/2-x,1/2+y,-z
1/2-x,1/2-y,-z
1/2+x,1/2-y,z
loop_
_atom_site_type_symbol
_atom_site_label
_atom_site_fract_x
_atom_site_fract_y
_atom_site_fract_z
Si Si1 0.980745 0.743347 0.338803
Si Si2 0.904897 0.156564 0.401936
Si Si3 0.451813 0.658022 0.729693
Si Si4 0.782313 0.078464 0.047758
Si Si5 0.501521 0.922961 0.124907
Si Si6 0.041815 0.423533 0.453195
Si Si7 0.411863 0.078089 0.214812
O O1 0.019808 0.787830 0.396367
O O2 0.701067 0.700591 0.270776
O O3 0.240275 0.694983 0.399443
O O4 0.958133 0.791063 0.287514
O O5 0.662129 0.115774 0.308674
O O6 0.162440 0.109127 0.482329
O O7 0.718696 0.615595 0.815362
O O8 0.214007 0.611716 0.642447
O O9 0.737509 0.092141 0.978663
O O10 0.785490 0.000000 0.054088
O O11 0.500000 0.101986 0.000000
O O12 0.097229 0.099383 0.147247
O O13 0.434857 0.909711 0.163179
O O14 0.556718 0.000000 0.136103
O O15 0.041722 0.500000 0.442823
O O16 0.000000 0.415112 0.500000
O O17 0.442031 0.000000 0.230158
#
# Coordination Sequence:
#
# PCOD9187483 Si02
#       7
#     8   8   8   8   8   8   8
#     4  10  24  39  60  81 116 156 206 233 278 331
#     4  11  22  40  59  87 115 157 193 242 279 340
#     4  11  22  40  59  87 115 157 193 242 279 340
#     4   9  19  33  55  88 117 146 188 236 295 355
#     4  10  19  35  59  86 117 151 189 238 295 348
#     4  11  22  38  62  91 120 151 190 236 291 346
#     4  10  19  35  59  86 117 151 189 238 295 348
#
# _framework density 20.861052000000001
#
# number of rings (size 3 to 8) (size 9 to 14) (size 15 to 20)
#    0.000    1.714    2.857    1.286    2.000    8.000 
#    0.000    2.857    0.000    5.143    0.000    0.000 
#    0.000    0.000    0.000    0.000    0.000    0.000 
#
# Total GULP energy -156539.100195 kJ/mol
# GULP energy per Si atom -5590.682150 kJ/mol
# Density = 2.081357 g / cm^3
# Si number density = 20.861052 Si / 1000 Ang^3
#
#
#
# Elastic Constant Matrix: (Units=GPa)
#
#
# Indices 1 2 3 4 5 6 
#
# 1 82.8450 42.9072 26.4077 0.0007 23.4932 0.0014
# 2 42.9072 82.5289 51.8674 0.0002 15.4065 -0.0017
# 3 26.4077 51.8674 105.2397 0.0147 15.4737 0.0154
# 4 0.0007 0.0002 0.0147 22.8613 0.0003 33.4298
# 5 23.4932 15.4065 15.4737 0.0003 24.5594 -0.0006
# 6 0.0014 -0.0017 0.0154 33.4298 -0.0006 51.5194
#
#
#
# Elastic Compliance Matrix: (Units=1/GPa)
#
#
# Indices 1 2 3 4 5 6 
#
# 1 0.020337 -0.008639 0.001343 0.000018 -0.014880 -0.000013
# 2 -0.008639 0.022103 -0.008709 0.000009 -0.000114 -0.000002
# 3 0.001343 -0.008709 0.014154 -0.000044 -0.004739 0.000024
# 4 0.000018 0.000009 -0.000044 0.855141 -0.000021 -0.554882
# 5 -0.014880 -0.000114 -0.004739 -0.000021 0.058010 0.000016
# 6 -0.000013 -0.000002 0.000024 -0.554882 0.000016 0.379461
#
#
# Mechanical properties :
#
#
# Convention : Reuss Voigt Hill
#
# Bulk Modulus (GPa) = 40.67788 56.99759 48.83774
# Shear Modulus (GPa) = 3.59865 29.75010 16.67437
#
# Velocity S-wave (km/s) = 1.31484 3.78048 2.83027
# Velocity P-wave (km/s) = 4.67406 6.81453 5.84315
#
# Compressibility (1/GPa) = 0.02458338
#
# Stress axis : x y z
#
# Youngs Moduli (GPa) = 49.17140 45.24215 70.65028
#
# Poissons Ratio (x) = 0.39086 -0.09486
# Poissons Ratio (y) = 0.42480 0.61529
# Poissons Ratio (z) = -0.06602 0.39401
#
# Static dielectric constant tensor:
#      x y z
#    x 1.790540 0.000000 -0.000340 
#    y 0.000000 1.708270 0.000000 
#    z -0.000340 0.000000 1.723200 
# 
# From -- ./inp_files/258004.got.cif
#   From: 2010.05.17/outbox.cif.g08.bks.cpg/sg12_130_cif.got.tgz:258004.got - 2010.06.03 13:09:07.
