data_PCOD9187858
_publ_section_title
;
Structure prediction by ZEFSAII (Michael W. Deem and Ramdas Pophale) SiO2 
 PCOD9187858
Probable space group: C 2/M
;
_chemical_formula_sum "Si O2"
_cell_formula_units_Z 58
_cell_length_a 21.082183
_cell_length_b 7.389547
_cell_length_c 19.465443
_cell_angle_alpha 90.000000
_cell_angle_beta 118.547660
_cell_angle_gamma 90.000000
_cell_volume 2663.789181
_symmetry_space_group_name_H-M "C 2/M"
_symmetry_group_IT_number 12
_symmetry_cell_setting 'monoclinic'
loop_
_space_group_symop_operation_xyz
x,y,z
-x,y,-z
-x,-y,-z
x,-y,z
1/2+x,1/2+y,z
1/2-x,1/2+y,-z
1/2-x,1/2-y,-z
1/2+x,1/2-y,z
loop_
_atom_site_type_symbol
_atom_site_label
_atom_site_fract_x
_atom_site_fract_y
_atom_site_fract_z
Si Si1 0.401727 0.219443 0.241234
Si Si2 0.381523 0.718454 0.918129
Si Si3 0.000000 0.500000 0.000000
Si Si4 0.322465 0.782141 0.339558
Si Si5 0.566986 0.709408 0.335524
Si Si6 0.733152 0.785366 0.912333
Si Si7 0.934552 0.212584 0.512170
Si Si8 0.156547 0.779391 0.252890
O O1 0.370259 0.277619 0.299150
O O2 0.482773 0.284292 0.272344
O O3 0.343295 0.283633 0.155099
O O4 0.405108 0.000000 0.242790
O O5 0.390655 0.500000 0.931236
O O6 0.301614 0.770758 0.902562
O O7 0.384250 0.767795 0.838641
O O8 0.440074 0.839877 0.985851
O O9 0.362639 0.729794 0.430121
O O10 0.239846 0.719546 0.293268
O O11 0.320668 0.000000 0.335271
O O12 0.590053 0.500000 0.353143
O O13 0.572533 0.789990 0.414983
O O14 0.615464 0.786567 0.299396
O O15 0.729132 0.000000 0.900573
O O16 0.750000 0.750000 0.000000
O O17 0.000000 0.289955 0.500000
O O18 0.951565 0.000000 0.530426
O O19 0.157575 0.000000 0.254022
#
# Coordination Sequence:
#
# PCOD9187858 Si02
#       8
#     8   8   2   8   8   8   8   8
#     4  10  20  37  59  85 115 153 201 248 301 360
#     4  10  22  45  67  89 129 173 208 259 327 377
#     4  12  26  40  68 102 128 160 222 266 308 402
#     4  10  19  35  62  84 108 157 205 242 295 364
#     4  10  21  37  58  85 117 158 201 247 303 370
#     4  10  22  40  64  91 124 160 202 262 320 376
#     4  10  20  34  52  83 124 155 190 247 306 357
#     4   9  19  40  64  83 116 161 206 246 298 373
#
# _framework density 21.773495
#
# number of rings (size 3 to 8) (size 9 to 14) (size 15 to 20)
#    0.000    2.069    2.759    0.207    0.966    3.034 
#    4.966    2.759    0.000    0.000    0.000    0.000 
#    0.000    0.000    0.000    0.000    0.000    0.000 
#
# Total GULP energy -161725.360919 kJ/mol
# GULP energy per Si atom -5576.736583 kJ/mol
# Density = 2.172394 g / cm^3
# Si number density = 21.773495 Si / 1000 Ang^3
#
#
#
# Elastic Constant Matrix: (Units=GPa)
#
#
# Indices 1 2 3 4 5 6 
#
# 1 93.9006 0.3647 7.2809 0.0000 -13.9292 0.0000
# 2 0.3647 81.5992 -7.2439 0.0000 -3.7145 -0.0001
# 3 7.2809 -7.2439 67.9539 0.0000 -10.8458 0.0000
# 4 0.0000 0.0000 0.0000 18.1860 0.0000 11.1173
# 5 -13.9292 -3.7145 -10.8458 0.0000 38.3027 0.0000
# 6 0.0000 -0.0001 0.0000 11.1173 0.0000 16.7581
#
#
#
# Elastic Compliance Matrix: (Units=1/GPa)
#
#
# Indices 1 2 3 4 5 6 
#
# 1 0.011279 0.000079 -0.000570 0.000000 0.003948 0.000000
# 2 0.000079 0.012473 0.001591 0.000000 0.001689 0.000000
# 3 -0.000570 0.001591 0.015645 0.000000 0.004377 0.000000
# 4 0.000000 0.000000 0.000000 0.092500 0.000000 -0.061365
# 5 0.003948 0.001689 0.004377 0.000000 0.028947 0.000000
# 6 0.000000 0.000000 0.000000 -0.061365 0.000000 0.100382
#
#
# Mechanical properties :
#
#
# Convention : Reuss Voigt Hill
#
# Bulk Modulus (GPa) = 24.04092 27.13967 25.59030
# Shear Modulus (GPa) = 18.32224 30.85283 24.58754
#
# Velocity S-wave (km/s) = 2.90400 3.76838 3.36406
# Velocity P-wave (km/s) = 4.72330 5.60587 5.18341
#
# Compressibility (1/GPa) = 0.04159574
#
# Stress axis : x y z
#
# Youngs Moduli (GPa) = 88.65965 80.17475 63.91783
#
# Poissons Ratio (x) = -0.00631 0.03643
# Poissons Ratio (y) = -0.00698 -0.10167
# Poissons Ratio (z) = 0.05053 -0.12753
#
# Static dielectric constant tensor:
#      x y z
#    x 1.764240 0.000000 -0.007990 
#    y 0.000000 1.785910 0.000000 
#    z -0.007990 0.000000 1.785670 
# 
# From -- ./inp_files/314824.got.cif
#   From: 2010.05.17/outbox.cif.g08.bks.cpg/sg12_158_cif.got.tgz:314824.got - 2010.06.03 13:09:07.
