data_PCOD9187099
_publ_section_title
;
Structure prediction by ZEFSAII (Michael W. Deem and Ramdas Pophale) SiO2 
 PCOD9187099
Probable space group: C 2/M
;
_chemical_formula_sum "Si O2"
_cell_formula_units_Z 56
_cell_length_a 11.782667
_cell_length_b 23.567858
_cell_length_c 9.626982
_cell_angle_alpha 90.000000
_cell_angle_beta 110.655650
_cell_angle_gamma 90.000000
_cell_volume 2501.488801
_symmetry_space_group_name_H-M "C 2/M"
_symmetry_group_IT_number 12
_symmetry_cell_setting 'monoclinic'
loop_
_space_group_symop_operation_xyz
x,y,z
-x,y,-z
-x,-y,-z
x,-y,z
1/2+x,1/2+y,z
1/2-x,1/2+y,-z
1/2-x,1/2-y,-z
1/2+x,1/2-y,z
loop_
_atom_site_type_symbol
_atom_site_label
_atom_site_fract_x
_atom_site_fract_y
_atom_site_fract_z
Si Si1 0.461467 0.748086 0.830160
Si Si2 0.999617 0.616488 0.159205
Si Si3 0.090901 0.063433 0.878015
Si Si4 0.739726 0.067489 0.815662
Si Si5 0.713625 0.271485 0.828049
Si Si6 0.242770 0.103815 0.720315
Si Si7 0.873950 0.067872 0.601602
O O1 0.486136 0.815766 0.838434
O O2 0.565843 0.730280 0.764720
O O3 0.313441 0.740298 0.768366
O O4 0.500000 0.726165 0.000000
O O5 0.878517 0.599013 0.183678
O O6 0.122852 0.592869 0.277775
O O7 0.000000 0.596487 0.000000
O O8 0.204071 0.060880 0.822814
O O9 0.988141 0.091144 0.738476
O O10 0.044242 0.000000 0.883593
O O11 0.143632 0.087679 0.043115
O O12 0.765696 0.074112 0.665014
O O13 0.729706 0.000000 0.839890
O O14 0.740586 0.336827 0.802761
O O15 0.750000 0.250000 0.000000
O O16 0.153294 0.099329 0.552140
O O17 0.890559 0.000000 0.578686
#
# Coordination Sequence:
#
# PCOD9187099 Si02
#       7
#     8   8   8   8   8   8   8
#     4   8  16  32  55  82 122 154 195 258 318 374
#     4  10  19  35  57  87 124 159 209 263 319 372
#     4  10  20  37  61  89 123 166 212 259 310 372
#     4  10  21  36  58  89 125 165 213 262 309 378
#     4   9  18  34  57  91 123 155 207 263 320 388
#     4  11  21  35  61  91 122 161 211 258 315 387
#     4  10  22  40  58  87 132 173 208 258 323 378
#
# _framework density 22.386668
#
# number of rings (size 3 to 8) (size 9 to 14) (size 15 to 20)
#    0.000    2.286    1.429    2.143    0.000    4.857 
#    2.571    2.857    0.000    0.857    3.714    0.000 
#    0.000    0.000    0.000    0.000    0.000    0.000 
#
# Total GULP energy -155952.049928 kJ/mol
# GULP energy per Si atom -5569.716069 kJ/mol
# Density = 2.233571 g / cm^3
# Si number density = 22.386668 Si / 1000 Ang^3
#
#
#
# Elastic Constant Matrix: (Units=GPa)
#
#
# Indices 1 2 3 4 5 6 
#
# 1 160.0073 28.8606 22.2014 0.0000 -8.7127 0.0000
# 2 28.8606 46.3918 26.2832 0.0000 -4.6784 0.0000
# 3 22.2014 26.2832 98.6853 0.0000 -8.3669 0.0000
# 4 0.0000 0.0000 0.0000 15.1979 0.0000 -0.0621
# 5 -8.7127 -4.6784 -8.3669 0.0000 26.7436 0.0000
# 6 0.0000 0.0000 0.0000 -0.0621 0.0000 38.5067
#
#
#
# Elastic Compliance Matrix: (Units=1/GPa)
#
#
# Indices 1 2 3 4 5 6 
#
# 1 0.007117 -0.004053 -0.000396 0.000000 0.001486 0.000000
# 2 -0.004053 0.027844 -0.006372 0.000000 0.001557 0.000000
# 3 -0.000396 -0.006372 0.012136 0.000000 0.002553 0.000000
# 4 0.000000 0.000000 0.000000 0.065799 0.000000 0.000106
# 5 0.001486 0.001557 0.002553 0.000000 0.038947 0.000000
# 6 0.000000 0.000000 0.000000 0.000106 0.000000 0.025970
#
#
# Mechanical properties :
#
#
# Convention : Reuss Voigt Hill
#
# Bulk Modulus (GPa) = 39.28524 51.08608 45.18566
# Shear Modulus (GPa) = 24.04553 31.27226 27.65889
#
# Velocity S-wave (km/s) = 3.28090 3.74159 3.51879
# Velocity P-wave (km/s) = 5.65146 6.44479 6.06112
#
# Compressibility (1/GPa) = 0.02545485
#
# Stress axis : x y z
#
# Youngs Moduli (GPa) = 140.51646 35.91413 82.40128
#
# Poissons Ratio (x) = 0.14557 0.03259
# Poissons Ratio (y) = 0.56957 0.52506
# Poissons Ratio (z) = 0.05558 0.22884
#
# Static dielectric constant tensor:
#      x y z
#    x 1.955190 0.000000 0.040850 
#    y 0.000000 1.872650 0.000000 
#    z 0.040850 0.000000 1.799310 
# 
# From -- ./inp_files/53293.got.cif
#   From: 2010.05.17/outbox.cif.g08.bks.cpg/sg12_27_cif.got.tgz:53293.got - 2010.06.03 13:09:07.
