data_PCOD9187882
_publ_section_title
;
Structure prediction by ZEFSAII (Michael W. Deem and Ramdas Pophale) SiO2 
 PCOD9187882
Probable space group: C 2/M
;
_chemical_formula_sum "Si O2"
_cell_formula_units_Z 48
_cell_length_a 22.138251
_cell_length_b 13.267050
_cell_length_c 12.270205
_cell_angle_alpha 90.000000
_cell_angle_beta 34.184076
_cell_angle_gamma 90.000000
_cell_volume 2024.848681
_symmetry_space_group_name_H-M "C 2/M"
_symmetry_group_IT_number 12
_symmetry_cell_setting 'monoclinic'
loop_
_space_group_symop_operation_xyz
x,y,z
-x,y,-z
-x,-y,-z
x,-y,z
1/2+x,1/2+y,z
1/2-x,1/2+y,-z
1/2-x,1/2-y,-z
1/2+x,1/2-y,z
loop_
_atom_site_type_symbol
_atom_site_label
_atom_site_fract_x
_atom_site_fract_y
_atom_site_fract_z
Si Si1 0.893460 0.388772 0.979555
Si Si2 0.362531 0.392933 0.323918
Si Si3 0.634305 0.795146 0.198851
Si Si4 0.698336 0.746143 0.324333
Si Si5 0.520184 0.609599 0.624723
Si Si6 0.631134 0.824702 0.666166
O O1 0.855151 0.500000 0.070142
O O2 0.892934 0.379513 0.848473
O O3 0.016328 0.376416 0.835579
O O4 0.819422 0.294103 0.127457
O O5 0.373076 0.500000 0.247243
O O6 0.446966 0.395226 0.297214
O O7 0.380397 0.281167 0.252167
O O8 0.236290 0.385185 0.549006
O O9 0.649289 0.818961 0.304064
O O10 0.554619 0.702586 0.292652
O O11 0.750000 0.750000 0.000000
O O12 0.632907 0.641626 0.403669
O O13 0.664433 0.792758 0.491444
O O14 0.479131 0.500000 0.653965
#
# Coordination Sequence:
#
# PCOD9187882 Si02
#       6
#     8   8   8   8   8   8
#     4  11  22  38  60  91 123 160 201 249 306 362
#     4   9  18  35  61  88 118 161 206 243 298 364
#     4  10  21  36  56  85 123 159 197 253 305 357
#     4  10  21  37  61  89 123 156 205 252 296 356
#     4  10  19  35  62  90 118 156 203 250 299 352
#     4  10  20  38  62  88 124 165 195 251 307 355
#
# _framework density 23.705476000000001
#
# number of rings (size 3 to 8) (size 9 to 14) (size 15 to 20)
#    0.000    2.000    3.333    1.500    0.000    4.667 
#    0.000   10.000    0.000   19.000    0.000    0.000 
#    0.000    0.000    0.000    0.000    0.000    0.000 
#
# Total GULP energy -133680.840771 kJ/mol
# GULP energy per Si atom -5570.035032 kJ/mol
# Density = 2.365152 g / cm^3
# Si number density = 23.705476 Si / 1000 Ang^3
#
#
#
# Elastic Constant Matrix: (Units=GPa)
#
#
# Indices 1 2 3 4 5 6 
#
# 1 113.2446 34.0759 33.4565 0.0000 -4.5121 0.0000
# 2 34.0759 82.6941 6.4262 0.0000 2.8066 0.0000
# 3 33.4565 6.4262 79.9209 0.0000 -23.4611 0.0000
# 4 0.0000 0.0000 0.0000 15.1223 0.0000 -1.5187
# 5 -4.5121 2.8066 -23.4611 0.0000 44.6543 0.0000
# 6 0.0000 0.0000 0.0000 -1.5187 0.0000 7.1060
#
#
#
# Elastic Compliance Matrix: (Units=1/GPa)
#
#
# Indices 1 2 3 4 5 6 
#
# 1 0.011505 -0.004332 -0.004784 0.000000 -0.001079 0.000000
# 2 -0.004332 0.013887 0.000369 0.000000 -0.001117 0.000000
# 3 -0.004784 0.000369 0.016951 0.000000 0.008399 0.000000
# 4 0.000000 0.000000 0.000000 0.067578 0.000000 0.014443
# 5 -0.001079 -0.001117 0.008399 0.000000 0.026768 0.000000
# 6 0.000000 0.000000 0.000000 0.014443 0.000000 0.143812
#
#
# Mechanical properties :
#
#
# Convention : Reuss Voigt Hill
#
# Bulk Modulus (GPa) = 40.24489 47.08633 43.66561
# Shear Modulus (GPa) = 16.32496 26.83659 21.58078
#
# Velocity S-wave (km/s) = 2.62708 3.36830 3.02051
# Velocity P-wave (km/s) = 5.12015 5.91890 5.53396
#
# Compressibility (1/GPa) = 0.02484787
#
# Stress axis : x y z
#
# Youngs Moduli (GPa) = 86.92213 72.00889 58.99276
#
# Poissons Ratio (x) = 0.31196 0.28225
# Poissons Ratio (y) = 0.37657 -0.02178
# Poissons Ratio (z) = 0.41587 -0.02658
#
# Static dielectric constant tensor:
#      x y z
#    x 2.057020 0.000000 0.057610 
#    y 0.000000 1.852570 0.000000 
#    z 0.057610 0.000000 2.019290 
# 
# From -- ./inp_files/240588.got.cif
#   From: 2010.05.17/outbox.cif.g08.bks.cpg/sg12_121_cif.got.tgz:240588.got - 2010.06.03 13:09:07.
