data_PCOD9187911
_publ_section_title
;
Structure prediction by ZEFSAII (Michael W. Deem and Ramdas Pophale) SiO2 
 PCOD9187911
Probable space group: C 2/M
;
_chemical_formula_sum "Si O2"
_cell_formula_units_Z 56
_cell_length_a 16.936494
_cell_length_b 15.265030
_cell_length_c 22.685684
_cell_angle_alpha 90.000000
_cell_angle_beta 26.692315
_cell_angle_gamma 90.000000
_cell_volume 2634.583674
_symmetry_space_group_name_H-M "C 2/M"
_symmetry_group_IT_number 12
_symmetry_cell_setting 'monoclinic'
loop_
_space_group_symop_operation_xyz
x,y,z
-x,y,-z
-x,-y,-z
x,-y,z
1/2+x,1/2+y,z
1/2-x,1/2+y,-z
1/2-x,1/2-y,-z
1/2+x,1/2-y,z
loop_
_atom_site_type_symbol
_atom_site_label
_atom_site_fract_x
_atom_site_fract_y
_atom_site_fract_z
Si Si1 0.850987 0.359134 0.490206
Si Si2 0.133798 0.098893 0.746743
Si Si3 0.010848 0.287467 0.151284
Si Si4 0.254582 0.903884 0.800996
Si Si5 0.963197 0.828837 0.377836
Si Si6 0.279717 0.769092 0.880824
Si Si7 0.671856 0.600629 0.345208
O O1 0.791799 0.390503 0.594129
O O2 0.879192 0.253477 0.469667
O O3 0.696221 0.379377 0.546877
O O4 0.034260 0.397394 0.346295
O O5 0.015748 0.184380 0.815574
O O6 0.190292 0.108715 0.777092
O O7 0.061412 0.000000 0.787410
O O8 0.827942 0.334615 0.259917
O O9 0.115425 0.322646 0.138370
O O10 0.133877 0.287150 0.011846
O O11 0.198514 0.832940 0.886146
O O12 0.203791 0.000000 0.855333
O O13 0.078686 0.787462 0.248871
O O14 0.095577 0.880267 0.331330
O O15 0.500000 0.613205 0.500000
O O16 0.731019 0.500000 0.311224
#
# Coordination Sequence:
#
# PCOD9187911 Si02
#       7
#     8   8   8   8   8   8   8
#     4  10  19  35  62  92 129 169 207 261 325 376
#     4  11  22  37  61  94 128 163 205 264 328 382
#     4  11  23  45  66  88 130 169 215 268 318 385
#     4  10  22  36  59  95 127 162 208 260 322 386
#     4  10  21  39  61  93 123 169 220 261 315 380
#     4  10  23  42  66  90 119 174 219 259 322 378
#     4  11  26  43  66  98 131 171 213 265 328 387
#
# _framework density 21.25573
#
# number of rings (size 3 to 8) (size 9 to 14) (size 15 to 20)
#    0.000    1.571    1.429    3.429    4.000    5.714 
#    0.000    5.000    0.000    0.000    0.000    0.000 
#    0.000    0.000    0.000    0.000    0.000    0.000 
#
# Total GULP energy -156444.702992 kJ/mol
# GULP energy per Si atom -5587.310821 kJ/mol
# Density = 2.120735 g / cm^3
# Si number density = 21.255730 Si / 1000 Ang^3
#
#
#
# Elastic Constant Matrix: (Units=GPa)
#
#
# Indices 1 2 3 4 5 6 
#
# 1 94.2431 30.8734 23.3383 0.0018 3.3768 0.0021
# 2 30.8734 62.6114 15.9999 -0.0016 -5.9906 0.0056
# 3 23.3383 15.9999 69.0590 -0.0176 1.6374 0.0121
# 4 0.0018 -0.0016 -0.0176 -2.7765 0.0052 -3.1025
# 5 3.3768 -5.9906 1.6374 0.0052 35.5844 -0.0001
# 6 0.0021 0.0056 0.0121 -3.1025 -0.0001 3.5975
#
#
#
# Elastic Compliance Matrix: (Units=1/GPa)
#
#
# Indices 1 2 3 4 5 6 
#
# 1 0.013431 -0.006039 -0.003089 0.000007 -0.002149 0.000018
# 2 -0.006039 0.020028 -0.002696 0.000015 0.004069 -0.000005
# 3 -0.003089 -0.002696 0.016170 -0.000026 -0.000905 -0.000071
# 4 0.000007 0.000015 -0.000026 -0.183415 0.000029 -0.158177
# 5 -0.002149 0.004069 -0.000905 0.000029 0.029033 0.000024
# 6 0.000018 -0.000005 -0.000071 -0.158177 0.000024 0.141557
#
#
# Mechanical properties :
#
#
# Convention : Reuss Voigt Hill
#
# Bulk Modulus (GPa) = 38.48871 40.70407 39.59639
# Shear Modulus (GPa) = 72.34603 17.66119 45.00361
#
# Velocity S-wave (km/s) = 5.84037 2.88565 4.60635
# Velocity P-wave (km/s) = 7.97663 5.50399 6.85275
#
# Compressibility (1/GPa) = 0.02598165
#
# Stress axis : x y z
#
# Youngs Moduli (GPa) = 74.45366 49.93118 61.84194
#
# Poissons Ratio (x) = 0.30154 0.19102
# Poissons Ratio (y) = 0.44964 0.16670
# Poissons Ratio (z) = 0.22998 0.13460
#
# Static dielectric constant tensor:
#      x y z
#    x 1.805960 0.000000 0.005410 
#    y 0.000000 1.801070 0.000010 
#    z 0.005410 0.000010 1.756690 
# 
# From -- ./inp_files/311703.got.cif
#   From: 2010.05.17/outbox.cif.g08.bks.cpg/sg12_156_cif.got.tgz:311703.got - 2010.06.03 13:09:07.
