data_PCOD9187318
_publ_section_title
;
Structure prediction by ZEFSAII (Michael W. Deem and Ramdas Pophale) SiO2 
 PCOD9187318
Probable space group: C 2/M
;
_chemical_formula_sum "Si O2"
_cell_formula_units_Z 64
_cell_length_a 24.591073
_cell_length_b 30.092475
_cell_length_c 9.452682
_cell_angle_alpha 90.000000
_cell_angle_beta 26.517400
_cell_angle_gamma 90.000000
_cell_volume 3123.074196
_symmetry_space_group_name_H-M "C 2/M"
_symmetry_group_IT_number 12
_symmetry_cell_setting 'monoclinic'
loop_
_space_group_symop_operation_xyz
x,y,z
-x,y,-z
-x,-y,-z
x,-y,z
1/2+x,1/2+y,z
1/2-x,1/2+y,-z
1/2-x,1/2-y,-z
1/2+x,1/2-y,z
loop_
_atom_site_type_symbol
_atom_site_label
_atom_site_fract_x
_atom_site_fract_y
_atom_site_fract_z
Si Si1 0.731053 0.448326 0.969508
Si Si2 0.321377 0.205973 0.783911
Si Si3 0.883157 0.140015 0.846162
Si Si4 0.000230 0.830586 0.839940
Si Si5 0.212206 0.329213 0.843291
Si Si6 0.048342 0.449363 0.742871
Si Si7 0.887963 0.421904 0.865273
Si Si8 0.542408 0.228113 0.059961
O O1 0.694857 0.500000 0.029804
O O2 0.830717 0.433214 0.618755
O O3 0.795099 0.445554 0.974144
O O4 0.636060 0.408276 0.178205
O O5 0.433628 0.216519 0.421500
O O6 0.250000 0.250000 0.000000
O O7 0.231805 0.171323 0.914682
O O8 0.354113 0.184578 0.857480
O O9 0.000000 0.162567 0.500000
O O10 0.923482 0.138671 0.914567
O O11 0.143140 0.825497 0.469323
O O12 0.941610 0.781322 0.972278
O O13 0.000000 0.847383 0.000000
O O14 0.175571 0.380174 0.912761
O O15 0.161006 0.298245 0.837935
O O16 0.079612 0.500000 0.707370
O O17 0.946805 0.448984 0.856669
O O18 0.000000 0.427249 0.000000
O O19 0.000000 0.409071 0.500000
O O20 0.500000 0.216483 0.000000
#
# Coordination Sequence:
#
# PCOD9187318 Si02
#       8
#     8   8   8   8   8   8   8   8
#     4  10  21  38  63  91 121 162 208 261 315 371
#     4  12  22  41  66  91 123 167 208 258 309 371
#     4  12  23  42  65  90 122 163 215 256 311 378
#     4  11  26  43  61  88 127 170 208 260 316 372
#     4  12  23  41  61  89 124 162 213 255 307 375
#     4   9  19  35  56  87 125 163 201 249 317 381
#     4  10  19  35  58  88 123 156 204 261 312 368
#     4  11  26  41  63  94 127 166 212 262 315 369
#
# _framework density 20.492628
#
# number of rings (size 3 to 8) (size 9 to 14) (size 15 to 20)
#    0.000    1.125    3.750    2.250    3.500    4.250 
#    0.000    0.000    0.000    0.375    0.000    0.000 
#    0.000    0.000    0.000    0.000    0.000    0.000 
#
# Total GULP energy -178612.257454 kJ/mol
# GULP energy per Si atom -5581.633045 kJ/mol
# Density = 2.044599 g / cm^3
# Si number density = 20.492628 Si / 1000 Ang^3
#
#
#
# Elastic Constant Matrix: (Units=GPa)
#
#
# Indices 1 2 3 4 5 6 
#
# 1 110.6895 11.8462 14.8422 -0.0037 1.5773 -0.0016
# 2 11.8462 65.1556 -3.5937 0.0001 -21.3587 0.0002
# 3 14.8422 -3.5937 44.8016 -0.0048 3.8510 -0.0010
# 4 -0.0037 0.0001 -0.0048 107.6757 0.0029 39.3376
# 5 1.5773 -21.3587 3.8510 0.0029 33.3687 0.0011
# 6 -0.0016 0.0002 -0.0010 39.3376 0.0011 46.5192
#
#
#
# Elastic Compliance Matrix: (Units=1/GPa)
#
#
# Indices 1 2 3 4 5 6 
#
# 1 0.009769 -0.002511 -0.003292 0.000000 -0.001689 0.000000
# 2 -0.002511 0.020080 0.001341 0.000000 0.012817 0.000000
# 3 -0.003292 0.001341 0.023667 0.000001 -0.001717 -0.000001
# 4 0.000000 0.000000 0.000001 0.013439 -0.000001 -0.011364
# 5 -0.001689 0.012817 -0.001717 -0.000001 0.038450 0.000000
# 6 0.000000 0.000000 -0.000001 -0.011364 0.000000 0.031106
#
#
# Mechanical properties :
#
#
# Convention : Reuss Voigt Hill
#
# Bulk Modulus (GPa) = 22.42691 29.64846 26.03768
# Shear Modulus (GPa) = 31.19169 50.68286 40.93727
#
# Velocity S-wave (km/s) = 3.90563 4.97855 4.47437
# Velocity P-wave (km/s) = 5.59520 6.89545 6.27907
#
# Compressibility (1/GPa) = 0.04458929
#
# Stress axis : x y z
#
# Youngs Moduli (GPa) = 102.36871 49.80100 42.25373
#
# Poissons Ratio (x) = 0.12507 0.13912
# Poissons Ratio (y) = 0.25709 -0.05666
# Poissons Ratio (z) = 0.33704 -0.06678
#
# Static dielectric constant tensor:
#      x y z
#    x 1.781510 0.000000 -0.020030 
#    y 0.000000 1.811800 0.000000 
#    z -0.020030 0.000000 1.814780 
# 
# From -- ./inp_files/100213.got.cif
#   From: 2010.05.17/outbox.cif.g08.bks.cpg/sg12_51_cif.got.tgz:100213.got - 2010.06.03 13:09:07.
