data_PCOD9187028
_publ_section_title
;
Structure prediction by ZEFSAII (Michael W. Deem and Ramdas Pophale) SiO2 
 PCOD9187028
Probable space group: C 2/M
;
_chemical_formula_sum "Si O2"
_cell_formula_units_Z 40
_cell_length_a 10.912908
_cell_length_b 20.989474
_cell_length_c 7.684908
_cell_angle_alpha 90.000000
_cell_angle_beta 75.195550
_cell_angle_gamma 90.000000
_cell_volume 1701.840899
_symmetry_space_group_name_H-M "C 2/M"
_symmetry_group_IT_number 12
_symmetry_cell_setting 'monoclinic'
loop_
_space_group_symop_operation_xyz
x,y,z
-x,y,-z
-x,-y,-z
x,-y,z
1/2+x,1/2+y,z
1/2-x,1/2+y,-z
1/2-x,1/2-y,-z
1/2+x,1/2-y,z
loop_
_atom_site_type_symbol
_atom_site_label
_atom_site_fract_x
_atom_site_fract_y
_atom_site_fract_z
Si Si1 0.802417 0.500000 0.682939
Si Si2 0.104254 0.748303 0.619510
Si Si3 0.100916 0.072664 0.115264
Si Si4 0.870043 0.109378 0.365949
Si Si5 0.691776 0.871536 0.770376
Si Si6 0.436532 0.000000 0.252728
O O1 0.719237 0.563965 0.718558
O O2 0.870076 0.500000 0.468444
O O3 0.914286 0.500000 0.777862
O O4 0.250000 0.750000 0.500000
O O5 0.090845 0.818823 0.702480
O O6 0.107445 0.689941 0.754837
O O7 0.000000 0.740012 0.500000
O O8 0.004777 0.074499 0.314531
O O9 0.210509 0.124429 0.104745
O O10 0.150005 0.000000 0.084354
O O11 0.000000 0.084818 0.000000
O O12 0.785512 0.118455 0.569598
O O13 0.608357 0.934593 0.814344
#
# Coordination Sequence:
#
# PCOD9187028 Si02
#       6
#     4   8   8   8   8   4
#     4   9  18  29  51  82 108 143 173 230 265 332
#     4  10  21  34  54  86 118 143 179 231 281 328
#     4  11  22  37  56  81 112 144 186 238 281 324
#     4  10  19  35  57  83 111 141 184 224 281 328
#     4  10  20  34  57  82 111 146 182 226 277 336
#     4   9  18  29  49  80 112 135 184 219 274 321
#
# _framework density 23.503962000000001
#
# number of rings (size 3 to 8) (size 9 to 14) (size 15 to 20)
#    0.000    2.000    2.000    3.000    8.400    0.800 
#    0.000    1.000    0.000    2.400    0.000    0.000 
#    0.000    0.000    0.000    0.000    0.000    0.000 
#
# Total GULP energy -111503.846497 kJ/mol
# GULP energy per Si atom -5575.192325 kJ/mol
# Density = 2.345047 g / cm^3
# Si number density = 23.503962 Si / 1000 Ang^3
#
#
#
# Elastic Constant Matrix: (Units=GPa)
#
#
# Indices 1 2 3 4 5 6 
#
# 1 144.9641 69.6207 31.0293 0.0000 47.6275 0.0000
# 2 69.6207 200.6558 41.8276 0.0000 44.6323 0.0000
# 3 31.0293 41.8276 74.7189 0.0000 18.0081 0.0000
# 4 0.0000 0.0000 0.0000 18.9900 0.0000 -0.0195
# 5 47.6275 44.6323 18.0081 0.0000 45.1594 0.0000
# 6 0.0000 0.0000 0.0000 -0.0195 0.0000 6.3904
#
#
#
# Elastic Compliance Matrix: (Units=1/GPa)
#
#
# Indices 1 2 3 4 5 6 
#
# 1 0.011070 -0.001366 -0.001487 0.000000 -0.009732 0.000000
# 2 -0.001366 0.006926 -0.002221 0.000000 -0.004518 0.000000
# 3 -0.001487 -0.002221 0.015862 0.000000 -0.002562 0.000000
# 4 0.000000 0.000000 0.000000 0.052659 0.000000 0.000161
# 5 -0.009732 -0.004518 -0.002562 0.000000 0.037895 0.000000
# 6 0.000000 0.000000 0.000000 0.000161 0.000000 0.156484
#
#
# Mechanical properties :
#
#
# Convention : Reuss Voigt Hill
#
# Bulk Modulus (GPa) = 42.17671 78.36600 60.27136
# Shear Modulus (GPa) = 16.72540 32.63205 24.67872
#
# Velocity S-wave (km/s) = 2.67048 3.73012 3.24386
# Velocity P-wave (km/s) = 5.24329 7.20872 6.30308
#
# Compressibility (1/GPa) = 0.02370977
#
# Stress axis : x y z
#
# Youngs Moduli (GPa) = 90.33381 144.39099 63.04537
#
# Poissons Ratio (x) = 0.19729 0.09374
# Poissons Ratio (y) = 0.12343 0.14000
# Poissons Ratio (z) = 0.13431 0.32063
#
# Static dielectric constant tensor:
#      x y z
#    x 1.952300 0.000000 -0.069550 
#    y 0.000000 1.919740 0.000000 
#    z -0.069550 0.000000 2.060240 
# 
# From -- ./inp_files/48824.got.cif
#   From: 2010.05.17/outbox.cif.g08.bks.cpg/sg12_25_cif.got.tgz:48824.got - 2010.06.03 13:09:07.
