data_PCOD9187161
_publ_section_title
;
Structure prediction by ZEFSAII (Michael W. Deem and Ramdas Pophale) SiO2 
 PCOD9187161
Probable space group: C 2/M
;
_chemical_formula_sum "Si O2"
_cell_formula_units_Z 56
_cell_length_a 22.094186
_cell_length_b 7.621413
_cell_length_c 18.684406
_cell_angle_alpha 90.000000
_cell_angle_beta 57.326129
_cell_angle_gamma 90.000000
_cell_volume 2648.375536
_symmetry_space_group_name_H-M "C 2/M"
_symmetry_group_IT_number 12
_symmetry_cell_setting 'monoclinic'
loop_
_space_group_symop_operation_xyz
x,y,z
-x,y,-z
-x,-y,-z
x,-y,z
1/2+x,1/2+y,z
1/2-x,1/2+y,-z
1/2-x,1/2-y,-z
1/2+x,1/2-y,z
loop_
_atom_site_type_symbol
_atom_site_label
_atom_site_fract_x
_atom_site_fract_y
_atom_site_fract_z
Si Si1 0.726262 0.206916 0.630371
Si Si2 0.358774 0.211789 0.454336
Si Si3 0.073942 0.701768 0.982998
Si Si4 0.164767 0.710904 0.059921
Si Si5 0.201322 0.798033 0.806779
Si Si6 0.511018 0.785455 0.411114
Si Si7 0.645953 0.785144 0.231986
O O1 0.678339 0.275884 0.594873
O O2 0.808166 0.235310 0.552829
O O3 0.708143 0.290537 0.717281
O O4 0.713454 0.000000 0.645723
O O5 0.440095 0.269042 0.413188
O O6 0.357801 0.000000 0.452912
O O7 0.056171 0.500000 0.013914
O O8 0.132407 0.703233 0.882462
O O9 0.116153 0.778339 0.025064
O O10 0.000000 0.782649 0.000000
O O11 0.160114 0.500000 0.061055
O O12 0.136884 0.769744 0.155471
O O13 0.250000 0.750000 0.000000
O O14 0.275728 0.726624 0.791503
O O15 0.194708 0.000000 0.834002
O O16 0.500000 0.728918 0.500000
O O17 0.583188 0.726664 0.325442
O O18 0.512864 0.000000 0.410845
O O19 0.646028 0.000000 0.233653
#
# Coordination Sequence:
#
# PCOD9187161 Si02
#       7
#     8   8   8   8   8   8   8
#     4  10  20  33  52  77 108 144 180 221 272 332
#     4   9  18  33  53  77 104 140 181 223 270 325
#     4  10  22  38  57  83 114 146 181 231 291 342
#     4  10  19  35  58  81 110 145 186 234 280 335
#     4  11  21  35  56  80 107 140 184 230 274 334
#     4   9  16  28  50  79 108 135 174 226 269 314
#     4   9  18  31  52  81 105 138 184 228 274 325
#
# _framework density 21.145039000000001
#
# number of rings (size 3 to 8) (size 9 to 14) (size 15 to 20)
#    0.000    2.286    1.429    1.714    0.000    4.286 
#    0.000    4.286    0.000    5.571    0.000    0.000 
#    0.000    0.000    0.000    0.000    0.000    0.000 
#
# Total GULP energy -156346.718333 kJ/mol
# GULP energy per Si atom -5583.811369 kJ/mol
# Density = 2.109691 g / cm^3
# Si number density = 21.145039 Si / 1000 Ang^3
#
#
#
# Elastic Constant Matrix: (Units=GPa)
#
#
# Indices 1 2 3 4 5 6 
#
# 1 158.6737 6.0817 84.5088 -0.0005 -13.7340 -0.0012
# 2 6.0817 47.2600 -1.3909 -0.0029 -0.0675 -0.0055
# 3 84.5088 -1.3909 157.2679 0.0002 1.5590 -0.0001
# 4 -0.0005 -0.0029 0.0002 33.2898 -0.0003 5.7669
# 5 -13.7340 -0.0675 1.5590 -0.0003 35.3244 -0.0002
# 6 -0.0012 -0.0055 -0.0001 5.7669 -0.0002 11.1723
#
#
#
# Elastic Compliance Matrix: (Units=1/GPa)
#
#
# Indices 1 2 3 4 5 6 
#
# 1 0.009410 -0.001356 -0.005107 0.000000 0.003881 0.000000
# 2 -0.001356 0.021360 0.000923 0.000000 -0.000527 0.000010
# 3 -0.005107 0.000923 0.009135 0.000000 -0.002387 0.000000
# 4 0.000000 0.000000 0.000000 0.032989 0.000000 -0.017028
# 5 0.003881 -0.000527 -0.002387 0.000000 0.029922 0.000001
# 6 0.000000 0.000010 0.000000 -0.017028 0.000001 0.098297
#
#
# Mechanical properties :
#
#
# Convention : Reuss Voigt Hill
#
# Bulk Modulus (GPa) = 34.69210 60.17785 47.43498
# Shear Modulus (GPa) = 22.54263 34.22412 28.38337
#
# Velocity S-wave (km/s) = 3.26865 4.02747 3.66774
# Velocity P-wave (km/s) = 5.53966 7.08158 6.35754
#
# Compressibility (1/GPa) = 0.02882500
#
# Stress axis : x y z
#
# Youngs Moduli (GPa) = 106.26820 46.81557 109.47256
#
# Poissons Ratio (x) = 0.06347 0.55908
# Poissons Ratio (y) = 0.14407 -0.10100
# Poissons Ratio (z) = 0.54272 -0.04319
#
# Static dielectric constant tensor:
#      x y z
#    x 1.765570 0.000000 0.021860 
#    y 0.000000 1.809240 0.000000 
#    z 0.021860 0.000000 1.714910 
# 
# From -- ./inp_files/281020.got.cif
#   From: 2010.05.17/outbox.cif.g08.bks.cpg/sg12_141_cif.got.tgz:281020.got - 2010.06.03 13:09:07.
