data_PCOD9187424
_publ_section_title
;
Structure prediction by ZEFSAII (Michael W. Deem and Ramdas Pophale) SiO2 
 PCOD9187424
Probable space group: C 2/M
;
_chemical_formula_sum "Si O2"
_cell_formula_units_Z 64
_cell_length_a 14.242898
_cell_length_b 15.170228
_cell_length_c 22.706430
_cell_angle_alpha 90.000000
_cell_angle_beta 137.731321
_cell_angle_gamma 90.000000
_cell_volume 3299.904845
_symmetry_space_group_name_H-M "C 2/M"
_symmetry_group_IT_number 12
_symmetry_cell_setting 'monoclinic'
loop_
_space_group_symop_operation_xyz
x,y,z
-x,y,-z
-x,-y,-z
x,-y,z
1/2+x,1/2+y,z
1/2-x,1/2+y,-z
1/2-x,1/2-y,-z
1/2+x,1/2-y,z
loop_
_atom_site_type_symbol
_atom_site_label
_atom_site_fract_x
_atom_site_fract_y
_atom_site_fract_z
Si Si1 0.998722 0.902280 0.070804
Si Si2 0.293494 0.594477 0.360844
Si Si3 0.174300 0.100022 0.762543
Si Si4 0.672097 0.102833 0.933051
Si Si5 0.621129 0.758236 0.521011
Si Si6 0.045802 0.290029 0.089317
Si Si7 0.018288 0.399973 0.745723
Si Si8 0.434904 0.726419 0.640744
O O1 0.073825 0.811034 0.122764
O O2 0.048721 0.000000 0.113697
O O3 0.838255 0.890484 0.017522
O O4 0.000000 0.905510 0.000000
O O5 0.332537 0.500000 0.405436
O O6 0.336669 0.597015 0.313476
O O7 0.351939 0.672002 0.426965
O O8 0.125439 0.599118 0.283668
O O9 0.316207 0.151125 0.842400
O O10 0.040454 0.156716 0.717938
O O11 0.176690 0.000000 0.786274
O O12 0.578059 0.165717 0.929798
O O13 0.638475 0.120743 0.848572
O O14 0.632131 0.000000 0.925068
O O15 0.500000 0.809588 0.500000
O O16 0.571433 0.731618 0.432922
O O17 0.776892 0.796233 0.586841
O O18 0.000000 0.287121 0.000000
O O19 0.038690 0.500000 0.731938
O O20 0.989123 0.322851 0.686172
#
# Coordination Sequence:
#
# PCOD9187424 Si02
#       8
#     8   8   8   8   8   8   8   8
#     4   9  20  37  56  83 114 151 203 251 290 344
#     4   9  17  32  57  88 114 145 189 247 304 346
#     4  11  22  38  58  87 122 155 200 253 306 361
#     4  10  19  35  59  84 114 152 200 256 303 351
#     4  10  19  36  57  89 122 154 190 243 294 364
#     4  11  23  37  60  88 121 161 201 250 314 365
#     4   9  18  34  58  85 112 147 200 251 291 342
#     4  10  22  35  59  90 120 157 194 239 307 357
#
# _framework density 19.394499
#
# number of rings (size 3 to 8) (size 9 to 14) (size 15 to 20)
#    0.000    2.125    2.500    0.750    3.500    1.750 
#    0.000    1.875    0.000    1.500    0.000    0.000 
#    0.000    0.000    0.000    0.000    0.000    0.000 
#
# Total GULP energy -178375.441735 kJ/mol
# GULP energy per Si atom -5574.232554 kJ/mol
# Density = 1.935036 g / cm^3
# Si number density = 19.394499 Si / 1000 Ang^3
#
#
#
# Elastic Constant Matrix: (Units=GPa)
#
#
# Indices 1 2 3 4 5 6 
#
# 1 69.8476 27.0280 18.5007 0.0000 16.2256 0.0000
# 2 27.0280 116.6334 37.5416 0.0000 11.8762 0.0000
# 3 18.5007 37.5416 48.7354 0.0000 9.8551 0.0000
# 4 0.0000 0.0000 0.0000 -13.6552 0.0000 11.7000
# 5 16.2256 11.8762 9.8551 0.0000 26.4241 0.0000
# 6 0.0000 0.0000 0.0000 11.7000 0.0000 21.8983
#
#
#
# Elastic Compliance Matrix: (Units=1/GPa)
#
#
# Indices 1 2 3 4 5 6 
#
# 1 0.018130 -0.002207 -0.003387 0.000000 -0.008878 0.000000
# 2 -0.002207 0.011768 -0.008038 0.000000 -0.000936 0.000000
# 3 -0.003387 -0.008038 0.029035 0.000000 -0.005137 0.000000
# 4 0.000000 0.000000 0.000000 -0.050235 0.000000 0.026840
# 5 -0.008878 -0.000936 -0.005137 0.000000 0.045632 0.000000
# 6 0.000000 0.000000 0.000000 0.026840 0.000000 0.031325
#
#
# Mechanical properties :
#
#
# Convention : Reuss Voigt Hill
#
# Bulk Modulus (GPa) = 31.57657 44.59524 38.08590
# Shear Modulus (GPa) = 40.49375 17.07653 28.78514
#
# Velocity S-wave (km/s) = 4.57431 2.97051 3.85670
# Velocity P-wave (km/s) = 6.64948 5.89991 6.28588
#
# Compressibility (1/GPa) = 0.03166905
#
# Stress axis : x y z
#
# Youngs Moduli (GPa) = 55.15595 84.97728 34.44103
#
# Poissons Ratio (x) = 0.18757 0.11666
# Poissons Ratio (y) = 0.12174 0.27683
# Poissons Ratio (z) = 0.18682 0.68303
#
# Static dielectric constant tensor:
#      x y z
#    x 1.714160 0.000000 0.046370 
#    y 0.000000 1.712590 0.000000 
#    z 0.046370 0.000000 1.692690 
# 
# From -- ./inp_files/340193.got.cif
#   From: 2010.05.17/outbox.cif.g08.bks.cpg/sg12_171_cif.got.tgz:340193.got - 2010.06.03 13:09:07.
