data_PCOD9187464
_publ_section_title
;
Structure prediction by ZEFSAII (Michael W. Deem and Ramdas Pophale) SiO2 
 PCOD9187464
Probable space group: C 2/M
;
_chemical_formula_sum "Si O2"
_cell_formula_units_Z 56
_cell_length_a 28.466730
_cell_length_b 13.608559
_cell_length_c 12.782062
_cell_angle_alpha 90.000000
_cell_angle_beta 140.283287
_cell_angle_gamma 90.000000
_cell_volume 3164.070956
_symmetry_space_group_name_H-M "C 2/M"
_symmetry_group_IT_number 12
_symmetry_cell_setting 'monoclinic'
loop_
_space_group_symop_operation_xyz
x,y,z
-x,y,-z
-x,-y,-z
x,-y,z
1/2+x,1/2+y,z
1/2-x,1/2+y,-z
1/2-x,1/2-y,-z
1/2+x,1/2-y,z
loop_
_atom_site_type_symbol
_atom_site_label
_atom_site_fract_x
_atom_site_fract_y
_atom_site_fract_z
Si Si1 0.430876 0.698846 0.591236
Si Si2 0.924185 0.882310 0.810115
Si Si3 0.842363 0.689483 0.124683
Si Si4 0.915977 0.110015 0.193695
Si Si5 0.787053 0.746560 0.237408
Si Si6 0.320024 0.386615 0.820671
Si Si7 0.504784 0.888668 0.631978
O O1 0.420615 0.673111 0.694600
O O2 0.497239 0.631734 0.660977
O O3 0.354015 0.692645 0.399376
O O4 0.460016 0.809471 0.621004
O O5 0.857972 0.860149 0.776372
O O6 0.924206 0.000000 0.790311
O O7 0.000000 0.859337 0.000000
O O8 0.875426 0.801000 0.182710
O O9 0.817650 0.671156 0.201108
O O10 0.908508 0.623341 0.197345
O O11 0.773051 0.690462 0.929331
O O12 0.901011 0.000000 0.207071
O O13 0.883115 0.116622 0.019306
O O14 0.743865 0.685507 0.251293
O O15 0.294989 0.500000 0.773166
O O16 0.500000 0.863840 0.500000
O O17 0.480072 0.000000 0.604853
#
# Coordination Sequence:
#
# PCOD9187464 Si02
#       7
#     8   8   8   8   8   8   8
#     4  11  20  32  56  85 111 137 180 230 273 314
#     4  10  19  35  59  86 108 137 181 228 278 328
#     4   9  19  36  53  76 113 147 178 215 272 331
#     4   9  17  32  55  82 108 140 183 225 265 324
#     4  10  20  33  50  79 114 145 174 215 273 333
#     4   9  18  33  55  80 103 139 187 225 263 319
#     4  10  20  36  58  80 104 142 191 228 254 308
#
# _framework density 17.698719000000001
#
# number of rings (size 3 to 8) (size 9 to 14) (size 15 to 20)
#    0.000    2.286    2.857    0.429    0.000    1.714 
#    0.000    5.714    0.000    0.429    0.000    0.000 
#    0.000    0.000    0.000    0.000    0.000    0.000 
#
# Total GULP energy -156155.405212 kJ/mol
# GULP energy per Si atom -5576.978758 kJ/mol
# Density = 1.765844 g / cm^3
# Si number density = 17.698719 Si / 1000 Ang^3
#
#
#
# Elastic Constant Matrix: (Units=GPa)
#
#
# Indices 1 2 3 4 5 6 
#
# 1 88.8623 25.0398 34.9340 0.0000 -9.1552 0.0000
# 2 25.0398 55.0505 13.5554 0.0000 -10.1378 0.0000
# 3 34.9340 13.5554 94.9887 0.0000 11.0515 0.0000
# 4 0.0000 0.0000 0.0000 17.2281 0.0000 -8.0257
# 5 -9.1552 -10.1378 11.0515 0.0000 29.6700 0.0000
# 6 0.0000 0.0000 0.0000 -8.0257 0.0000 15.2832
#
#
#
# Elastic Compliance Matrix: (Units=1/GPa)
#
#
# Indices 1 2 3 4 5 6 
#
# 1 0.015280 -0.004620 -0.005566 0.000000 0.005210 0.000000
# 2 -0.004620 0.022109 -0.002267 0.000000 0.006973 0.000000
# 3 -0.005566 -0.002267 0.013786 0.000000 -0.007627 0.000000
# 4 0.000000 0.000000 0.000000 0.076842 0.000000 0.040352
# 5 0.005210 0.006973 -0.007627 0.000000 0.040535 0.000000
# 6 0.000000 0.000000 0.000000 0.040352 0.000000 0.086621
#
#
# Mechanical properties :
#
#
# Convention : Reuss Voigt Hill
#
# Bulk Modulus (GPa) = 38.07013 42.88443 40.47728
# Shear Modulus (GPa) = 17.31077 23.46108 20.38593
#
# Velocity S-wave (km/s) = 3.13082 3.64480 3.39754
# Velocity P-wave (km/s) = 5.88440 6.48040 6.18958
#
# Compressibility (1/GPa) = 0.02626732
#
# Stress axis : x y z
#
# Youngs Moduli (GPa) = 65.44373 45.23032 72.53911
#
# Poissons Ratio (x) = 0.20897 0.40378
# Poissons Ratio (y) = 0.30236 0.16446
# Poissons Ratio (z) = 0.36429 0.10255
#
# Static dielectric constant tensor:
#      x y z
#    x 1.617630 0.000000 0.020880 
#    y 0.000000 1.596070 0.000000 
#    z 0.020880 0.000000 1.621130 
# 
# From -- ./inp_files/189228.got.cif
#   From: 2010.05.17/outbox.cif.g08.bks.cpg/sg12_95_cif.got.tgz:189228.got - 2010.06.03 13:09:07.
