data_PCOD9187444
_publ_section_title
;
Structure prediction by ZEFSAII (Michael W. Deem and Ramdas Pophale) SiO2 
 PCOD9187444
Probable space group: C 2/M
;
_chemical_formula_sum "Si O2"
_cell_formula_units_Z 56
_cell_length_a 31.258942
_cell_length_b 8.527224
_cell_length_c 22.591575
_cell_angle_alpha 90.000000
_cell_angle_beta 152.454658
_cell_angle_gamma 90.000000
_cell_volume 2784.797585
_symmetry_space_group_name_H-M "C 2/M"
_symmetry_group_IT_number 12
_symmetry_cell_setting 'monoclinic'
loop_
_space_group_symop_operation_xyz
x,y,z
-x,y,-z
-x,-y,-z
x,-y,z
1/2+x,1/2+y,z
1/2-x,1/2+y,-z
1/2-x,1/2-y,-z
1/2+x,1/2-y,z
loop_
_atom_site_type_symbol
_atom_site_label
_atom_site_fract_x
_atom_site_fract_y
_atom_site_fract_z
Si Si1 0.261125 0.317077 0.606931
Si Si2 0.559086 0.681585 0.019824
Si Si3 0.276743 0.180850 0.312165
Si Si4 0.765904 0.186275 0.086131
Si Si5 0.397361 0.311689 0.353726
Si Si6 0.418381 0.685623 0.082090
Si Si7 0.600508 0.819958 0.312622
O O1 0.285053 0.500000 0.647612
O O2 0.218732 0.252053 0.615837
O O3 0.351313 0.237466 0.689240
O O4 0.182129 0.311459 0.460788
O O5 0.526279 0.500000 0.973396
O O6 0.667016 0.678818 0.166843
O O7 0.500000 0.754558 0.000000
O O8 0.556146 0.752108 0.951368
O O9 0.328674 0.268528 0.323278
O O10 0.310409 0.000000 0.353097
O O11 0.849676 0.244316 0.232859
O O12 0.777167 0.000000 0.094972
O O13 0.750000 0.250000 0.000000
O O14 0.670640 0.229336 0.002182
O O15 0.500000 0.254907 0.500000
O O16 0.403003 0.500000 0.355575
O O17 0.397990 0.500000 0.053991
O O18 0.515596 0.717082 0.232760
O O19 0.571090 0.000000 0.271661
#
# Coordination Sequence:
#
# PCOD9187444 Si02
#       7
#     8   8   8   8   8   8   8
#     4   9  19  35  55  81 116 158 202 246 295 354
#     4   9  17  30  53  84 115 147 187 233 283 343
#     4  10  19  35  59  85 113 148 196 246 293 352
#     4  11  24  43  66  90 121 157 203 259 313 375
#     4  10  23  43  64  88 121 158 197 251 318 378
#     4  11  21  36  59  85 117 155 197 243 299 359
#     4  10  20  34  53  82 120 160 202 245 294 354
#
# _framework density 20.109182000000001
#
# number of rings (size 3 to 8) (size 9 to 14) (size 15 to 20)
#    0.000    2.000    1.429    2.143    0.000    5.429 
#    0.000    2.857    0.000    2.143    0.000    0.000 
#    0.000    0.000    0.000    0.000    0.000    0.000 
#
# Total GULP energy -156034.977291 kJ/mol
# GULP energy per Si atom -5572.677760 kJ/mol
# Density = 2.006341 g / cm^3
# Si number density = 20.109182 Si / 1000 Ang^3
#
#
#
# Elastic Constant Matrix: (Units=GPa)
#
#
# Indices 1 2 3 4 5 6 
#
# 1 118.1922 14.1036 65.3199 0.0000 -6.8541 0.0000
# 2 14.1036 17.9397 22.6710 0.0000 -8.5539 0.0000
# 3 65.3199 22.6710 102.6179 0.0000 0.0467 0.0000
# 4 0.0000 0.0000 0.0000 18.3958 0.0000 2.6204
# 5 -6.8541 -8.5539 0.0467 0.0000 28.9468 0.0000
# 6 0.0000 0.0000 0.0000 2.6204 0.0000 29.5449
#
#
#
# Elastic Compliance Matrix: (Units=1/GPa)
#
#
# Indices 1 2 3 4 5 6 
#
# 1 0.013434 0.003054 -0.009228 0.000000 0.004098 0.000000
# 2 0.003054 0.096873 -0.023359 0.000000 0.029387 0.000000
# 3 -0.009228 -0.023359 0.020783 0.000000 -0.009121 0.000000
# 4 0.000000 0.000000 0.000000 0.055056 0.000000 -0.004883
# 5 0.004098 0.029387 -0.009121 0.000000 0.044215 0.000000
# 6 0.000000 0.000000 0.000000 -0.004883 0.000000 0.034280
#
#
# Mechanical properties :
#
#
# Convention : Reuss Voigt Hill
#
# Bulk Modulus (GPa) = 13.88412 49.21544 31.54978
# Shear Modulus (GPa) = 14.37960 24.48784 19.43372
#
# Velocity S-wave (km/s) = 2.67699 3.49340 3.11209
# Velocity P-wave (km/s) = 4.05887 6.38742 5.35133
#
# Compressibility (1/GPa) = 0.07202475
#
# Stress axis : x y z
#
# Youngs Moduli (GPa) = 74.43928 10.32280 48.11524
#
# Poissons Ratio (x) = -0.03153 0.44399
# Poissons Ratio (y) = -0.22735 1.12393
# Poissons Ratio (z) = 0.68690 0.24113
#
# Static dielectric constant tensor:
#      x y z
#    x 1.715800 0.000000 -0.053370 
#    y 0.000000 1.733990 0.000000 
#    z -0.053370 0.000000 1.827410 
# 
# From -- ./inp_files/329715.got.cif
#   From: 2010.05.17/outbox.cif.g08.bks.cpg/sg12_165_cif.got.tgz:329715.got - 2010.06.03 13:09:07.
