data_PCOD9187182
_publ_section_title
;
Structure prediction by ZEFSAII (Michael W. Deem and Ramdas Pophale) SiO2 
 PCOD9187182
Probable space group: C 2/M
;
_chemical_formula_sum "Si O2"
_cell_formula_units_Z 40
_cell_length_a 20.479025
_cell_length_b 10.692193
_cell_length_c 9.158242
_cell_angle_alpha 90.000000
_cell_angle_beta 78.368804
_cell_angle_gamma 90.000000
_cell_volume 1964.162335
_symmetry_space_group_name_H-M "C 2/M"
_symmetry_group_IT_number 12
_symmetry_cell_setting 'monoclinic'
loop_
_space_group_symop_operation_xyz
x,y,z
-x,y,-z
-x,-y,-z
x,-y,z
1/2+x,1/2+y,z
1/2-x,1/2+y,-z
1/2-x,1/2-y,-z
1/2+x,1/2-y,z
loop_
_atom_site_type_symbol
_atom_site_label
_atom_site_fract_x
_atom_site_fract_y
_atom_site_fract_z
Si Si1 0.726823 0.760209 0.262475
Si Si2 0.174593 0.637192 0.988070
Si Si3 0.658759 0.351687 0.572094
Si Si4 0.988636 0.151360 0.342247
Si Si5 0.572757 0.645069 0.043093
O O1 0.697264 0.845870 0.146649
O O2 0.675908 0.710172 0.408073
O O3 0.783937 0.823246 0.336582
O O4 0.762541 0.652564 0.149345
O O5 0.144376 0.500000 0.981636
O O6 0.126178 0.752956 0.972815
O O7 0.655634 0.500000 0.549660
O O8 0.586373 0.310156 0.664765
O O9 0.000000 0.194451 0.500000
O O10 0.050713 0.185625 0.215088
O O11 0.988870 0.000000 0.337105
O O12 0.596526 0.500000 0.023572
O O13 0.500000 0.647205 0.000000
#
# Coordination Sequence:
#
# PCOD9187182 Si02
#       5
#     8   8   8   8   8
#     4  10  22  36  55  82 114 152 194 233 282 345
#     4  11  23  38  57  84 119 156 192 233 285 344
#     4  10  19  35  58  82 110 145 188 240 290 336
#     4   9  17  30  52  80 105 133 177 231 282 329
#     4  10  21  37  58  83 110 145 191 238 283 336
#
# _framework density 20.364915
#
# number of rings (size 3 to 8) (size 9 to 14) (size 15 to 20)
#    0.000    2.000    0.000    3.600    0.000    8.400 
#    0.000    0.000    0.000    6.600    0.000    0.000 
#    0.000    0.000    0.000    0.000    0.000    0.000 
#
# Total GULP energy -111518.108071 kJ/mol
# GULP energy per Si atom -5575.905404 kJ/mol
# Density = 2.031856 g / cm^3
# Si number density = 20.364915 Si / 1000 Ang^3
#
#
#
# Elastic Constant Matrix: (Units=GPa)
#
#
# Indices 1 2 3 4 5 6 
#
# 1 58.3132 26.0671 2.5477 0.0000 1.8698 0.0000
# 2 26.0671 87.1319 23.1187 0.0000 -18.7992 0.0000
# 3 2.5477 23.1187 91.4300 0.0000 1.4465 0.0000
# 4 0.0000 0.0000 0.0000 4.5951 0.0000 -7.1818
# 5 1.8698 -18.7992 1.4465 0.0000 24.9664 0.0000
# 6 0.0000 0.0000 0.0000 -7.1818 0.0000 24.1341
#
#
#
# Elastic Compliance Matrix: (Units=1/GPa)
#
#
# Indices 1 2 3 4 5 6 
#
# 1 0.021144 -0.008523 0.001694 0.000000 -0.008099 0.000000
# 2 -0.008523 0.018459 -0.004664 0.000000 0.014808 0.000000
# 3 0.001694 -0.004664 0.012138 0.000000 -0.004342 0.000000
# 4 0.000000 0.000000 0.000000 0.406851 0.000000 0.121071
# 5 -0.008099 0.014808 -0.004342 0.000000 0.052062 0.000000
# 6 0.000000 0.000000 0.000000 0.121071 0.000000 0.077463
#
#
# Mechanical properties :
#
#
# Convention : Reuss Voigt Hill
#
# Bulk Modulus (GPa) = 34.77579 37.81579 36.29579
# Shear Modulus (GPa) = 8.05557 23.08188 15.56873
#
# Velocity S-wave (km/s) = 1.99103 3.37027 2.76794
# Velocity P-wave (km/s) = 4.73276 5.80985 5.29874
#
# Compressibility (1/GPa) = 0.02875564
#
# Stress axis : x y z
#
# Youngs Moduli (GPa) = 47.29428 54.17421 82.38440
#
# Poissons Ratio (x) = 0.46170 -0.13955
# Poissons Ratio (y) = 0.40307 0.38426
# Poissons Ratio (z) = -0.08011 0.25268
#
# Static dielectric constant tensor:
#      x y z
#    x 1.756110 0.000000 0.021800 
#    y 0.000000 1.690580 0.000000 
#    z 0.021800 0.000000 1.808170 
# 
# From -- ./inp_files/83364.got.cif
#   From: 2010.05.17/outbox.cif.g08.bks.cpg/sg12_42_cif.got.tgz:83364.got - 2010.06.03 13:09:07.
