data_PCOD9187245
_publ_section_title
;
Structure prediction by ZEFSAII (Michael W. Deem and Ramdas Pophale) SiO2 
 PCOD9187245
Probable space group: C 2/M
;
_chemical_formula_sum "Si O2"
_cell_formula_units_Z 56
_cell_length_a 15.499360
_cell_length_b 15.045628
_cell_length_c 12.494936
_cell_angle_alpha 90.000000
_cell_angle_beta 72.079441
_cell_angle_gamma 90.000000
_cell_volume 2772.423917
_symmetry_space_group_name_H-M "C 2/M"
_symmetry_group_IT_number 12
_symmetry_cell_setting 'monoclinic'
loop_
_space_group_symop_operation_xyz
x,y,z
-x,y,-z
-x,-y,-z
x,-y,z
1/2+x,1/2+y,z
1/2-x,1/2+y,-z
1/2-x,1/2-y,-z
1/2+x,1/2-y,z
loop_
_atom_site_type_symbol
_atom_site_label
_atom_site_fract_x
_atom_site_fract_y
_atom_site_fract_z
Si Si1 0.250322 0.899183 0.953183
Si Si2 0.596394 0.097551 0.278262
Si Si3 0.400620 0.703616 0.089873
Si Si4 0.818287 0.598146 0.519591
Si Si5 0.397630 0.902030 0.087509
Si Si6 0.458189 0.766958 0.396705
Si Si7 0.884877 0.102377 0.315019
O O1 0.315528 0.887116 0.826056
O O2 0.172418 0.825655 0.972484
O O3 0.211542 0.000000 0.964270
O O4 0.320033 0.897349 0.025412
O O5 0.626150 0.094367 0.390290
O O6 0.523920 0.174607 0.297319
O O7 0.559540 0.000000 0.262415
O O8 0.388221 0.803722 0.140953
O O9 0.385748 0.635729 0.192764
O O10 0.500000 0.697547 0.000000
O O11 0.828215 0.500000 0.464561
O O12 0.863743 0.678464 0.438433
O O13 0.714812 0.610500 0.594112
O O14 0.386170 0.000000 0.145079
O O15 0.500000 0.903023 0.000000
O O16 0.500000 0.763156 0.500000
O O17 0.447712 0.669260 0.355775
O O18 0.912040 0.000000 0.310038
#
# Coordination Sequence:
#
# PCOD9187245 Si02
#       7
#     8   8   8   8   8   8   8
#     4  10  19  35  58  84 116 155 192 238 292 339
#     4   9  17  31  57  87 113 138 181 237 291 342
#     4  11  23  38  61  85 114 157 204 247 281 337
#     4   9  17  35  59  85 114 140 179 237 292 341
#     4   9  20  37  57  84 116 150 188 236 295 350
#     4  10  21  35  57  87 114 147 186 234 292 355
#     4  11  23  39  58  81 115 155 195 238 286 341
#
# _framework density 20.198931000000002
#
# number of rings (size 3 to 8) (size 9 to 14) (size 15 to 20)
#    0.000    2.143    1.429    1.714    4.000    3.143 
#    0.000    0.714    0.000    0.857    0.000    0.000 
#    0.000    0.000    0.000    0.000    0.000    0.000 
#
# Total GULP energy -156167.188546 kJ/mol
# GULP energy per Si atom -5577.399591 kJ/mol
# Density = 2.015296 g / cm^3
# Si number density = 20.198931 Si / 1000 Ang^3
#
#
#
# Elastic Constant Matrix: (Units=GPa)
#
#
# Indices 1 2 3 4 5 6 
#
# 1 85.5590 59.3588 12.6140 0.0000 1.2771 0.0000
# 2 59.3588 174.7202 18.2786 0.0000 -15.7426 0.0000
# 3 12.6140 18.2786 18.1830 0.0000 -2.7169 0.0000
# 4 0.0000 0.0000 0.0000 12.1589 0.0000 1.0024
# 5 1.2771 -15.7426 -2.7169 0.0000 15.4841 0.0000
# 6 0.0000 0.0000 0.0000 1.0024 0.0000 30.0412
#
#
#
# Elastic Compliance Matrix: (Units=1/GPa)
#
#
# Indices 1 2 3 4 5 6 
#
# 1 0.016857 -0.005739 -0.007193 0.000000 -0.008487 0.000000
# 2 -0.005739 0.008845 -0.003590 0.000000 0.008836 0.000000
# 3 -0.007193 -0.003590 0.064838 0.000000 0.008320 0.000000
# 4 0.000000 0.000000 0.000000 0.082471 0.000000 -0.002752
# 5 -0.008487 0.008836 0.008320 0.000000 0.075726 0.000000
# 6 0.000000 0.000000 0.000000 -0.002752 0.000000 0.033379
#
#
# Mechanical properties :
#
#
# Convention : Reuss Voigt Hill
#
# Bulk Modulus (GPa) = 17.39238 50.99612 34.19425
# Shear Modulus (GPa) = 14.95553 24.08423 19.51988
#
# Velocity S-wave (km/s) = 2.72400 3.45679 3.11204
# Velocity P-wave (km/s) = 4.30382 6.42139 5.46613
#
# Compressibility (1/GPa) = 0.05749644
#
# Stress axis : x y z
#
# Youngs Moduli (GPa) = 59.32424 113.05982 15.42300
#
# Poissons Ratio (x) = 0.64885 0.11093
# Poissons Ratio (y) = 0.34046 0.05537
# Poissons Ratio (z) = 0.42670 0.40587
#
# Static dielectric constant tensor:
#      x y z
#    x 1.725420 0.000000 0.035430 
#    y 0.000000 1.744400 0.000000 
#    z 0.035430 0.000000 1.722240 
# 
# From -- ./inp_files/214202.got.cif
#   From: 2010.05.17/outbox.cif.g08.bks.cpg/sg12_108_cif.got.tgz:214202.got - 2010.06.03 13:09:07.
