data_PCOD9187296
_publ_section_title
;
Structure prediction by ZEFSAII (Michael W. Deem and Ramdas Pophale) SiO2 
 PCOD9187296
Probable space group: C 2/M
;
_chemical_formula_sum "Si O2"
_cell_formula_units_Z 56
_cell_length_a 9.719887
_cell_length_b 26.912681
_cell_length_c 15.473914
_cell_angle_alpha 90.000000
_cell_angle_beta 52.853328
_cell_angle_gamma 90.000000
_cell_volume 3226.465116
_symmetry_space_group_name_H-M "C 2/M"
_symmetry_group_IT_number 12
_symmetry_cell_setting 'monoclinic'
loop_
_space_group_symop_operation_xyz
x,y,z
-x,y,-z
-x,-y,-z
x,-y,z
1/2+x,1/2+y,z
1/2-x,1/2+y,-z
1/2-x,1/2-y,-z
1/2+x,1/2-y,z
loop_
_atom_site_type_symbol
_atom_site_label
_atom_site_fract_x
_atom_site_fract_y
_atom_site_fract_z
Si Si1 0.903489 0.106266 0.211983
Si Si2 0.287829 0.140893 0.371158
Si Si3 0.164846 0.943573 0.002693
Si Si4 0.122310 0.210250 0.871118
Si Si5 0.086629 0.440625 0.242347
Si Si6 0.532993 0.653930 0.628306
Si Si7 0.009731 0.742599 0.734606
O O1 0.871446 0.153449 0.162412
O O2 0.742326 0.070182 0.251710
O O3 0.917263 0.123294 0.305151
O O4 0.090315 0.086004 0.111504
O O5 0.423288 0.095180 0.319427
O O6 0.171250 0.142538 0.501352
O O7 0.389625 0.193040 0.330068
O O8 0.153860 0.140533 0.341357
O O9 0.197571 0.000000 0.016657
O O10 0.326689 0.927121 0.883755
O O11 0.000000 0.943571 0.000000
O O12 0.065505 0.239738 0.807825
O O13 0.311213 0.229107 0.819287
O O14 0.000000 0.215600 0.000000
O O15 0.049209 0.500000 0.257087
O O16 0.534225 0.711837 0.658003
#
# Coordination Sequence:
#
# PCOD9187296 Si02
#       7
#     8   8   8   8   8   8   8
#     4  10  19  35  58  87 116 147 189 230 282 336
#     4  11  22  42  59  78 116 153 194 239 286 334
#     4   8  15  31  57  85 114 144 177 227 284 339
#     4  11  21  34  56  88 123 150 183 230 284 345
#     4  10  20  37  62  90 113 145 190 235 286 339
#     4  10  24  40  57  82 111 155 197 232 284 343
#     4  11  21  39  57  85 115 153 193 231 283 341
#
# _framework density 17.356456999999999
#
# number of rings (size 3 to 8) (size 9 to 14) (size 15 to 20)
#    0.000    1.857    2.857    3.429    0.000    0.571 
#    0.000    5.714    0.000    1.714    0.000    0.000 
#    0.000    0.000    0.000    0.000    0.000    0.000 
#
# Total GULP energy -156080.580565 kJ/mol
# GULP energy per Si atom -5574.306449 kJ/mol
# Density = 1.731695 g / cm^3
# Si number density = 17.356457 Si / 1000 Ang^3
#
#
#
# Elastic Constant Matrix: (Units=GPa)
#
#
# Indices 1 2 3 4 5 6 
#
# 1 218.6548 86.6352 122.3253 0.0000 38.9977 0.0000
# 2 86.6352 110.3827 83.3490 0.0000 12.1791 0.0000
# 3 122.3253 83.3490 138.9187 0.0000 15.3486 0.0000
# 4 0.0000 0.0000 0.0000 23.4027 0.0000 -15.1347
# 5 38.9977 12.1791 15.3486 0.0000 42.5879 0.0000
# 6 0.0000 0.0000 0.0000 -15.1347 0.0000 41.3881
#
#
#
# Elastic Compliance Matrix: (Units=1/GPa)
#
#
# Indices 1 2 3 4 5 6 
#
# 1 0.010764 -0.002038 -0.007530 0.000000 -0.006560 0.000000
# 2 -0.002038 0.017009 -0.008414 0.000000 0.000035 0.000000
# 3 -0.007530 -0.008414 0.018590 0.000000 0.002602 0.000000
# 4 0.000000 0.000000 0.000000 0.055965 0.000000 0.020465
# 5 -0.006560 0.000035 0.002602 0.000000 0.028540 0.000000
# 6 0.000000 0.000000 0.000000 0.020465 0.000000 0.031645
#
#
# Mechanical properties :
#
#
# Convention : Reuss Voigt Hill
#
# Bulk Modulus (GPa) = 96.17870 116.95280 106.56575
# Shear Modulus (GPa) = 24.75939 33.18553 28.97246
#
# Velocity S-wave (km/s) = 3.78103 4.37739 4.09009
# Velocity P-wave (km/s) = 8.63688 9.64768 9.15624
#
# Compressibility (1/GPa) = 0.01039731
#
# Stress axis : x y z
#
# Youngs Moduli (GPa) = 92.90431 58.79389 53.79163
#
# Poissons Ratio (x) = 0.11983 0.40508
# Poissons Ratio (y) = 0.18935 0.45260
# Poissons Ratio (z) = 0.69962 0.49469
#
# Static dielectric constant tensor:
#      x y z
#    x 1.520200 0.000000 -0.002840 
#    y 0.000000 1.620090 0.000000 
#    z -0.002840 0.000000 1.580740 
# 
# From -- ./inp_files/199679.got.cif
#   From: 2010.05.17/outbox.cif.g08.bks.cpg/sg12_100_cif.got.tgz:199679.got - 2010.06.03 13:09:07.
