data_PCOD9187754
_publ_section_title
;
Structure prediction by ZEFSAII (Michael W. Deem and Ramdas Pophale) SiO2 
 PCOD9187754
Probable space group: C 2/M
;
_chemical_formula_sum "Si O2"
_cell_formula_units_Z 64
_cell_length_a 20.939404
_cell_length_b 8.895990
_cell_length_c 17.823616
_cell_angle_alpha 90.000000
_cell_angle_beta 109.093250
_cell_angle_gamma 90.000000
_cell_volume 3137.476361
_symmetry_space_group_name_H-M "C 2/M"
_symmetry_group_IT_number 12
_symmetry_cell_setting 'monoclinic'
loop_
_space_group_symop_operation_xyz
x,y,z
-x,y,-z
-x,-y,-z
x,-y,z
1/2+x,1/2+y,z
1/2-x,1/2+y,-z
1/2-x,1/2-y,-z
1/2+x,1/2-y,z
loop_
_atom_site_type_symbol
_atom_site_label
_atom_site_fract_x
_atom_site_fract_y
_atom_site_fract_z
Si Si1 0.849514 0.326671 0.598039
Si Si2 0.106250 0.681755 0.683186
Si Si3 0.172903 0.175571 0.168269
Si Si4 0.062730 0.325964 0.215520
Si Si5 0.684206 0.179983 0.011409
Si Si6 0.763230 0.319335 0.349179
Si Si7 0.028358 0.172929 0.426489
Si Si8 0.093706 0.318602 0.841549
O O1 0.838764 0.500000 0.572326
O O2 0.897448 0.320887 0.690549
O O3 0.779025 0.254178 0.599140
O O4 0.897379 0.244460 0.556080
O O5 0.105668 0.500000 0.681439
O O6 0.160451 0.730558 0.641096
O O7 0.030678 0.738693 0.639793
O O8 0.127209 0.731108 0.775698
O O9 0.099960 0.215435 0.173497
O O10 0.223342 0.215196 0.256080
O O11 0.182039 0.000000 0.156476
O O12 0.180712 0.264997 0.094898
O O13 0.066844 0.500000 0.190577
O O14 0.985142 0.283698 0.193829
O O15 0.624958 0.232577 0.931948
O O16 0.686425 0.000000 0.011421
O O17 0.750000 0.250000 0.000000
O O18 0.762026 0.500000 0.359017
O O19 0.000000 0.176146 0.500000
O O20 0.031710 0.000000 0.402096
O O21 0.099723 0.500000 0.843733
#
# Coordination Sequence:
#
# PCOD9187754 Si02
#       8
#     8   8   8   8   8   8   8   8
#     4  10  19  35  61  87 114 148 192 234 273 334
#     4  10  19  37  62  87 112 145 192 237 278 335
#     4  10  20  35  53  77 112 148 185 229 279 331
#     4   9  17  33  56  80 105 139 184 230 275 328
#     4  11  22  36  53  73 104 146 187 231 284 336
#     4   9  19  35  59  86 117 154 190 234 287 334
#     4  11  24  40  59  86 120 151 180 224 283 341
#     4   9  18  34  56  79 107 143 184 230 281 331
#
# _framework density 20.398558999999999
#
# number of rings (size 3 to 8) (size 9 to 14) (size 15 to 20)
#    0.000    2.125    1.250    2.250    0.000    5.000 
#    0.000    6.875    0.000    0.000    0.000    0.000 
#    0.000    0.000    0.000    0.000    0.000    0.000 
#
# Total GULP energy -178556.797585 kJ/mol
# GULP energy per Si atom -5579.899925 kJ/mol
# Density = 2.035213 g / cm^3
# Si number density = 20.398559 Si / 1000 Ang^3
#
#
#
# Elastic Constant Matrix: (Units=GPa)
#
#
# Indices 1 2 3 4 5 6 
#
# 1 69.8614 16.7121 20.4986 0.0000 -27.5369 0.0000
# 2 16.7121 41.3654 21.9068 0.0000 -15.6867 0.0000
# 3 20.4986 21.9068 77.0811 0.0000 -12.4869 0.0000
# 4 0.0000 0.0000 0.0000 21.2765 0.0000 -10.1059
# 5 -27.5369 -15.6867 -12.4869 0.0000 28.0486 0.0000
# 6 0.0000 0.0000 0.0000 -10.1059 0.0000 31.5663
#
#
#
# Elastic Compliance Matrix: (Units=1/GPa)
#
#
# Indices 1 2 3 4 5 6 
#
# 1 0.023882 0.000330 -0.002820 0.000000 0.022376 0.000000
# 2 0.000330 0.033928 -0.007117 0.000000 0.016131 0.000000
# 3 -0.002820 -0.007117 0.015792 0.000000 0.000281 0.000000
# 4 0.000000 0.000000 0.000000 0.055429 0.000000 0.017745
# 5 0.022376 0.016131 0.000281 0.000000 0.066766 0.000000
# 6 0.000000 0.000000 0.000000 0.017745 0.000000 0.037361
#
#
# Mechanical properties :
#
#
# Convention : Reuss Voigt Hill
#
# Bulk Modulus (GPa) = 18.38662 34.06033 26.22347
# Shear Modulus (GPa) = 18.48424 24.79098 21.63761
#
# Velocity S-wave (km/s) = 3.01351 3.48994 3.26044
# Velocity P-wave (km/s) = 4.59799 5.74223 5.20167
#
# Compressibility (1/GPa) = 0.05438738
#
# Stress axis : x y z
#
# Youngs Moduli (GPa) = 41.87204 29.47447 63.32481
#
# Poissons Ratio (x) = -0.00973 0.17859
# Poissons Ratio (y) = -0.01383 0.45069
# Poissons Ratio (z) = 0.11809 0.20977
#
# Static dielectric constant tensor:
#      x y z
#    x 1.713240 0.000000 0.016530 
#    y 0.000000 1.686240 0.000000 
#    z 0.016530 0.000000 1.751240 
# 
# From -- ./inp_files/281297.got.cif
#   From: 2010.05.17/outbox.cif.g08.bks.cpg/sg12_141_cif.got.tgz:281297.got - 2010.06.03 13:09:07.
