data_PCOD9187581
_publ_section_title
;
Structure prediction by ZEFSAII (Michael W. Deem and Ramdas Pophale) SiO2 
 PCOD9187581
Probable space group: C 2/M
;
_chemical_formula_sum "Si O2"
_cell_formula_units_Z 44
_cell_length_a 10.713999
_cell_length_b 15.282963
_cell_length_c 18.994946
_cell_angle_alpha 90.000000
_cell_angle_beta 49.499714
_cell_angle_gamma 90.000000
_cell_volume 2365.053069
_symmetry_space_group_name_H-M "C 2/M"
_symmetry_group_IT_number 12
_symmetry_cell_setting 'monoclinic'
loop_
_space_group_symop_operation_xyz
x,y,z
-x,y,-z
-x,-y,-z
x,-y,z
1/2+x,1/2+y,z
1/2-x,1/2+y,-z
1/2-x,1/2-y,-z
1/2+x,1/2-y,z
loop_
_atom_site_type_symbol
_atom_site_label
_atom_site_fract_x
_atom_site_fract_y
_atom_site_fract_z
Si Si1 0.546197 0.000000 0.299783
Si Si2 0.407110 0.137358 0.250126
Si Si3 0.031663 0.158802 0.413328
Si Si4 0.720679 0.500000 0.511282
Si Si5 0.981217 0.819062 0.741692
Si Si6 0.636566 0.101548 0.893054
Si Si7 0.178879 0.000000 0.684032
O O1 0.527744 0.915564 0.256721
O O2 0.383632 0.000000 0.406865
O O3 0.702330 0.000000 0.292901
O O4 0.216809 0.120906 0.341484
O O5 0.436265 0.240288 0.247309
O O6 0.430509 0.107146 0.161783
O O7 0.000000 0.206540 0.500000
O O8 0.012907 0.204936 0.344184
O O9 0.896178 0.082569 0.461512
O O10 0.768860 0.500000 0.575672
O O11 0.071545 0.911507 0.720561
O O12 0.795281 0.836573 0.833846
O O13 0.684706 0.000000 0.888689
O O14 0.500000 0.125954 0.000000
#
# Coordination Sequence:
#
# PCOD9187581 Si02
#       7
#     4   8   8   4   8   8   4
#     4  12  22  36  58  88 122 164 195 251 284 360
#     4  11  23  37  61  93 118 156 200 245 297 353
#     4  10  19  35  60  82 117 159 204 248 284 332
#     4  10  19  38  57  82 116 167 210 248 289 328
#     4  10  23  40  60  89 122 158 194 243 303 354
#     4  10  21  42  71  91 109 149 203 252 295 353
#     4  10  23  39  56  83 129 165 193 240 298 355
#
# _framework density 18.604234000000002
#
# number of rings (size 3 to 8) (size 9 to 14) (size 15 to 20)
#    0.000    1.636    3.636    1.091    7.636    1.455 
#    0.000    0.000    0.000    1.091    0.000    0.000 
#    0.000    0.000    0.000    0.000    0.000    0.000 
#
# Total GULP energy -122750.087149 kJ/mol
# GULP energy per Si atom -5579.549416 kJ/mol
# Density = 1.856189 g / cm^3
# Si number density = 18.604234 Si / 1000 Ang^3
#
#
#
# Elastic Constant Matrix: (Units=GPa)
#
#
# Indices 1 2 3 4 5 6 
#
# 1 96.9655 4.8568 36.1149 0.0000 6.8051 0.0000
# 2 4.8568 55.7004 12.1314 0.0000 -0.3166 0.0000
# 3 36.1149 12.1314 138.8347 0.0000 13.1454 0.0000
# 4 0.0000 0.0000 0.0000 -5.7426 0.0000 3.3183
# 5 6.8051 -0.3166 13.1454 0.0000 15.1269 0.0000
# 6 0.0000 0.0000 0.0000 3.3183 0.0000 14.1731
#
#
#
# Elastic Compliance Matrix: (Units=1/GPa)
#
#
# Indices 1 2 3 4 5 6 
#
# 1 0.011538 -0.000436 -0.002693 0.000000 -0.002860 0.000000
# 2 -0.000436 0.018370 -0.001685 0.000000 0.002045 0.000000
# 3 -0.002693 -0.001685 0.008651 0.000000 -0.006342 0.000000
# 4 0.000000 0.000000 0.000000 -0.153386 0.000000 0.035912
# 5 -0.002860 0.002045 -0.006342 0.000000 0.072948 0.000000
# 6 0.000000 0.000000 0.000000 0.035912 0.000000 0.062148
#
#
# Mechanical properties :
#
#
# Convention : Reuss Voigt Hill
#
# Bulk Modulus (GPa) = 34.56453 44.18964 39.37708
# Shear Modulus (GPa) = 126.45176 20.60466 73.52821
#
# Velocity S-wave (km/s) = 8.25330 3.33156 6.29350
# Velocity P-wave (km/s) = 10.46144 6.21314 8.60363
#
# Compressibility (1/GPa) = 0.02893140
#
# Stress axis : x y z
#
# Youngs Moduli (GPa) = 86.66746 54.43688 115.59410
#
# Poissons Ratio (x) = 0.02373 0.31125
# Poissons Ratio (y) = 0.03778 0.19483
# Poissons Ratio (z) = 0.23336 0.09175
#
# Static dielectric constant tensor:
#      x y z
#    x 1.651700 0.000000 0.024320 
#    y 0.000000 1.631870 0.000000 
#    z 0.024320 0.000000 1.624350 
# 
# From -- ./inp_files/246981.got.cif
#   From: 2010.05.17/outbox.cif.g08.bks.cpg/sg12_124_cif.got.tgz:246981.got - 2010.06.03 13:09:07.
