data_PCOD9187173
_publ_section_title
;
Structure prediction by ZEFSAII (Michael W. Deem and Ramdas Pophale) SiO2 
 PCOD9187173
Probable space group: C 2/M
;
_chemical_formula_sum "Si O2"
_cell_formula_units_Z 64
_cell_length_a 20.706859
_cell_length_b 7.757521
_cell_length_c 19.632253
_cell_angle_alpha 90.000000
_cell_angle_beta 93.617825
_cell_angle_gamma 90.000000
_cell_volume 3147.320562
_symmetry_space_group_name_H-M "C 2/M"
_symmetry_group_IT_number 12
_symmetry_cell_setting 'monoclinic'
loop_
_space_group_symop_operation_xyz
x,y,z
-x,y,-z
-x,-y,-z
x,-y,z
1/2+x,1/2+y,z
1/2-x,1/2+y,-z
1/2-x,1/2-y,-z
1/2+x,1/2-y,z
loop_
_atom_site_type_symbol
_atom_site_label
_atom_site_fract_x
_atom_site_fract_y
_atom_site_fract_z
Si Si1 0.434033 0.789913 0.910999
Si Si2 0.976971 0.291260 0.299246
Si Si3 0.390850 0.791677 0.761148
Si Si4 0.295065 0.799747 0.440281
Si Si5 0.358547 0.210554 0.193386
Si Si6 0.247379 0.706446 0.708784
Si Si7 0.941808 0.797920 0.450645
Si Si8 0.915770 0.710124 0.059481
O O1 0.400262 0.730524 0.839655
O O2 0.510118 0.742901 0.916715
O O3 0.432529 0.000000 0.910547
O O4 0.404281 0.732175 0.981132
O O5 0.976912 0.500000 0.301566
O O6 0.921831 0.241185 0.241560
O O7 0.958890 0.227777 0.372767
O O8 0.047293 0.232888 0.278506
O O9 0.322590 0.739274 0.725834
O O10 0.393197 0.000000 0.762340
O O11 0.250000 0.750000 0.500000
O O12 0.276400 0.720076 0.365549
O O13 0.370657 0.773727 0.459912
O O14 0.283746 0.000000 0.430564
O O15 0.296427 0.272170 0.231445
O O16 0.368768 0.269802 0.116529
O O17 0.357169 0.000000 0.191094
O O18 0.237142 0.500000 0.707856
O O19 0.000000 0.723036 0.500000
O O20 0.937520 0.000000 0.465562
O O21 0.914148 0.500000 0.058624
#
# Coordination Sequence:
#
# PCOD9187173 Si02
#       8
#     8   8   8   8   8   8   8   8
#     4   8  13  23  42  76 111 135 168 227 280 314
#     4  10  19  35  58  82 107 141 186 233 274 319
#     4  10  20  33  53  82 113 142 181 231 275 320
#     4  11  24  43  64  85 113 149 188 229 275 333
#     4   9  15  30  52  75 102 139 184 225 266 323
#     4  10  22  38  55  75 108 148 182 219 269 329
#     4  11  25  42  60  86 117 146 180 228 279 332
#     4   8  12  21  45  75 104 136 175 222 274 320
#
# _framework density 20.334755000000001
#
# number of rings (size 3 to 8) (size 9 to 14) (size 15 to 20)
#    0.000    2.375    2.500    1.500    1.750    2.500 
#    0.000    0.625    0.000    0.000    0.000    2.625 
#    0.000    0.000    0.000    0.000    0.000    0.000 
#
# Total GULP energy -178574.946131 kJ/mol
# GULP energy per Si atom -5580.467067 kJ/mol
# Density = 2.028847 g / cm^3
# Si number density = 20.334755 Si / 1000 Ang^3
#
#
#
# Elastic Constant Matrix: (Units=GPa)
#
#
# Indices 1 2 3 4 5 6 
#
# 1 120.0973 -7.8881 59.5188 0.0000 -25.3258 0.0000
# 2 -7.8881 20.9101 2.4514 0.0000 -5.7534 0.0000
# 3 59.5188 2.4514 122.9737 0.0000 -27.5763 0.0000
# 4 0.0000 0.0000 0.0000 0.8205 0.0000 -5.0918
# 5 -25.3258 -5.7534 -27.5763 0.0000 34.7108 0.0000
# 6 0.0000 0.0000 0.0000 -5.0918 0.0000 17.5675
#
#
#
# Elastic Compliance Matrix: (Units=1/GPa)
#
#
# Indices 1 2 3 4 5 6 
#
# 1 0.012517 0.007078 -0.004731 0.000000 0.006547 0.000000
# 2 0.007078 0.054223 -0.001622 0.000000 0.012863 0.000000
# 3 -0.004731 -0.001622 0.011705 0.000000 0.005578 0.000000
# 4 0.000000 0.000000 0.000000 -1.526110 0.000000 -0.442328
# 5 0.006547 0.012863 0.005578 0.000000 0.040150 0.000000
# 6 0.000000 0.000000 0.000000 -0.442328 0.000000 -0.071281
#
#
# Mechanical properties :
#
#
# Convention : Reuss Voigt Hill
#
# Bulk Modulus (GPa) = 12.51651 41.34948 26.93300
# Shear Modulus (GPa) = -3.43970 24.61303 10.58666
#
# Velocity S-wave (km/s) = -1.30200 3.48284 2.28418
# Velocity P-wave (km/s) = 1.97695 6.04584 4.49780
#
# Compressibility (1/GPa) = 0.07989446
#
# Stress axis : x y z
#
# Youngs Moduli (GPa) = 79.89322 18.44225 85.43477
#
# Poissons Ratio (x) = -0.13053 0.40419
# Poissons Ratio (y) = -0.56547 0.13858
# Poissons Ratio (z) = 0.37797 0.02991
#
# Static dielectric constant tensor:
#      x y z
#    x 1.678620 0.000000 0.000520 
#    y 0.000000 1.754190 0.000000 
#    z 0.000520 0.000000 1.737130 
# 
# From -- ./inp_files/314150.got.cif
#   From: 2010.05.17/outbox.cif.g08.bks.cpg/sg12_158_cif.got.tgz:314150.got - 2010.06.03 13:09:07.
