data_PCOD9187250
_publ_section_title
;
Structure prediction by ZEFSAII (Michael W. Deem and Ramdas Pophale) SiO2 
 PCOD9187250
Probable space group: C 2/M
;
_chemical_formula_sum "Si O2"
_cell_formula_units_Z 64
_cell_length_a 27.202632
_cell_length_b 13.715298
_cell_length_c 8.814732
_cell_angle_alpha 90.000000
_cell_angle_beta 67.341979
_cell_angle_gamma 90.000000
_cell_volume 3034.887246
_symmetry_space_group_name_H-M "C 2/M"
_symmetry_group_IT_number 12
_symmetry_cell_setting 'monoclinic'
loop_
_space_group_symop_operation_xyz
x,y,z
-x,y,-z
-x,-y,-z
x,-y,z
1/2+x,1/2+y,z
1/2-x,1/2+y,-z
1/2-x,1/2-y,-z
1/2+x,1/2-y,z
loop_
_atom_site_type_symbol
_atom_site_label
_atom_site_fract_x
_atom_site_fract_y
_atom_site_fract_z
Si Si1 0.804842 0.262693 0.522193
Si Si2 0.967522 0.298773 0.891312
Si Si3 0.876022 0.791736 0.183452
Si Si4 0.889562 0.183586 0.610663
Si Si5 0.174978 0.884678 0.032398
Si Si6 0.908213 0.610621 0.702787
Si Si7 0.710917 0.886670 0.158366
Si Si8 0.964312 0.110318 0.282687
O O1 0.750000 0.250000 0.500000
O O2 0.847545 0.278847 0.337657
O O3 0.835773 0.174899 0.572810
O O4 0.794907 0.336232 0.671375
O O5 0.954562 0.370916 0.769591
O O6 0.994718 0.198663 0.796943
O O7 0.911368 0.270030 0.028409
O O8 0.000000 0.334915 0.000000
O O9 0.916353 0.864727 0.222329
O O10 0.835448 0.850992 0.127059
O O11 0.869122 0.157922 0.801428
O O12 0.909218 0.296732 0.587932
O O13 0.936563 0.122006 0.480227
O O14 0.169874 0.000000 0.051666
O O15 0.236200 0.854398 0.994592
O O16 0.911475 0.500000 0.637460
O O17 0.847936 0.620974 0.844017
O O18 0.720127 0.000000 0.175867
O O19 0.984493 0.000000 0.236833
#
# Coordination Sequence:
#
# PCOD9187250 Si02
#       8
#     8   8   8   8   8   8   8   8
#     4  10  19  35  58  84 118 163 200 246 295 350
#     4  10  22  40  62  89 118 156 208 256 309 373
#     4  10  20  36  59  88 124 162 199 238 300 369
#     4  10  22  38  59  91 125 162 207 252 304 363
#     4  11  20  34  59  93 128 162 200 241 296 373
#     4  10  21  41  62  83 118 158 204 263 314 358
#     4   9  20  36  59  90 122 162 208 246 301 371
#     4  10  22  41  62  89 127 163 200 251 309 373
#
# _framework density 21.088097000000001
#
# number of rings (size 3 to 8) (size 9 to 14) (size 15 to 20)
#    0.000    2.000    2.500    0.750    0.000    6.500 
#    0.000    3.125    0.000    4.500    0.000    0.000 
#    0.000    0.000    0.000    0.000    0.000    0.000 
#
# Total GULP energy -178234.014171 kJ/mol
# GULP energy per Si atom -5569.812943 kJ/mol
# Density = 2.104010 g / cm^3
# Si number density = 21.088097 Si / 1000 Ang^3
#
#
#
# Elastic Constant Matrix: (Units=GPa)
#
#
# Indices 1 2 3 4 5 6 
#
# 1 86.9290 14.8806 14.0870 0.0000 10.9442 0.0000
# 2 14.8806 68.5337 7.4047 0.0000 4.7612 0.0000
# 3 14.0870 7.4047 84.5782 0.0000 -7.3319 0.0000
# 4 0.0000 0.0000 0.0000 17.0340 0.0000 0.7472
# 5 10.9442 4.7612 -7.3319 0.0000 28.0574 0.0000
# 6 0.0000 0.0000 0.0000 0.7472 0.0000 19.1941
#
#
#
# Elastic Compliance Matrix: (Units=1/GPa)
#
#
# Indices 1 2 3 4 5 6 
#
# 1 0.012938 -0.002178 -0.002425 0.000000 -0.005311 0.000000
# 2 -0.002178 0.015332 -0.001158 0.000000 -0.002055 0.000000
# 3 -0.002425 -0.001158 0.012716 0.000000 0.004465 0.000000
# 4 0.000000 0.000000 0.000000 0.058807 0.000000 -0.002289
# 5 -0.005311 -0.002055 0.004465 0.000000 0.039228 0.000000
# 6 0.000000 0.000000 0.000000 -0.002289 0.000000 0.052188
#
#
# Mechanical properties :
#
#
# Convention : Reuss Voigt Hill
#
# Bulk Modulus (GPa) = 33.93879 34.75397 34.34638
# Shear Modulus (GPa) = 23.52369 26.43499 24.97934
#
# Velocity S-wave (km/s) = 3.34353 3.54439 3.44542
# Velocity P-wave (km/s) = 5.57085 5.76771 5.67013
#
# Compressibility (1/GPa) = 0.02946481
#
# Stress axis : x y z
#
# Youngs Moduli (GPa) = 77.29153 65.22239 78.64347
#
# Poissons Ratio (x) = 0.14207 0.19068
# Poissons Ratio (y) = 0.16837 0.09104
# Poissons Ratio (z) = 0.18740 0.07550
#
# Static dielectric constant tensor:
#      x y z
#    x 1.879310 0.000000 0.020410 
#    y 0.000000 1.752330 0.000000 
#    z 0.020410 0.000000 1.792770 
# 
# From -- ./inp_files/104547.got.cif
#   From: 2010.05.17/outbox.cif.g08.bks.cpg/sg12_53_cif.got.tgz:104547.got - 2010.06.03 13:09:07.
