data_PCOD9187103
_publ_section_title
;
Structure prediction by ZEFSAII (Michael W. Deem and Ramdas Pophale) SiO2 
 PCOD9187103
Probable space group: C 2/M
;
_chemical_formula_sum "Si O2"
_cell_formula_units_Z 64
_cell_length_a 16.293215
_cell_length_b 17.778397
_cell_length_c 16.215878
_cell_angle_alpha 90.000000
_cell_angle_beta 48.757698
_cell_angle_gamma 90.000000
_cell_volume 3531.964563
_symmetry_space_group_name_H-M "C 2/M"
_symmetry_group_IT_number 12
_symmetry_cell_setting 'monoclinic'
loop_
_space_group_symop_operation_xyz
x,y,z
-x,y,-z
-x,-y,-z
x,-y,z
1/2+x,1/2+y,z
1/2-x,1/2+y,-z
1/2-x,1/2-y,-z
1/2+x,1/2-y,z
loop_
_atom_site_type_symbol
_atom_site_label
_atom_site_fract_x
_atom_site_fract_y
_atom_site_fract_z
Si Si1 0.744236 0.586924 0.897415
Si Si2 0.305996 0.585270 0.428828
Si Si3 0.173653 0.413362 0.681586
Si Si4 0.671931 0.713980 0.357282
Si Si5 0.702925 0.366179 0.744318
Si Si6 0.539306 0.823485 0.194164
Si Si7 0.534165 0.688312 0.070241
Si Si8 0.960190 0.215713 0.391085
O O1 0.745270 0.500000 0.924322
O O2 0.737251 0.588693 0.802344
O O3 0.850773 0.632922 0.855063
O O4 0.637554 0.632979 0.997474
O O5 0.348567 0.500000 0.406499
O O6 0.212948 0.593043 0.560135
O O7 0.262627 0.599642 0.365773
O O8 0.398978 0.646237 0.388371
O O9 0.184017 0.500000 0.698850
O O10 0.254671 0.358781 0.676799
O O11 0.052256 0.382717 0.772493
O O12 0.745323 0.783397 0.280189
O O13 0.574703 0.696467 0.358753
O O14 0.618784 0.737487 0.480531
O O15 0.572319 0.356326 0.827756
O O16 0.556569 0.759738 0.113261
O O17 0.486960 0.779670 0.307170
O O18 0.500000 0.712016 0.000000
#
# Coordination Sequence:
#
# PCOD9187103 Si02
#       8
#     8   8   8   8   8   8   8   8
#     4  11  25  40  58  87 115 146 188 240 296 338
#     4  10  20  34  54  87 122 152 189 231 280 334
#     4  10  21  35  57  86 118 155 190 229 280 341
#     4  10  19  35  57  88 120 149 193 227 275 337
#     4  11  19  37  61  83 114 154 185 235 284 343
#     4  12  20  40  62  82 114 154 192 229 286 340
#     4  10  23  39  63  85 105 147 197 246 283 337
#     4  10  20  33  59  87 116 154 191 233 270 341
#
# _framework density 18.120225999999999
#
# number of rings (size 3 to 8) (size 9 to 14) (size 15 to 20)
#    0.000    1.500    3.750    1.875    0.000    5.250 
#    0.000    2.500    0.000    6.000    0.000    0.000 
#    0.000    0.000    0.000    0.000    0.000    0.000 
#
# Total GULP energy -178624.443012 kJ/mol
# GULP energy per Si atom -5582.013844 kJ/mol
# Density = 1.807898 g / cm^3
# Si number density = 18.120226 Si / 1000 Ang^3
#
#
#
# Elastic Constant Matrix: (Units=GPa)
#
#
# Indices 1 2 3 4 5 6 
#
# 1 54.0399 45.2061 24.6470 0.0000 -14.5652 0.0000
# 2 45.2061 123.5234 43.6301 0.0000 -16.3314 0.0000
# 3 24.6470 43.6301 39.7294 0.0000 -14.0097 0.0000
# 4 0.0000 0.0000 0.0000 21.1759 0.0000 2.7348
# 5 -14.5652 -16.3314 -14.0097 0.0000 32.8956 0.0000
# 6 0.0000 0.0000 0.0000 2.7348 0.0000 12.2886
#
#
#
# Elastic Compliance Matrix: (Units=1/GPa)
#
#
# Indices 1 2 3 4 5 6 
#
# 1 0.030069 -0.007138 -0.008673 0.000000 0.006076 0.000000
# 2 -0.007138 0.014926 -0.012314 0.000000 -0.000995 0.000000
# 3 -0.008673 -0.012314 0.047732 0.000000 0.010375 0.000000
# 4 0.000000 0.000000 0.000000 0.048621 0.000000 -0.010820
# 5 0.006076 -0.000995 0.010375 0.000000 0.037014 0.000000
# 6 0.000000 0.000000 0.000000 -0.010820 0.000000 0.083784
#
#
# Mechanical properties :
#
#
# Convention : Reuss Voigt Hill
#
# Bulk Modulus (GPa) = 27.41369 49.36211 38.38790
# Shear Modulus (GPa) = 15.12610 20.19266 17.65938
#
# Velocity S-wave (km/s) = 2.89236 3.34184 3.12519
# Velocity P-wave (km/s) = 5.12991 6.49547 5.85265
#
# Compressibility (1/GPa) = 0.03647812
#
# Stress axis : x y z
#
# Youngs Moduli (GPa) = 33.25670 66.99817 20.95027
#
# Poissons Ratio (x) = 0.47821 0.18170
# Poissons Ratio (y) = 0.23738 0.25798
# Poissons Ratio (z) = 0.28843 0.82501
#
# Static dielectric constant tensor:
#      x y z
#    x 1.606350 0.000000 0.014620 
#    y 0.000000 1.599090 0.000000 
#    z 0.014620 0.000000 1.639150 
# 
# From -- ./inp_files/225319.got.cif
#   From: 2010.05.17/outbox.cif.g08.bks.cpg/sg12_113_cif.got.tgz:225319.got - 2010.06.03 13:09:07.
