data_PCOD9187285
_publ_section_title
;
Structure prediction by ZEFSAII (Michael W. Deem and Ramdas Pophale) SiO2 
 PCOD9187285
Probable space group: C 2/M
;
_chemical_formula_sum "Si O2"
_cell_formula_units_Z 58
_cell_length_a 19.206181
_cell_length_b 9.810611
_cell_length_c 20.867114
_cell_angle_alpha 90.000000
_cell_angle_beta 130.280566
_cell_angle_gamma 90.000000
_cell_volume 2999.577290
_symmetry_space_group_name_H-M "C 2/M"
_symmetry_group_IT_number 12
_symmetry_cell_setting 'monoclinic'
loop_
_space_group_symop_operation_xyz
x,y,z
-x,y,-z
-x,-y,-z
x,-y,z
1/2+x,1/2+y,z
1/2-x,1/2+y,-z
1/2-x,1/2-y,-z
1/2+x,1/2-y,z
loop_
_atom_site_type_symbol
_atom_site_label
_atom_site_fract_x
_atom_site_fract_y
_atom_site_fract_z
Si Si1 0.033628 0.341600 0.163544
Si Si2 0.168928 0.660867 0.566634
Si Si3 0.018695 0.662528 0.383214
Si Si4 0.500000 0.500000 0.000000
Si Si5 0.159777 0.662654 0.352080
Si Si6 0.634816 0.757167 0.099049
Si Si7 0.819698 0.660906 0.273192
Si Si8 0.166553 0.341180 0.974724
O O1 0.024852 0.500000 0.175127
O O2 0.108119 0.285637 0.257186
O O3 0.071357 0.329846 0.114203
O O4 0.931285 0.285490 0.109064
O O5 0.181032 0.500000 0.557852
O O6 0.072169 0.705474 0.479114
O O7 0.248941 0.751748 0.584875
O O8 0.175477 0.673519 0.646944
O O9 0.003840 0.500000 0.381802
O O10 0.088805 0.682826 0.367271
O O11 0.918013 0.717785 0.309389
O O12 0.579945 0.618953 0.051351
O O13 0.179511 0.500000 0.358659
O O14 0.732013 0.731117 0.190751
O O15 0.654348 0.832677 0.044187
O O16 0.811576 0.500000 0.252550
O O17 0.178917 0.500000 0.963419
O O18 0.250000 0.250000 0.000000
#
# Coordination Sequence:
#
# PCOD9187285 Si02
#       8
#     8   8   8   2   8   8   8   8
#     4  10  21  40  62  83 113 156 202 237 287 358
#     4  10  19  35  58  86 114 150 193 242 292 340
#     4   9  19  34  55  82 117 151 195 238 286 346
#     4  12  24  36  62  96 118 160 200 260 290 352
#     4  10  20  35  58  86 112 154 194 238 284 346
#     4  12  22  39  61  87 122 156 201 243 302 347
#     4  10  20  33  56  86 116 154 194 241 288 343
#     4  11  26  42  63  89 120 157 195 247 303 362
#
# _framework density 19.336057
#
# number of rings (size 3 to 8) (size 9 to 14) (size 15 to 20)
#    0.000    1.655    3.448    1.241    2.897    2.759 
#    0.000    0.000    0.000    4.138    0.000    0.000 
#    0.000    0.000    0.000    0.000    0.000    0.000 
#
# Total GULP energy -161492.198433 kJ/mol
# GULP energy per Si atom -5568.696498 kJ/mol
# Density = 1.929205 g / cm^3
# Si number density = 19.336057 Si / 1000 Ang^3
#
#
#
# Elastic Constant Matrix: (Units=GPa)
#
#
# Indices 1 2 3 4 5 6 
#
# 1 68.7485 19.8291 34.8968 0.0000 33.0318 0.0000
# 2 19.8291 31.7880 6.1758 0.0000 7.4873 0.0000
# 3 34.8968 6.1758 65.7844 0.0000 16.3458 0.0000
# 4 0.0000 0.0000 0.0000 20.5761 0.0000 8.1878
# 5 33.0318 7.4873 16.3458 0.0000 35.9739 0.0000
# 6 0.0000 0.0000 0.0000 8.1878 0.0000 19.1827
#
#
#
# Elastic Compliance Matrix: (Units=1/GPa)
#
#
# Indices 1 2 3 4 5 6 
#
# 1 0.037245 -0.014861 -0.011987 0.000000 -0.025660 0.000000
# 2 -0.014861 0.039154 0.003203 0.000000 0.004040 0.000000
# 3 -0.011987 0.003203 0.021069 0.000000 0.000767 0.000000
# 4 0.000000 0.000000 0.000000 0.058544 0.000000 -0.024988
# 5 -0.025660 0.004040 0.000767 0.000000 0.050170 0.000000
# 6 0.000000 0.000000 0.000000 -0.024988 0.000000 0.062796
#
#
# Mechanical properties :
#
#
# Convention : Reuss Voigt Hill
#
# Bulk Modulus (GPa) = 19.92813 32.01381 25.97097
# Shear Modulus (GPa) = 15.01535 22.17449 18.59492
#
# Velocity S-wave (km/s) = 2.78968 3.39011 3.10445
# Velocity P-wave (km/s) = 4.55028 5.64945 5.12939
#
# Compressibility (1/GPa) = 0.05018033
#
# Stress axis : x y z
#
# Youngs Moduli (GPa) = 26.84903 25.53999 47.46403
#
# Poissons Ratio (x) = 0.37954 0.56894
# Poissons Ratio (y) = 0.39899 -0.15205
# Poissons Ratio (z) = 0.32183 -0.08182
#
# Static dielectric constant tensor:
#      x y z
#    x 1.686750 0.000000 -0.007380 
#    y 0.000000 1.651860 0.000000 
#    z -0.007380 0.000000 1.723030 
# 
# From -- ./inp_files/346526.got.cif
#   From: 2010.05.17/outbox.cif.g08.bks.cpg/sg12_174_cif.got.tgz:346526.got - 2010.06.03 13:09:07.
