data_PCOD9187591
_publ_section_title
;
Structure prediction by ZEFSAII (Michael W. Deem and Ramdas Pophale) SiO2 
 PCOD9187591
Probable space group: C 2/M
;
_chemical_formula_sum "Si O2"
_cell_formula_units_Z 52
_cell_length_a 21.308367
_cell_length_b 16.816600
_cell_length_c 15.479900
_cell_angle_alpha 90.000000
_cell_angle_beta 150.206189
_cell_angle_gamma 90.000000
_cell_volume 2756.184111
_symmetry_space_group_name_H-M "C 2/M"
_symmetry_group_IT_number 12
_symmetry_cell_setting 'monoclinic'
loop_
_space_group_symop_operation_xyz
x,y,z
-x,y,-z
-x,-y,-z
x,-y,z
1/2+x,1/2+y,z
1/2-x,1/2+y,-z
1/2-x,1/2-y,-z
1/2+x,1/2-y,z
loop_
_atom_site_type_symbol
_atom_site_label
_atom_site_fract_x
_atom_site_fract_y
_atom_site_fract_z
Si Si1 0.805084 0.410143 0.716346
Si Si2 0.131620 0.182795 0.624456
Si Si3 0.702369 0.802497 0.863152
Si Si4 0.286002 0.408553 0.585163
Si Si5 0.958539 0.818438 0.106380
Si Si6 0.058923 0.296928 0.379028
Si Si7 0.500000 0.784926 0.000000
O O1 0.853673 0.500000 0.781092
O O2 0.725512 0.385348 0.705284
O O3 0.726348 0.405237 0.533919
O O4 0.911591 0.343236 0.840014
O O5 0.175163 0.240977 0.752932
O O6 0.107425 0.237432 0.511390
O O7 0.000000 0.147283 0.500000
O O8 0.567804 0.838237 0.732557
O O9 0.750000 0.750000 0.000000
O O10 0.825507 0.852906 0.982219
O O11 0.269483 0.500000 0.592137
O O12 0.425260 0.376869 0.773666
O O13 0.173391 0.354318 0.488766
O O14 0.012704 0.756298 0.242635
O O15 0.930010 0.770563 0.984551
#
# Coordination Sequence:
#
# PCOD9187591 Si02
#       7
#     8   8   8   8   8   8   4
#     4  11  22  36  55  87 124 152 182 230 294 351
#     4  10  19  35  60  84 108 150 197 237 281 340
#     4   9  20  34  57  86 112 142 193 246 284 330
#     4  11  23  38  58  87 121 154 188 237 292 346
#     4  11  20  35  60  85 113 148 197 240 284 334
#     4  10  19  37  59  83 111 150 201 236 278 340
#     4  12  21  34  59  86 112 150 194 242 283 332
#
# _framework density 18.866662999999999
#
# number of rings (size 3 to 8) (size 9 to 14) (size 15 to 20)
#    0.000    1.538    4.615    1.615    0.000    0.308 
#    0.000    1.154    0.000    4.154    0.000    0.000 
#    0.000    0.000    0.000    0.000    0.000    0.000 
#
# Total GULP energy -144906.593085 kJ/mol
# GULP energy per Si atom -5573.330503 kJ/mol
# Density = 1.882372 g / cm^3
# Si number density = 18.866663 Si / 1000 Ang^3
#
#
#
# Elastic Constant Matrix: (Units=GPa)
#
#
# Indices 1 2 3 4 5 6 
#
# 1 89.1174 18.4669 11.1336 0.0000 13.3682 0.0000
# 2 18.4669 42.3506 5.0181 0.0000 6.5963 0.0000
# 3 11.1336 5.0181 45.6579 0.0000 8.1517 0.0000
# 4 0.0000 0.0000 0.0000 13.6930 0.0000 0.3020
# 5 13.3682 6.5963 8.1517 0.0000 50.5995 0.0000
# 6 0.0000 0.0000 0.0000 0.3020 0.0000 -8.5416
#
#
#
# Elastic Compliance Matrix: (Units=1/GPa)
#
#
# Indices 1 2 3 4 5 6 
#
# 1 0.012886 -0.004988 -0.002165 0.000000 -0.002405 0.000000
# 2 -0.004988 0.026239 -0.001330 0.000000 -0.001889 0.000000
# 3 -0.002165 -0.001330 0.023108 0.000000 -0.002977 0.000000
# 4 0.000000 0.000000 0.000000 0.072973 0.000000 0.002580
# 5 -0.002405 -0.001889 -0.002977 0.000000 0.021124 0.000000
# 6 0.000000 0.000000 0.000000 0.002580 0.000000 -0.116983
#
#
# Mechanical properties :
#
#
# Convention : Reuss Voigt Hill
#
# Bulk Modulus (GPa) = 22.09104 27.37370 24.73237
# Shear Modulus (GPa) = 70.02631 20.65067 45.33849
#
# Velocity S-wave (km/s) = 6.09893 3.31200 4.90746
# Velocity P-wave (km/s) = 7.83138 5.40059 6.72669
#
# Compressibility (1/GPa) = 0.04526721
#
# Stress axis : x y z
#
# Youngs Moduli (GPa) = 77.60369 38.11102 43.27575
#
# Poissons Ratio (x) = 0.19009 0.09367
# Poissons Ratio (y) = 0.38707 0.05757
# Poissons Ratio (z) = 0.16798 0.05070
#
# Static dielectric constant tensor:
#      x y z
#    x 1.685090 0.000000 0.046070 
#    y 0.000000 1.618200 0.000000 
#    z 0.046070 0.000000 1.702440 
# 
# From -- ./inp_files/234488.got.cif
#   From: 2010.05.17/outbox.cif.g08.bks.cpg/sg12_118_cif.got.tgz:234488.got - 2010.06.03 13:09:07.
