data_PCOD9187343
_publ_section_title
;
Structure prediction by ZEFSAII (Michael W. Deem and Ramdas Pophale) SiO2 
 PCOD9187343
Probable space group: C 2/M
;
_chemical_formula_sum "Si O2"
_cell_formula_units_Z 64
_cell_length_a 12.588024
_cell_length_b 22.607917
_cell_length_c 11.775605
_cell_angle_alpha 90.000000
_cell_angle_beta 75.314359
_cell_angle_gamma 90.000000
_cell_volume 3241.728132
_symmetry_space_group_name_H-M "C 2/M"
_symmetry_group_IT_number 12
_symmetry_cell_setting 'monoclinic'
loop_
_space_group_symop_operation_xyz
x,y,z
-x,y,-z
-x,-y,-z
x,-y,z
1/2+x,1/2+y,z
1/2-x,1/2+y,-z
1/2-x,1/2-y,-z
1/2+x,1/2-y,z
loop_
_atom_site_type_symbol
_atom_site_label
_atom_site_fract_x
_atom_site_fract_y
_atom_site_fract_z
Si Si1 0.550801 0.818476 0.870704
Si Si2 0.979178 0.930718 0.638355
Si Si3 0.758998 0.865428 0.735144
Si Si4 0.629623 0.746830 0.385986
Si Si5 0.094529 0.233299 0.646766
Si Si6 0.122930 0.429732 0.580932
Si Si7 0.709953 0.389468 0.660497
Si Si8 0.405373 0.871256 0.730454
O O1 0.670382 0.848458 0.855696
O O2 0.568964 0.770242 0.766465
O O3 0.461639 0.862673 0.837476
O O4 0.500000 0.794601 0.000000
O O5 0.095111 0.922737 0.672052
O O6 0.000000 0.912589 0.500000
O O7 0.875788 0.896622 0.721956
O O8 0.950764 0.000000 0.642506
O O9 0.779780 0.802426 0.665298
O O10 0.690717 0.908849 0.672548
O O11 0.869157 0.735981 0.481665
O O12 0.522036 0.711583 0.370920
O O13 0.618256 0.806451 0.316666
O O14 0.172086 0.178650 0.654920
O O15 0.112269 0.500000 0.575567
O O16 0.201620 0.406979 0.459391
O O17 0.001739 0.401778 0.629735
O O18 0.784693 0.400010 0.752148
#
# Coordination Sequence:
#
# PCOD9187343 Si02
#       8
#     8   8   8   8   8   8   8   8
#     4  10  24  44  62  86 124 166 215 264 313 371
#     4  11  21  34  56  91 131 167 201 246 315 386
#     4  11  20  37  63  91 125 167 212 263 302 380
#     4  10  19  35  58  96 125 161 199 250 326 385
#     4  10  20  33  59  90 129 158 197 251 312 387
#     4  11  23  37  56  89 135 176 207 249 311 382
#     4  12  21  34  55  89 125 165 199 247 318 377
#     4  10  25  37  59  90 126 167 209 258 316 380
#
# _framework density 19.742556
#
# number of rings (size 3 to 8) (size 9 to 14) (size 15 to 20)
#    0.000    1.375    3.750    1.875    8.750    2.500 
#    0.000    5.625    0.000    9.375    0.000    0.875 
#    0.000    0.000    0.000    0.000    0.000    0.000 
#
# Total GULP energy -178204.871742 kJ/mol
# GULP energy per Si atom -5568.902242 kJ/mol
# Density = 1.969762 g / cm^3
# Si number density = 19.742556 Si / 1000 Ang^3
#
#
#
# Elastic Constant Matrix: (Units=GPa)
#
#
# Indices 1 2 3 4 5 6 
#
# 1 162.6594 29.2498 38.8488 0.0000 -19.4561 0.0000
# 2 29.2498 80.3206 18.5790 0.0000 -10.2480 0.0000
# 3 38.8488 18.5790 77.4200 0.0000 -11.1560 0.0000
# 4 0.0000 0.0000 0.0000 5.9690 0.0000 3.6412
# 5 -19.4561 -10.2480 -11.1560 0.0000 13.2480 0.0000
# 6 0.0000 0.0000 0.0000 3.6412 0.0000 5.0409
#
#
#
# Elastic Compliance Matrix: (Units=1/GPa)
#
#
# Indices 1 2 3 4 5 6 
#
# 1 0.008001 -0.001231 -0.002462 0.000000 0.008725 0.000000
# 2 -0.001231 0.014286 -0.001683 0.000000 0.007826 0.000000
# 3 -0.002462 -0.001683 0.015760 0.000000 0.008353 0.000000
# 4 0.000000 0.000000 0.000000 0.299513 0.000000 -0.216352
# 5 0.008725 0.007826 0.008353 0.000000 0.101384 0.000000
# 6 0.000000 0.000000 0.000000 -0.216352 0.000000 0.354658
#
#
# Mechanical properties :
#
#
# Convention : Reuss Voigt Hill
#
# Bulk Modulus (GPa) = 36.63745 54.86169 45.74957
# Shear Modulus (GPa) = 6.14664 20.43305 13.28984
#
# Velocity S-wave (km/s) = 1.76640 3.22059 2.59734
# Velocity P-wave (km/s) = 4.77054 6.45589 5.67612
#
# Compressibility (1/GPa) = 0.02729448
#
# Stress axis : x y z
#
# Youngs Moduli (GPa) = 124.98787 69.99773 63.45337
#
# Poissons Ratio (x) = 0.08616 0.15623
# Poissons Ratio (y) = 0.15385 0.10679
# Poissons Ratio (z) = 0.30774 0.11780
#
# Static dielectric constant tensor:
#      x y z
#    x 1.866850 0.000000 -0.010070 
#    y 0.000000 1.754770 0.000000 
#    z -0.010070 0.000000 1.683820 
# 
# From -- ./inp_files/207664.got.cif
#   From: 2010.05.17/outbox.cif.g08.bks.cpg/sg12_104_cif.got.tgz:207664.got - 2010.06.03 13:09:07.
