data_PCOD9187109
_publ_section_title
;
Structure prediction by ZEFSAII (Michael W. Deem and Ramdas Pophale) SiO2 
 PCOD9187109
Probable space group: C 2/M
;
_chemical_formula_sum "Si O2"
_cell_formula_units_Z 48
_cell_length_a 11.972745
_cell_length_b 15.453181
_cell_length_c 21.158169
_cell_angle_alpha 90.000000
_cell_angle_beta 139.180039
_cell_angle_gamma 90.000000
_cell_volume 2558.926158
_symmetry_space_group_name_H-M "C 2/M"
_symmetry_group_IT_number 12
_symmetry_cell_setting 'monoclinic'
loop_
_space_group_symop_operation_xyz
x,y,z
-x,y,-z
-x,-y,-z
x,-y,z
1/2+x,1/2+y,z
1/2-x,1/2+y,-z
1/2-x,1/2-y,-z
1/2+x,1/2-y,z
loop_
_atom_site_type_symbol
_atom_site_label
_atom_site_fract_x
_atom_site_fract_y
_atom_site_fract_z
Si Si1 0.517678 0.673396 0.872121
Si Si2 0.169360 0.635720 0.914900
Si Si3 0.552311 0.000000 0.627381
Si Si4 0.525554 0.345230 0.730379
Si Si5 0.899964 0.595313 0.899764
Si Si6 0.636489 0.843426 0.756860
Si Si7 0.283450 0.500000 0.600155
O O1 0.610732 0.764411 0.898221
O O2 0.503328 0.635607 0.795710
O O3 0.329664 0.682699 0.819933
O O4 0.643913 0.624591 0.974420
O O5 0.153597 0.616927 0.834445
O O6 0.031574 0.589487 0.899411
O O7 0.575906 0.915065 0.681010
O O8 0.689626 0.000000 0.628674
O O9 0.367236 0.000000 0.515498
O O10 0.723724 0.365090 0.802415
O O11 0.516056 0.242571 0.710187
O O12 0.399648 0.413550 0.643776
O O13 0.853374 0.500000 0.904617
O O14 0.000000 0.642889 0.000000
#
# Coordination Sequence:
#
# PCOD9187109 Si02
#       7
#     8   8   4   8   8   8   4
#     4  10  19  35  57  90 125 167 204 237 294 369
#     4  10  21  33  57  87 133 169 197 239 299 366
#     4  11  26  46  67  90 122 154 218 271 327 371
#     4  11  21  38  66  92 125 161 208 255 305 369
#     4  11  21  33  54  88 127 166 205 243 289 366
#     4  11  23  39  62  91 128 165 203 259 308 372
#     4  11  24  46  71  91 112 161 212 279 320 373
#
# _framework density 18.757867999999998
#
# number of rings (size 3 to 8) (size 9 to 14) (size 15 to 20)
#    0.000    1.333    5.833    0.500    1.167    0.667 
#    1.500    0.833    0.000    2.000    0.000    0.000 
#    0.000    0.000    0.000    0.000    0.000    0.000 
#
# Total GULP energy -133812.553678 kJ/mol
# GULP energy per Si atom -5575.523070 kJ/mol
# Density = 1.871517 g / cm^3
# Si number density = 18.757868 Si / 1000 Ang^3
#
#
#
# Elastic Constant Matrix: (Units=GPa)
#
#
# Indices 1 2 3 4 5 6 
#
# 1 100.9852 18.0116 57.4031 0.0000 -2.7902 0.0000
# 2 18.0116 67.3023 57.9887 0.0000 2.9647 0.0000
# 3 57.4031 57.9887 129.3712 0.0000 4.5619 0.0000
# 4 0.0000 0.0000 0.0000 -31.9624 0.0000 -49.0051
# 5 -2.7902 2.9647 4.5619 0.0000 28.8335 0.0000
# 6 0.0000 0.0000 0.0000 -49.0051 0.0000 -15.5641
#
#
#
# Elastic Compliance Matrix: (Units=1/GPa)
#
#
# Indices 1 2 3 4 5 6 
#
# 1 0.013639 0.002499 -0.007250 0.000000 0.002210 0.000000
# 2 0.002499 0.024683 -0.012159 0.000000 -0.000372 0.000000
# 3 -0.007250 -0.012159 0.016469 0.000000 -0.002057 0.000000
# 4 0.000000 0.000000 0.000000 0.008174 0.000000 -0.025738
# 5 0.002210 -0.000372 -0.002057 0.000000 0.035260 0.000000
# 6 0.000000 0.000000 0.000000 -0.025738 0.000000 0.016787
#
#
# Mechanical properties :
#
#
# Convention : Reuss Voigt Hill
#
# Bulk Modulus (GPa) = 47.68577 62.71839 55.20208
# Shear Modulus (GPa) = 32.08805 7.21174 19.64990
#
# Velocity S-wave (km/s) = 4.14048 1.96290 3.24011
# Velocity P-wave (km/s) = 6.95234 6.21657 6.59472
#
# Compressibility (1/GPa) = 0.02097062
#
# Stress axis : x y z
#
# Youngs Moduli (GPa) = 73.32063 40.51433 60.71925
#
# Poissons Ratio (x) = -0.10125 0.44020
# Poissons Ratio (y) = -0.18324 0.73831
# Poissons Ratio (z) = 0.53155 0.49263
#
# Static dielectric constant tensor:
#      x y z
#    x 1.649730 0.000000 -0.007750 
#    y 0.000000 1.734280 0.000000 
#    z -0.007750 0.000000 1.636090 
# 
# From -- ./inp_files/131109.got.cif
#   From: 2010.05.17/outbox.cif.g08.bks.cpg/sg12_66_cif.got.tgz:131109.got - 2010.06.03 13:09:07.
