data_PCOD9187593
_publ_section_title
;
Structure prediction by ZEFSAII (Michael W. Deem and Ramdas Pophale) SiO2 
 PCOD9187593
Probable space group: C 2/M
;
_chemical_formula_sum "Si O2"
_cell_formula_units_Z 64
_cell_length_a 12.024347
_cell_length_b 15.806243
_cell_length_c 31.581537
_cell_angle_alpha 90.000000
_cell_angle_beta 153.942236
_cell_angle_gamma 90.000000
_cell_volume 2636.707437
_symmetry_space_group_name_H-M "C 2/M"
_symmetry_group_IT_number 12
_symmetry_cell_setting 'monoclinic'
loop_
_space_group_symop_operation_xyz
x,y,z
-x,y,-z
-x,-y,-z
x,-y,z
1/2+x,1/2+y,z
1/2-x,1/2+y,-z
1/2-x,1/2-y,-z
1/2+x,1/2-y,z
loop_
_atom_site_type_symbol
_atom_site_label
_atom_site_fract_x
_atom_site_fract_y
_atom_site_fract_z
Si Si1 0.653142 0.095866 0.364313
Si Si2 0.020119 0.603214 0.554632
Si Si3 0.519526 0.798608 0.090375
Si Si4 0.270660 0.374878 0.849365
Si Si5 0.722356 0.395562 0.277208
Si Si6 0.974480 0.896746 0.401958
Si Si7 0.299186 0.595504 0.069437
Si Si8 0.068250 0.402096 0.192421
O O1 0.448906 0.090486 0.256032
O O2 0.479650 0.134095 0.341615
O O3 0.887795 0.134279 0.418704
O O4 0.716025 0.000000 0.399842
O O5 0.031993 0.500000 0.556840
O O6 0.756650 0.626287 0.486486
O O7 0.000000 0.634615 0.500000
O O8 0.249813 0.628767 0.664209
O O9 0.721804 0.726553 0.150850
O O10 0.564418 0.846826 0.149222
O O11 0.250000 0.750000 0.000000
O O12 0.463937 0.862357 0.033316
O O13 0.528768 0.405483 0.915240
O O14 0.194063 0.398425 0.870675
O O15 0.720867 0.500000 0.274221
O O16 0.486570 0.364435 0.168608
O O17 0.783497 0.871419 0.299040
O O18 0.960445 0.000000 0.398854
O O19 0.257329 0.500000 0.067579
O O20 0.120371 0.500000 0.199415
#
# Coordination Sequence:
#
# PCOD9187593 Si02
#       8
#     8   8   8   8   8   8   8   8
#     4   8  13  25  47  76 107 139 184 233 285 339
#     4   9  16  26  43  70 108 143 177 223 277 337
#     4  10  21  32  49  80 116 144 181 241 288 337
#     4   9  17  31  52  80 111 144 186 241 286 334
#     4   8  14  24  42  68 103 142 178 225 285 340
#     4   8  15  27  47  76 106 136 175 234 285 326
#     4   9  16  29  48  74 108 145 188 232 281 340
#     4  10  19  35  60  84 110 149 195 239 287 339
#
# _framework density 24.272696
#
# number of rings (size 3 to 8) (size 9 to 14) (size 15 to 20)
#    0.000    3.125    0.000    3.000    0.000    2.500 
#    0.000    5.625   11.000    0.000    0.000   19.250 
#    0.000    0.000    0.000    0.000    0.000    0.000 
#
# Total GULP energy -178643.148601 kJ/mol
# GULP energy per Si atom -5582.598394 kJ/mol
# Density = 2.421745 g / cm^3
# Si number density = 24.272696 Si / 1000 Ang^3
#
#
#
# Elastic Constant Matrix: (Units=GPa)
#
#
# Indices 1 2 3 4 5 6 
#
# 1 92.1043 24.4765 54.1242 0.0001 -21.8979 0.0000
# 2 24.4765 51.8316 38.1407 0.0002 -16.5779 -0.0001
# 3 54.1242 38.1407 115.7565 0.0005 -31.9749 -0.0005
# 4 0.0001 0.0002 0.0005 -3.3503 -0.0003 -1.8682
# 5 -21.8979 -16.5779 -31.9749 -0.0003 45.6977 -0.0001
# 6 0.0000 -0.0001 -0.0005 -1.8682 -0.0001 20.5816
#
#
#
# Elastic Compliance Matrix: (Units=1/GPa)
#
#
# Indices 1 2 3 4 5 6 
#
# 1 0.015457 -0.002223 -0.005791 -0.000001 0.002549 0.000000
# 2 -0.002223 0.026447 -0.006593 0.000000 0.003916 0.000000
# 3 -0.005791 -0.006593 0.014988 0.000001 0.005321 0.000000
# 4 -0.000001 0.000000 0.000001 -0.284103 -0.000002 -0.025788
# 5 0.002549 0.003916 0.005321 -0.000002 0.028248 0.000000
# 6 0.000000 0.000000 0.000000 -0.025788 0.000000 0.046246
#
#
# Mechanical properties :
#
#
# Convention : Reuss Voigt Hill
#
# Bulk Modulus (GPa) = 36.12845 54.79722 45.46283
# Shear Modulus (GPa) = -43.75326 22.11587 -10.81870
#
# Velocity S-wave (km/s) = -4.25028 3.02179 -2.11349
# Velocity P-wave (km/s) = 3.02816 5.89912 3.57979
#
# Compressibility (1/GPa) = 0.02767902
#
# Stress axis : x y z
#
# Youngs Moduli (GPa) = 64.69661 37.81150 66.71791
#
# Poissons Ratio (x) = 0.08405 0.38634
# Poissons Ratio (y) = 0.14381 0.43987
# Poissons Ratio (z) = 0.37464 0.24929
#
# Static dielectric constant tensor:
#      x y z
#    x 2.025360 0.000000 -0.026980 
#    y 0.000000 1.816050 0.000000 
#    z -0.026980 0.000000 2.019330 
# 
# From -- ./inp_files/374505.got.cif
#   From: 2010.05.17/outbox.cif.g08.bks.cpg/sg12_188_cif.got.tgz:374505.got - 2010.06.03 13:09:07.
