data_PCOD9187317
_publ_section_title
;
Structure prediction by ZEFSAII (Michael W. Deem and Ramdas Pophale) SiO2 
 PCOD9187317
Probable space group: C 2/M
;
_chemical_formula_sum "Si O2"
_cell_formula_units_Z 56
_cell_length_a 20.747417
_cell_length_b 8.906079
_cell_length_c 30.462011
_cell_angle_alpha 90.000000
_cell_angle_beta 146.226744
_cell_angle_gamma 90.000000
_cell_volume 3129.045081
_symmetry_space_group_name_H-M "C 2/M"
_symmetry_group_IT_number 12
_symmetry_cell_setting 'monoclinic'
loop_
_space_group_symop_operation_xyz
x,y,z
-x,y,-z
-x,-y,-z
x,-y,z
1/2+x,1/2+y,z
1/2-x,1/2+y,-z
1/2-x,1/2-y,-z
1/2+x,1/2-y,z
loop_
_atom_site_type_symbol
_atom_site_label
_atom_site_fract_x
_atom_site_fract_y
_atom_site_fract_z
Si Si1 0.681542 0.680314 0.735510
Si Si2 0.317506 0.320770 0.160081
Si Si3 0.456783 0.178887 0.756801
Si Si4 0.076116 0.820086 0.000098
Si Si5 0.794348 0.178186 0.594216
Si Si6 0.590004 0.679450 0.175580
Si Si7 0.581212 0.320677 0.428219
O O1 0.695684 0.500000 0.739039
O O2 0.685460 0.715440 0.789661
O O3 0.784860 0.763338 0.769505
O O4 0.553611 0.720335 0.645654
O O5 0.330129 0.500000 0.163007
O O6 0.426367 0.241960 0.199114
O O7 0.197569 0.264802 0.071387
O O8 0.350776 0.237342 0.666915
O O9 0.444088 0.243217 0.798382
O O10 0.458719 0.000000 0.758484
O O11 0.001787 0.783845 0.914885
O O12 0.096596 0.000000 0.012672
O O13 0.000000 0.781822 0.000000
O O14 0.666512 0.234691 0.509213
O O15 0.872805 0.209233 0.595261
O O16 0.796006 0.000000 0.602701
O O17 0.591546 0.500000 0.181784
O O18 0.592473 0.500000 0.441516
#
# Coordination Sequence:
#
# PCOD9187317 Si02
#       7
#     8   8   8   8   8   8   8
#     4  10  20  37  60  89 122 155 197 243 292 352
#     4  11  22  38  63  91 120 156 199 247 295 349
#     4  12  25  41  61  86 121 161 201 244 300 358
#     4  10  21  39  61  90 121 154 198 247 297 351
#     4  10  19  35  58  88 122 155 196 244 295 350
#     4  11  24  41  62  86 121 159 197 246 300 356
#     4   9  18  34  57  88 122 155 194 242 292 348
#
# _framework density 17.896833999999998
#
# number of rings (size 3 to 8) (size 9 to 14) (size 15 to 20)
#    0.000    1.571    2.857    2.571    0.000    3.714 
#    0.000    0.714    0.000    4.286    0.000    0.000 
#    0.000    0.000    0.000    0.000    0.000    0.000 
#
# Total GULP energy -156473.101356 kJ/mol
# GULP energy per Si atom -5588.325048 kJ/mol
# Density = 1.785610 g / cm^3
# Si number density = 17.896834 Si / 1000 Ang^3
#
#
#
# Elastic Constant Matrix: (Units=GPa)
#
#
# Indices 1 2 3 4 5 6 
#
# 1 90.3555 51.2460 50.3957 0.0000 -10.0951 -0.0001
# 2 51.2460 65.4893 54.2560 0.0000 -6.5885 -0.0002
# 3 50.3957 54.2560 120.7972 0.0000 0.3772 0.0000
# 4 0.0000 0.0000 0.0000 30.2983 0.0000 3.2585
# 5 -10.0951 -6.5885 0.3772 0.0000 27.2786 0.0000
# 6 -0.0001 -0.0002 0.0000 3.2585 0.0000 31.7065
#
#
#
# Elastic Compliance Matrix: (Units=1/GPa)
#
#
# Indices 1 2 3 4 5 6 
#
# 1 0.020727 -0.013699 -0.002508 0.000000 0.004397 0.000000
# 2 -0.013699 0.034405 -0.009748 0.000000 0.003375 0.000000
# 3 -0.002508 -0.009748 0.013714 0.000000 -0.003472 0.000000
# 4 0.000000 0.000000 0.000000 0.033374 0.000000 -0.003430
# 5 0.004397 0.003375 -0.003472 0.000000 0.039149 0.000000
# 6 0.000000 0.000000 0.000000 -0.003430 0.000000 0.031892
#
#
# Mechanical properties :
#
#
# Convention : Reuss Voigt Hill
#
# Bulk Modulus (GPa) = 59.04843 65.38194 62.21518
# Shear Modulus (GPa) = 21.66224 25.90628 23.78426
#
# Velocity S-wave (km/s) = 3.48285 3.80878 3.64945
# Velocity P-wave (km/s) = 7.01705 7.48026 7.25236
#
# Compressibility (1/GPa) = 0.01693525
#
# Stress axis : x y z
#
# Youngs Moduli (GPa) = 48.24651 29.06559 72.91818
#
# Poissons Ratio (x) = 0.39817 0.18288
# Poissons Ratio (y) = 0.66092 0.71084
# Poissons Ratio (z) = 0.12100 0.28334
#
# Static dielectric constant tensor:
#      x y z
#    x 1.582540 0.000000 -0.001790 
#    y 0.000000 1.594260 0.000000 
#    z -0.001790 0.000000 1.596680 
# 
# From -- ./inp_files/380777.got.cif
#   From: 2010.05.17/outbox.cif.g08.bks.cpg/sg12_191_cif.got.tgz:380777.got - 2010.06.03 13:09:07.
