data_PCOD9187660
_publ_section_title
;
Structure prediction by ZEFSAII (Michael W. Deem and Ramdas Pophale) SiO2 
 PCOD9187660
Probable space group: C 2/M
;
_chemical_formula_sum "Si O2"
_cell_formula_units_Z 56
_cell_length_a 17.693744
_cell_length_b 14.715270
_cell_length_c 11.585975
_cell_angle_alpha 90.000000
_cell_angle_beta 62.304890
_cell_angle_gamma 90.000000
_cell_volume 2671.015513
_symmetry_space_group_name_H-M "C 2/M"
_symmetry_group_IT_number 12
_symmetry_cell_setting 'monoclinic'
loop_
_space_group_symop_operation_xyz
x,y,z
-x,y,-z
-x,-y,-z
x,-y,z
1/2+x,1/2+y,z
1/2-x,1/2+y,-z
1/2-x,1/2-y,-z
1/2+x,1/2-y,z
loop_
_atom_site_type_symbol
_atom_site_label
_atom_site_fract_x
_atom_site_fract_y
_atom_site_fract_z
Si Si1 0.477430 0.699831 0.151286
Si Si2 0.504912 0.096258 0.135086
Si Si3 0.309484 0.127491 0.900624
Si Si4 0.598952 0.303880 0.436041
Si Si5 0.850040 0.840310 0.848771
Si Si6 0.332915 0.394274 0.382712
Si Si7 0.155678 0.400136 0.386236
O O1 0.469876 0.805417 0.198581
O O2 0.555913 0.652196 0.162723
O O3 0.390596 0.648328 0.240402
O O4 0.500000 0.700610 0.000000
O O5 0.603606 0.094481 0.102129
O O6 0.465241 0.000000 0.204258
O O7 0.500000 0.096965 0.000000
O O8 0.324433 0.235453 0.885978
O O9 0.306444 0.097334 0.770528
O O10 0.224517 0.106215 0.032912
O O11 0.500000 0.330100 0.500000
O O12 0.644206 0.348725 0.292717
O O13 0.642841 0.339207 0.520341
O O14 0.603352 0.193601 0.427885
O O15 0.354972 0.500000 0.382405
O O16 0.234222 0.389025 0.418184
O O17 0.114429 0.500000 0.435397
#
# Coordination Sequence:
#
# PCOD9187660 Si02
#       7
#     8   8   8   8   8   8   8
#     4  10  19  35  60  87 119 158 198 249 309 359
#     4   9  18  32  53  86 126 160 193 240 304 369
#     4   9  17  33  59  87 121 158 193 250 304 353
#     4  11  22  41  64  88 124 167 205 247 304 365
#     4   9  18  34  57  88 116 154 207 239 295 364
#     4  11  24  42  61  86 121 160 209 257 302 356
#     4  10  22  40  65  94 124 158 201 256 309 363
#
# _framework density 20.965809
#
# number of rings (size 3 to 8) (size 9 to 14) (size 15 to 20)
#    0.000    2.143    1.429    1.714    0.000    4.286 
#    0.000    3.571    0.000    6.000    0.000    0.000 
#    0.000    0.000    0.000    0.000    0.000    0.000 
#
# Total GULP energy -156205.051418 kJ/mol
# GULP energy per Si atom -5578.751836 kJ/mol
# Density = 2.091809 g / cm^3
# Si number density = 20.965809 Si / 1000 Ang^3
#
#
#
# Elastic Constant Matrix: (Units=GPa)
#
#
# Indices 1 2 3 4 5 6 
#
# 1 69.4920 4.7525 17.0206 0.0000 22.6890 0.0000
# 2 4.7525 79.8883 17.0659 0.0000 1.7873 0.0000
# 3 17.0206 17.0659 67.3072 0.0000 14.7261 0.0000
# 4 0.0000 0.0000 0.0000 35.6172 0.0000 32.0093
# 5 22.6890 1.7873 14.7261 0.0000 29.2629 0.0000
# 6 0.0000 0.0000 0.0000 32.0093 0.0000 56.9003
#
#
#
# Elastic Compliance Matrix: (Units=1/GPa)
#
#
# Indices 1 2 3 4 5 6 
#
# 1 0.019482 -0.000479 -0.001693 0.000000 -0.014224 0.000000
# 2 -0.000479 0.013272 -0.003537 0.000000 0.001341 0.000000
# 3 -0.001693 -0.003537 0.017809 0.000000 -0.007433 0.000000
# 4 0.000000 0.000000 0.000000 0.056785 0.000000 -0.031945
# 5 -0.014224 0.001341 -0.007433 0.000000 0.048860 0.000000
# 6 0.000000 0.000000 0.000000 -0.031945 0.000000 0.035545
#
#
# Mechanical properties :
#
#
# Convention : Reuss Voigt Hill
#
# Bulk Modulus (GPa) = 25.54727 32.70728 29.12728
# Shear Modulus (GPa) = 23.12474 36.21263 29.66869
#
# Velocity S-wave (km/s) = 3.32471 4.16050 3.76586
# Velocity P-wave (km/s) = 5.19133 6.22204 5.72991
#
# Compressibility (1/GPa) = 0.03914312
#
# Stress axis : x y z
#
# Youngs Moduli (GPa) = 51.33035 75.34873 56.15280
#
# Poissons Ratio (x) = 0.03610 0.09507
# Poissons Ratio (y) = 0.02459 0.19863
# Poissons Ratio (z) = 0.08690 0.26653
#
# Static dielectric constant tensor:
#      x y z
#    x 1.722500 0.000000 -0.000920 
#    y 0.000000 1.801670 0.000000 
#    z -0.000920 0.000000 1.743760 
# 
# From -- ./inp_files/156518.got.cif
#   From: 2010.05.17/outbox.cif.g08.bks.cpg/sg12_79_cif.got.tgz:156518.got - 2010.06.03 13:09:07.
