data_PCOD9187059
_publ_section_title
;
Structure prediction by ZEFSAII (Michael W. Deem and Ramdas Pophale) SiO2 
 PCOD9187059
Probable space group: C 2/M
;
_chemical_formula_sum "Si O2"
_cell_formula_units_Z 56
_cell_length_a 12.189364
_cell_length_b 13.604706
_cell_length_c 18.434311
_cell_angle_alpha 90.000000
_cell_angle_beta 57.483991
_cell_angle_gamma 90.000000
_cell_volume 2577.798575
_symmetry_space_group_name_H-M "C 2/M"
_symmetry_group_IT_number 12
_symmetry_cell_setting 'monoclinic'
loop_
_space_group_symop_operation_xyz
x,y,z
-x,y,-z
-x,-y,-z
x,-y,z
1/2+x,1/2+y,z
1/2-x,1/2+y,-z
1/2-x,1/2-y,-z
1/2+x,1/2-y,z
loop_
_atom_site_type_symbol
_atom_site_label
_atom_site_fract_x
_atom_site_fract_y
_atom_site_fract_z
Si Si1 0.301793 0.645044 0.506622
Si Si2 0.186681 0.312360 0.813989
Si Si3 0.487957 0.103013 0.392542
Si Si4 0.457438 0.109497 0.798309
Si Si5 0.190796 0.201278 0.091878
Si Si6 0.544867 0.388451 0.900044
Si Si7 0.582426 0.681815 0.378525
O O1 0.250000 0.750000 0.500000
O O2 0.166022 0.593073 0.540135
O O3 0.442161 0.628871 0.418740
O O4 0.342871 0.642905 0.576769
O O5 0.206960 0.345470 0.889399
O O6 0.138061 0.198805 0.838674
O O7 0.321735 0.323620 0.723143
O O8 0.080854 0.372338 0.806305
O O9 0.503941 0.112510 0.299788
O O10 0.547972 0.202638 0.403257
O O11 0.552028 0.000000 0.393396
O O12 0.369540 0.203954 0.845728
O O13 0.402064 0.000000 0.832600
O O14 0.082052 0.125681 0.104640
O O15 0.250000 0.250000 0.000000
O O16 0.596057 0.500000 0.876649
O O17 0.500000 0.371600 0.000000
#
# Coordination Sequence:
#
# PCOD9187059 Si02
#       7
#     8   8   8   8   8   8   8
#     4   9  19  35  56  80 113 148 182 222 282 333
#     4  11  21  37  61  82 117 152 192 231 283 343
#     4  10  19  35  58  87 114 143 188 239 280 331
#     4  10  22  37  57  87 117 148 190 238 284 335
#     4  11  22  38  59  85 114 152 192 232 284 341
#     4  10  22  38  57  84 117 148 188 240 288 335
#     4  10  19  35  57  84 108 152 189 224 277 341
#
# _framework density 21.723962
#
# number of rings (size 3 to 8) (size 9 to 14) (size 15 to 20)
#    0.000    1.857    4.286    0.000    0.000    2.286 
#    0.000    8.571    0.000    5.143    0.000    0.000 
#    0.000    0.000    0.000    0.000    0.000    0.000 
#
# Total GULP energy -156105.119712 kJ/mol
# GULP energy per Si atom -5575.182847 kJ/mol
# Density = 2.167452 g / cm^3
# Si number density = 21.723962 Si / 1000 Ang^3
#
#
#
# Elastic Constant Matrix: (Units=GPa)
#
#
# Indices 1 2 3 4 5 6 
#
# 1 61.9208 -18.2121 -3.6412 0.0000 9.7213 0.0000
# 2 -18.2121 76.4875 -3.4353 0.0000 0.8561 0.0000
# 3 -3.6412 -3.4353 70.4068 0.0000 1.1213 0.0000
# 4 0.0000 0.0000 0.0000 -13.5543 0.0000 -5.7365
# 5 9.7213 0.8561 1.1213 0.0000 30.9701 0.0000
# 6 0.0000 0.0000 0.0000 -5.7365 0.0000 -9.9303
#
#
#
# Elastic Compliance Matrix: (Units=1/GPa)
#
#
# Indices 1 2 3 4 5 6 
#
# 1 0.018494 0.004528 0.001273 0.000000 -0.005977 0.000000
# 2 0.004528 0.014216 0.000957 0.000000 -0.001849 0.000000
# 3 0.001273 0.000957 0.014331 0.000000 -0.000945 0.000000
# 4 0.000000 0.000000 0.000000 -0.097651 0.000000 0.056410
# 5 -0.005977 -0.001849 -0.000945 0.000000 0.034250 0.000000
# 6 0.000000 0.000000 0.000000 0.056410 0.000000 -0.133288
#
#
# Mechanical properties :
#
#
# Convention : Reuss Voigt Hill
#
# Bulk Modulus (GPa) = 16.51366 17.58199 17.04782
# Shear Modulus (GPa) = -34.97056 17.10402 -8.93327
#
# Velocity S-wave (km/s) = -4.01655 2.80899 -2.03005
# Velocity P-wave (km/s) = 3.72721 4.31642 1.53939
#
# Compressibility (1/GPa) = 0.06055592
#
# Stress axis : x y z
#
# Youngs Moduli (GPa) = 54.07027 70.34438 69.78011
#
# Poissons Ratio (x) = -0.31850 -0.08880
# Poissons Ratio (y) = -0.24481 -0.06680
# Poissons Ratio (z) = -0.06881 -0.06734
#
# Static dielectric constant tensor:
#      x y z
#    x 1.821610 0.000000 -0.011660 
#    y 0.000000 2.093550 0.000000 
#    z -0.011660 0.000000 1.798910 
# 
# From -- ./inp_files/262831.got.cif
#   From: 2010.05.17/outbox.cif.g08.bks.cpg/sg12_132_cif.got.tgz:262831.got - 2010.06.03 13:09:07.
