data_PCOD9187397
_publ_section_title
;
Structure prediction by ZEFSAII (Michael W. Deem and Ramdas Pophale) SiO2 
 PCOD9187397
Probable space group: C 2/M
;
_chemical_formula_sum "Si O2"
_cell_formula_units_Z 64
_cell_length_a 10.140163
_cell_length_b 30.137042
_cell_length_c 14.263080
_cell_angle_alpha 90.000000
_cell_angle_beta 45.304192
_cell_angle_gamma 90.000000
_cell_volume 3098.399521
_symmetry_space_group_name_H-M "C 2/M"
_symmetry_group_IT_number 12
_symmetry_cell_setting 'monoclinic'
loop_
_space_group_symop_operation_xyz
x,y,z
-x,y,-z
-x,-y,-z
x,-y,z
1/2+x,1/2+y,z
1/2-x,1/2+y,-z
1/2-x,1/2-y,-z
1/2+x,1/2-y,z
loop_
_atom_site_type_symbol
_atom_site_label
_atom_site_fract_x
_atom_site_fract_y
_atom_site_fract_z
Si Si1 0.932996 0.049748 0.344246
Si Si2 0.427049 0.283938 0.709602
Si Si3 0.170520 0.679150 0.987262
Si Si4 0.794789 0.948473 0.093780
Si Si5 0.352550 0.363731 0.491270
Si Si6 0.880480 0.550670 0.642813
Si Si7 0.602541 0.796708 0.715814
Si Si8 0.793399 0.578080 0.064444
O O1 0.837013 0.088383 0.451825
O O2 0.824553 0.048662 0.299590
O O3 0.143610 0.062948 0.215766
O O4 0.922272 0.000000 0.389807
O O5 0.553802 0.326729 0.623228
O O6 0.550717 0.240532 0.665281
O O7 0.270756 0.282125 0.704094
O O8 0.325166 0.291159 0.860434
O O9 0.078973 0.692510 0.131004
O O10 0.241891 0.628920 0.947739
O O11 0.000000 0.680299 0.000000
O O12 0.647866 0.928621 0.241152
O O13 0.810896 0.000000 0.115552
O O14 0.729702 0.947864 0.020344
O O15 0.000000 0.928171 0.000000
O O16 0.500000 0.370223 0.500000
O O17 0.175576 0.340513 0.626549
O O18 0.957100 0.500000 0.614694
O O19 0.000000 0.572271 0.500000
O O20 0.000000 0.574045 0.000000
#
# Coordination Sequence:
#
# PCOD9187397 Si02
#       8
#     8   8   8   8   8   8   8   8
#     4  11  22  40  64  89 124 170 223 276 317 375
#     4  10  19  39  62  92 122 160 201 250 313 385
#     4   9  19  36  60  87 124 167 196 246 318 387
#     4  10  19  35  59  83 114 159 210 263 319 375
#     4  10  22  39  62  87 125 169 206 253 324 386
#     4   9  19  37  59  82 113 158 207 259 322 379
#     4  10  21  37  65  92 124 161 205 252 316 386
#     4  11  22  37  63  92 128 164 218 269 325 377
#
# _framework density 20.655826000000001
#
# number of rings (size 3 to 8) (size 9 to 14) (size 15 to 20)
#    0.000    2.000    2.500    1.125    1.750    2.250 
#    0.000    3.750    0.000    0.000    0.000    0.000 
#    0.000    0.000    0.000    0.000    0.000    0.000 
#
# Total GULP energy -178404.981825 kJ/mol
# GULP energy per Si atom -5575.155682 kJ/mol
# Density = 2.060881 g / cm^3
# Si number density = 20.655826 Si / 1000 Ang^3
#
#
#
# Elastic Constant Matrix: (Units=GPa)
#
#
# Indices 1 2 3 4 5 6 
#
# 1 53.1971 34.5480 27.2105 0.0000 -1.4426 0.0000
# 2 34.5480 118.6523 36.6160 0.0000 10.6272 0.0000
# 3 27.2105 36.6160 120.3453 0.0000 12.4827 0.0000
# 4 0.0000 0.0000 0.0000 19.3021 0.0000 5.0900
# 5 -1.4426 10.6272 12.4827 0.0000 24.4298 0.0000
# 6 0.0000 0.0000 0.0000 5.0900 0.0000 22.0286
#
#
#
# Elastic Compliance Matrix: (Units=1/GPa)
#
#
# Indices 1 2 3 4 5 6 
#
# 1 0.025592 -0.006678 -0.004448 0.000000 0.006689 0.000000
# 2 -0.006678 0.011222 -0.001433 0.000000 -0.004544 0.000000
# 3 -0.004448 -0.001433 0.010257 0.000000 -0.004880 0.000000
# 4 0.000000 0.000000 0.000000 0.055169 0.000000 -0.012748
# 5 0.006689 -0.004544 -0.004880 0.000000 0.045799 0.000000
# 6 0.000000 0.000000 0.000000 -0.012748 0.000000 0.048341
#
#
# Mechanical properties :
#
#
# Convention : Reuss Voigt Hill
#
# Bulk Modulus (GPa) = 45.55397 54.32709 49.94053
# Shear Modulus (GPa) = 21.85164 26.07346 23.96255
#
# Velocity S-wave (km/s) = 3.25605 3.55671 3.40970
# Velocity P-wave (km/s) = 6.01976 6.57458 6.30328
#
# Compressibility (1/GPa) = 0.02195198
#
# Stress axis : x y z
#
# Youngs Moduli (GPa) = 39.07535 89.11409 97.48991
#
# Poissons Ratio (x) = 0.59509 0.43367
# Poissons Ratio (y) = 0.26094 0.13971
# Poissons Ratio (z) = 0.17382 0.12771
#
# Static dielectric constant tensor:
#      x y z
#    x 1.718970 0.000000 -0.014240 
#    y 0.000000 1.797290 0.000000 
#    z -0.014240 0.000000 1.823260 
# 
# From -- ./inp_files/209846.got.cif
#   From: 2010.05.17/outbox.cif.g08.bks.cpg/sg12_105_cif.got.tgz:209846.got - 2010.06.03 13:09:07.
