data_PCOD9187627
_publ_section_title
;
Structure prediction by ZEFSAII (Michael W. Deem and Ramdas Pophale) SiO2 
 PCOD9187627
Probable space group: C 2/M
;
_chemical_formula_sum "Si O2"
_cell_formula_units_Z 64
_cell_length_a 27.231458
_cell_length_b 7.630287
_cell_length_c 22.356976
_cell_angle_alpha 90.000000
_cell_angle_beta 145.615936
_cell_angle_gamma 90.000000
_cell_volume 2623.441875
_symmetry_space_group_name_H-M "C 2/M"
_symmetry_group_IT_number 12
_symmetry_cell_setting 'monoclinic'
loop_
_space_group_symop_operation_xyz
x,y,z
-x,y,-z
-x,-y,-z
x,-y,z
1/2+x,1/2+y,z
1/2-x,1/2+y,-z
1/2-x,1/2-y,-z
1/2+x,1/2-y,z
loop_
_atom_site_type_symbol
_atom_site_label
_atom_site_fract_x
_atom_site_fract_y
_atom_site_fract_z
Si Si1 0.532726 0.716003 0.321932
Si Si2 0.776875 0.200087 0.723198
Si Si3 0.720649 0.293267 0.538138
Si Si4 0.084604 0.200998 0.044414
Si Si5 0.803285 0.292440 0.994927
Si Si6 0.985113 0.804656 0.148704
Si Si7 0.094780 0.798625 0.594786
Si Si8 0.864748 0.201878 0.225597
O O1 0.530805 0.500000 0.319700
O O2 0.620929 0.774328 0.443491
O O3 0.539141 0.772839 0.258443
O O4 0.445011 0.777496 0.267767
O O5 0.778804 0.246712 0.654602
O O6 0.839428 0.283488 0.837565
O O7 0.677141 0.220925 0.643587
O O8 0.804586 0.000000 0.752862
O O9 0.714798 0.500000 0.534868
O O10 0.750000 0.250000 0.500000
O O11 0.110231 0.000000 0.052670
O O12 0.045406 0.284101 0.943936
O O13 0.000000 0.191333 0.000000
O O14 0.823461 0.500000 0.010329
O O15 0.733610 0.228150 0.876309
O O16 0.750000 0.250000 0.000000
O O17 0.891074 0.187083 0.085081
O O18 0.020165 0.000000 0.170475
O O19 0.113902 0.802104 0.683955
O O20 0.000000 0.712697 0.500000
O O21 0.086079 0.000000 0.562753
O O22 0.856059 0.000000 0.195745
#
# Coordination Sequence:
#
# PCOD9187627 Si02
#       8
#     8   8   8   8   8   8   8   8
#     4   9  18  34  59  87 113 149 197 244 291 352
#     4  11  23  40  62  91 126 159 200 256 308 359
#     4  11  24  42  66  91 117 154 200 249 304 362
#     4   9  20  37  62  90 117 157 208 252 299 362
#     4  11  20  32  51  78 115 153 188 231 283 342
#     4  10  19  35  60  86 114 150 199 249 292 347
#     4  10  20  36  61  86 116 161 206 244 292 361
#     4   9  17  31  53  82 112 148 194 237 278 340
#
# _framework density 24.395434000000002
#
# number of rings (size 3 to 8) (size 9 to 14) (size 15 to 20)
#    0.000    2.000    1.250    2.625    1.750    2.250 
#    0.000    2.500    0.000    1.875    0.000    0.000 
#    0.000    0.000    0.000    0.000    0.000    0.000 
#
# Total GULP energy -178371.881140 kJ/mol
# GULP energy per Si atom -5574.121286 kJ/mol
# Density = 2.433991 g / cm^3
# Si number density = 24.395434 Si / 1000 Ang^3
#
#
#
# Elastic Constant Matrix: (Units=GPa)
#
#
# Indices 1 2 3 4 5 6 
#
# 1 91.3528 1.7311 2.3088 0.0000 -18.7099 0.0000
# 2 1.7311 62.2604 4.0121 0.0000 -3.9976 0.0000
# 3 2.3088 4.0121 93.2057 0.0000 -19.3012 0.0000
# 4 0.0000 0.0000 0.0000 9.6116 0.0000 1.0121
# 5 -18.7099 -3.9976 -19.3012 0.0000 43.9288 0.0000
# 6 0.0000 0.0000 0.0000 1.0121 0.0000 22.7810
#
#
#
# Elastic Compliance Matrix: (Units=1/GPa)
#
#
# Indices 1 2 3 4 5 6 
#
# 1 0.012052 -0.000036 0.000842 0.000000 0.005500 0.000000
# 2 -0.000036 0.016172 -0.000433 0.000000 0.001266 0.000000
# 3 0.000842 -0.000433 0.011873 0.000000 0.005536 0.000000
# 4 0.000000 0.000000 0.000000 0.104530 0.000000 -0.004644
# 5 0.005500 0.001266 0.005536 0.000000 0.027654 0.000000
# 6 0.000000 0.000000 0.000000 -0.004644 0.000000 0.044103
#
#
# Mechanical properties :
#
#
# Convention : Reuss Voigt Hill
#
# Bulk Modulus (GPa) = 24.48425 29.21366 26.84896
# Shear Modulus (GPa) = 21.80995 31.18206 26.49601
#
# Velocity S-wave (km/s) = 2.99326 3.57906 3.29919
# Velocity P-wave (km/s) = 4.69088 5.39264 5.05396
#
# Compressibility (1/GPa) = 0.04084258
#
# Stress axis : x y z
#
# Youngs Moduli (GPa) = 82.97090 61.83619 84.22372
#
# Poissons Ratio (x) = 0.00224 -0.07091
# Poissons Ratio (y) = 0.00301 0.03648
# Poissons Ratio (z) = -0.06986 0.02678
#
# Static dielectric constant tensor:
#      x y z
#    x 1.924180 0.000000 -0.084980 
#    y 0.000000 2.019160 0.000000 
#    z -0.084980 0.000000 2.379710 
# 
# From -- ./inp_files/353543.got.cif
#   From: 2010.05.17/outbox.cif.g08.bks.cpg/sg12_177_cif.got.tgz:353543.got - 2010.06.03 13:09:07.
