data_PCOD9187846
_publ_section_title
;
Structure prediction by ZEFSAII (Michael W. Deem and Ramdas Pophale) SiO2 
 PCOD9187846
Probable space group: C 2/M
;
_chemical_formula_sum "Si O2"
_cell_formula_units_Z 42
_cell_length_a 16.123983
_cell_length_b 14.665089
_cell_length_c 12.388993
_cell_angle_alpha 90.000000
_cell_angle_beta 36.445541
_cell_angle_gamma 90.000000
_cell_volume 1740.292418
_symmetry_space_group_name_H-M "C 2/M"
_symmetry_group_IT_number 12
_symmetry_cell_setting 'monoclinic'
loop_
_space_group_symop_operation_xyz
x,y,z
-x,y,-z
-x,-y,-z
x,-y,z
1/2+x,1/2+y,z
1/2-x,1/2+y,-z
1/2-x,1/2-y,-z
1/2+x,1/2-y,z
loop_
_atom_site_type_symbol
_atom_site_label
_atom_site_fract_x
_atom_site_fract_y
_atom_site_fract_z
Si Si1 0.896621 0.399273 0.777474
Si Si2 0.961661 0.898730 0.190255
Si Si3 0.170619 0.143796 0.446452
Si Si4 0.820792 0.647299 0.629204
Si Si5 0.500000 0.500000 0.500000
Si Si6 0.487570 0.813185 0.136601
O O1 0.842436 0.500000 0.853833
O O2 0.048945 0.402779 0.561696
O O3 0.912708 0.351034 0.875047
O O4 0.812348 0.355476 0.767391
O O5 0.925311 0.890705 0.354988
O O6 0.817817 0.895096 0.274182
O O7 0.013005 0.795960 0.110531
O O8 0.025403 0.000000 0.104749
O O9 0.151906 0.248574 0.433550
O O10 0.119863 0.079598 0.402854
O O11 0.329868 0.150086 0.325544
O O12 0.500000 0.844017 0.000000
#
# Coordination Sequence:
#
# PCOD9187846 Si02
#       6
#     8   8   8   8   2   8
#     4  11  20  33  60  92 123 165 212 263 322 376
#     4  11  20  39  67  92 126 170 226 275 310 373
#     4  11  22  40  64  95 128 168 217 275 321 373
#     4  10  19  35  61  94 127 153 212 281 319 359
#     4  12  24  36  70  96 122 164 224 268 322 376
#     4  11  25  43  62  93 139 177 208 260 334 399
#
# _framework density 24.133876000000001
#
# number of rings (size 3 to 8) (size 9 to 14) (size 15 to 20)
#    0.000    1.143    4.762    4.571    1.333    0.762 
#    0.000    3.810    0.000    0.000    0.000    0.000 
#    0.000    0.000    0.000    0.000    0.000    0.000 
#
# Total GULP energy -116933.888253 kJ/mol
# GULP energy per Si atom -5568.280393 kJ/mol
# Density = 2.407895 g / cm^3
# Si number density = 24.133876 Si / 1000 Ang^3
#
#
#
# Elastic Constant Matrix: (Units=GPa)
#
#
# Indices 1 2 3 4 5 6 
#
# 1 115.9035 53.2618 23.0886 0.0000 18.4458 0.0000
# 2 53.2618 156.4999 18.2045 0.0000 8.6654 0.0000
# 3 23.0886 18.2045 47.4789 0.0000 27.6482 0.0000
# 4 0.0000 0.0000 0.0000 -32.7246 0.0000 -12.1220
# 5 18.4458 8.6654 27.6482 0.0000 45.8879 0.0000
# 6 0.0000 0.0000 0.0000 -12.1220 0.0000 22.4556
#
#
#
# Elastic Compliance Matrix: (Units=1/GPa)
#
#
# Indices 1 2 3 4 5 6 
#
# 1 0.011057 -0.003311 -0.002901 0.000000 -0.002071 0.000000
# 2 -0.003311 0.007685 -0.001951 0.000000 0.001055 0.000000
# 3 -0.002901 -0.001951 0.034395 0.000000 -0.019189 0.000000
# 4 0.000000 0.000000 0.000000 -0.025466 0.000000 -0.013747
# 5 -0.002071 0.001055 -0.019189 0.000000 0.033987 0.000000
# 6 0.000000 0.000000 0.000000 -0.013747 0.000000 0.037111
#
#
# Mechanical properties :
#
#
# Convention : Reuss Voigt Hill
#
# Bulk Modulus (GPa) = 27.16585 56.55468 41.86027
# Shear Modulus (GPa) = 39.25671 22.14559 30.70115
#
# Velocity S-wave (km/s) = 4.03752 3.03250 3.57055
# Velocity P-wave (km/s) = 5.74597 5.97880 5.86354
#
# Compressibility (1/GPa) = 0.03681093
#
# Stress axis : x y z
#
# Youngs Moduli (GPa) = 90.44117 130.12206 29.07383
#
# Poissons Ratio (x) = 0.43081 0.08435
# Poissons Ratio (y) = 0.29944 0.05673
# Poissons Ratio (z) = 0.26239 0.25388
#
# Static dielectric constant tensor:
#      x y z
#    x 1.970130 0.000000 -0.024790 
#    y 0.000000 1.885000 0.000000 
#    z -0.024790 0.000000 2.041300 
# 
# From -- ./inp_files/142626.got.cif
#   From: 2010.05.17/outbox.cif.g08.bks.cpg/sg12_72_cif.got.tgz:142626.got - 2010.06.03 13:09:07.
