data_PCOD9187635
_publ_section_title
;
Structure prediction by ZEFSAII (Michael W. Deem and Ramdas Pophale) SiO2 
 PCOD9187635
Probable space group: C 2/M
;
_chemical_formula_sum "Si O2"
_cell_formula_units_Z 58
_cell_length_a 9.420549
_cell_length_b 16.301451
_cell_length_c 20.382600
_cell_angle_alpha 90.000000
_cell_angle_beta 70.028014
_cell_angle_gamma 90.000000
_cell_volume 2941.881000
_symmetry_space_group_name_H-M "C 2/M"
_symmetry_group_IT_number 12
_symmetry_cell_setting 'monoclinic'
loop_
_space_group_symop_operation_xyz
x,y,z
-x,y,-z
-x,-y,-z
x,-y,z
1/2+x,1/2+y,z
1/2-x,1/2+y,-z
1/2-x,1/2-y,-z
1/2+x,1/2-y,z
loop_
_atom_site_type_symbol
_atom_site_label
_atom_site_fract_x
_atom_site_fract_y
_atom_site_fract_z
Si Si1 0.320026 0.649473 0.097942
Si Si2 0.598759 0.599798 0.423317
Si Si3 0.079922 0.406026 0.668418
Si Si4 0.225303 0.321467 0.255903
Si Si5 0.000000 0.000000 0.000000
Si Si6 0.468776 0.592762 0.301953
Si Si7 0.491712 0.816263 0.926395
Si Si8 0.218593 0.631301 0.785027
O O1 0.257912 0.633610 0.181333
O O2 0.441028 0.723789 0.085050
O O3 0.175801 0.679023 0.077530
O O4 0.398664 0.572100 0.052824
O O5 0.500000 0.628857 0.500000
O O6 0.602156 0.500000 0.424182
O O7 0.774501 0.624455 0.395307
O O8 0.523823 0.620492 0.365244
O O9 0.041403 0.500000 0.655736
O O10 0.139678 0.406547 0.733892
O O11 0.936653 0.347438 0.691132
O O12 0.349268 0.347988 0.288611
O O13 0.243267 0.226047 0.237211
O O14 0.408616 0.500000 0.316502
O O15 0.618049 0.591563 0.232890
O O16 0.605214 0.868929 0.863443
O O17 0.500000 0.844679 0.000000
#
# Coordination Sequence:
#
# PCOD9187635 Si02
#       8
#     8   8   8   8   2   8   8   8
#     4  11  26  43  66  85 123 161 206 253 309 365
#     4   8  16  34  59  86 119 159 197 236 288 359
#     4  10  19  35  60  86 116 151 193 245 297 342
#     4  11  22  36  58  88 118 157 193 249 298 355
#     4  12  28  44  62  92 128 162 192 264 340 332
#     4  10  21  36  59  90 117 152 198 250 294 348
#     4  11  23  43  67  85 113 162 210 246 295 383
#     4  10  21  37  60  82 114 155 203 237 292 357
#
# _framework density 19.715278999999999
#
# number of rings (size 3 to 8) (size 9 to 14) (size 15 to 20)
#    0.000    1.793    2.069    2.897    7.724    0.000 
#    1.241    1.034    0.000   16.552    0.000    0.000 
#    0.000    0.000    0.000    0.000    0.000    0.000 
#
# Total GULP energy -161668.417116 kJ/mol
# GULP energy per Si atom -5574.773004 kJ/mol
# Density = 1.967041 g / cm^3
# Si number density = 19.715279 Si / 1000 Ang^3
#
#
#
# Elastic Constant Matrix: (Units=GPa)
#
#
# Indices 1 2 3 4 5 6 
#
# 1 108.8012 37.6955 41.5717 0.0000 -12.4514 0.0000
# 2 37.6955 51.1647 40.6707 0.0000 -11.1763 0.0000
# 3 41.5717 40.6707 110.9446 0.0000 -25.2463 0.0000
# 4 0.0000 0.0000 0.0000 29.0763 0.0000 12.5970
# 5 -12.4514 -11.1763 -25.2463 0.0000 23.7766 0.0000
# 6 0.0000 0.0000 0.0000 12.5970 0.0000 66.7435
#
#
#
# Elastic Compliance Matrix: (Units=1/GPa)
#
#
# Indices 1 2 3 4 5 6 
#
# 1 0.012637 -0.007760 -0.001602 0.000000 0.001270 0.000000
# 2 -0.007760 0.032504 -0.008513 0.000000 0.002176 0.000000
# 3 -0.001602 -0.008513 0.015339 0.000000 0.011447 0.000000
# 4 0.000000 0.000000 0.000000 0.037455 0.000000 -0.007069
# 5 0.001270 0.002176 0.011447 0.000000 0.055901 0.000000
# 6 0.000000 0.000000 0.000000 -0.007069 0.000000 0.016317
#
#
# Mechanical properties :
#
#
# Convention : Reuss Voigt Hill
#
# Bulk Modulus (GPa) = 40.43372 56.75403 48.59387
# Shear Modulus (GPa) = 23.34881 33.98412 28.66647
#
# Velocity S-wave (km/s) = 3.44510 4.15631 3.81730
# Velocity P-wave (km/s) = 6.03144 7.20295 6.64307
#
# Compressibility (1/GPa) = 0.02473183
#
# Stress axis : x y z
#
# Youngs Moduli (GPa) = 79.13431 30.76580 65.19279
#
# Poissons Ratio (x) = 0.23873 0.10441
# Poissons Ratio (y) = 0.61406 0.55496
# Poissons Ratio (z) = 0.12674 0.26190
#
# Static dielectric constant tensor:
#      x y z
#    x 1.686870 0.000000 -0.023260 
#    y 0.000000 1.709200 0.000000 
#    z -0.023260 0.000000 1.708750 
# 
# From -- ./inp_files/300751.got.cif
#   From: 2010.05.17/outbox.cif.g08.bks.cpg/sg12_151_cif.got.tgz:300751.got - 2010.06.03 13:09:07.
