data_PCOD9187471
_publ_section_title
;
Structure prediction by ZEFSAII (Michael W. Deem and Ramdas Pophale) SiO2 
 PCOD9187471
Probable space group: C 2/M
;
_chemical_formula_sum "Si O2"
_cell_formula_units_Z 64
_cell_length_a 21.967893
_cell_length_b 12.930823
_cell_length_c 13.471020
_cell_angle_alpha 90.000000
_cell_angle_beta 67.269207
_cell_angle_gamma 90.000000
_cell_volume 3529.406237
_symmetry_space_group_name_H-M "C 2/M"
_symmetry_group_IT_number 12
_symmetry_cell_setting 'monoclinic'
loop_
_space_group_symop_operation_xyz
x,y,z
-x,y,-z
-x,-y,-z
x,-y,z
1/2+x,1/2+y,z
1/2-x,1/2+y,-z
1/2-x,1/2-y,-z
1/2+x,1/2-y,z
loop_
_atom_site_type_symbol
_atom_site_label
_atom_site_fract_x
_atom_site_fract_y
_atom_site_fract_z
Si Si1 0.747851 0.315029 0.656166
Si Si2 0.815708 0.876540 0.900120
Si Si3 0.693013 0.249126 0.893643
Si Si4 0.604796 0.118494 0.401039
Si Si5 0.306093 0.385911 0.517621
Si Si6 0.064206 0.622197 0.028530
Si Si7 0.559456 0.756322 0.236491
Si Si8 0.049192 0.805131 0.555646
O O1 0.703714 0.302343 0.781140
O O2 0.816286 0.371698 0.638947
O O3 0.712912 0.368571 0.585163
O O4 0.769361 0.201291 0.604326
O O5 0.755759 0.824377 0.877258
O O6 0.883932 0.829134 0.816027
O O7 0.813819 0.000000 0.896791
O O8 0.808903 0.833740 0.016928
O O9 0.627186 0.180406 0.942136
O O10 0.583469 0.169285 0.310524
O O11 0.572523 0.190556 0.505874
O O12 0.584545 0.000000 0.421278
O O13 0.286471 0.500000 0.562288
O O14 0.384309 0.369852 0.479676
O O15 0.077979 0.500000 0.032944
O O16 0.051904 0.677076 0.141936
O O17 0.000000 0.632950 0.000000
O O18 0.492272 0.704725 0.317837
O O19 0.000000 0.843279 0.500000
#
# Coordination Sequence:
#
# PCOD9187471 Si02
#       8
#     8   8   8   8   8   8   8   8
#     4  10  21  39  58  85 116 146 187 237 283 339
#     4  10  21  37  59  87 114 147 193 237 287 339
#     4  10  21  39  59  84 115 150 185 242 285 335
#     4  10  19  35  59  86 113 147 189 233 285 339
#     4  10  22  38  58  84 114 149 188 230 282 341
#     4  10  22  37  56  83 112 149 192 232 285 341
#     4  10  20  37  56  82 116 150 186 241 278 330
#     4   9  21  37  55  83 115 149 189 233 277 333
#
# _framework density 18.133362000000002
#
# number of rings (size 3 to 8) (size 9 to 14) (size 15 to 20)
#    0.000    2.125    1.250    1.125    1.750    5.500 
#    0.000    0.000    0.000    1.500    0.000    0.000 
#    0.000    0.000    0.000    0.000    0.000    0.000 
#
# Total GULP energy -178681.325577 kJ/mol
# GULP energy per Si atom -5583.791424 kJ/mol
# Density = 1.809209 g / cm^3
# Si number density = 18.133362 Si / 1000 Ang^3
#
#
#
# Elastic Constant Matrix: (Units=GPa)
#
#
# Indices 1 2 3 4 5 6 
#
# 1 47.1890 -0.9459 0.0716 0.0000 -0.4869 0.0000
# 2 -0.9459 89.1770 -3.3964 0.0000 -1.5790 0.0000
# 3 0.0716 -3.3964 71.0867 0.0000 -14.7172 0.0000
# 4 0.0000 0.0000 0.0000 6.7377 0.0000 3.1003
# 5 -0.4869 -1.5790 -14.7172 0.0000 22.5428 0.0000
# 6 0.0000 0.0000 0.0000 3.1003 0.0000 7.8723
#
#
#
# Elastic Compliance Matrix: (Units=1/GPa)
#
#
# Indices 1 2 3 4 5 6 
#
# 1 0.021202 0.000238 0.000102 0.000000 0.000541 0.000000
# 2 0.000238 0.011271 0.000813 0.000000 0.001325 0.000000
# 3 0.000102 0.000813 0.016325 0.000000 0.010717 0.000000
# 4 0.000000 0.000000 0.000000 0.181266 0.000000 -0.071387
# 5 0.000541 0.001325 0.010717 0.000000 0.051461 0.000000
# 6 0.000000 0.000000 0.000000 -0.071387 0.000000 0.155141
#
#
# Mechanical properties :
#
#
# Convention : Reuss Voigt Hill
#
# Bulk Modulus (GPa) = 19.56829 22.10126 20.83477
# Shear Modulus (GPa) = 11.07682 21.54548 16.31115
#
# Velocity S-wave (km/s) = 2.47423 3.45072 3.00244
# Velocity P-wave (km/s) = 4.35628 5.30012 4.85121
#
# Compressibility (1/GPa) = 0.05110307
#
# Stress axis : x y z
#
# Youngs Moduli (GPa) = 47.16630 88.72653 61.25652
#
# Poissons Ratio (x) = -0.02115 -0.00626
# Poissons Ratio (y) = -0.01124 -0.04978
# Poissons Ratio (z) = -0.00482 -0.07210
#
# Static dielectric constant tensor:
#      x y z
#    x 1.615920 0.000000 -0.002700 
#    y 0.000000 1.595380 0.000000 
#    z -0.002700 0.000000 1.605230 
# 
# From -- ./inp_files/175271.got.cif
#   From: 2010.05.17/outbox.cif.g08.bks.cpg/sg12_88_cif.got.tgz:175271.got - 2010.06.03 13:09:07.
