data_PCOD9187480
_publ_section_title
;
Structure prediction by ZEFSAII (Michael W. Deem and Ramdas Pophale) SiO2 
 PCOD9187480
Probable space group: C 2/M
;
_chemical_formula_sum "Si O2"
_cell_formula_units_Z 32
_cell_length_a 10.625110
_cell_length_b 16.147327
_cell_length_c 8.139325
_cell_angle_alpha 90.000000
_cell_angle_beta 115.981082
_cell_angle_gamma 90.000000
_cell_volume 1255.314547
_symmetry_space_group_name_H-M "C 2/M"
_symmetry_group_IT_number 12
_symmetry_cell_setting 'monoclinic'
loop_
_space_group_symop_operation_xyz
x,y,z
-x,y,-z
-x,-y,-z
x,-y,z
1/2+x,1/2+y,z
1/2-x,1/2+y,-z
1/2-x,1/2-y,-z
1/2+x,1/2-y,z
loop_
_atom_site_type_symbol
_atom_site_label
_atom_site_fract_x
_atom_site_fract_y
_atom_site_fract_z
Si Si1 0.401850 0.094042 0.304872
Si Si2 0.344191 0.850452 0.709906
Si Si3 0.316085 0.599410 0.058697
Si Si4 0.580649 0.332105 0.369593
O O1 0.500000 0.134704 0.500000
O O2 0.515314 0.096569 0.222650
O O3 0.373718 0.000000 0.339601
O O4 0.259723 0.130835 0.150675
O O5 0.270387 0.860660 0.841432
O O6 0.385225 0.756395 0.690339
O O7 0.226314 0.875087 0.506399
O O8 0.299897 0.500000 0.052649
O O9 0.476314 0.620412 0.188554
O O10 0.500000 0.323181 0.500000
#
# Coordination Sequence:
#
# PCOD9187480 Si02
#       4
#     8   8   8   8
#     4  10  21  37  57  82 116 156 196 242 295 348
#     4  10  19  35  59  86 116 150 193 240 290 348
#     4  10  21  38  61  88 116 152 199 244 288 343
#     4   9  20  36  57  87 121 154 190 237 295 353
#
# _framework density 25.491617999999999
#
# number of rings (size 3 to 8) (size 9 to 14) (size 15 to 20)
#    0.000    2.250    0.000    2.250    0.000    8.500 
#    0.000    6.250    0.000    4.500    0.000    0.000 
#    0.000    0.000    0.000    0.000    0.000    0.250 
#
# Total GULP energy -89476.967457 kJ/mol
# GULP energy per Si atom -5592.310466 kJ/mol
# Density = 2.543360 g / cm^3
# Si number density = 25.491618 Si / 1000 Ang^3
#
#
#
# Elastic Constant Matrix: (Units=GPa)
#
#
# Indices 1 2 3 4 5 6 
#
# 1 101.5634 24.7601 39.4536 0.0000 26.3636 0.0000
# 2 24.7601 77.2437 32.2577 0.0000 6.0359 0.0000
# 3 39.4536 32.2577 229.7726 0.0000 43.6171 0.0000
# 4 0.0000 0.0000 0.0000 -20.0162 0.0000 22.4750
# 5 26.3636 6.0359 43.6171 0.0000 47.2333 0.0000
# 6 0.0000 0.0000 0.0000 22.4750 0.0000 31.5535
#
#
#
# Elastic Compliance Matrix: (Units=1/GPa)
#
#
# Indices 1 2 3 4 5 6 
#
# 1 0.012416 -0.003289 -0.000527 0.000000 -0.006023 0.000000
# 2 -0.003289 0.014624 -0.001797 0.000000 0.001627 0.000000
# 3 -0.000527 -0.001797 0.005572 0.000000 -0.004622 0.000000
# 4 0.000000 0.000000 0.000000 -0.027759 0.000000 0.019772
# 5 -0.006023 0.001627 -0.004622 0.000000 0.028594 0.000000
# 6 0.000000 0.000000 0.000000 0.019772 0.000000 0.017609
#
#
# Mechanical properties :
#
#
# Convention : Reuss Voigt Hill
#
# Bulk Modulus (GPa) = 46.75951 66.83584 56.79768
# Shear Modulus (GPa) = 72.03486 32.56133 52.29809
#
# Velocity S-wave (km/s) = 5.32162 3.57786 4.53435
# Velocity P-wave (km/s) = 7.49282 6.58360 7.05288
#
# Compressibility (1/GPa) = 0.02138602
#
# Stress axis : x y z
#
# Youngs Moduli (GPa) = 80.54046 68.38199 179.46126
#
# Poissons Ratio (x) = 0.22493 0.09453
# Poissons Ratio (y) = 0.26492 0.32249
# Poissons Ratio (z) = 0.04242 0.12288
#
# Static dielectric constant tensor:
#      x y z
#    x 2.069090 0.000000 -0.069140 
#    y 0.000000 1.906230 0.000000 
#    z -0.069140 0.000000 2.102550 
# 
# From -- ./inp_files/46424.got.cif
#   From: 2010.05.17/outbox.cif.g08.bks.cpg/sg12_24_cif.got.tgz:46424.got - 2010.06.03 13:09:07.
