data_PCOD9187074
_publ_section_title
;
Structure prediction by ZEFSAII (Michael W. Deem and Ramdas Pophale) SiO2 
 PCOD9187074
Probable space group: C 2/M
;
_chemical_formula_sum "Si O2"
_cell_formula_units_Z 56
_cell_length_a 17.406345
_cell_length_b 23.270395
_cell_length_c 20.941014
_cell_angle_alpha 90.000000
_cell_angle_beta 158.799905
_cell_angle_gamma 90.000000
_cell_volume 3067.388862
_symmetry_space_group_name_H-M "C 2/M"
_symmetry_group_IT_number 12
_symmetry_cell_setting 'monoclinic'
loop_
_space_group_symop_operation_xyz
x,y,z
-x,y,-z
-x,-y,-z
x,-y,z
1/2+x,1/2+y,z
1/2-x,1/2+y,-z
1/2-x,1/2-y,-z
1/2+x,1/2-y,z
loop_
_atom_site_type_symbol
_atom_site_label
_atom_site_fract_x
_atom_site_fract_y
_atom_site_fract_z
Si Si1 0.831078 0.814101 0.576740
Si Si2 0.063536 0.932440 0.185999
Si Si3 0.792888 0.433068 0.182305
Si Si4 0.780336 0.887634 0.083236
Si Si5 0.908982 0.601919 0.703795
Si Si6 0.886604 0.000000 0.480156
Si Si7 0.440617 0.141491 0.516925
Si Si8 0.205962 0.500000 0.113154
O O1 0.750000 0.750000 0.500000
O O2 0.735109 0.853154 0.445857
O O3 0.711262 0.827969 0.550165
O O4 0.077169 0.835954 0.775876
O O5 0.294359 0.907291 0.372070
O O6 0.935320 0.914861 0.149956
O O7 0.070934 0.000000 0.188976
O O8 0.930843 0.914050 0.021147
O O9 0.785530 0.500000 0.197726
O O10 0.952976 0.428879 0.245311
O O11 0.879426 0.389384 0.301815
O O12 0.714369 0.940824 0.078212
O O13 0.571195 0.870463 0.880721
O O14 0.762677 0.555109 0.624878
O O15 0.000000 0.000000 0.500000
O O16 0.075017 0.000000 0.677695
O O17 0.500000 0.177911 0.500000
O O18 0.000000 0.500000 0.000000
#
# Coordination Sequence:
#
# PCOD9187074 Si02
#       8
#     8   8   8   8   8   4   8   4
#     4  10  22  40  62  82 105 156 211 248 298 359
#     4   9  17  29  50  78 109 147 179 209 272 338
#     4   9  17  29  50  77 109 147 174 213 266 340
#     4  10  19  35  58  85 119 151 195 246 291 366
#     4  10  19  35  57  84 117 150 196 242 296 364
#     4  12  22  34  56  93 129 165 193 246 317 384
#     4  10  21  34  51  76 106 139 182 235 283 330
#     4  12  22  34  58  93 133 161 191 244 317 386
#
# _framework density 18.25657
#
# number of rings (size 3 to 8) (size 9 to 14) (size 15 to 20)
#    0.000    2.000    2.857    1.714    0.000    2.286 
#    0.000    2.143    0.000    0.000    0.000    0.000 
#    0.000    0.000    0.000    0.000    0.000    0.000 
#
# Total GULP energy -156017.611599 kJ/mol
# GULP energy per Si atom -5572.057557 kJ/mol
# Density = 1.821502 g / cm^3
# Si number density = 18.256570 Si / 1000 Ang^3
#
#
#
# Elastic Constant Matrix: (Units=GPa)
#
#
# Indices 1 2 3 4 5 6 
#
# 1 94.8782 27.9762 36.1871 0.0147 -2.8688 0.0199
# 2 27.9762 67.7244 38.0733 -0.0500 -4.9158 -0.0034
# 3 36.1871 38.0733 126.9885 -0.0737 -7.8217 0.0415
# 4 0.0147 -0.0500 -0.0737 9.2226 -0.0060 3.8560
# 5 -2.8688 -4.9158 -7.8217 -0.0060 29.0539 0.0125
# 6 0.0199 -0.0034 0.0415 3.8560 0.0125 6.2219
#
#
#
# Elastic Compliance Matrix: (Units=1/GPa)
#
#
# Indices 1 2 3 4 5 6 
#
# 1 0.012601 -0.003836 -0.002445 -0.000067 -0.000063 0.000016
# 2 -0.003836 0.019000 -0.004503 0.000072 0.001624 0.000005
# 3 -0.002445 -0.004503 0.010026 0.000119 0.001696 -0.000138
# 4 -0.000067 0.000072 0.000119 0.146355 0.000107 -0.090704
# 5 -0.000063 0.001624 0.001696 0.000107 0.035144 -0.000147
# 6 0.000016 0.000005 -0.000138 -0.090704 -0.000147 0.216938
#
#
# Mechanical properties :
#
#
# Convention : Reuss Voigt Hill
#
# Bulk Modulus (GPa) = 49.85151 54.89602 52.37376
# Shear Modulus (GPa) = 10.67648 21.38998 16.03323
#
# Velocity S-wave (km/s) = 2.42089 3.42662 2.96669
# Velocity P-wave (km/s) = 5.93124 6.76684 6.36277
#
# Compressibility (1/GPa) = 0.02005957
#
# Stress axis : x y z
#
# Youngs Moduli (GPa) = 79.35612 52.63203 99.73875
#
# Poissons Ratio (x) = 0.20188 0.24385
# Poissons Ratio (y) = 0.30438 0.44916
# Poissons Ratio (z) = 0.19401 0.23702
#
# Static dielectric constant tensor:
#      x y z
#    x 1.698230 -0.000020 0.029360 
#    y -0.000020 1.607800 -0.000020 
#    z 0.029360 -0.000020 1.691510 
# 
# From -- ./inp_files/318316.got.cif
#   From: 2010.05.17/outbox.cif.g08.bks.cpg/sg12_160_cif.got.tgz:318316.got - 2010.06.03 13:09:07.
