data_PCOD9187958
_publ_section_title
;
Structure prediction by ZEFSAII (Michael W. Deem and Ramdas Pophale) SiO2 
 PCOD9187958
Probable space group: C 2/M
;
_chemical_formula_sum "Si O2"
_cell_formula_units_Z 44
_cell_length_a 28.237364
_cell_length_b 11.297136
_cell_length_c 17.740013
_cell_angle_alpha 90.000000
_cell_angle_beta 23.496748
_cell_angle_gamma 90.000000
_cell_volume 2256.261486
_symmetry_space_group_name_H-M "C 2/M"
_symmetry_group_IT_number 12
_symmetry_cell_setting 'monoclinic'
loop_
_space_group_symop_operation_xyz
x,y,z
-x,y,-z
-x,-y,-z
x,-y,z
1/2+x,1/2+y,z
1/2-x,1/2+y,-z
1/2-x,1/2-y,-z
1/2+x,1/2-y,z
loop_
_atom_site_type_symbol
_atom_site_label
_atom_site_fract_x
_atom_site_fract_y
_atom_site_fract_z
Si Si1 0.000000 0.724802 0.500000
Si Si2 0.588216 0.865034 0.809108
Si Si3 0.948408 0.304493 0.868322
Si Si4 0.705520 0.636632 0.283198
Si Si5 0.160296 0.634360 0.131826
Si Si6 0.658310 0.366057 0.529922
O O1 0.094201 0.808863 0.403624
O O2 0.072751 0.651875 0.330851
O O3 0.524430 0.870471 0.821829
O O4 0.719415 0.810622 0.616527
O O5 0.608891 0.000000 0.806237
O O6 0.500000 0.809346 0.000000
O O7 0.915332 0.359180 0.835461
O O8 0.034098 0.195052 0.727776
O O9 0.820772 0.287289 0.093430
O O10 0.729146 0.500000 0.225826
O O11 0.679773 0.636519 0.409067
O O12 0.214282 0.500000 0.056820
O O13 0.250000 0.750000 0.000000
O O14 0.649108 0.500000 0.571474
#
# Coordination Sequence:
#
# PCOD9187958 Si02
#       6
#     4   8   8   8   8   8
#     4  12  24  44  62  94 131 166 211 272 333 374
#     4  10  19  35  63  94 124 158 205 265 318 377
#     4  12  22  39  65  94 123 165 218 261 313 382
#     4  11  22  39  64  95 126 164 217 269 317 382
#     4  12  27  44  66  95 130 171 219 268 325 388
#     4  10  22  39  61  94 129 165 209 261 323 381
#
# _framework density 19.501286
#
# number of rings (size 3 to 8) (size 9 to 14) (size 15 to 20)
#    0.000    0.909    5.455    2.727    0.000    1.455 
#    0.000    0.000    0.000    0.545    0.000    0.000 
#    0.000    0.000    0.000    0.000    0.000    0.000 
#
# Total GULP energy -122595.462194 kJ/mol
# GULP energy per Si atom -5572.521009 kJ/mol
# Density = 1.945690 g / cm^3
# Si number density = 19.501286 Si / 1000 Ang^3
#
#
#
# Elastic Constant Matrix: (Units=GPa)
#
#
# Indices 1 2 3 4 5 6 
#
# 1 111.4343 35.7965 24.2180 0.0000 -17.2318 0.0000
# 2 35.7965 78.0090 69.3842 0.0000 -3.0414 0.0000
# 3 24.2180 69.3842 128.1050 0.0000 -11.3685 0.0000
# 4 0.0000 0.0000 0.0000 135.4761 0.0000 94.9773
# 5 -17.2318 -3.0414 -11.3685 0.0000 42.4350 0.0000
# 6 0.0000 0.0000 0.0000 94.9773 0.0000 105.8766
#
#
#
# Elastic Compliance Matrix: (Units=1/GPa)
#
#
# Indices 1 2 3 4 5 6 
#
# 1 0.011461 -0.006790 0.001927 0.000000 0.004683 0.000000
# 2 -0.006790 0.028902 -0.014782 0.000000 -0.004646 0.000000
# 3 0.001927 -0.014782 0.015799 0.000000 0.003956 0.000000
# 4 0.000000 0.000000 0.000000 0.019890 0.000000 -0.017843
# 5 0.004683 -0.004646 0.003956 0.000000 0.026194 0.000000
# 6 0.000000 0.000000 0.000000 -0.017843 0.000000 0.025451
#
#
# Mechanical properties :
#
#
# Convention : Reuss Voigt Hill
#
# Bulk Modulus (GPa) = 59.27665 64.03841 61.65753
# Shear Modulus (GPa) = 28.96678 69.30085 49.13381
#
# Velocity S-wave (km/s) = 3.85824 5.96772 5.02492
# Velocity P-wave (km/s) = 7.09298 8.96629 8.08408
#
# Compressibility (1/GPa) = 0.01687005
#
# Stress axis : x y z
#
# Youngs Moduli (GPa) = 87.25561 34.60001 63.29375
#
# Poissons Ratio (x) = 0.23493 -0.12194
# Poissons Ratio (y) = 0.59247 0.93563
# Poissons Ratio (z) = -0.16811 0.51147
#
# Static dielectric constant tensor:
#      x y z
#    x 1.696190 0.000000 0.000840 
#    y 0.000000 1.707960 0.000000 
#    z 0.000840 0.000000 1.716690 
# 
# From -- ./inp_files/296385.got.cif
#   From: 2010.05.17/outbox.cif.g08.bks.cpg/sg12_149_cif.got.tgz:296385.got - 2010.06.03 13:09:07.
