data_PCOD9187966
_publ_section_title
;
Structure prediction by ZEFSAII (Michael W. Deem and Ramdas Pophale) SiO2 
 PCOD9187966
Probable space group: C 2/M
;
_chemical_formula_sum "Si O2"
_cell_formula_units_Z 32
_cell_length_a 18.765619
_cell_length_b 8.143909
_cell_length_c 19.905309
_cell_angle_alpha 90.000000
_cell_angle_beta 31.908551
_cell_angle_gamma 90.000000
_cell_volume 1607.915267
_symmetry_space_group_name_H-M "C 2/M"
_symmetry_group_IT_number 12
_symmetry_cell_setting 'monoclinic'
loop_
_space_group_symop_operation_xyz
x,y,z
-x,y,-z
-x,-y,-z
x,-y,z
1/2+x,1/2+y,z
1/2-x,1/2+y,-z
1/2-x,1/2-y,-z
1/2+x,1/2-y,z
loop_
_atom_site_type_symbol
_atom_site_label
_atom_site_fract_x
_atom_site_fract_y
_atom_site_fract_z
Si Si1 0.571343 0.812334 0.073787
Si Si2 0.850078 0.500000 0.592090
Si Si3 0.873989 0.314999 0.444303
Si Si4 0.373673 0.310417 0.824484
Si Si5 0.573312 0.500000 0.870372
O O1 0.720983 0.777370 0.923887
O O2 0.531613 0.000000 0.088691
O O3 0.592047 0.796424 0.137465
O O4 0.474516 0.666356 0.128540
O O5 0.835050 0.344922 0.553061
O O6 0.735062 0.500000 0.739573
O O7 0.000000 0.500000 0.500000
O O8 0.904377 0.500000 0.395995
O O9 0.750000 0.250000 0.500000
O O10 0.009651 0.214815 0.323205
O O11 0.375200 0.500000 0.845781
O O12 0.500000 0.500000 0.000000
#
# Coordination Sequence:
#
# PCOD9187966 Si02
#       5
#     8   4   8   8   4
#     4  10  22  38  63  99 132 165 220 279 327 388
#     4  10  26  44  62  98 139 177 224 271 339 417
#     4  10  21  35  65  88 130 171 222 267 333 391
#     4  10  19  35  63  99 133 159 213 280 338 387
#     4  12  26  42  72  88 134 183 224 262 331 401
#
# _framework density 19.901547999999998
#
# number of rings (size 3 to 8) (size 9 to 14) (size 15 to 20)
#    0.750    1.000    1.250    3.000    7.000    0.500 
#    0.000    1.250    0.000    3.750    0.000    0.000 
#    0.000    0.000    0.000    0.000    0.000    0.000 
#
# Total GULP energy -89203.718265 kJ/mol
# GULP energy per Si atom -5575.232392 kJ/mol
# Density = 1.985625 g / cm^3
# Si number density = 19.901548 Si / 1000 Ang^3
#
#
#
# Elastic Constant Matrix: (Units=GPa)
#
#
# Indices 1 2 3 4 5 6 
#
# 1 52.4574 22.4568 22.6284 0.0000 -10.0308 0.0000
# 2 22.4568 92.2418 16.3455 0.0000 -17.9289 0.0000
# 3 22.6284 16.3455 137.3071 0.0000 -11.4701 0.0000
# 4 0.0000 0.0000 0.0000 30.3583 0.0000 -0.1570
# 5 -10.0308 -17.9289 -11.4701 0.0000 26.2109 0.0000
# 6 0.0000 0.0000 0.0000 -0.1570 0.0000 13.2138
#
#
#
# Elastic Compliance Matrix: (Units=1/GPa)
#
#
# Indices 1 2 3 4 5 6 
#
# 1 0.022996 -0.004176 -0.002902 0.000000 0.004674 0.000000
# 2 -0.004176 0.013348 -0.000282 0.000000 0.007409 0.000000
# 3 -0.002902 -0.000282 0.007978 0.000000 0.002188 0.000000
# 4 0.000000 0.000000 0.000000 0.032942 0.000000 0.000391
# 5 0.004674 0.007409 0.002188 0.000000 0.045966 0.000000
# 6 0.000000 0.000000 0.000000 0.000391 0.000000 0.075683
#
#
# Mechanical properties :
#
#
# Convention : Reuss Voigt Hill
#
# Bulk Modulus (GPa) = 33.78183 44.98531 39.38357
# Shear Modulus (GPa) = 22.37136 28.66163 25.51649
#
# Velocity S-wave (km/s) = 3.35640 3.79908 3.58458
# Velocity P-wave (km/s) = 5.65967 6.47279 6.07984
#
# Compressibility (1/GPa) = 0.02960171
#
# Stress axis : x y z
#
# Youngs Moduli (GPa) = 43.48495 74.91939 125.35197
#
# Poissons Ratio (x) = 0.31285 0.36381
# Poissons Ratio (y) = 0.18159 0.03533
# Poissons Ratio (z) = 0.12621 0.02112
#
# Static dielectric constant tensor:
#      x y z
#    x 1.713380 0.000000 0.017630 
#    y 0.000000 1.826570 0.000000 
#    z 0.017630 0.000000 1.833520 
# 
# From -- ./inp_files/318944.got.cif
#   From: 2010.05.17/outbox.cif.g08.bks.cpg/sg12_160_cif.got.tgz:318944.got - 2010.06.03 13:09:07.
