data_PCOD9187225
_publ_section_title
;
Structure prediction by ZEFSAII (Michael W. Deem and Ramdas Pophale) SiO2 
 PCOD9187225
Probable space group: C 2/M
;
_chemical_formula_sum "Si O2"
_cell_formula_units_Z 64
_cell_length_a 31.908649
_cell_length_b 7.752134
_cell_length_c 26.789361
_cell_angle_alpha 90.000000
_cell_angle_beta 27.164987
_cell_angle_gamma 90.000000
_cell_volume 3025.411860
_symmetry_space_group_name_H-M "C 2/M"
_symmetry_group_IT_number 12
_symmetry_cell_setting 'monoclinic'
loop_
_space_group_symop_operation_xyz
x,y,z
-x,y,-z
-x,-y,-z
x,-y,z
1/2+x,1/2+y,z
1/2-x,1/2+y,-z
1/2-x,1/2-y,-z
1/2+x,1/2-y,z
loop_
_atom_site_type_symbol
_atom_site_label
_atom_site_fract_x
_atom_site_fract_y
_atom_site_fract_z
Si Si1 0.382023 0.700124 0.757967
Si Si2 0.680700 0.698796 0.996999
Si Si3 0.651896 0.707236 0.626989
Si Si4 0.888649 0.202829 0.218566
Si Si5 0.530561 0.712241 0.235649
Si Si6 0.901108 0.788810 0.625273
Si Si7 0.281657 0.208704 0.236450
Si Si8 0.592539 0.199923 0.987846
O O1 0.408435 0.500000 0.724778
O O2 0.277726 0.709152 0.887925
O O3 0.446822 0.773369 0.732586
O O4 0.386694 0.773922 0.697297
O O5 0.701291 0.500000 0.986906
O O6 0.612424 0.767119 0.111768
O O7 0.627254 0.708147 0.001025
O O8 0.645430 0.500000 0.635490
O O9 0.750000 0.750000 0.500000
O O10 0.639447 0.770065 0.697056
O O11 0.566604 0.768900 0.683773
O O12 0.810884 0.228207 0.259681
O O13 0.983283 0.287365 0.100083
O O14 0.908577 0.000000 0.202116
O O15 0.531368 0.500000 0.234653
O O16 0.817169 0.734022 0.679077
O O17 0.000000 0.736973 0.500000
O O18 0.898006 0.000000 0.628961
O O19 0.282800 0.000000 0.237061
O O20 0.356561 0.264493 0.115639
O O21 0.619830 0.000000 0.965088
#
# Coordination Sequence:
#
# PCOD9187225 Si02
#       8
#     8   8   8   8   8   8   8   8
#     4  10  19  35  58  84 111 146 188 232 280 335
#     4  11  20  34  56  84 118 151 181 226 286 346
#     4  10  22  41  59  82 114 150 193 239 281 331
#     4  11  23  39  59  85 118 152 186 231 288 346
#     4   9  19  36  58  82 113 147 184 231 284 339
#     4   9  18  34  56  82 110 144 190 238 277 322
#     4  10  21  37  57  86 117 146 190 240 279 333
#     4  11  21  36  59  87 116 149 189 236 282 336
#
# _framework density 21.154143000000001
#
# number of rings (size 3 to 8) (size 9 to 14) (size 15 to 20)
#    0.000    1.875    2.500    1.875    0.000    4.500 
#    0.000    3.750    0.000    1.500    0.000    0.000 
#    0.000    0.000    0.000    0.000    0.000    0.000 
#
# Total GULP energy -178816.297704 kJ/mol
# GULP energy per Si atom -5588.009303 kJ/mol
# Density = 2.110600 g / cm^3
# Si number density = 21.154143 Si / 1000 Ang^3
#
#
#
# Elastic Constant Matrix: (Units=GPa)
#
#
# Indices 1 2 3 4 5 6 
#
# 1 184.4472 -5.4997 69.6979 0.0106 -16.7642 -0.0079
# 2 -5.4997 32.3570 -6.3298 0.0072 0.9463 -0.0036
# 3 69.6979 -6.3298 124.1372 0.0175 -25.5185 -0.0027
# 4 0.0106 0.0072 0.0175 15.5699 -0.0105 1.8296
# 5 -16.7642 0.9463 -25.5185 -0.0105 9.4949 0.0006
# 6 -0.0079 -0.0036 -0.0027 1.8296 0.0006 14.0191
#
#
#
# Elastic Compliance Matrix: (Units=1/GPa)
#
#
# Indices 1 2 3 4 5 6 
#
# 1 0.006955 0.000467 -0.003053 0.000001 0.004028 0.000003
# 2 0.000467 0.031277 0.001925 -0.000016 0.002880 0.000011
# 3 -0.003053 0.001925 0.019486 0.000011 0.046788 -0.000001
# 4 0.000001 -0.000016 0.000011 0.065227 0.000106 -0.008513
# 5 0.004028 0.002880 0.046788 0.000106 0.237890 -0.000012
# 6 0.000003 0.000011 -0.000001 -0.008513 -0.000012 0.072442
#
#
# Mechanical properties :
#
#
# Convention : Reuss Voigt Hill
#
# Bulk Modulus (GPa) = 17.73212 50.74202 34.23707
# Shear Modulus (GPa) = 11.02779 26.68830 18.85805
#
# Velocity S-wave (km/s) = 2.28569 3.55577 2.98897
# Velocity P-wave (km/s) = 3.92000 6.39507 5.30393
#
# Compressibility (1/GPa) = 0.05639485
#
# Stress axis : x y z
#
# Youngs Moduli (GPa) = 143.77305 31.97253 51.31850
#
# Poissons Ratio (x) = -0.01493 0.15670
# Poissons Ratio (y) = -0.06716 -0.09877
# Poissons Ratio (z) = 0.43900 -0.06153
#
# Static dielectric constant tensor:
#      x y z
#    x 1.753660 -0.000010 0.011110 
#    y -0.000010 1.819820 0.000020 
#    z 0.011110 0.000020 1.721060 
# 
# From -- ./inp_files/248982.got.cif
#   From: 2010.05.17/outbox.cif.g08.bks.cpg/sg12_125_cif.got.tgz:248982.got - 2010.06.03 13:09:07.
