data_PCOD9187647
_publ_section_title
;
Structure prediction by ZEFSAII (Michael W. Deem and Ramdas Pophale) SiO2 
 PCOD9187647
Probable space group: C 2/M
;
_chemical_formula_sum "Si O2"
_cell_formula_units_Z 56
_cell_length_a 20.435150
_cell_length_b 7.919248
_cell_length_c 29.305037
_cell_angle_alpha 90.000000
_cell_angle_beta 142.153532
_cell_angle_gamma 90.000000
_cell_volume 2909.727831
_symmetry_space_group_name_H-M "C 2/M"
_symmetry_group_IT_number 12
_symmetry_cell_setting 'monoclinic'
loop_
_space_group_symop_operation_xyz
x,y,z
-x,y,-z
-x,-y,-z
x,-y,z
1/2+x,1/2+y,z
1/2-x,1/2+y,-z
1/2-x,1/2-y,-z
1/2+x,1/2-y,z
loop_
_atom_site_type_symbol
_atom_site_label
_atom_site_fract_x
_atom_site_fract_y
_atom_site_fract_z
Si Si1 0.174583 0.796051 0.867916
Si Si2 0.462925 0.297338 0.122338
Si Si3 0.944504 0.500000 0.535025
Si Si4 0.669116 0.193424 0.290363
Si Si5 0.828667 0.500000 0.373661
Si Si6 0.415719 0.203844 0.992129
Si Si7 0.132202 0.810218 0.448649
Si Si8 0.470596 0.197601 0.697498
O O1 0.292886 0.735557 0.920043
O O2 0.132706 0.744198 0.895548
O O3 0.084142 0.737905 0.782767
O O4 0.176435 0.000000 0.868721
O O5 0.472602 0.500000 0.131397
O O6 0.570468 0.215793 0.201338
O O7 0.447231 0.249648 0.061226
O O8 0.885940 0.500000 0.454240
O O9 0.909122 0.670752 0.539777
O O10 0.071940 0.500000 0.605138
O O11 0.756839 0.333911 0.329136
O O12 0.617289 0.227845 0.311514
O O13 0.707533 0.000000 0.310146
O O14 0.414124 0.000000 0.987839
O O15 0.500000 0.264777 0.000000
O O16 0.250000 0.750000 0.500000
O O17 0.059554 0.802263 0.363419
O O18 0.135551 0.000000 0.468876
O O19 0.466200 0.000000 0.682873
#
# Coordination Sequence:
#
# PCOD9187647 Si02
#       8
#     8   8   4   8   4   8   8   8
#     4   9  19  35  56  83 115 158 203 259 313 360
#     4  10  19  35  60  87 113 153 212 257 303 363
#     4  11  26  44  62  96 127 165 209 246 315 377
#     4  10  21  38  65  94 121 163 206 255 308 362
#     4  11  24  44  66  88 130 167 203 255 300 376
#     4  10  21  37  54  80 120 160 201 252 313 376
#     4  12  23  40  65  94 128 163 205 260 315 366
#     4  10  20  36  61  93 123 155 208 260 313 370
#
# _framework density 19.245785999999999
#
# number of rings (size 3 to 8) (size 9 to 14) (size 15 to 20)
#    0.000    1.714    2.143    2.143    2.000    3.714 
#    2.571    1.429    0.000    0.000    0.000    0.000 
#    0.000    0.000    0.000    0.000    0.000    0.000 
#
# Total GULP energy -156378.997279 kJ/mol
# GULP energy per Si atom -5584.964189 kJ/mol
# Density = 1.920198 g / cm^3
# Si number density = 19.245786 Si / 1000 Ang^3
#
#
#
# Elastic Constant Matrix: (Units=GPa)
#
#
# Indices 1 2 3 4 5 6 
#
# 1 96.2716 46.4228 36.6273 0.0000 27.6868 0.0002
# 2 46.4228 91.8260 11.8997 0.0002 24.2119 0.0001
# 3 36.6273 11.8997 53.8740 0.0000 15.4909 0.0000
# 4 0.0000 0.0002 0.0000 34.2965 0.0000 6.9082
# 5 27.6868 24.2119 15.4909 0.0000 34.7407 0.0000
# 6 0.0002 0.0001 0.0000 6.9082 0.0000 40.8026
#
#
#
# Elastic Compliance Matrix: (Units=1/GPa)
#
#
# Indices 1 2 3 4 5 6 
#
# 1 0.019142 -0.006785 -0.009737 0.000000 -0.006185 0.000000
# 2 -0.006785 0.015751 0.003138 0.000000 -0.006969 0.000000
# 3 -0.009737 0.003138 0.026252 0.000000 -0.006132 0.000000
# 4 0.000000 0.000000 0.000000 0.030187 0.000000 -0.005111
# 5 -0.006185 -0.006969 -0.006132 0.000000 0.041306 0.000000
# 6 0.000000 0.000000 0.000000 -0.005111 0.000000 0.025374
#
#
# Mechanical properties :
#
#
# Convention : Reuss Voigt Hill
#
# Bulk Modulus (GPa) = 29.08911 47.98566 38.53739
# Shear Modulus (GPa) = 25.47907 31.76944 28.62425
#
# Velocity S-wave (km/s) = 3.64246 4.06732 3.86074
# Velocity P-wave (km/s) = 5.73039 6.85891 6.31989
#
# Compressibility (1/GPa) = 0.03437712
#
# Stress axis : x y z
#
# Youngs Moduli (GPa) = 52.24023 63.48706 38.09216
#
# Poissons Ratio (x) = 0.43074 0.37091
# Poissons Ratio (y) = 0.35444 -0.11952
# Poissons Ratio (z) = 0.50867 -0.19920
#
# Static dielectric constant tensor:
#      x y z
#    x 1.669760 0.000000 0.002630 
#    y 0.000000 1.733620 0.000000 
#    z 0.002630 0.000000 1.661120 
# 
# From -- ./inp_files/363256.got.cif
#   From: 2010.05.17/outbox.cif.g08.bks.cpg/sg12_182_cif.got.tgz:363256.got - 2010.06.03 13:09:07.
