data_PCOD9187107
_publ_section_title
;
Structure prediction by ZEFSAII (Michael W. Deem and Ramdas Pophale) SiO2 
 PCOD9187107
Probable space group: C 2/M
;
_chemical_formula_sum "Si O2"
_cell_formula_units_Z 64
_cell_length_a 15.039681
_cell_length_b 19.257698
_cell_length_c 30.983280
_cell_angle_alpha 90.000000
_cell_angle_beta 159.417354
_cell_angle_gamma 90.000000
_cell_volume 3154.768638
_symmetry_space_group_name_H-M "C 2/M"
_symmetry_group_IT_number 12
_symmetry_cell_setting 'monoclinic'
loop_
_space_group_symop_operation_xyz
x,y,z
-x,y,-z
-x,-y,-z
x,-y,z
1/2+x,1/2+y,z
1/2-x,1/2+y,-z
1/2-x,1/2-y,-z
1/2+x,1/2-y,z
loop_
_atom_site_type_symbol
_atom_site_label
_atom_site_fract_x
_atom_site_fract_y
_atom_site_fract_z
Si Si1 0.775809 0.800037 0.133599
Si Si2 0.492354 0.277686 0.137586
Si Si3 0.538916 0.672681 0.640926
Si Si4 0.226465 0.166103 0.390735
Si Si5 0.463652 0.421586 0.080391
Si Si6 0.186073 0.353450 0.821118
Si Si7 0.534752 0.078703 0.194875
Si Si8 0.296300 0.323825 0.438634
O O1 0.906035 0.779506 0.147873
O O2 0.725340 0.726788 0.135866
O O3 0.973906 0.849243 0.248546
O O4 0.500000 0.831725 0.000000
O O5 0.746302 0.230490 0.249355
O O6 0.539225 0.357002 0.144456
O O7 0.250000 0.250000 0.000000
O O8 0.348458 0.657941 0.593435
O O9 0.392820 0.690518 0.530386
O O10 0.699976 0.605191 0.701857
O O11 0.500000 0.137471 0.500000
O O12 0.247244 0.249502 0.393838
O O13 0.525869 0.500000 0.122523
O O14 0.592346 0.403966 0.092807
O O15 0.165954 0.416919 0.935166
O O16 0.059883 0.373815 0.808868
O O17 0.969549 0.361386 0.686415
O O18 0.542994 0.000000 0.214113
O O19 0.500000 0.359984 0.500000
#
# Coordination Sequence:
#
# PCOD9187107 Si02
#       8
#     8   8   8   8   8   8   8   8
#     4  11  21  34  59  93 125 156 205 264 303 365
#     4  12  20  36  62  93 125 161 211 263 320 379
#     4  12  21  38  62  88 121 164 211 259 315 374
#     4  10  22  36  55  85 120 155 205 261 324 362
#     4  11  24  38  59  91 133 170 204 256 324 392
#     4  11  19  37  57  89 129 168 203 239 314 389
#     4  11  22  37  59  88 126 167 205 255 320 391
#     4  10  19  35  57  89 125 160 199 256 309 376
#
# _framework density 20.286749
#
# number of rings (size 3 to 8) (size 9 to 14) (size 15 to 20)
#    0.000    1.000    3.750    6.375    0.000    2.000 
#    0.000    1.875    0.000    1.500    0.000    0.000 
#    0.000    6.500    0.000    0.000    0.000    0.000 
#
# Total GULP energy -178592.334686 kJ/mol
# GULP energy per Si atom -5581.010459 kJ/mol
# Density = 2.024058 g / cm^3
# Si number density = 20.286749 Si / 1000 Ang^3
#
#
#
# Elastic Constant Matrix: (Units=GPa)
#
#
# Indices 1 2 3 4 5 6 
#
# 1 96.1933 11.0925 35.0797 -0.0068 2.9871 0.0027
# 2 11.0925 54.3660 8.8153 0.0046 -5.2162 0.0021
# 3 35.0797 8.8153 125.2375 -0.0153 -2.8710 0.0153
# 4 -0.0068 0.0046 -0.0153 11.4029 0.0058 -1.0959
# 5 2.9871 -5.2162 -2.8710 0.0058 36.2096 0.0002
# 6 0.0027 0.0021 0.0153 -1.0959 0.0002 17.2849
#
#
#
# Elastic Compliance Matrix: (Units=1/GPa)
#
#
# Indices 1 2 3 4 5 6 
#
# 1 0.011850 -0.002044 -0.003210 0.000005 -0.001526 0.000002
# 2 -0.002044 0.019203 -0.000713 -0.000012 0.002878 -0.000002
# 3 -0.003210 -0.000713 0.008954 0.000009 0.000872 -0.000007
# 4 0.000005 -0.000012 0.000009 0.088235 -0.000015 0.005594
# 5 -0.001526 0.002878 0.000872 -0.000015 0.028227 -0.000002
# 6 0.000002 -0.000002 -0.000007 0.005594 -0.000002 0.058209
#
#
# Mechanical properties :
#
#
# Convention : Reuss Voigt Hill
#
# Bulk Modulus (GPa) = 35.62250 42.86353 39.24302
# Shear Modulus (GPa) = 21.18932 27.70011 24.44472
#
# Velocity S-wave (km/s) = 3.23536 3.69918 3.47502
# Velocity P-wave (km/s) = 5.61733 6.27853 5.95711
#
# Compressibility (1/GPa) = 0.02807214
#
# Stress axis : x y z
#
# Youngs Moduli (GPa) = 84.39163 52.07621 111.67896
#
# Poissons Ratio (x) = 0.10642 0.35852
# Poissons Ratio (y) = 0.17246 0.07965
# Poissons Ratio (z) = 0.27092 0.03714
#
# Static dielectric constant tensor:
#      x y z
#    x 1.743300 0.000000 0.010840 
#    y 0.000000 1.696050 -0.000010 
#    z 0.010840 -0.000010 1.809110 
# 
# From -- ./inp_files/377106.got.cif
#   From: 2010.05.17/outbox.cif.g08.bks.cpg/sg12_189_cif.got.tgz:377106.got - 2010.06.03 13:09:07.
