data_PCOD9187580
_publ_section_title
;
Structure prediction by ZEFSAII (Michael W. Deem and Ramdas Pophale) SiO2 
 PCOD9187580
Probable space group: C 2/M
;
_chemical_formula_sum "Si O2"
_cell_formula_units_Z 56
_cell_length_a 14.391291
_cell_length_b 18.735246
_cell_length_c 17.365804
_cell_angle_alpha 90.000000
_cell_angle_beta 134.461457
_cell_angle_gamma 90.000000
_cell_volume 3341.819636
_symmetry_space_group_name_H-M "C 2/M"
_symmetry_group_IT_number 12
_symmetry_cell_setting 'monoclinic'
loop_
_space_group_symop_operation_xyz
x,y,z
-x,y,-z
-x,-y,-z
x,-y,z
1/2+x,1/2+y,z
1/2-x,1/2+y,-z
1/2-x,1/2-y,-z
1/2+x,1/2-y,z
loop_
_atom_site_type_symbol
_atom_site_label
_atom_site_fract_x
_atom_site_fract_y
_atom_site_fract_z
Si Si1 0.558639 0.081938 0.796195
Si Si2 0.252691 0.357106 0.795480
Si Si3 0.219831 0.826826 0.017772
Si Si4 0.101402 0.827310 0.374377
Si Si5 0.604978 0.729339 0.626197
Si Si6 0.803452 0.326338 0.625932
Si Si7 0.024571 0.084421 0.185109
O O1 0.641660 0.090747 0.765239
O O2 0.649091 0.125442 0.908274
O O3 0.421720 0.120525 0.706728
O O4 0.545526 0.000000 0.809260
O O5 0.308685 0.322299 0.906866
O O6 0.182112 0.296574 0.704597
O O7 0.363417 0.396425 0.811772
O O8 0.250000 0.750000 0.000000
O O9 0.102232 0.868837 0.909794
O O10 0.140177 0.753536 0.354256
O O11 0.218661 0.844344 0.501127
O O12 0.074143 0.888054 0.296629
O O13 0.975632 0.808846 0.353159
O O14 0.500000 0.752046 0.500000
O O15 0.706193 0.678163 0.641531
O O16 0.997505 0.000000 0.167987
#
# Coordination Sequence:
#
# PCOD9187580 Si02
#       7
#     8   8   8   8   8   8   8
#     4  10  21  36  55  83 117 148 184 231 290 348
#     4  10  21  33  58  87 116 147 187 232 292 349
#     4  10  22  38  58  81 114 150 195 235 277 340
#     4  10  20  36  57  86 112 153 196 235 279 340
#     4  10  19  35  60  87 114 147 195 245 282 331
#     4  10  19  35  60  82 116 149 192 240 284 333
#     4  12  23  37  57  86 123 154 186 236 297 349
#
# _framework density 16.757337
#
# number of rings (size 3 to 8) (size 9 to 14) (size 15 to 20)
#    0.857    0.857    2.857    3.000    0.000    1.143 
#    0.000    0.714    0.000    5.143    0.000    3.000 
#    0.000    0.000    0.000    0.000    0.000    0.000 
#
# Total GULP energy -156082.848729 kJ/mol
# GULP energy per Si atom -5574.387455 kJ/mol
# Density = 1.671920 g / cm^3
# Si number density = 16.757337 Si / 1000 Ang^3
#
#
#
# Elastic Constant Matrix: (Units=GPa)
#
#
# Indices 1 2 3 4 5 6 
#
# 1 86.6308 30.0667 31.5239 0.0000 9.3602 0.0000
# 2 30.0667 95.7242 51.8175 0.0000 17.0897 0.0000
# 3 31.5239 51.8175 75.7379 0.0000 18.1493 0.0000
# 4 0.0000 0.0000 0.0000 11.6999 0.0000 -2.2527
# 5 9.3602 17.0897 18.1493 0.0000 30.6896 0.0000
# 6 0.0000 0.0000 0.0000 -2.2527 0.0000 12.6340
#
#
#
# Elastic Compliance Matrix: (Units=1/GPa)
#
#
# Indices 1 2 3 4 5 6 
#
# 1 0.013839 -0.001904 -0.004311 0.000000 -0.000611 0.000000
# 2 -0.001904 0.017085 -0.010201 0.000000 -0.002900 0.000000
# 3 -0.004311 -0.010201 0.023653 0.000000 -0.006992 0.000000
# 4 0.000000 0.000000 0.000000 0.088510 0.000000 0.015781
# 5 -0.000611 -0.002900 -0.006992 0.000000 0.038521 0.000000
# 6 0.000000 0.000000 0.000000 0.015781 0.000000 0.081965
#
#
# Mechanical properties :
#
#
# Convention : Reuss Voigt Hill
#
# Bulk Modulus (GPa) = 45.99042 53.87880 49.93461
# Shear Modulus (GPa) = 16.46621 20.65035 18.55828
#
# Velocity S-wave (km/s) = 3.13809 3.51425 3.33148
# Velocity P-wave (km/s) = 6.37453 6.97773 6.68294
#
# Compressibility (1/GPa) = 0.02174366
#
# Stress axis : x y z
#
# Youngs Moduli (GPa) = 72.26069 58.53197 42.27837
#
# Poissons Ratio (x) = 0.11145 0.18226
# Poissons Ratio (y) = 0.13759 0.43130
# Poissons Ratio (z) = 0.31151 0.59710
#
# Static dielectric constant tensor:
#      x y z
#    x 1.572280 0.000000 -0.003710 
#    y 0.000000 1.525490 0.000000 
#    z -0.003710 0.000000 1.569090 
# 
# From -- ./inp_files/271464.got.cif
#   From: 2010.05.17/outbox.cif.g08.bks.cpg/sg12_136_cif.got.tgz:271464.got - 2010.06.03 13:09:07.
