data_PCOD9187534
_publ_section_title
;
Structure prediction by ZEFSAII (Michael W. Deem and Ramdas Pophale) SiO2 
 PCOD9187534
Probable space group: C 2/M
;
_chemical_formula_sum "Si O2"
_cell_formula_units_Z 48
_cell_length_a 23.237499
_cell_length_b 13.834274
_cell_length_c 13.864311
_cell_angle_alpha 90.000000
_cell_angle_beta 29.350195
_cell_angle_gamma 90.000000
_cell_volume 2184.588979
_symmetry_space_group_name_H-M "C 2/M"
_symmetry_group_IT_number 12
_symmetry_cell_setting 'monoclinic'
loop_
_space_group_symop_operation_xyz
x,y,z
-x,y,-z
-x,-y,-z
x,-y,z
1/2+x,1/2+y,z
1/2-x,1/2+y,-z
1/2-x,1/2-y,-z
1/2+x,1/2-y,z
loop_
_atom_site_type_symbol
_atom_site_label
_atom_site_fract_x
_atom_site_fract_y
_atom_site_fract_z
Si Si1 0.315239 0.110954 0.128746
Si Si2 0.619492 0.324559 0.716342
Si Si3 0.147101 0.888447 0.886073
Si Si4 0.655225 0.727422 0.056070
Si Si5 0.147205 0.609335 0.707960
Si Si6 0.045183 0.888230 0.543877
O O1 0.377458 0.115553 0.141546
O O2 0.180503 0.142629 0.342313
O O3 0.310464 0.000000 0.105189
O O4 0.369914 0.175218 0.965970
O O5 0.671331 0.335748 0.749354
O O6 0.711995 0.377877 0.513104
O O7 0.605327 0.209546 0.720700
O O8 0.493569 0.374575 0.896819
O O9 0.176684 0.000000 0.832230
O O10 0.201065 0.843190 0.903654
O O11 0.540487 0.678817 0.269493
O O12 0.750000 0.750000 0.000000
O O13 0.114541 0.500000 0.722759
O O14 0.000000 0.887008 0.500000
O O15 0.038623 0.000000 0.587960
#
# Coordination Sequence:
#
# PCOD9187534 Si02
#       6
#     8   8   8   8   8   8
#     4  10  21  39  61  89 124 163 206 250 308 374
#     4  10  20  36  61  91 122 156 201 253 309 371
#     4  11  22  38  59  89 121 155 198 255 314 367
#     4  12  23  37  61  92 123 159 208 262 311 361
#     4  10  19  35  59  88 123 160 197 245 306 374
#     4  10  20  36  60  87 116 157 208 258 306 362
#
# _framework density 21.972097999999999
#
# number of rings (size 3 to 8) (size 9 to 14) (size 15 to 20)
#    0.000    1.500    3.333    3.500    0.000    2.000 
#    0.000    2.500    0.000    2.500    0.000    0.000 
#    0.000    0.000    0.000    0.000    0.000    0.000 
#
# Total GULP energy -134192.109078 kJ/mol
# GULP energy per Si atom -5591.337878 kJ/mol
# Density = 2.192209 g / cm^3
# Si number density = 21.972098 Si / 1000 Ang^3
#
#
#
# Elastic Constant Matrix: (Units=GPa)
#
#
# Indices 1 2 3 4 5 6 
#
# 1 113.1464 24.7992 33.6750 0.0000 6.4469 0.0000
# 2 24.7992 155.7073 46.0146 0.0000 11.7202 0.0000
# 3 33.6750 46.0146 88.9563 0.0000 11.1233 0.0000
# 4 0.0000 0.0000 0.0000 44.6059 0.0000 3.6620
# 5 6.4469 11.7202 11.1233 0.0000 33.7765 0.0000
# 6 0.0000 0.0000 0.0000 3.6620 0.0000 24.5434
#
#
#
# Elastic Compliance Matrix: (Units=1/GPa)
#
#
# Indices 1 2 3 4 5 6 
#
# 1 0.010013 -0.000533 -0.003440 0.000000 -0.000593 0.000000
# 2 -0.000533 0.007673 -0.003595 0.000000 -0.001377 0.000000
# 3 -0.003440 -0.003595 0.014774 0.000000 -0.002961 0.000000
# 4 0.000000 0.000000 0.000000 0.022697 0.000000 -0.003386
# 5 -0.000593 -0.001377 -0.002961 0.000000 0.031173 0.000000
# 6 0.000000 0.000000 0.000000 -0.003386 0.000000 0.041249
#
#
# Mechanical properties :
#
#
# Convention : Reuss Voigt Hill
#
# Bulk Modulus (GPa) = 57.72947 62.97638 60.35293
# Shear Modulus (GPa) = 33.67229 37.47324 35.57276
#
# Velocity S-wave (km/s) = 3.91897 4.13424 4.02804
# Velocity P-wave (km/s) = 6.84169 7.17729 7.01150
#
# Compressibility (1/GPa) = 0.01732217
#
# Stress axis : x y z
#
# Youngs Moduli (GPa) = 99.87295 130.32176 67.68765
#
# Poissons Ratio (x) = 0.06951 0.23287
# Poissons Ratio (y) = 0.05327 0.24334
# Poissons Ratio (z) = 0.34359 0.46852
#
# Static dielectric constant tensor:
#      x y z
#    x 1.841040 0.000000 -0.011680 
#    y 0.000000 1.799830 0.000000 
#    z -0.011680 0.000000 1.824190 
# 
# From -- ./inp_files/245842.got.cif
#   From: 2010.05.17/outbox.cif.g08.bks.cpg/sg12_123_cif.got.tgz:245842.got - 2010.06.03 13:09:07.
