data_PCOD9187405
_publ_section_title
;
Structure prediction by ZEFSAII (Michael W. Deem and Ramdas Pophale) SiO2 
 PCOD9187405
Probable space group: C 2/M
;
_chemical_formula_sum "Si O2"
_cell_formula_units_Z 64
_cell_length_a 20.912509
_cell_length_b 8.972373
_cell_length_c 19.506630
_cell_angle_alpha 90.000000
_cell_angle_beta 90.049482
_cell_angle_gamma 90.000000
_cell_volume 3660.121861
_symmetry_space_group_name_H-M "C 2/M"
_symmetry_group_IT_number 12
_symmetry_cell_setting 'monoclinic'
loop_
_space_group_symop_operation_xyz
x,y,z
-x,y,-z
-x,-y,-z
x,-y,z
1/2+x,1/2+y,z
1/2-x,1/2+y,-z
1/2-x,1/2-y,-z
1/2+x,1/2-y,z
loop_
_atom_site_type_symbol
_atom_site_label
_atom_site_fract_x
_atom_site_fract_y
_atom_site_fract_z
Si Si1 0.944403 0.178700 0.703625
Si Si2 0.051568 0.320294 0.442041
Si Si3 0.373295 0.178099 0.079719
Si Si4 0.755951 0.179108 0.840381
Si Si5 0.800651 0.321565 0.551134
Si Si6 0.305470 0.821599 0.708722
Si Si7 0.007415 0.821162 0.845099
Si Si8 0.120124 0.179181 0.069976
O O1 0.964344 0.244109 0.630334
O O2 0.875027 0.248181 0.719728
O O3 0.991458 0.215747 0.766260
O O4 0.938396 0.000000 0.700386
O O5 0.051157 0.500000 0.432881
O O6 0.124878 0.277849 0.460910
O O7 0.000000 0.281925 0.500000
O O8 0.306788 0.218340 0.116609
O O9 0.431619 0.239488 0.124577
O O10 0.376596 0.000000 0.074987
O O11 0.376839 0.246565 0.004041
O O12 0.759606 0.258293 0.767069
O O13 0.818827 0.221431 0.883968
O O14 0.757430 0.000000 0.830557
O O15 0.797396 0.500000 0.544153
O O16 0.750000 0.250000 0.500000
O O17 0.786065 0.284017 0.630634
O O18 0.310860 0.000000 0.713476
O O19 0.944936 0.782584 0.890172
O O20 0.016263 0.000000 0.850035
O O21 0.121440 0.000000 0.061758
#
# Coordination Sequence:
#
# PCOD9187405 Si02
#       8
#     8   8   8   8   8   8   8   8
#     4  10  19  35  59  84 110 145 189 230 270 326
#     4   9  19  37  58  82 114 146 183 229 275 323
#     4  11  24  37  53  83 116 143 180 233 280 325
#     4  10  21  39  58  80 111 146 186 226 274 330
#     4   9  19  35  55  82 111 143 179 219 269 321
#     4  10  20  35  58  85 111 143 186 230 273 323
#     4  10  21  38  58  79 109 149 185 224 277 331
#     4  10  20  38  61  79 104 145 188 226 274 335
#
# _framework density 17.485757
#
# number of rings (size 3 to 8) (size 9 to 14) (size 15 to 20)
#    0.000    2.125    1.250    2.625    0.000    7.250 
#    2.250    0.000    0.000    0.000    0.000    0.000 
#    0.000    0.000    0.000    0.000    0.000    0.000 
#
# Total GULP energy -178632.310661 kJ/mol
# GULP energy per Si atom -5582.259708 kJ/mol
# Density = 1.744596 g / cm^3
# Si number density = 17.485757 Si / 1000 Ang^3
#
#
#
# Elastic Constant Matrix: (Units=GPa)
#
#
# Indices 1 2 3 4 5 6 
#
# 1 67.1437 22.5109 45.1756 0.0000 7.9065 0.0000
# 2 22.5109 21.3832 37.3170 0.0000 2.1587 0.0000
# 3 45.1756 37.3170 126.2785 0.0000 4.2154 0.0000
# 4 0.0000 0.0000 0.0000 31.7301 0.0000 -2.2226
# 5 7.9065 2.1587 4.2154 0.0000 27.9925 0.0000
# 6 0.0000 0.0000 0.0000 -2.2226 0.0000 26.8506
#
#
#
# Elastic Compliance Matrix: (Units=1/GPa)
#
#
# Indices 1 2 3 4 5 6 
#
# 1 0.023951 -0.020762 -0.002272 0.000000 -0.004822 0.000000
# 2 -0.020762 0.114845 -0.026544 0.000000 0.001005 0.000000
# 3 -0.002272 -0.026544 0.016569 0.000000 0.000194 0.000000
# 4 0.000000 0.000000 0.000000 0.031700 0.000000 0.002624
# 5 -0.004822 0.001005 0.000194 0.000000 0.036979 0.000000
# 6 0.000000 0.000000 0.000000 0.002624 0.000000 0.037460
#
#
# Mechanical properties :
#
#
# Convention : Reuss Voigt Hill
#
# Bulk Modulus (GPa) = 17.79092 47.20137 32.49614
# Shear Modulus (GPa) = 13.17883 24.63475 18.90679
#
# Velocity S-wave (km/s) = 2.74832 3.75753 3.29183
# Velocity P-wave (km/s) = 4.50196 6.77334 5.75090
#
# Compressibility (1/GPa) = 0.05620846
#
# Stress axis : x y z
#
# Youngs Moduli (GPa) = 41.75274 8.70739 60.35238
#
# Poissons Ratio (x) = 0.18079 0.13710
# Poissons Ratio (y) = 0.86689 1.60200
# Poissons Ratio (z) = 0.09485 0.23113
#
# Static dielectric constant tensor:
#      x y z
#    x 1.577670 0.000000 -0.007910 
#    y 0.000000 1.585170 0.000000 
#    z -0.007910 0.000000 1.581300 
# 
# From -- ./inp_files/281242.got.cif
#   From: 2010.05.17/outbox.cif.g08.bks.cpg/sg12_141_cif.got.tgz:281242.got - 2010.06.03 13:09:07.
