data_PCOD9187376
_publ_section_title
;
Structure prediction by ZEFSAII (Michael W. Deem and Ramdas Pophale) SiO2 
 PCOD9187376
Probable space group: C 2/M
;
_chemical_formula_sum "Si O2"
_cell_formula_units_Z 56
_cell_length_a 14.579499
_cell_length_b 17.046576
_cell_length_c 14.525335
_cell_angle_alpha 90.000000
_cell_angle_beta 122.194555
_cell_angle_gamma 90.000000
_cell_volume 3054.931091
_symmetry_space_group_name_H-M "C 2/M"
_symmetry_group_IT_number 12
_symmetry_cell_setting 'monoclinic'
loop_
_space_group_symop_operation_xyz
x,y,z
-x,y,-z
-x,-y,-z
x,-y,z
1/2+x,1/2+y,z
1/2-x,1/2+y,-z
1/2-x,1/2-y,-z
1/2+x,1/2-y,z
loop_
_atom_site_type_symbol
_atom_site_label
_atom_site_fract_x
_atom_site_fract_y
_atom_site_fract_z
Si Si1 0.815470 0.735624 0.739600
Si Si2 0.113766 0.092128 0.007844
Si Si3 0.118351 0.306745 0.520401
Si Si4 0.970997 0.177138 0.213326
Si Si5 0.732587 0.228367 0.883299
Si Si6 0.570212 0.636038 0.445436
Si Si7 0.694618 0.087627 0.398857
O O1 0.712016 0.784855 0.644249
O O2 0.796907 0.723924 0.838637
O O3 0.821999 0.652933 0.689382
O O4 0.922198 0.786030 0.775468
O O5 0.090680 0.123544 0.893153
O O6 0.134802 0.000000 0.022754
O O7 0.215558 0.142053 0.099946
O O8 0.000000 0.107579 0.000000
O O9 0.110899 0.226246 0.457837
O O10 0.146407 0.376909 0.467197
O O11 0.000000 0.318480 0.500000
O O12 0.892429 0.249152 0.200456
O O13 0.001453 0.124695 0.317400
O O14 0.750000 0.250000 0.000000
O O15 0.500000 0.631119 0.500000
O O16 0.676629 0.585713 0.514243
O O17 0.655098 0.000000 0.356638
#
# Coordination Sequence:
#
# PCOD9187376 Si02
#       7
#     8   8   8   8   8   8   8
#     4  11  20  38  60  84 114 156 208 239 280 358
#     4  10  21  38  59  90 121 141 183 256 306 333
#     4  10  19  35  59  82 116 159 201 242 279 344
#     4  11  19  36  64  85 110 158 200 231 288 350
#     4  10  22  37  60  88 111 154 199 239 296 361
#     4  10  19  36  58  82 112 152 202 239 275 339
#     4  11  22  35  53  87 126 157 189 238 298 347
#
# _framework density 18.331018
#
# number of rings (size 3 to 8) (size 9 to 14) (size 15 to 20)
#    0.000    1.571    4.286    3.429    0.000    1.143 
#    0.000    7.143    0.000    0.000    0.000    6.000 
#    0.000    0.000    0.000    0.000    0.000    0.000 
#
# Total GULP energy -156068.123953 kJ/mol
# GULP energy per Si atom -5573.861570 kJ/mol
# Density = 1.828930 g / cm^3
# Si number density = 18.331018 Si / 1000 Ang^3
#
#
#
# Elastic Constant Matrix: (Units=GPa)
#
#
# Indices 1 2 3 4 5 6 
#
# 1 88.7211 30.6582 -1.3925 0.0000 -7.5526 0.0000
# 2 30.6582 91.1838 7.9410 0.0000 -8.9848 0.0000
# 3 -1.3925 7.9410 34.2067 0.0000 -24.0080 0.0000
# 4 0.0000 0.0000 0.0000 4.6747 0.0000 9.3894
# 5 -7.5526 -8.9848 -24.0080 0.0000 31.3922 0.0000
# 6 0.0000 0.0000 0.0000 9.3894 0.0000 9.8197
#
#
#
# Elastic Compliance Matrix: (Units=1/GPa)
#
#
# Indices 1 2 3 4 5 6 
#
# 1 0.013482 -0.004413 0.006397 0.000000 0.006873 0.000000
# 2 -0.004413 0.012739 -0.002856 0.000000 0.000400 0.000000
# 3 0.006397 -0.002856 0.066194 0.000000 0.051345 0.000000
# 4 0.000000 0.000000 0.000000 -0.232379 0.000000 0.222197
# 5 0.006873 0.000400 0.051345 0.000000 0.072891 0.000000
# 6 0.000000 0.000000 0.000000 0.222197 0.000000 -0.110625
#
#
# Mechanical properties :
#
#
# Convention : Reuss Voigt Hill
#
# Bulk Modulus (GPa) = 11.02897 32.05833 21.54365
# Shear Modulus (GPa) = -34.30969 20.97097 -6.66936
#
# Velocity S-wave (km/s) = -4.33098 3.38600 -1.90950
# Velocity P-wave (km/s) = 4.35663 5.72828 2.62992
#
# Compressibility (1/GPa) = 0.09067031
#
# Stress axis : x y z
#
# Youngs Moduli (GPa) = 74.17539 78.50113 15.10705
#
# Poissons Ratio (x) = 0.34640 -0.09664
# Poissons Ratio (y) = 0.32731 0.04315
# Poissons Ratio (z) = -0.47448 0.22421
#
# Static dielectric constant tensor:
#      x y z
#    x 1.657670 0.000000 -0.000770 
#    y 0.000000 1.634690 0.000000 
#    z -0.000770 0.000000 1.670470 
# 
# From -- ./inp_files/215999.got.cif
#   From: 2010.05.17/outbox.cif.g08.bks.cpg/sg12_108_cif.got.tgz:215999.got - 2010.06.03 13:09:07.
