data_PCOD9187919
_publ_section_title
;
Structure prediction by ZEFSAII (Michael W. Deem and Ramdas Pophale) SiO2 
 PCOD9187919
Probable space group: C 2/M
;
_chemical_formula_sum "Si O2"
_cell_formula_units_Z 44
_cell_length_a 13.574235
_cell_length_b 20.264496
_cell_length_c 8.870331
_cell_angle_alpha 90.000000
_cell_angle_beta 63.602227
_cell_angle_gamma 90.000000
_cell_volume 2185.584750
_symmetry_space_group_name_H-M "C 2/M"
_symmetry_group_IT_number 12
_symmetry_cell_setting 'monoclinic'
loop_
_space_group_symop_operation_xyz
x,y,z
-x,y,-z
-x,-y,-z
x,-y,z
1/2+x,1/2+y,z
1/2-x,1/2+y,-z
1/2-x,1/2-y,-z
1/2+x,1/2-y,z
loop_
_atom_site_type_symbol
_atom_site_label
_atom_site_fract_x
_atom_site_fract_y
_atom_site_fract_z
Si Si1 0.150753 0.926265 0.152065
Si Si2 0.000000 0.876271 0.000000
Si Si3 0.157213 0.424436 0.225925
Si Si4 0.225047 0.831048 0.347888
Si Si5 0.207543 0.816480 0.705618
Si Si6 0.437451 0.076274 0.202304
O O1 0.150998 0.870676 0.279601
O O2 0.051464 0.918181 0.101380
O O3 0.149689 0.000000 0.217916
O O4 0.262744 0.919546 0.975859
O O5 0.900993 0.832393 0.127529
O O6 0.168223 0.500000 0.273499
O O7 0.202648 0.371289 0.310842
O O8 0.032176 0.412930 0.261888
O O9 0.180883 0.823995 0.547413
O O10 0.250080 0.756187 0.283419
O O11 0.337940 0.873072 0.279280
O O12 0.399041 0.000000 0.239928
O O13 0.500000 0.082685 0.000000
#
# Coordination Sequence:
#
# PCOD9187919 Si02
#       6
#     8   4   8   8   8   8
#     4  10  20  38  63  88 116 156 202 250 296 353
#     4  10  23  42  62  82 117 160 206 248 297 352
#     4   9  19  37  61  88 121 155 194 245 301 362
#     4  11  23  39  60  89 125 154 198 252 300 354
#     4  10  25  41  57  88 122 161 202 246 295 359
#     4  10  19  35  62  94 119 149 192 243 304 363
#
# _framework density 20.131912
#
# number of rings (size 3 to 8) (size 9 to 14) (size 15 to 20)
#    0.000    2.000    1.818    0.818    1.273    8.000 
#    0.000    6.364    0.000    0.000    0.000    0.000 
#    0.000    0.000    0.000    0.000    0.000    0.000 
#
# Total GULP energy -122918.675457 kJ/mol
# GULP energy per Si atom -5587.212521 kJ/mol
# Density = 2.008609 g / cm^3
# Si number density = 20.131912 Si / 1000 Ang^3
#
#
#
# Elastic Constant Matrix: (Units=GPa)
#
#
# Indices 1 2 3 4 5 6 
#
# 1 103.3347 58.8136 12.0115 0.0000 19.5273 0.0000
# 2 58.8136 133.6811 35.4233 0.0000 16.9424 0.0000
# 3 12.0115 35.4233 28.2119 0.0000 7.9615 0.0000
# 4 0.0000 0.0000 0.0000 32.7711 0.0000 14.8349
# 5 19.5273 16.9424 7.9615 0.0000 17.9942 0.0000
# 6 0.0000 0.0000 0.0000 14.8349 0.0000 4.6053
#
#
#
# Elastic Compliance Matrix: (Units=1/GPa)
#
#
# Indices 1 2 3 4 5 6 
#
# 1 0.015124 -0.006428 0.005206 0.000000 -0.012663 0.000000
# 2 -0.006428 0.014342 -0.015344 0.000000 0.000262 0.000000
# 3 0.005206 -0.015344 0.057149 0.000000 -0.016488 0.000000
# 4 0.000000 0.000000 0.000000 -0.066595 0.000000 0.214521
# 5 -0.012663 0.000262 -0.016488 0.000000 0.076364 0.000000
# 6 0.000000 0.000000 0.000000 0.214521 0.000000 -0.473890
#
#
# Mechanical properties :
#
#
# Convention : Reuss Voigt Hill
#
# Bulk Modulus (GPa) = 18.69825 53.08049 35.88937
# Shear Modulus (GPa) = -15.31175 21.67275 3.18050
#
# Velocity S-wave (km/s) = -2.76084 3.28462 1.25828
# Velocity P-wave (km/s) = 0.92463 6.38816 4.46954
#
# Compressibility (1/GPa) = 0.05348094
#
# Stress axis : x y z
#
# Youngs Moduli (GPa) = 66.12047 69.72763 17.49811
#
# Poissons Ratio (x) = 0.44824 -0.09110
# Poissons Ratio (y) = 0.42505 0.26850
# Poissons Ratio (z) = -0.34423 1.06993
#
# Static dielectric constant tensor:
#      x y z
#    x 1.714250 0.000000 0.019400 
#    y 0.000000 1.686570 0.000000 
#    z 0.019400 0.000000 1.715650 
# 
# From -- ./inp_files/63269.got.cif
#   From: 2010.05.17/outbox.cif.g08.bks.cpg/sg12_32_cif.got.tgz:63269.got - 2010.06.03 13:09:07.
