data_PCOD9187081
_publ_section_title
;
Structure prediction by ZEFSAII (Michael W. Deem and Ramdas Pophale) SiO2 
 PCOD9187081
Probable space group: C 2/M
;
_chemical_formula_sum "Si O2"
_cell_formula_units_Z 56
_cell_length_a 18.089165
_cell_length_b 26.962916
_cell_length_c 5.311298
_cell_angle_alpha 90.000000
_cell_angle_beta 106.192390
_cell_angle_gamma 90.000000
_cell_volume 2487.750804
_symmetry_space_group_name_H-M "C 2/M"
_symmetry_group_IT_number 12
_symmetry_cell_setting 'monoclinic'
loop_
_space_group_symop_operation_xyz
x,y,z
-x,y,-z
-x,-y,-z
x,-y,z
1/2+x,1/2+y,z
1/2-x,1/2+y,-z
1/2-x,1/2-y,-z
1/2+x,1/2-y,z
loop_
_atom_site_type_symbol
_atom_site_label
_atom_site_fract_x
_atom_site_fract_y
_atom_site_fract_z
Si Si1 0.455016 0.060294 0.704017
Si Si2 0.211979 0.558746 0.339182
Si Si3 0.801055 0.058172 0.924130
Si Si4 0.524442 0.685600 0.772702
Si Si5 0.042562 0.704233 0.290446
Si Si6 0.775649 0.306969 0.504469
Si Si7 0.810946 0.160770 0.079600
O O1 0.500000 0.076632 0.500000
O O2 0.368845 0.080839 0.649658
O O3 0.451770 0.000000 0.686030
O O4 0.500000 0.071993 0.000000
O O5 0.202621 0.500000 0.356159
O O6 0.275924 0.568701 0.613466
O O7 0.231340 0.564495 0.062479
O O8 0.826007 0.000000 0.968866
O O9 0.847797 0.106137 0.063549
O O10 0.500000 0.657587 0.500000
O O11 0.473037 0.735943 0.725330
O O12 0.615145 0.696916 0.852029
O O13 0.500000 0.658213 0.000000
O O14 0.132479 0.693092 0.383227
O O15 0.000000 0.686325 0.500000
O O16 0.000000 0.685715 0.000000
O O17 0.750000 0.250000 0.500000
O O18 0.734536 0.334752 0.700703
O O19 0.744819 0.326543 0.206369
#
# Coordination Sequence:
#
# PCOD9187081 Si02
#       7
#     8   8   8   8   8   8   8
#     4   9  15  23  40  68  96 125 172 234 296 358
#     4   9  17  31  52  76 105 145 193 250 312 356
#     4  10  21  38  60  84 116 157 203 259 309 351
#     4  10  20  37  59  88 124 162 200 242 305 375
#     4  10  19  35  57  84 123 167 199 238 309 377
#     4  12  23  38  63  97 131 163 209 262 311 376
#     4  12  24  40  65  97 128 165 216 261 305 373
#
# _framework density 22.510290999999999
#
# number of rings (size 3 to 8) (size 9 to 14) (size 15 to 20)
#    0.000    1.714    0.000    7.286    0.000    3.429 
#    0.000    0.000    0.000   18.000    0.000    0.000 
#    0.000    0.000    0.000    0.000    0.000    0.000 
#
# Total GULP energy -156249.760968 kJ/mol
# GULP energy per Si atom -5580.348606 kJ/mol
# Density = 2.245906 g / cm^3
# Si number density = 22.510291 Si / 1000 Ang^3
#
#
#
# Elastic Constant Matrix: (Units=GPa)
#
#
# Indices 1 2 3 4 5 6 
#
# 1 127.6506 0.1003 63.6456 0.0000 -1.0780 0.0000
# 2 0.1003 108.5927 5.9981 0.0000 1.9808 0.0000
# 3 63.6456 5.9981 180.1814 0.0000 -23.8517 0.0000
# 4 0.0000 0.0000 0.0000 31.4816 0.0000 -10.0060
# 5 -1.0780 1.9808 -23.8517 0.0000 42.1578 0.0000
# 6 0.0000 0.0000 0.0000 -10.0060 0.0000 3.1390
#
#
#
# Elastic Compliance Matrix: (Units=1/GPa)
#
#
# Indices 1 2 3 4 5 6 
#
# 1 0.009641 0.000226 -0.003656 0.000000 -0.001832 0.000000
# 2 0.000226 0.009248 -0.000481 0.000000 -0.000701 0.000000
# 3 -0.003656 -0.000481 0.007402 0.000000 0.004117 0.000000
# 4 0.000000 0.000000 0.000000 -2.417905 0.000000 -7.707327
# 5 -0.001832 -0.000701 0.004117 0.000000 0.026036 0.000000
# 6 0.000000 0.000000 0.000000 -7.707327 0.000000-24.249348
#
#
# Mechanical properties :
#
#
# Convention : Reuss Voigt Hill
#
# Bulk Modulus (GPa) = 54.13738 61.76808 57.95273
# Shear Modulus (GPa) = -0.18796 38.46774 19.13989
#
# Velocity S-wave (km/s) = -0.28928 4.13836 2.91911
# Velocity P-wave (km/s) = 4.89803 7.09466 6.09610
#
# Compressibility (1/GPa) = 0.01847153
#
# Stress axis : x y z
#
# Youngs Moduli (GPa) = 103.72524 108.13336 135.09474
#
# Poissons Ratio (x) = -0.02448 0.49384
# Poissons Ratio (y) = -0.02349 0.06492
# Poissons Ratio (z) = 0.37917 0.05197
#
# Static dielectric constant tensor:
#      x y z
#    x 1.847000 0.000000 0.011630 
#    y 0.000000 1.959380 0.000000 
#    z 0.011630 0.000000 1.721200 
# 
# From -- ./inp_files/18169.got.cif
#   From: 2010.05.17/outbox.cif.g08.bks.cpg/sg12_10_cif.got.tgz:18169.got - 2010.06.03 13:09:07.
