data_PCOD9187160
_publ_section_title
;
Structure prediction by ZEFSAII (Michael W. Deem and Ramdas Pophale) SiO2 
 PCOD9187160
Probable space group: C 2/M
;
_chemical_formula_sum "Si O2"
_cell_formula_units_Z 64
_cell_length_a 20.262972
_cell_length_b 7.805348
_cell_length_c 31.198449
_cell_angle_alpha 90.000000
_cell_angle_beta 142.238203
_cell_angle_gamma 90.000000
_cell_volume 3021.686924
_symmetry_space_group_name_H-M "C 2/M"
_symmetry_group_IT_number 12
_symmetry_cell_setting 'monoclinic'
loop_
_space_group_symop_operation_xyz
x,y,z
-x,y,-z
-x,-y,-z
x,-y,z
1/2+x,1/2+y,z
1/2-x,1/2+y,-z
1/2-x,1/2-y,-z
1/2+x,1/2-y,z
loop_
_atom_site_type_symbol
_atom_site_label
_atom_site_fract_x
_atom_site_fract_y
_atom_site_fract_z
Si Si1 0.323557 0.792834 0.119682
Si Si2 0.972232 0.203016 0.120700
Si Si3 0.554840 0.703026 0.484868
Si Si4 0.473781 0.210041 0.274911
Si Si5 0.422429 0.290460 0.998903
Si Si6 0.598523 0.802102 0.670808
Si Si7 0.800985 0.301244 0.726683
Si Si8 0.787331 0.709289 0.621668
O O1 0.367339 0.736570 0.095873
O O2 0.407660 0.733328 0.199185
O O3 0.323422 0.000000 0.119414
O O4 0.202459 0.736825 0.068739
O O5 0.961043 0.263856 0.066050
O O6 0.075091 0.284895 0.196666
O O7 0.990834 0.000000 0.129079
O O8 0.500000 0.775049 0.500000
O O9 0.566192 0.500000 0.497722
O O10 0.477795 0.725892 0.404950
O O11 0.677217 0.768304 0.542766
O O12 0.419896 0.269596 0.291312
O O13 0.598070 0.266085 0.337729
O O14 0.471472 0.000000 0.272255
O O15 0.423504 0.500000 0.998922
O O16 0.500000 0.233626 0.000000
O O17 0.721458 0.787969 0.718941
O O18 0.567616 0.000000 0.656984
O O19 0.769413 0.500000 0.710516
O O20 0.782902 0.237012 0.669189
O O21 0.791182 0.500000 0.622910
#
# Coordination Sequence:
#
# PCOD9187160 Si02
#       8
#     8   8   8   8   8   8   8   8
#     4  10  19  37  64  84 109 159 204 230 274 351
#     4  11  22  36  58  90 121 147 187 247 293 327
#     4  10  19  35  58  81 109 152 197 235 282 347
#     4   9  19  35  57  84 112 149 194 235 281 342
#     4   9  20  36  58  87 118 155 197 234 279 344
#     4  11  23  36  55  87 120 146 185 246 298 333
#     4  11  21  38  62  84 110 152 199 235 280 350
#     4   9  17  34  59  81 104 144 199 237 265 335
#
# _framework density 21.180222000000001
#
# number of rings (size 3 to 8) (size 9 to 14) (size 15 to 20)
#    0.000    2.000    2.500    1.500    1.750    0.750 
#    0.000    1.875    0.000    1.875    0.000    0.000 
#    0.000    0.000    0.000    0.000    0.000    0.000 
#
# Total GULP energy -178712.733594 kJ/mol
# GULP energy per Si atom -5584.772925 kJ/mol
# Density = 2.113201 g / cm^3
# Si number density = 21.180222 Si / 1000 Ang^3
#
#
#
# Elastic Constant Matrix: (Units=GPa)
#
#
# Indices 1 2 3 4 5 6 
#
# 1 149.0678 -5.9349 35.5835 0.0003 2.2054 0.0001
# 2 -5.9349 20.5205 -4.3967 0.0004 -0.9119 0.0001
# 3 35.5835 -4.3967 81.4454 0.0001 11.2976 0.0000
# 4 0.0003 0.0004 0.0001 4.2097 0.0000 -2.6720
# 5 2.2054 -0.9119 11.2976 0.0000 33.7916 -0.0002
# 6 0.0001 0.0001 0.0000 -2.6720 -0.0002 9.1645
#
#
#
# Elastic Compliance Matrix: (Units=1/GPa)
#
#
# Indices 1 2 3 4 5 6 
#
# 1 0.007548 0.001503 -0.003307 -0.000001 0.000654 0.000000
# 2 0.001503 0.049608 0.001939 -0.000006 0.000592 -0.000002
# 3 -0.003307 0.001939 0.014461 -0.000001 -0.004567 0.000000
# 4 -0.000001 -0.000006 -0.000001 0.291486 0.000001 0.084986
# 5 0.000654 0.000592 -0.004567 0.000001 0.031093 0.000001
# 6 0.000000 -0.000002 0.000000 0.084986 0.000001 0.133895
#
#
# Mechanical properties :
#
#
# Convention : Reuss Voigt Hill
#
# Bulk Modulus (GPa) = 13.91054 33.50417 23.70735
# Shear Modulus (GPa) = 9.06151 24.48529 16.77340
#
# Velocity S-wave (km/s) = 2.07065 3.40375 2.81719
# Velocity P-wave (km/s) = 3.50695 5.59467 4.66900
#
# Compressibility (1/GPa) = 0.07188795
#
# Stress axis : x y z
#
# Youngs Moduli (GPa) = 132.48538 20.15792 69.15040
#
# Poissons Ratio (x) = -0.03031 0.22870
# Poissons Ratio (y) = -0.19919 -0.13408
# Poissons Ratio (z) = 0.43816 -0.03909
#
# Static dielectric constant tensor:
#      x y z
#    x 1.755890 0.000000 0.005790 
#    y 0.000000 1.789630 0.000000 
#    z 0.005790 0.000000 1.734750 
# 
# From -- ./inp_files/378283.got.cif
#   From: 2010.05.17/outbox.cif.g08.bks.cpg/sg12_190_cif.got.tgz:378283.got - 2010.06.03 13:09:07.
