data_PCOD9187935
_publ_section_title
;
Structure prediction by ZEFSAII (Michael W. Deem and Ramdas Pophale) SiO2 
 PCOD9187935
Probable space group: C 2/M
;
_chemical_formula_sum "Si O2"
_cell_formula_units_Z 64
_cell_length_a 29.862190
_cell_length_b 14.539292
_cell_length_c 15.192493
_cell_angle_alpha 90.000000
_cell_angle_beta 21.517865
_cell_angle_gamma 90.000000
_cell_volume 2419.429674
_symmetry_space_group_name_H-M "C 2/M"
_symmetry_group_IT_number 12
_symmetry_cell_setting 'monoclinic'
loop_
_space_group_symop_operation_xyz
x,y,z
-x,y,-z
-x,-y,-z
x,-y,z
1/2+x,1/2+y,z
1/2-x,1/2+y,-z
1/2-x,1/2-y,-z
1/2+x,1/2-y,z
loop_
_atom_site_type_symbol
_atom_site_label
_atom_site_fract_x
_atom_site_fract_y
_atom_site_fract_z
Si Si1 0.751905 0.612412 0.352414
Si Si2 0.941741 0.849902 0.427725
Si Si3 0.029067 0.641283 0.285261
Si Si4 0.143668 0.103999 0.926972
Si Si5 0.709756 0.611931 0.620218
Si Si6 0.695187 0.635867 0.161634
Si Si7 0.199582 0.346967 0.203572
Si Si8 0.979814 0.605575 0.172786
O O1 0.749947 0.500000 0.345743
O O2 0.687574 0.656568 0.386174
O O3 0.685600 0.639432 0.564366
O O4 0.893705 0.641996 0.097784
O O5 0.007143 0.751874 0.323642
O O6 0.907733 0.897298 0.582406
O O7 0.021891 0.898372 0.206824
O O8 0.929923 0.607834 0.537778
O O9 0.997088 0.608546 0.246221
O O10 0.167376 0.616943 0.055448
O O11 0.131619 0.137639 0.849017
O O12 0.236457 0.158784 0.818905
O O13 0.193907 0.000000 0.830312
O O14 0.704679 0.500000 0.625775
O O15 0.847743 0.643789 0.390386
O O16 0.675344 0.746119 0.208154
O O17 0.707228 0.609192 0.037394
O O18 0.973431 0.500000 0.154840
#
# Coordination Sequence:
#
# PCOD9187935 Si02
#       8
#     8   8   8   8   8   8   8   8
#     4  10  20  37  61  88 117 154 198 240 285 344
#     4  11  23  37  59  86 120 156 194 237 291 350
#     4  11  20  37  63  85 118 150 192 244 292 345
#     4  11  22  39  60  86 122 155 193 239 289 347
#     4   9  19  36  62  88 113 154 199 239 288 345
#     4  10  21  39  60  85 113 150 199 238 286 345
#     4  10  21  37  62  86 111 152 197 239 282 346
#     4  10  19  35  63  88 113 151 196 243 291 340
#
# _framework density 26.452514000000001
#
# number of rings (size 3 to 8) (size 9 to 14) (size 15 to 20)
#    0.000    1.750    3.750    1.125    0.000    2.500 
#    0.000    5.000    2.750    1.500    0.000    0.000 
#    0.000    0.000    0.000    0.000    0.000    0.000 
#
# Total GULP energy -178937.278665 kJ/mol
# GULP energy per Si atom -5591.789958 kJ/mol
# Density = 2.639231 g / cm^3
# Si number density = 26.452514 Si / 1000 Ang^3
#
#
#
# Elastic Constant Matrix: (Units=GPa)
#
#
# Indices 1 2 3 4 5 6 
#
# 1 99.6535 3.7237 31.5090 0.0000 46.9074 0.0000
# 2 3.7237 105.6360 7.2929 0.0000 9.4774 0.0000
# 3 31.5090 7.2929 157.7082 0.0000 45.7067 0.0000
# 4 0.0000 0.0000 0.0000 7.3880 0.0000 0.7967
# 5 46.9074 9.4774 45.7067 0.0000 58.7628 0.0000
# 6 0.0000 0.0000 0.0000 0.7967 0.0000 18.6851
#
#
#
# Elastic Compliance Matrix: (Units=1/GPa)
#
#
# Indices 1 2 3 4 5 6 
#
# 1 0.016164 0.000597 0.000659 0.000000 -0.013512 0.000000
# 2 0.000597 0.009628 0.000031 0.000000 -0.002053 0.000000
# 3 0.000659 0.000031 0.008213 0.000000 -0.006919 0.000000
# 4 0.000000 0.000000 0.000000 0.135979 0.000000 -0.005798
# 5 -0.013512 -0.002053 -0.006919 0.000000 0.033516 0.000000
# 6 0.000000 0.000000 0.000000 -0.005798 0.000000 0.053766
#
#
# Mechanical properties :
#
#
# Convention : Reuss Voigt Hill
#
# Bulk Modulus (GPa) = 27.33919 49.78324 38.56121
# Shear Modulus (GPa) = 18.73460 38.33199 28.53329
#
# Velocity S-wave (km/s) = 2.66416 3.81082 3.28786
# Velocity P-wave (km/s) = 4.45211 6.18254 5.38726
#
# Compressibility (1/GPa) = 0.03657753
#
# Stress axis : x y z
#
# Youngs Moduli (GPa) = 61.86501 103.86897 121.75727
#
# Poissons Ratio (x) = -0.06201 -0.08022
# Poissons Ratio (y) = -0.03693 -0.00372
# Poissons Ratio (z) = -0.04076 -0.00317
#
# Static dielectric constant tensor:
#      x y z
#    x 2.043070 0.000000 0.010480 
#    y 0.000000 2.123580 0.000000 
#    z 0.010480 0.000000 2.140060 
# 
# From -- ./inp_files/251913.got.cif
#   From: 2010.05.17/outbox.cif.g08.bks.cpg/sg12_126_cif.got.tgz:251913.got - 2010.06.03 13:09:07.
