data_PCOD9187788
_publ_section_title
;
Structure prediction by ZEFSAII (Michael W. Deem and Ramdas Pophale) SiO2 
 PCOD9187788
Probable space group: C 2/M
;
_chemical_formula_sum "Si O2"
_cell_formula_units_Z 56
_cell_length_a 17.434395
_cell_length_b 21.837970
_cell_length_c 15.809703
_cell_angle_alpha 90.000000
_cell_angle_beta 25.793212
_cell_angle_gamma 90.000000
_cell_volume 2619.125615
_symmetry_space_group_name_H-M "C 2/M"
_symmetry_group_IT_number 12
_symmetry_cell_setting 'monoclinic'
loop_
_space_group_symop_operation_xyz
x,y,z
-x,y,-z
-x,-y,-z
x,-y,z
1/2+x,1/2+y,z
1/2-x,1/2+y,-z
1/2-x,1/2-y,-z
1/2+x,1/2-y,z
loop_
_atom_site_type_symbol
_atom_site_label
_atom_site_fract_x
_atom_site_fract_y
_atom_site_fract_z
Si Si1 0.426358 0.351429 0.423029
Si Si2 0.220016 0.071006 0.587712
Si Si3 0.610290 0.928552 0.234092
Si Si4 0.561518 0.367037 0.029821
Si Si5 0.952983 0.241975 0.822780
Si Si6 0.432904 0.160113 0.154554
Si Si7 0.777490 0.571685 0.074375
O O1 0.339841 0.393334 0.435788
O O2 0.454247 0.284225 0.353653
O O3 0.276499 0.349278 0.642506
O O4 0.611630 0.384241 0.259277
O O5 0.409501 0.093870 0.431495
O O6 0.068687 0.079875 0.807357
O O7 0.242289 0.000000 0.544004
O O8 0.611850 0.000000 0.256996
O O9 0.739408 0.890490 0.164685
O O10 0.687640 0.924238 0.061646
O O11 0.538498 0.313101 0.119187
O O12 0.500000 0.347146 0.000000
O O13 0.027176 0.299567 0.800913
O O14 0.750000 0.250000 0.000000
O O15 0.500000 0.188608 0.000000
O O16 0.548618 0.098805 0.053703
O O17 0.745746 0.500000 0.125681
#
# Coordination Sequence:
#
# PCOD9187788 Si02
#       7
#     8   8   8   8   8   8   8
#     4  11  22  40  71  95 124 169 218 264 311 379
#     4  10  20  35  61  93 123 165 216 255 302 375
#     4  10  19  35  61  89 122 167 214 256 301 370
#     4  11  23  38  59  91 128 163 203 263 325 374
#     4  11  22  45  70  89 121 168 220 263 309 383
#     4  12  26  44  66  98 135 165 207 270 335 378
#     4  11  22  41  68  97 128 169 219 264 310 385
#
# _framework density 21.381183
#
# number of rings (size 3 to 8) (size 9 to 14) (size 15 to 20)
#    0.000    1.143    5.714    1.714    0.000    3.143 
#    0.000    2.143    3.143    0.000    0.000    0.000 
#    0.000    0.000    0.000    0.000    0.000    0.000 
#
# Total GULP energy -156487.150475 kJ/mol
# GULP energy per Si atom -5588.826803 kJ/mol
# Density = 2.133252 g / cm^3
# Si number density = 21.381183 Si / 1000 Ang^3
#
#
#
# Elastic Constant Matrix: (Units=GPa)
#
#
# Indices 1 2 3 4 5 6 
#
# 1 51.5839 8.1589 21.5493 -0.0085 -2.5379 -0.0030
# 2 8.1589 59.8437 12.7344 -0.0231 2.7802 -0.0014
# 3 21.5493 12.7344 113.7062 -0.0360 -14.1134 0.0313
# 4 -0.0085 -0.0231 -0.0360 22.4829 0.0225 -15.0632
# 5 -2.5379 2.7802 -14.1134 0.0225 21.3009 -0.0050
# 6 -0.0030 -0.0014 0.0313 -15.0632 -0.0050 2.8637
#
#
#
# Elastic Compliance Matrix: (Units=1/GPa)
#
#
# Indices 1 2 3 4 5 6 
#
# 1 0.021308 -0.002120 -0.003761 -0.000016 0.000324 -0.000024
# 2 -0.002120 0.017619 -0.002057 -0.000013 -0.003915 -0.000046
# 3 -0.003761 -0.002057 0.010586 0.000026 0.006834 0.000029
# 4 -0.000016 -0.000013 0.000026 -0.017621 0.000014 -0.092688
# 5 0.000324 -0.003915 0.006834 0.000014 0.052024 0.000088
# 6 -0.000024 -0.000046 0.000029 -0.092688 0.000088 -0.138343
#
#
# Mechanical properties :
#
#
# Convention : Reuss Voigt Hill
#
# Bulk Modulus (GPa) = 29.72907 34.44657 32.08782
# Shear Modulus (GPa) = -182.88743 21.50892 -80.68925
#
# Velocity S-wave (km/s) = -9.25864 3.17515 -6.14983
# Velocity P-wave (km/s) = 10.01808 5.43946 5.94870
#
# Compressibility (1/GPa) = 0.03363711
#
# Stress axis : x y z
#
# Youngs Moduli (GPa) = 46.93038 56.75721 94.46412
#
# Poissons Ratio (x) = 0.12032 0.35525
# Poissons Ratio (y) = 0.09949 0.19435
# Poissons Ratio (z) = 0.17649 0.11677
#
# Static dielectric constant tensor:
#      x y z
#    x 1.754790 -0.000020 0.014170 
#    y -0.000020 1.828190 0.000050 
#    z 0.014170 0.000050 1.807440 
# 
# From -- ./inp_files/218650.got.cif
#   From: 2010.05.17/outbox.cif.g08.bks.cpg/sg12_110_cif.got.tgz:218650.got - 2010.06.03 13:09:07.
