data_PCOD9187466
_publ_section_title
;
Structure prediction by ZEFSAII (Michael W. Deem and Ramdas Pophale) SiO2 
 PCOD9187466
Probable space group: C 2/M
;
_chemical_formula_sum "Si O2"
_cell_formula_units_Z 52
_cell_length_a 25.096416
_cell_length_b 10.046748
_cell_length_c 13.012667
_cell_angle_alpha 90.000000
_cell_angle_beta 122.890578
_cell_angle_gamma 90.000000
_cell_volume 2755.068673
_symmetry_space_group_name_H-M "C 2/M"
_symmetry_group_IT_number 12
_symmetry_cell_setting 'monoclinic'
loop_
_space_group_symop_operation_xyz
x,y,z
-x,y,-z
-x,-y,-z
x,-y,z
1/2+x,1/2+y,z
1/2-x,1/2+y,-z
1/2-x,1/2-y,-z
1/2+x,1/2-y,z
loop_
_atom_site_type_symbol
_atom_site_label
_atom_site_fract_x
_atom_site_fract_y
_atom_site_fract_z
Si Si1 0.000000 0.282115 0.500000
Si Si2 0.559480 0.341126 0.764149
Si Si3 0.019986 0.155824 0.129123
Si Si4 0.656115 0.344952 0.363462
Si Si5 0.737597 0.341430 0.265472
Si Si6 0.871485 0.650010 0.477284
Si Si7 0.197434 0.838883 0.999782
O O1 0.036023 0.205869 0.629197
O O2 0.059746 0.348862 0.504027
O O3 0.553561 0.500000 0.755692
O O4 0.513947 0.285767 0.806347
O O5 0.630655 0.310718 0.874830
O O6 0.094642 0.156515 0.225197
O O7 0.999390 0.000000 0.104236
O O8 0.000000 0.216989 0.000000
O O9 0.667504 0.500000 0.405766
O O10 0.711968 0.290116 0.348451
O O11 0.637394 0.256520 0.441402
O O12 0.727032 0.500000 0.261151
O O13 0.813230 0.319750 0.337998
O O14 0.700812 0.300139 0.124222
O O15 0.860060 0.500000 0.505135
O O16 0.208854 0.000000 0.005441
O O17 0.250000 0.750000 0.000000
#
# Coordination Sequence:
#
# PCOD9187466 Si02
#       7
#     4   8   8   8   8   8   8
#     4  12  22  36  54  80 117 158 193 228 283 348
#     4  10  20  33  54  84 114 144 183 240 288 326
#     4   9  16  29  52  82 110 138 178 226 280 334
#     4  10  19  35  59  86 111 143 188 241 293 336
#     4   9  19  36  59  84 112 146 191 240 285 340
#     4  11  23  38  55  80 115 156 194 231 280 342
#     4  10  20  37  58  83 113 149 192 235 283 338
#
# _framework density 18.874302
#
# number of rings (size 3 to 8) (size 9 to 14) (size 15 to 20)
#    0.000    2.000    1.538    2.769    0.000    4.308 
#    0.000    2.308    0.000    0.462    0.000    0.000 
#    0.000    0.000    0.000    0.000    0.000    0.000 
#
# Total GULP energy -144782.598810 kJ/mol
# GULP energy per Si atom -5568.561493 kJ/mol
# Density = 1.883134 g / cm^3
# Si number density = 18.874302 Si / 1000 Ang^3
#
#
#
# Elastic Constant Matrix: (Units=GPa)
#
#
# Indices 1 2 3 4 5 6 
#
# 1 109.8613 32.4010 37.7421 0.0000 -2.1271 0.0000
# 2 32.4010 33.5762 34.7120 0.0000 3.5163 0.0000
# 3 37.7421 34.7120 132.9307 0.0000 -9.0393 0.0000
# 4 0.0000 0.0000 0.0000 17.6385 0.0000 1.2267
# 5 -2.1271 3.5163 -9.0393 0.0000 27.6314 0.0000
# 6 0.0000 0.0000 0.0000 1.2267 0.0000 21.9091
#
#
#
# Elastic Compliance Matrix: (Units=1/GPa)
#
#
# Indices 1 2 3 4 5 6 
#
# 1 0.012912 -0.012477 -0.000238 0.000000 0.002504 0.000000
# 2 -0.012477 0.055097 -0.011646 0.000000 -0.011782 0.000000
# 3 -0.000238 -0.011646 0.010975 0.000000 0.005054 0.000000
# 4 0.000000 0.000000 0.000000 0.056916 0.000000 -0.003187
# 5 0.002504 -0.011782 0.005054 0.000000 0.039536 0.000000
# 6 0.000000 0.000000 0.000000 -0.003187 0.000000 0.045822
#
#
# Mechanical properties :
#
#
# Convention : Reuss Voigt Hill
#
# Bulk Modulus (GPa) = 33.04364 54.00871 43.52618
# Shear Modulus (GPa) = 17.85288 24.87000 21.36144
#
# Velocity S-wave (km/s) = 3.07886 3.63390 3.36783
# Velocity P-wave (km/s) = 5.49403 6.80324 6.18338
#
# Compressibility (1/GPa) = 0.03026301
#
# Stress axis : x y z
#
# Youngs Moduli (GPa) = 77.44571 18.14981 91.11568
#
# Poissons Ratio (x) = 0.22645 0.02167
# Poissons Ratio (y) = 0.96627 1.06115
# Poissons Ratio (z) = 0.01842 0.21138
#
# Static dielectric constant tensor:
#      x y z
#    x 1.718560 0.000000 0.003660 
#    y 0.000000 1.633650 0.000000 
#    z 0.003660 0.000000 1.678800 
# 
# From -- ./inp_files/165784.got.cif
#   From: 2010.05.17/outbox.cif.g08.bks.cpg/sg12_83_cif.got.tgz:165784.got - 2010.06.03 13:09:07.
