data_PCOD9187806
_publ_section_title
;
Structure prediction by ZEFSAII (Michael W. Deem and Ramdas Pophale) SiO2 
 PCOD9187806
Probable space group: C 2/M
;
_chemical_formula_sum "Si O2"
_cell_formula_units_Z 56
_cell_length_a 26.116464
_cell_length_b 16.633529
_cell_length_c 18.262579
_cell_angle_alpha 90.000000
_cell_angle_beta 20.296744
_cell_angle_gamma 90.000000
_cell_volume 2751.966161
_symmetry_space_group_name_H-M "C 2/M"
_symmetry_group_IT_number 12
_symmetry_cell_setting 'monoclinic'
loop_
_space_group_symop_operation_xyz
x,y,z
-x,y,-z
-x,-y,-z
x,-y,z
1/2+x,1/2+y,z
1/2-x,1/2+y,-z
1/2-x,1/2-y,-z
1/2+x,1/2-y,z
loop_
_atom_site_type_symbol
_atom_site_label
_atom_site_fract_x
_atom_site_fract_y
_atom_site_fract_z
Si Si1 0.307170 0.591649 0.917058
Si Si2 0.490096 0.874825 0.598467
Si Si3 0.348981 0.759884 0.247081
Si Si4 0.776452 0.907018 0.788099
Si Si5 0.564706 0.091206 0.773891
Si Si6 0.277312 0.088974 0.588989
Si Si7 0.555442 0.698143 0.551862
O O1 0.361759 0.500000 0.845141
O O2 0.271123 0.614094 0.881026
O O3 0.437939 0.652719 0.760665
O O4 0.160858 0.595876 0.161802
O O5 0.500000 0.897665 0.500000
O O6 0.631533 0.901470 0.457434
O O7 0.487070 0.778603 0.610651
O O8 0.358558 0.829856 0.295429
O O9 0.328998 0.663960 0.287354
O O10 0.201626 0.779365 0.399923
O O11 0.500000 0.769416 0.000000
O O12 0.888465 0.857734 0.588873
O O13 0.817763 0.000000 0.727876
O O14 0.610199 0.898902 0.980939
O O15 0.601585 0.090269 0.638344
O O16 0.605845 0.000000 0.746365
O O17 0.206910 0.000000 0.682290
#
# Coordination Sequence:
#
# PCOD9187806 Si02
#       7
#     8   8   8   8   8   8   8
#     4  11  22  38  61  89 125 164 204 254 316 378
#     4  11  23  40  62  91 126 166 208 256 311 378
#     4  11  23  40  61  92 126 167 212 257 315 371
#     4  10  19  35  61  90 123 161 202 252 317 387
#     4  10  20  38  64  91 123 165 208 254 314 377
#     4  10  22  42  65  89 120 166 219 261 307 369
#     4  11  23  38  59  92 129 160 205 257 312 375
#
# _framework density 20.349087999999998
#
# number of rings (size 3 to 8) (size 9 to 14) (size 15 to 20)
#    0.000    1.429    2.857    3.000    0.000    4.000 
#    0.000    1.429    0.000    0.000    0.000    0.000 
#    0.000    0.000    0.000    0.000    0.000    0.000 
#
# Total GULP energy -156257.594836 kJ/mol
# GULP energy per Si atom -5580.628387 kJ/mol
# Density = 2.030277 g / cm^3
# Si number density = 20.349088 Si / 1000 Ang^3
#
#
#
# Elastic Constant Matrix: (Units=GPa)
#
#
# Indices 1 2 3 4 5 6 
#
# 1 56.7270 48.4196 18.2895 -0.0008 7.2450 0.0031
# 2 48.4196 129.8461 24.0752 -0.0006 -3.1161 0.0024
# 3 18.2895 24.0752 46.5717 -0.0016 3.8499 0.0047
# 4 -0.0008 -0.0006 -0.0016 48.1960 0.0009 -42.1814
# 5 7.2450 -3.1161 3.8499 0.0009 28.4491 -0.0027
# 6 0.0031 0.0024 0.0047 -42.1814 -0.0027 181.9581
#
#
#
# Elastic Compliance Matrix: (Units=1/GPa)
#
#
# Indices 1 2 3 4 5 6 
#
# 1 0.028872 -0.009917 -0.005577 0.000000 -0.007684 0.000000
# 2 -0.009917 0.011992 -0.002652 0.000000 0.004198 0.000000
# 3 -0.005577 -0.002652 0.025222 0.000000 -0.002283 0.000000
# 4 0.000000 0.000000 0.000000 0.026030 0.000000 0.006034
# 5 -0.007684 0.004198 -0.002283 0.000000 0.037876 0.000001
# 6 0.000000 0.000000 0.000000 0.006034 0.000001 0.006895
#
#
# Mechanical properties :
#
#
# Convention : Reuss Voigt Hill
#
# Bulk Modulus (GPa) = 33.56239 46.07927 39.82083
# Shear Modulus (GPa) = 27.30606 61.21133 44.25869
#
# Velocity S-wave (km/s) = 3.66714 5.49053 4.66872
# Velocity P-wave (km/s) = 5.87024 7.93020 6.97667
#
# Compressibility (1/GPa) = 0.02979526
#
# Stress axis : x y z
#
# Youngs Moduli (GPa) = 34.63514 83.39012 39.64801
#
# Poissons Ratio (x) = 0.82697 0.22111
# Poissons Ratio (y) = 0.34347 0.10513
# Poissons Ratio (z) = 0.19316 0.22112
#
# Static dielectric constant tensor:
#      x y z
#    x 1.739180 0.000000 -0.011110 
#    y 0.000000 1.777200 0.000000 
#    z -0.011110 0.000000 1.705130 
# 
# From -- ./inp_files/293868.got.cif
#   From: 2010.05.17/outbox.cif.g08.bks.cpg/sg12_147_cif.got.tgz:293868.got - 2010.06.03 13:09:07.
