data_PCOD9187169
_publ_section_title
;
Structure prediction by ZEFSAII (Michael W. Deem and Ramdas Pophale) SiO2 
 PCOD9187169
Probable space group: C 2/M
;
_chemical_formula_sum "Si O2"
_cell_formula_units_Z 56
_cell_length_a 9.638175
_cell_length_b 21.135285
_cell_length_c 27.965249
_cell_angle_alpha 90.000000
_cell_angle_beta 149.348935
_cell_angle_gamma 90.000000
_cell_volume 2904.213585
_symmetry_space_group_name_H-M "C 2/M"
_symmetry_group_IT_number 12
_symmetry_cell_setting 'monoclinic'
loop_
_space_group_symop_operation_xyz
x,y,z
-x,y,-z
-x,-y,-z
x,-y,z
1/2+x,1/2+y,z
1/2-x,1/2+y,-z
1/2-x,1/2-y,-z
1/2+x,1/2-y,z
loop_
_atom_site_type_symbol
_atom_site_label
_atom_site_fract_x
_atom_site_fract_y
_atom_site_fract_z
Si Si1 0.267573 0.623810 0.709133
Si Si2 0.740486 0.825263 0.396836
Si Si3 0.486575 0.291734 0.695169
Si Si4 0.311900 0.125947 0.721680
Si Si5 0.797105 0.826089 0.089099
Si Si6 0.297347 0.709163 0.866567
Si Si7 0.961233 0.000000 0.627986
Si Si8 0.545673 0.000000 0.594881
O O1 0.419213 0.648362 0.707287
O O2 0.483198 0.631630 0.816501
O O3 0.116494 0.559629 0.649677
O O4 0.026687 0.671990 0.650277
O O5 0.771867 0.751733 0.392545
O O6 0.690804 0.867099 0.335866
O O7 0.000000 0.850416 0.500000
O O8 0.636315 0.317728 0.693282
O O9 0.666660 0.245408 0.781820
O O10 0.619616 0.146859 0.826819
O O11 0.161038 0.060801 0.688727
O O12 0.741810 0.760762 0.102947
O O13 0.913931 0.811103 0.070696
O O14 0.500000 0.857383 0.000000
O O15 0.761503 0.000000 0.614743
O O16 0.752257 0.000000 0.519805
#
# Coordination Sequence:
#
# PCOD9187169 Si02
#       8
#     8   8   8   8   8   8   4   4
#     4  11  22  40  58  83 121 157 198 247 299 348
#     4  11  22  34  54  85 118 152 191 243 306 360
#     4  10  19  35  58  81 118 156 190 236 298 361
#     4  11  20  38  58  79 121 157 197 243 288 353
#     4  11  21  37  64  96 123 155 197 244 306 370
#     4  10  19  37  59  91 126 151 187 241 308 361
#     4  11  24  39  59  88 109 166 222 241 281 356
#     4  11  24  41  60  80 118 162 214 255 284 343
#
# _framework density 19.282329000000001
#
# number of rings (size 3 to 8) (size 9 to 14) (size 15 to 20)
#    0.000    1.286    5.714    3.000    0.000    4.000 
#    0.000    1.786    0.000    0.000    0.000    1.500 
#    0.000    0.000    0.000    0.000    0.000    0.000 
#
# Total GULP energy -155912.891273 kJ/mol
# GULP energy per Si atom -5568.317545 kJ/mol
# Density = 1.923844 g / cm^3
# Si number density = 19.282329 Si / 1000 Ang^3
#
#
#
# Elastic Constant Matrix: (Units=GPa)
#
#
# Indices 1 2 3 4 5 6 
#
# 1 64.8332 10.5622 7.3870 -0.0006 17.4865 -0.0012
# 2 10.5622 90.0421 18.4248 0.0011 3.0176 -0.0003
# 3 7.3870 18.4248 77.9067 -0.0055 7.3490 -0.0003
# 4 -0.0006 0.0011 -0.0055 25.7774 0.0003 5.4359
# 5 17.4865 3.0176 7.3490 0.0003 22.5428 -0.0003
# 6 -0.0012 -0.0003 -0.0003 5.4359 -0.0003 22.7820
#
#
#
# Elastic Compliance Matrix: (Units=1/GPa)
#
#
# Indices 1 2 3 4 5 6 
#
# 1 0.019796 -0.001811 -0.000024 0.000001 -0.015106 0.000001
# 2 -0.001811 0.011847 -0.002696 -0.000001 0.000698 0.000000
# 3 -0.000024 -0.002696 0.013866 0.000003 -0.004141 -0.000001
# 4 0.000001 -0.000001 0.000003 0.040849 -0.000002 -0.009747
# 5 -0.015106 0.000698 -0.004141 -0.000002 0.057334 0.000000
# 6 0.000001 0.000000 -0.000001 -0.009747 0.000000 0.046220
#
#
# Mechanical properties :
#
#
# Convention : Reuss Voigt Hill
#
# Bulk Modulus (GPa) = 27.43648 33.94776 30.69212
# Shear Modulus (GPa) = 23.68290 27.31432 25.49861
#
# Velocity S-wave (km/s) = 3.50840 3.76779 3.64040
# Velocity P-wave (km/s) = 5.53819 6.04749 5.79843
#
# Compressibility (1/GPa) = 0.03644783
#
# Stress axis : x y z
#
# Youngs Moduli (GPa) = 50.51478 84.41245 72.11716
#
# Poissons Ratio (x) = 0.15287 0.00172
# Poissons Ratio (y) = 0.09148 0.19441
# Poissons Ratio (z) = 0.00120 0.22756
#
# Static dielectric constant tensor:
#      x y z
#    x 1.673420 0.000000 -0.000070 
#    y 0.000000 1.678920 0.000000 
#    z -0.000070 0.000000 1.732680 
# 
# From -- ./inp_files/373201.got.cif
#   From: 2010.05.17/outbox.cif.g08.bks.cpg/sg12_187_cif.got.tgz:373201.got - 2010.06.03 13:09:07.
