data_PCOD9187661
_publ_section_title
;
Structure prediction by ZEFSAII (Michael W. Deem and Ramdas Pophale) SiO2 
 PCOD9187661
Probable space group: C 2/M
;
_chemical_formula_sum "Si O2"
_cell_formula_units_Z 56
_cell_length_a 32.223977
_cell_length_b 17.882574
_cell_length_c 8.998277
_cell_angle_alpha 90.000000
_cell_angle_beta 34.110682
_cell_angle_gamma 90.000000
_cell_volume 2907.845948
_symmetry_space_group_name_H-M "C 2/M"
_symmetry_group_IT_number 12
_symmetry_cell_setting 'monoclinic'
loop_
_space_group_symop_operation_xyz
x,y,z
-x,y,-z
-x,-y,-z
x,-y,z
1/2+x,1/2+y,z
1/2-x,1/2+y,-z
1/2-x,1/2-y,-z
1/2+x,1/2-y,z
loop_
_atom_site_type_symbol
_atom_site_label
_atom_site_fract_x
_atom_site_fract_y
_atom_site_fract_z
Si Si1 0.333383 0.917937 0.939274
Si Si2 0.831690 0.130735 0.087779
Si Si3 0.816244 0.123528 0.482445
Si Si4 0.169926 0.254085 0.329714
Si Si5 0.420496 0.500000 0.667681
Si Si6 0.579865 0.500000 0.685798
Si Si7 0.186680 0.415059 0.341304
Si Si8 0.414953 0.761868 0.702455
O O1 0.267145 0.906184 0.249978
O O2 0.368106 0.000000 0.854582
O O3 0.294145 0.918373 0.892177
O O4 0.389472 0.848680 0.780635
O O5 0.834428 0.122482 0.255546
O O6 0.752562 0.107416 0.255538
O O7 0.859906 0.213814 0.968369
O O8 0.882510 0.073294 0.847328
O O9 0.820305 0.201859 0.557379
O O10 0.873501 0.070593 0.396814
O O11 0.143720 0.336275 0.463795
O O12 0.107267 0.231810 0.395977
O O13 0.250000 0.250000 0.000000
O O14 0.500000 0.500000 0.500000
O O15 0.422635 0.500000 0.484348
O O16 0.500000 0.500000 0.000000
O O17 0.159644 0.500000 0.456765
O O18 0.500000 0.752877 0.500000
#
# Coordination Sequence:
#
# PCOD9187661 Si02
#       8
#     8   8   8   8   4   4   8   8
#     4  10  20  38  64  90 118 165 212 268 320 379
#     4  12  23  36  59  93 127 167 205 258 328 376
#     4  12  23  38  63  93 130 162 219 267 313 396
#     4  11  20  40  63  90 121 173 221 264 325 383
#     4  12  24  40  58  84 130 172 207 244 316 400
#     4  12  26  42  64  94 131 172 211 262 322 391
#     4  10  19  35  60  87 120 157 213 263 316 382
#     4  11  23  40  61  89 126 167 218 268 326 380
#
# _framework density 19.258241000000002
#
# number of rings (size 3 to 8) (size 9 to 14) (size 15 to 20)
#    0.000    0.857    5.714    3.429    0.000    3.714 
#    0.000    0.000    0.000    0.000    0.000    0.000 
#    0.000   12.000    0.000    0.000    0.000    0.000 
#
# Total GULP energy -156024.839891 kJ/mol
# GULP energy per Si atom -5572.315710 kJ/mol
# Density = 1.921441 g / cm^3
# Si number density = 19.258241 Si / 1000 Ang^3
#
#
#
# Elastic Constant Matrix: (Units=GPa)
#
#
# Indices 1 2 3 4 5 6 
#
# 1 139.8582 21.6888 39.2670 0.0000 19.5615 0.0000
# 2 21.6888 119.7990 11.9106 0.0000 20.0634 0.0000
# 3 39.2670 11.9106 45.6848 0.0000 19.4798 0.0000
# 4 0.0000 0.0000 0.0000 18.6289 0.0000 -12.0486
# 5 19.5615 20.0634 19.4798 0.0000 35.3432 0.0000
# 6 0.0000 0.0000 0.0000 -12.0486 0.0000 34.8713
#
#
#
# Elastic Compliance Matrix: (Units=1/GPa)
#
#
# Indices 1 2 3 4 5 6 
#
# 1 0.009532 -0.000870 -0.007748 0.000000 -0.000512 0.000000
# 2 -0.000870 0.009305 0.000482 0.000000 -0.005067 0.000000
# 3 -0.007748 0.000482 0.034917 0.000000 -0.015230 0.000000
# 4 0.000000 0.000000 0.000000 0.069128 0.000000 0.023885
# 5 -0.000512 -0.005067 -0.015230 0.000000 0.039848 0.000000
# 6 0.000000 0.000000 0.000000 0.023885 0.000000 0.036930
#
#
# Mechanical properties :
#
#
# Convention : Reuss Voigt Hill
#
# Bulk Modulus (GPa) = 26.67886 50.11941 38.39913
# Shear Modulus (GPa) = 21.88900 33.26707 27.57803
#
# Velocity S-wave (km/s) = 3.37501 4.16073 3.78830
# Velocity P-wave (km/s) = 5.39174 7.01168 6.25438
#
# Compressibility (1/GPa) = 0.03748287
#
# Stress axis : x y z
#
# Youngs Moduli (GPa) = 104.91136 107.46452 28.63926
#
# Poissons Ratio (x) = 0.09346 0.22190
# Poissons Ratio (y) = 0.09124 -0.01380
# Poissons Ratio (z) = 0.81285 -0.05179
#
# Static dielectric constant tensor:
#      x y z
#    x 1.681940 0.000000 0.006420 
#    y 0.000000 1.772970 0.000000 
#    z 0.006420 0.000000 1.657290 
# 
# From -- ./inp_files/112627.got.cif
#   From: 2010.05.17/outbox.cif.g08.bks.cpg/sg12_57_cif.got.tgz:112627.got - 2010.06.03 13:09:07.
