data_PCOD9187691
_publ_section_title
;
Structure prediction by ZEFSAII (Michael W. Deem and Ramdas Pophale) SiO2 
 PCOD9187691
Probable space group: C 2/M
;
_chemical_formula_sum "Si O2"
_cell_formula_units_Z 48
_cell_length_a 13.228037
_cell_length_b 21.992241
_cell_length_c 11.317712
_cell_angle_alpha 90.000000
_cell_angle_beta 34.466580
_cell_angle_gamma 90.000000
_cell_volume 1863.299812
_symmetry_space_group_name_H-M "C 2/M"
_symmetry_group_IT_number 12
_symmetry_cell_setting 'monoclinic'
loop_
_space_group_symop_operation_xyz
x,y,z
-x,y,-z
-x,-y,-z
x,-y,z
1/2+x,1/2+y,z
1/2-x,1/2+y,-z
1/2-x,1/2-y,-z
1/2+x,1/2-y,z
loop_
_atom_site_type_symbol
_atom_site_label
_atom_site_fract_x
_atom_site_fract_y
_atom_site_fract_z
Si Si1 0.697971 0.570334 0.841005
Si Si2 0.487474 0.737132 0.388154
Si Si3 0.571237 0.928384 0.163777
Si Si4 0.281985 0.613432 0.419239
Si Si5 0.093346 0.101488 0.290372
Si Si6 0.591470 0.747988 0.784080
O O1 0.674337 0.500000 0.895982
O O2 0.813067 0.597494 0.835886
O O3 0.788395 0.576599 0.626853
O O4 0.500000 0.594563 0.000000
O O5 0.500000 0.773515 0.500000
O O6 0.598285 0.675189 0.288635
O O7 0.520030 0.764354 0.227057
O O8 0.279277 0.717474 0.595568
O O9 0.386260 0.892875 0.331854
O O10 0.533215 0.000000 0.216411
O O11 0.709791 0.922000 0.922981
O O12 0.456852 0.586399 0.314553
O O13 0.341377 0.678884 0.309749
O O14 0.000000 0.080391 0.500000
O O15 0.500000 0.752296 0.000000
#
# Coordination Sequence:
#
# PCOD9187691 Si02
#       6
#     8   8   8   8   8   8
#     4  10  19  35  60  89 125 163 196 254 328 378
#     4   9  21  44  61  94 128 168 211 256 326 380
#     4  11  24  40  64  95 125 166 213 262 321 380
#     4  11  22  39  63  94 129 161 207 264 316 378
#     4  10  23  45  63  88 125 172 216 260 316 374
#     4  10  22  41  65  97 131 165 213 267 316 379
#
# _framework density 25.760749000000001
#
# number of rings (size 3 to 8) (size 9 to 14) (size 15 to 20)
#    0.000    1.833    1.667    1.500    2.333    5.000 
#   18.000    0.833    0.000    0.000    0.000    0.000 
#    0.000    0.000    0.000    0.000    0.000    0.000 
#
# Total GULP energy -134047.935805 kJ/mol
# GULP energy per Si atom -5585.330659 kJ/mol
# Density = 2.570212 g / cm^3
# Si number density = 25.760749 Si / 1000 Ang^3
#
#
#
# Elastic Constant Matrix: (Units=GPa)
#
#
# Indices 1 2 3 4 5 6 
#
# 1 94.3495 5.8220 25.3419 0.0009 30.9903 -0.0005
# 2 5.8220 72.6190 18.5464 0.0004 -4.9664 -0.0001
# 3 25.3419 18.5464 171.5786 0.0017 15.7554 -0.0005
# 4 0.0009 0.0004 0.0017 29.2101 -0.0013 -4.1382
# 5 30.9903 -4.9664 15.7554 -0.0013 57.6184 0.0003
# 6 -0.0005 -0.0001 -0.0005 -4.1382 0.0003 16.2686
#
#
#
# Elastic Compliance Matrix: (Units=1/GPa)
#
#
# Indices 1 2 3 4 5 6 
#
# 1 0.013267 -0.001232 -0.001191 -0.000001 -0.006916 0.000000
# 2 -0.001232 0.014437 -0.001594 0.000000 0.002343 0.000000
# 3 -0.001191 -0.001594 0.006288 0.000000 -0.001216 0.000000
# 4 -0.000001 0.000000 0.000000 0.035515 0.000001 0.009034
# 5 -0.006916 0.002343 -0.001216 0.000001 0.021610 0.000000
# 6 0.000000 0.000000 0.000000 0.009034 0.000000 0.063766
#
#
# Mechanical properties :
#
#
# Convention : Reuss Voigt Hill
#
# Bulk Modulus (GPa) = 38.52545 48.66307 43.59426
# Shear Modulus (GPa) = 29.14293 39.87520 34.50907
#
# Velocity S-wave (km/s) = 3.36712 3.93861 3.66402
# Velocity P-wave (km/s) = 5.48673 6.29404 5.90420
#
# Compressibility (1/GPa) = 0.02595687
#
# Stress axis : x y z
#
# Youngs Moduli (GPa) = 75.37771 69.26870 159.03065
#
# Poissons Ratio (x) = 0.08536 0.18943
# Poissons Ratio (y) = 0.09289 0.25343
# Poissons Ratio (z) = 0.08979 0.11039
#
# Static dielectric constant tensor:
#      x y z
#    x 2.141060 0.000000 0.086980 
#    y 0.000000 2.007510 0.000000 
#    z 0.086980 0.000000 2.131300 
# 
# From -- ./inp_files/149643.got.cif
#   From: 2010.05.17/outbox.cif.g08.bks.cpg/sg12_75_cif.got.tgz:149643.got - 2010.06.03 13:09:07.
