data_PCOD9187458
_publ_section_title
;
Structure prediction by ZEFSAII (Michael W. Deem and Ramdas Pophale) SiO2 
 PCOD9187458
Probable space group: C 2/M
;
_chemical_formula_sum "Si O2"
_cell_formula_units_Z 40
_cell_length_a 14.547079
_cell_length_b 16.197151
_cell_length_c 26.174684
_cell_angle_alpha 90.000000
_cell_angle_beta 158.517817
_cell_angle_gamma 90.000000
_cell_volume 2258.542702
_symmetry_space_group_name_H-M "C 2/M"
_symmetry_group_IT_number 12
_symmetry_cell_setting 'monoclinic'
loop_
_space_group_symop_operation_xyz
x,y,z
-x,y,-z
-x,-y,-z
x,-y,z
1/2+x,1/2+y,z
1/2-x,1/2+y,-z
1/2-x,1/2-y,-z
1/2+x,1/2-y,z
loop_
_atom_site_type_symbol
_atom_site_label
_atom_site_fract_x
_atom_site_fract_y
_atom_site_fract_z
Si Si1 0.218192 0.726200 0.862358
Si Si2 0.378216 0.906601 0.384901
Si Si3 0.780411 0.907950 0.089842
Si Si4 0.464842 0.817588 0.125166
Si Si5 0.463063 0.774282 0.345098
O O1 0.248396 0.824270 0.891731
O O2 0.072883 0.680371 0.833310
O O3 0.085066 0.716904 0.739668
O O4 0.500000 0.693293 0.000000
O O5 0.500000 0.870479 0.500000
O O6 0.436807 0.856151 0.364980
O O7 0.078168 0.907828 0.233628
O O8 0.475134 0.000000 0.431109
O O9 0.723433 0.000000 0.081043
O O10 0.620139 0.892719 0.955127
O O11 0.740627 0.785763 0.251637
O O12 0.250000 0.750000 0.000000
O O13 0.750000 0.750000 0.500000
#
# Coordination Sequence:
#
# PCOD9187458 Si02
#       5
#     8   8   8   8   8
#     4  11  19  35  59  84 113 151 192 239 278 342
#     4  10  20  37  58  83 117 152 189 241 293 342
#     4  10  19  35  59  85 116 153 191 240 294 333
#     4  10  19  38  55  78 118 147 191 236 277 342
#     4  12  23  35  59  87 113 153 197 231 292 344
#
# _framework density 17.710536000000001
#
# number of rings (size 3 to 8) (size 9 to 14) (size 15 to 20)
#    0.000    1.400    8.000    1.200    0.000    0.400 
#    0.000    2.000    0.000    3.600    0.000    2.800 
#    0.000    0.000    0.000    0.000    0.000    0.000 
#
# Total GULP energy -111359.199197 kJ/mol
# GULP energy per Si atom -5567.959960 kJ/mol
# Density = 1.767023 g / cm^3
# Si number density = 17.710536 Si / 1000 Ang^3
#
#
#
# Elastic Constant Matrix: (Units=GPa)
#
#
# Indices 1 2 3 4 5 6 
#
# 1 141.1460 23.3096 70.6474 0.0072 -25.1130 -0.0044
# 2 23.3096 51.3512 14.2289 0.0095 -11.2471 -0.0067
# 3 70.6474 14.2289 140.0462 0.0302 -5.2723 -0.0038
# 4 0.0072 0.0095 0.0302 19.7759 0.0022 0.9857
# 5 -25.1130 -11.2471 -5.2723 0.0022 46.6979 -0.0008
# 6 -0.0044 -0.0067 -0.0038 0.9857 -0.0008 -0.7644
#
#
#
# Elastic Compliance Matrix: (Units=1/GPa)
#
#
# Indices 1 2 3 4 5 6 
#
# 1 0.010854 -0.002508 -0.005045 0.000005 0.004663 -0.000013
# 2 -0.002508 0.021659 -0.000793 0.000000 0.003779 -0.000176
# 3 -0.005045 -0.000793 0.009698 -0.000011 -0.001809 -0.000025
# 4 0.000005 0.000000 -0.000011 0.047513 0.000000 0.061267
# 5 0.004663 0.003779 -0.001809 0.000000 0.024628 -0.000076
# 6 -0.000013 -0.000176 -0.000025 0.061267 -0.000076 -1.229163
#
#
# Mechanical properties :
#
#
# Convention : Reuss Voigt Hill
#
# Bulk Modulus (GPa) = 39.18597 60.99059 50.08828
# Shear Modulus (GPa) = -4.58879 28.09902 11.75512
#
# Velocity S-wave (km/s) = -1.61140 3.98750 2.57910
# Velocity P-wave (km/s) = 4.32570 7.46408 6.10017
#
# Compressibility (1/GPa) = 0.02551934
#
# Stress axis : x y z
#
# Youngs Moduli (GPa) = 92.13328 46.16930 103.11428
#
# Poissons Ratio (x) = 0.11577 0.52021
# Poissons Ratio (y) = 0.23103 0.08182
# Poissons Ratio (z) = 0.46481 0.03663
#
# Static dielectric constant tensor:
#      x y z
#    x 1.655940 0.000000 0.061840 
#    y 0.000000 1.650530 -0.000020 
#    z 0.061840 -0.000020 1.738700 
# 
# From -- ./inp_files/144638.got.cif
#   From: 2010.05.17/outbox.cif.g08.bks.cpg/sg12_73_cif.got.tgz:144638.got - 2010.06.03 13:09:07.
