data_PCOD9187041
_publ_section_title
;
Structure prediction by ZEFSAII (Michael W. Deem and Ramdas Pophale) SiO2 
 PCOD9187041
Probable space group: C 2/M
;
_chemical_formula_sum "Si O2"
_cell_formula_units_Z 56
_cell_length_a 22.939419
_cell_length_b 8.296427
_cell_length_c 15.540665
_cell_angle_alpha 90.000000
_cell_angle_beta 67.241107
_cell_angle_gamma 90.000000
_cell_volume 2727.347096
_symmetry_space_group_name_H-M "C 2/M"
_symmetry_group_IT_number 12
_symmetry_cell_setting 'monoclinic'
loop_
_space_group_symop_operation_xyz
x,y,z
-x,y,-z
-x,-y,-z
x,-y,z
1/2+x,1/2+y,z
1/2-x,1/2+y,-z
1/2-x,1/2-y,-z
1/2+x,1/2-y,z
loop_
_atom_site_type_symbol
_atom_site_label
_atom_site_fract_x
_atom_site_fract_y
_atom_site_fract_z
Si Si1 0.572426 0.307453 0.946036
Si Si2 0.258274 0.182546 0.401275
Si Si3 0.402999 0.814078 0.257994
Si Si4 0.447992 0.193406 0.411554
Si Si5 0.287815 0.309013 0.747733
Si Si6 0.907438 0.692151 0.615964
Si Si7 0.703548 0.689607 0.950398
O O1 0.570290 0.500000 0.961090
O O2 0.589943 0.273507 0.836645
O O3 0.631676 0.245624 0.971762
O O4 0.500000 0.245678 0.000000
O O5 0.250000 0.250000 0.500000
O O6 0.330782 0.181715 0.330470
O O7 0.224633 0.264306 0.339904
O O8 0.234556 0.000000 0.418317
O O9 0.437112 0.740721 0.322308
O O10 0.423990 0.000000 0.232408
O O11 0.406570 0.252434 0.516593
O O12 0.520421 0.213202 0.396018
O O13 0.434878 0.000000 0.413804
O O14 0.273309 0.500000 0.758886
O O15 0.362290 0.279624 0.709722
O O16 0.243955 0.224792 0.841701
O O17 0.894790 0.500000 0.624067
O O18 0.696439 0.500000 0.968592
O O19 0.750000 0.750000 0.000000
#
# Coordination Sequence:
#
# PCOD9187041 Si02
#       7
#     8   8   8   8   8   8   8
#     4  10  23  43  64  88 118 153 196 249 312 373
#     4  10  21  34  54  84 118 152 191 236 284 343
#     4  10  19  35  57  83 114 149 192 241 290 347
#     4   8  16  31  54  82 114 153 199 245 288 348
#     4  11  22  37  56  84 119 152 193 244 293 351
#     4   9  17  33  55  80 114 158 201 240 288 351
#     4  11  24  43  67  90 118 157 200 252 310 372
#
# _framework density 20.532775000000001
#
# number of rings (size 3 to 8) (size 9 to 14) (size 15 to 20)
#    0.000    2.143    1.429    2.571    0.000    4.857 
#    0.000    5.714    0.000    0.000    0.000    0.000 
#    0.000    0.000    0.000    0.000    0.000    0.000 
#
# Total GULP energy -155979.343895 kJ/mol
# GULP energy per Si atom -5570.690853 kJ/mol
# Density = 2.048604 g / cm^3
# Si number density = 20.532775 Si / 1000 Ang^3
#
#
#
# Elastic Constant Matrix: (Units=GPa)
#
#
# Indices 1 2 3 4 5 6 
#
# 1 117.0654 18.1382 55.7258 0.0000 3.7382 0.0000
# 2 18.1382 12.1588 6.0832 0.0000 2.0524 0.0000
# 3 55.7258 6.0832 92.8310 0.0000 -2.7290 0.0000
# 4 0.0000 0.0000 0.0000 22.2974 0.0000 5.0024
# 5 3.7382 2.0524 -2.7290 0.0000 29.3881 0.0000
# 6 0.0000 0.0000 0.0000 5.0024 0.0000 17.4343
#
#
#
# Elastic Compliance Matrix: (Units=1/GPa)
#
#
# Indices 1 2 3 4 5 6 
#
# 1 0.015260 -0.018535 -0.007987 0.000000 -0.001388 0.000000
# 2 -0.018535 0.108791 0.003854 0.000000 -0.004882 0.000000
# 3 -0.007987 0.003854 0.015378 0.000000 0.002175 0.000000
# 4 0.000000 0.000000 0.000000 0.047934 0.000000 -0.013754
# 5 -0.001388 -0.004882 0.002175 0.000000 0.034747 0.000000
# 6 0.000000 0.000000 0.000000 -0.013754 0.000000 0.061304
#
#
# Mechanical properties :
#
#
# Convention : Reuss Voigt Hill
#
# Bulk Modulus (GPa) = 10.62774 42.43886 26.53330
# Shear Modulus (GPa) = 13.88447 23.29782 18.59114
#
# Velocity S-wave (km/s) = 2.60323 3.37213 3.01231
# Velocity P-wave (km/s) = 3.77133 5.98961 5.00492
#
# Compressibility (1/GPa) = 0.09409335
#
# Stress axis : x y z
#
# Youngs Moduli (GPa) = 65.52966 9.19196 65.02738
#
# Poissons Ratio (x) = 0.17037 0.51937
# Poissons Ratio (y) = 1.21457 -0.25059
# Poissons Ratio (z) = 0.52338 -0.03542
#
# Static dielectric constant tensor:
#      x y z
#    x 1.921010 0.000000 -0.015510 
#    y 0.000000 1.744970 0.000000 
#    z -0.015510 0.000000 1.737760 
# 
# From -- ./inp_files/238225.got.cif
#   From: 2010.05.17/outbox.cif.g08.bks.cpg/sg12_120_cif.got.tgz:238225.got - 2010.06.03 13:09:07.
