data_PCOD9187468
_publ_section_title
;
Structure prediction by ZEFSAII (Michael W. Deem and Ramdas Pophale) SiO2 
 PCOD9187468
Probable space group: C 2/M
;
_chemical_formula_sum "Si O2"
_cell_formula_units_Z 40
_cell_length_a 24.604155
_cell_length_b 7.666438
_cell_length_c 9.831910
_cell_angle_alpha 90.000000
_cell_angle_beta 104.419599
_cell_angle_gamma 90.000000
_cell_volume 1796.133946
_symmetry_space_group_name_H-M "C 2/M"
_symmetry_group_IT_number 12
_symmetry_cell_setting 'monoclinic'
loop_
_space_group_symop_operation_xyz
x,y,z
-x,y,-z
-x,-y,-z
x,-y,z
1/2+x,1/2+y,z
1/2-x,1/2+y,-z
1/2-x,1/2-y,-z
1/2+x,1/2-y,z
loop_
_atom_site_type_symbol
_atom_site_label
_atom_site_fract_x
_atom_site_fract_y
_atom_site_fract_z
Si Si1 0.736795 0.789536 0.148039
Si Si2 0.827227 0.798976 0.421854
Si Si3 0.487561 0.213076 0.838648
Si Si4 0.362079 0.796790 0.736146
Si Si5 0.054039 0.289578 0.626250
O O1 0.784064 0.725497 0.283723
O O2 0.677254 0.723359 0.169309
O O3 0.736336 0.000000 0.157521
O O4 0.750000 0.750000 0.000000
O O5 0.830468 0.713725 0.572235
O O6 0.889080 0.787987 0.395528
O O7 0.812399 0.000000 0.437289
O O8 0.425013 0.275560 0.760915
O O9 0.535539 0.269831 0.764269
O O10 0.488121 0.000000 0.830093
O O11 0.500000 0.263006 0.000000
O O12 0.370365 0.000000 0.774584
O O13 0.061515 0.500000 0.628105
O O14 0.000000 0.250422 0.500000
#
# Coordination Sequence:
#
# PCOD9187468 Si02
#       5
#     8   8   8   8   8
#     4  10  24  41  60  86 116 151 194 240 290 345
#     4  11  23  38  57  86 121 153 188 237 292 347
#     4   9  18  32  55  86 113 139 187 244 282 322
#     4  10  20  39  62  84 111 151 200 241 278 336
#     4  10  19  35  59  86 112 147 195 237 276 337
#
# _framework density 22.270053999999998
#
# number of rings (size 3 to 8) (size 9 to 14) (size 15 to 20)
#    0.000    2.000    2.000    1.200    2.800    2.800 
#    0.000    0.000    0.000    1.200    0.000    0.000 
#    0.000    0.000    0.000    0.000    0.000    0.000 
#
# Total GULP energy -111730.833699 kJ/mol
# GULP energy per Si atom -5586.541685 kJ/mol
# Density = 2.221937 g / cm^3
# Si number density = 22.270054 Si / 1000 Ang^3
#
#
#
# Elastic Constant Matrix: (Units=GPa)
#
#
# Indices 1 2 3 4 5 6 
#
# 1 86.0228 0.1347 22.8738 0.0000 -25.0698 0.0000
# 2 0.1347 33.4518 -10.5621 0.0000 1.5142 0.0000
# 3 22.8738 -10.5621 99.2293 0.0000 -26.1356 0.0000
# 4 0.0000 0.0000 0.0000 18.8083 0.0000 -2.4486
# 5 -25.0698 1.5142 -26.1356 0.0000 45.0127 0.0000
# 6 0.0000 0.0000 0.0000 -2.4486 0.0000 12.9326
#
#
#
# Elastic Compliance Matrix: (Units=1/GPa)
#
#
# Indices 1 2 3 4 5 6 
#
# 1 0.014061 -0.000843 -0.001489 0.000000 0.006995 0.000000
# 2 -0.000843 0.031024 0.003657 0.000000 0.000610 0.000000
# 3 -0.001489 0.003657 0.012466 0.000000 0.006286 0.000000
# 4 0.000000 0.000000 0.000000 0.054512 0.000000 0.010321
# 5 0.006995 0.000610 0.006286 0.000000 0.029741 0.000000
# 6 0.000000 0.000000 0.000000 0.010321 0.000000 0.079278
#
#
# Mechanical properties :
#
#
# Convention : Reuss Voigt Hill
#
# Bulk Modulus (GPa) = 16.61078 27.06629 21.83854
# Shear Modulus (GPa) = 20.96460 29.10123 25.03291
#
# Velocity S-wave (km/s) = 3.07152 3.61881 3.35634
# Velocity P-wave (km/s) = 4.47817 5.44437 4.98473
#
# Compressibility (1/GPa) = 0.06020187
#
# Stress axis : x y z
#
# Youngs Moduli (GPa) = 71.12099 32.23281 80.22014
#
# Poissons Ratio (x) = 0.02718 0.11941
# Poissons Ratio (y) = 0.05997 -0.29340
# Poissons Ratio (z) = 0.10586 -0.11789
#
# Static dielectric constant tensor:
#      x y z
#    x 1.821100 0.000000 0.000090 
#    y 0.000000 1.891880 0.000000 
#    z 0.000090 0.000000 1.796580 
# 
# From -- ./inp_files/92801.got.cif
#   From: 2010.05.17/outbox.cif.g08.bks.cpg/sg12_47_cif.got.tgz:92801.got - 2010.06.03 13:09:07.
