data_PCOD9187056
_publ_section_title
;
Structure prediction by ZEFSAII (Michael W. Deem and Ramdas Pophale) SiO2 
 PCOD9187056
Probable space group: C 2/M
;
_chemical_formula_sum "Si O2"
_cell_formula_units_Z 56
_cell_length_a 31.080959
_cell_length_b 8.711248
_cell_length_c 12.111302
_cell_angle_alpha 90.000000
_cell_angle_beta 118.807280
_cell_angle_gamma 90.000000
_cell_volume 2873.369009
_symmetry_space_group_name_H-M "C 2/M"
_symmetry_group_IT_number 12
_symmetry_cell_setting 'monoclinic'
loop_
_space_group_symop_operation_xyz
x,y,z
-x,y,-z
-x,-y,-z
x,-y,z
1/2+x,1/2+y,z
1/2-x,1/2+y,-z
1/2-x,1/2-y,-z
1/2+x,1/2-y,z
loop_
_atom_site_type_symbol
_atom_site_label
_atom_site_fract_x
_atom_site_fract_y
_atom_site_fract_z
Si Si1 0.840826 0.686129 0.361825
Si Si2 0.246598 0.314491 0.121088
Si Si3 0.943455 0.817195 0.913198
Si Si4 0.359837 0.176272 0.959965
Si Si5 0.507936 0.325452 0.378939
Si Si6 0.405608 0.820229 0.638318
Si Si7 0.589814 0.175920 0.750189
O O1 0.837062 0.500000 0.353529
O O2 0.791806 0.758820 0.251865
O O3 0.858783 0.731089 0.506769
O O4 0.884041 0.729515 0.329027
O O5 0.245938 0.500000 0.113389
O O6 0.195557 0.262925 0.115787
O O7 0.250000 0.250000 0.000000
O O8 0.904363 0.760870 0.955369
O O9 0.920211 0.764802 0.768142
O O10 0.946011 0.000000 0.919320
O O11 0.000000 0.758945 0.000000
O O12 0.360711 0.000000 0.921045
O O13 0.370678 0.174644 0.103981
O O14 0.500000 0.314141 0.500000
O O15 0.521912 0.500000 0.367487
O O16 0.548025 0.209265 0.384048
O O17 0.454897 0.280961 0.267271
O O18 0.399911 0.000000 0.654723
O O19 0.572156 0.000000 0.712579
#
# Coordination Sequence:
#
# PCOD9187056 Si02
#       7
#     8   8   8   8   8   8   8
#     4  10  21  38  59  89 123 157 201 249 305 367
#     4  11  22  38  62  93 128 165 206 255 308 366
#     4  11  25  44  65  91 123 158 205 260 308 362
#     4  10  22  40  62  89 120 159 207 250 298 365
#     4  11  22  33  50  83 122 155 196 245 299 363
#     4  11  23  40  63  86 119 164 206 252 306 370
#     4  10  19  35  57  83 120 158 198 246 298 365
#
# _framework density 19.489315999999999
#
# number of rings (size 3 to 8) (size 9 to 14) (size 15 to 20)
#    0.000    1.429    2.857    2.571    0.000    7.429 
#    0.000    0.714    0.000    0.000    0.000    0.000 
#    0.000    0.000    0.000    0.000    0.000    0.000 
#
# Total GULP energy -156273.547101 kJ/mol
# GULP energy per Si atom -5581.198111 kJ/mol
# Density = 1.944496 g / cm^3
# Si number density = 19.489316 Si / 1000 Ang^3
#
#
#
# Elastic Constant Matrix: (Units=GPa)
#
#
# Indices 1 2 3 4 5 6 
#
# 1 97.3129 24.3621 54.5840 0.0000 13.7650 0.0000
# 2 24.3621 30.2827 23.8418 0.0000 1.3852 0.0000
# 3 54.5840 23.8418 118.4130 0.0000 13.3538 0.0000
# 4 0.0000 0.0000 0.0000 29.3144 0.0000 1.1477
# 5 13.7650 1.3852 13.3538 0.0000 31.7208 0.0000
# 6 0.0000 0.0000 0.0000 1.1477 0.0000 29.8684
#
#
#
# Elastic Compliance Matrix: (Units=1/GPa)
#
#
# Indices 1 2 3 4 5 6 
#
# 1 0.015910 -0.008573 -0.005114 0.000000 -0.004377 0.000000
# 2 -0.008573 0.043949 -0.005354 0.000000 0.004055 0.000000
# 3 -0.005114 -0.005354 0.012182 0.000000 -0.002675 0.000000
# 4 0.000000 0.000000 0.000000 0.034164 0.000000 -0.001313
# 5 -0.004377 0.004055 -0.002675 0.000000 0.034373 0.000000
# 6 0.000000 0.000000 0.000000 -0.001313 0.000000 0.033531
#
#
# Mechanical properties :
#
#
# Convention : Reuss Voigt Hill
#
# Bulk Modulus (GPa) = 29.44788 50.17605 39.81196
# Shear Modulus (GPa) = 22.37015 27.72876 25.04945
#
# Velocity S-wave (km/s) = 3.39162 3.77605 3.58899
# Velocity P-wave (km/s) = 5.52087 6.69423 6.13566
#
# Compressibility (1/GPa) = 0.03395830
#
# Stress axis : x y z
#
# Youngs Moduli (GPa) = 62.85335 22.75368 82.08618
#
# Poissons Ratio (x) = 0.19506 0.41981
# Poissons Ratio (y) = 0.53883 0.43953
# Poissons Ratio (z) = 0.32145 0.12183
#
# Static dielectric constant tensor:
#      x y z
#    x 1.676710 0.000000 0.003500 
#    y 0.000000 1.676640 0.000000 
#    z 0.003500 0.000000 1.729780 
# 
# From -- ./inp_files/187719.got.cif
#   From: 2010.05.17/outbox.cif.g08.bks.cpg/sg12_94_cif.got.tgz:187719.got - 2010.06.03 13:09:07.
