data_PCOD9187533
_publ_section_title
;
Structure prediction by ZEFSAII (Michael W. Deem and Ramdas Pophale) SiO2 
 PCOD9187533
Probable space group: C 2/M
;
_chemical_formula_sum "Si O2"
_cell_formula_units_Z 56
_cell_length_a 8.477219
_cell_length_b 19.071421
_cell_length_c 22.124609
_cell_angle_alpha 90.000000
_cell_angle_beta 53.735946
_cell_angle_gamma 90.000000
_cell_volume 2884.087762
_symmetry_space_group_name_H-M "C 2/M"
_symmetry_group_IT_number 12
_symmetry_cell_setting 'monoclinic'
loop_
_space_group_symop_operation_xyz
x,y,z
-x,y,-z
-x,-y,-z
x,-y,z
1/2+x,1/2+y,z
1/2-x,1/2+y,-z
1/2-x,1/2-y,-z
1/2+x,1/2-y,z
loop_
_atom_site_type_symbol
_atom_site_label
_atom_site_fract_x
_atom_site_fract_y
_atom_site_fract_z
Si Si1 0.283510 0.703555 0.052418
Si Si2 0.993446 0.079475 0.237669
Si Si3 0.983779 0.919518 0.622305
Si Si4 0.116120 0.334481 0.320863
Si Si5 0.668438 0.829659 0.511885
Si Si6 0.819643 0.299437 0.294227
Si Si7 0.349686 0.184012 0.146024
O O1 0.304706 0.756119 0.105798
O O2 0.079664 0.660242 0.095176
O O3 0.500000 0.668603 0.000000
O O4 0.250000 0.750000 0.000000
O O5 0.976360 0.079553 0.314611
O O6 0.787591 0.112735 0.265045
O O7 0.181242 0.125511 0.176485
O O8 0.015883 0.000000 0.211714
O O9 0.158425 0.881039 0.547933
O O10 0.798793 0.868317 0.660606
O O11 0.954162 0.000000 0.609580
O O12 0.211522 0.271339 0.338058
O O13 0.935926 0.357502 0.403607
O O14 0.023243 0.304213 0.281283
O O15 0.500000 0.830413 0.500000
O O16 0.750000 0.750000 0.500000
O O17 0.833428 0.292572 0.219368
#
# Coordination Sequence:
#
# PCOD9187533 Si02
#       7
#     8   8   8   8   8   8   8
#     4   9  18  33  59  94 126 149 185 230 275 337
#     4  10  22  39  58  83 116 157 205 250 301 362
#     4  10  22  40  57  79 112 154 199 253 313 367
#     4  12  22  35  57  82 112 149 203 259 306 355
#     4  12  23  37  57  79 109 152 203 258 315 367
#     4  11  22  36  58  86 114 149 196 248 299 360
#     4  10  19  35  59  88 122 160 188 232 297 343
#
# _framework density 19.416884
#
# number of rings (size 3 to 8) (size 9 to 14) (size 15 to 20)
#    0.000    1.429    2.857    4.286    0.000    2.571 
#    0.000    0.714    0.000    4.286    0.000    0.000 
#    0.000    0.000    0.000    0.000    0.000    0.000 
#
# Total GULP energy -156074.155939 kJ/mol
# GULP energy per Si atom -5574.076998 kJ/mol
# Density = 1.937269 g / cm^3
# Si number density = 19.416884 Si / 1000 Ang^3
#
#
#
# Elastic Constant Matrix: (Units=GPa)
#
#
# Indices 1 2 3 4 5 6 
#
# 1 116.5621 18.0472 42.0316 0.0000 -10.2085 -0.0001
# 2 18.0472 73.9544 33.6274 0.0000 -14.0995 0.0000
# 3 42.0316 33.6274 96.4793 0.0000 -19.5894 0.0000
# 4 0.0000 0.0000 0.0000 11.9349 0.0000 0.3029
# 5 -10.2085 -14.0995 -19.5894 0.0000 38.9286 0.0000
# 6 -0.0001 0.0000 0.0000 0.3029 0.0000 13.5668
#
#
#
# Elastic Compliance Matrix: (Units=1/GPa)
#
#
# Indices 1 2 3 4 5 6 
#
# 1 0.010202 -0.000512 -0.004189 0.000000 0.000382 0.000000
# 2 -0.000512 0.016495 -0.004834 0.000000 0.003407 0.000000
# 3 -0.004189 -0.004834 0.014809 0.000000 0.004603 0.000000
# 4 0.000000 0.000000 0.000000 0.083835 0.000000 -0.001872
# 5 0.000382 0.003407 0.004603 0.000000 0.029339 0.000000
# 6 0.000000 0.000000 0.000000 -0.001872 0.000000 0.073751
#
#
# Mechanical properties :
#
#
# Convention : Reuss Voigt Hill
#
# Bulk Modulus (GPa) = 44.57094 52.71204 48.64149
# Shear Modulus (GPa) = 19.60941 25.77203 22.69072
#
# Velocity S-wave (km/s) = 3.18136 3.64717 3.42220
# Velocity P-wave (km/s) = 6.04147 6.70390 6.38128
#
# Compressibility (1/GPa) = 0.02243614
#
# Stress axis : x y z
#
# Youngs Moduli (GPa) = 98.01760 60.62615 67.52584
#
# Poissons Ratio (x) = 0.03106 0.28283
# Poissons Ratio (y) = 0.05021 0.32643
# Poissons Ratio (z) = 0.41055 0.29307
#
# Static dielectric constant tensor:
#      x y z
#    x 1.702440 0.000000 -0.052210 
#    y 0.000000 1.664630 0.000000 
#    z -0.052210 0.000000 1.859970 
# 
# From -- ./inp_files/333567.got.cif
#   From: 2010.05.17/outbox.cif.g08.bks.cpg/sg12_167_cif.got.tgz:333567.got - 2010.06.03 13:09:07.
