data_PCOD9187550
_publ_section_title
;
Structure prediction by ZEFSAII (Michael W. Deem and Ramdas Pophale) SiO2 
 PCOD9187550
Probable space group: C 2/M
;
_chemical_formula_sum "Si O2"
_cell_formula_units_Z 48
_cell_length_a 11.375524
_cell_length_b 13.579458
_cell_length_c 15.939490
_cell_angle_alpha 90.000000
_cell_angle_beta 57.549509
_cell_angle_gamma 90.000000
_cell_volume 2077.764430
_symmetry_space_group_name_H-M "C 2/M"
_symmetry_group_IT_number 12
_symmetry_cell_setting 'monoclinic'
loop_
_space_group_symop_operation_xyz
x,y,z
-x,y,-z
-x,-y,-z
x,-y,z
1/2+x,1/2+y,z
1/2-x,1/2+y,-z
1/2-x,1/2-y,-z
1/2+x,1/2-y,z
loop_
_atom_site_type_symbol
_atom_site_label
_atom_site_fract_x
_atom_site_fract_y
_atom_site_fract_z
Si Si1 0.078146 0.637714 0.554629
Si Si2 0.587064 0.822212 0.092668
Si Si3 0.226087 0.683295 0.752764
Si Si4 0.144165 0.857346 0.476581
Si Si5 0.816300 0.608934 0.768041
Si Si6 0.320522 0.614166 0.888671
O O1 0.094991 0.755593 0.538827
O O2 0.235427 0.601782 0.508965
O O3 0.000000 0.605691 0.500000
O O4 0.972284 0.613634 0.669795
O O5 0.428834 0.851630 0.167680
O O6 0.673485 0.866199 0.137813
O O7 0.597569 0.702814 0.095778
O O8 0.663227 0.863271 0.981669
O O9 0.272560 0.658777 0.641831
O O10 0.234962 0.801535 0.757077
O O11 0.324131 0.637940 0.787899
O O12 0.000000 0.903119 0.500000
O O13 0.759247 0.500000 0.775532
O O14 0.356553 0.500000 0.890900
#
# Coordination Sequence:
#
# PCOD9187550 Si02
#       6
#     8   8   8   8   8   8
#     4  10  19  35  59  89 123 176 220 270 324 390
#     4  10  22  41  65  92 129 172 209 265 339 394
#     4  11  21  39  63  92 126 172 214 266 334 392
#     4  10  19  36  63  91 126 179 219 273 331 394
#     4  11  22  37  60  95 128 165 222 274 322 392
#     4  10  23  41  65  97 128 164 215 269 329 406
#
# _framework density 23.101752999999999
#
# number of rings (size 3 to 8) (size 9 to 14) (size 15 to 20)
#    0.000    1.667    5.000    1.000    0.000    3.000 
#    0.000    0.000    0.000    8.000    0.000    0.000 
#    0.000    0.000    0.000    0.000    0.000    0.000 
#
# Total GULP energy -133989.461838 kJ/mol
# GULP energy per Si atom -5582.894243 kJ/mol
# Density = 2.304917 g / cm^3
# Si number density = 23.101753 Si / 1000 Ang^3
#
#
#
# Elastic Constant Matrix: (Units=GPa)
#
#
# Indices 1 2 3 4 5 6 
#
# 1 114.1726 1.5009 6.9942 0.0000 0.3540 0.0000
# 2 1.5009 130.6179 15.5191 0.0000 13.0104 0.0000
# 3 6.9942 15.5191 83.9432 0.0000 10.2886 0.0000
# 4 0.0000 0.0000 0.0000 -38.3757 0.0000 -0.1263
# 5 0.3540 13.0104 10.2886 0.0000 33.9316 0.0000
# 6 0.0000 0.0000 0.0000 -0.1263 0.0000 -39.5779
#
#
#
# Elastic Compliance Matrix: (Units=1/GPa)
#
#
# Indices 1 2 3 4 5 6 
#
# 1 0.008804 -0.000027 -0.000746 0.000000 0.000145 0.000000
# 2 -0.000027 0.008066 -0.001153 0.000000 -0.002743 0.000000
# 3 -0.000746 -0.001153 0.012601 0.000000 -0.003371 0.000000
# 4 0.000000 0.000000 0.000000 -0.026058 0.000000 0.000083
# 5 0.000145 -0.002743 -0.003371 0.000000 0.031543 0.000000
# 6 0.000000 0.000000 0.000000 0.000083 0.000000 -0.025267
#
#
# Mechanical properties :
#
#
# Convention : Reuss Voigt Hill
#
# Bulk Modulus (GPa) = 39.03225 41.86245 40.44735
# Shear Modulus (GPa) = 226.42560 11.51024 118.96792
#
# Velocity S-wave (km/s) = 9.91086 2.23455 7.18395
# Velocity P-wave (km/s) = 12.16138 4.98175 9.29293
#
# Compressibility (1/GPa) = 0.02561984
#
# Stress axis : x y z
#
# Youngs Moduli (GPa) = 113.58089 123.97059 79.35676
#
# Poissons Ratio (x) = 0.00334 0.05923
# Poissons Ratio (y) = 0.00306 0.09149
# Poissons Ratio (z) = 0.08477 0.14292
#
# Static dielectric constant tensor:
#      x y z
#    x 1.901560 0.000000 0.008000 
#    y 0.000000 1.873560 0.000000 
#    z 0.008000 0.000000 1.820970 
# 
# From -- ./inp_files/204846.got.cif
#   From: 2010.05.17/outbox.cif.g08.bks.cpg/sg12_103_cif.got.tgz:204846.got - 2010.06.03 13:09:07.
