data_PCOD9187309
_publ_section_title
;
Structure prediction by ZEFSAII (Michael W. Deem and Ramdas Pophale) SiO2 
 PCOD9187309
Probable space group: C 2/M
;
_chemical_formula_sum "Si O2"
_cell_formula_units_Z 42
_cell_length_a 14.275583
_cell_length_b 7.643806
_cell_length_c 19.614036
_cell_angle_alpha 90.000000
_cell_angle_beta 124.841040
_cell_angle_gamma 90.000000
_cell_volume 1756.613381
_symmetry_space_group_name_H-M "C 2/M"
_symmetry_group_IT_number 12
_symmetry_cell_setting 'monoclinic'
loop_
_space_group_symop_operation_xyz
x,y,z
-x,y,-z
-x,-y,-z
x,-y,z
1/2+x,1/2+y,z
1/2-x,1/2+y,-z
1/2-x,1/2-y,-z
1/2+x,1/2-y,z
loop_
_atom_site_type_symbol
_atom_site_label
_atom_site_fract_x
_atom_site_fract_y
_atom_site_fract_z
Si Si1 0.787385 0.210527 0.091728
Si Si2 0.772700 0.788896 0.587568
Si Si3 0.030486 0.798712 0.238236
Si Si4 0.290368 0.790980 0.800737
Si Si5 0.000000 0.500000 0.500000
Si Si6 0.586511 0.694913 0.620082
O O1 0.705647 0.269047 0.119542
O O2 0.913139 0.281207 0.162763
O O3 0.790471 0.000000 0.097430
O O4 0.750000 0.250000 0.000000
O O5 0.750000 0.750000 0.500000
O O6 0.897296 0.733547 0.666947
O O7 0.683272 0.697305 0.600720
O O8 0.755637 0.000000 0.592156
O O9 0.119865 0.793545 0.212828
O O10 0.005448 0.000000 0.244806
O O11 0.162146 0.763542 0.718200
O O12 0.309785 0.000000 0.804958
O O13 0.995181 0.346596 0.438757
O O14 0.535941 0.500000 0.604061
#
# Coordination Sequence:
#
# PCOD9187309 Si02
#       6
#     8   8   8   8   2   8
#     4  10  22  41  61  92 123 158 207 261 317 387
#     4  10  19  35  58  87 121 163 213 263 309 379
#     4   9  20  38  62  85 121 166 206 252 320 375
#     4   9  20  39  63  85 121 163 207 255 317 381
#     4  12  22  36  56  90 124 154 222 256 312 376
#     4  10  21  38  58  84 123 170 211 262 317 377
#
# _framework density 23.909642999999999
#
# number of rings (size 3 to 8) (size 9 to 14) (size 15 to 20)
#    0.000    2.286    0.952    0.857    1.333    4.571 
#    0.000    7.619    0.000    0.000    0.000    0.000 
#    0.000    0.000    0.000    0.000    0.000    0.000 
#
# Total GULP energy -117171.332884 kJ/mol
# GULP energy per Si atom -5579.587280 kJ/mol
# Density = 2.385522 g / cm^3
# Si number density = 23.909643 Si / 1000 Ang^3
#
#
#
# Elastic Constant Matrix: (Units=GPa)
#
#
# Indices 1 2 3 4 5 6 
#
# 1 63.3937 7.6237 59.7487 0.0000 -10.4836 0.0000
# 2 7.6237 97.9195 17.2788 0.0000 0.7176 0.0000
# 3 59.7487 17.2788 189.3076 0.0000 -32.8437 0.0000
# 4 0.0000 0.0000 0.0000 31.8975 0.0000 1.0653
# 5 -10.4836 0.7176 -32.8437 0.0000 40.3641 0.0000
# 6 0.0000 0.0000 0.0000 1.0653 0.0000 16.1462
#
#
#
# Elastic Compliance Matrix: (Units=1/GPa)
#
#
# Indices 1 2 3 4 5 6 
#
# 1 0.022479 -0.000511 -0.007025 0.000000 0.000131 0.000000
# 2 -0.000511 0.010434 -0.000985 0.000000 -0.001120 0.000000
# 3 -0.007025 -0.000985 0.008472 0.000000 0.005087 0.000000
# 4 0.000000 0.000000 0.000000 0.031420 0.000000 -0.002073
# 5 0.000131 -0.001120 0.005087 0.000000 0.028967 0.000000
# 6 0.000000 0.000000 0.000000 -0.002073 0.000000 0.062071
#
#
# Mechanical properties :
#
#
# Convention : Reuss Voigt Hill
#
# Bulk Modulus (GPa) = 41.08227 57.76924 49.42575
# Shear Modulus (GPa) = 26.45483 35.41286 30.93385
#
# Velocity S-wave (km/s) = 3.32994 3.85270 3.60082
# Velocity P-wave (km/s) = 5.65723 6.63362 6.16479
#
# Compressibility (1/GPa) = 0.02434140
#
# Stress axis : x y z
#
# Youngs Moduli (GPa) = 44.48593 95.83721 118.03395
#
# Poissons Ratio (x) = 0.04901 0.82923
# Poissons Ratio (y) = 0.02275 0.11630
# Poissons Ratio (z) = 0.31253 0.09443
#
# Static dielectric constant tensor:
#      x y z
#    x 2.000920 0.000000 0.055060 
#    y 0.000000 1.926780 0.000000 
#    z 0.055060 0.000000 1.932590 
# 
# From -- ./inp_files/267786.got.cif
#   From: 2010.05.17/outbox.cif.g08.bks.cpg/sg12_134_cif.got.tgz:267786.got - 2010.06.03 13:09:07.
