data_PCOD9187248
_publ_section_title
;
Structure prediction by ZEFSAII (Michael W. Deem and Ramdas Pophale) SiO2 
 PCOD9187248
Probable space group: C 2/M
;
_chemical_formula_sum "Si O2"
_cell_formula_units_Z 40
_cell_length_a 14.823511
_cell_length_b 8.564881
_cell_length_c 13.818413
_cell_angle_alpha 90.000000
_cell_angle_beta 76.752218
_cell_angle_gamma 90.000000
_cell_volume 1707.719856
_symmetry_space_group_name_H-M "C 2/M"
_symmetry_group_IT_number 12
_symmetry_cell_setting 'monoclinic'
loop_
_space_group_symop_operation_xyz
x,y,z
-x,y,-z
-x,-y,-z
x,-y,z
1/2+x,1/2+y,z
1/2-x,1/2+y,-z
1/2-x,1/2-y,-z
1/2+x,1/2-y,z
loop_
_atom_site_type_symbol
_atom_site_label
_atom_site_fract_x
_atom_site_fract_y
_atom_site_fract_z
Si Si1 0.623551 0.319873 0.764540
Si Si2 0.721458 0.313541 0.156718
Si Si3 0.108173 0.679433 0.568561
Si Si4 0.942868 0.813928 0.924726
Si Si5 0.404931 0.681600 0.623950
O O1 0.641513 0.500000 0.738496
O O2 0.682876 0.270564 0.843425
O O3 0.647146 0.221254 0.664186
O O4 0.515686 0.303158 0.818526
O O5 0.735426 0.500000 0.142168
O O6 0.656081 0.252238 0.086313
O O7 0.662139 0.289123 0.269834
O O8 0.124317 0.500000 0.541744
O O9 0.139801 0.782444 0.469638
O O10 0.997856 0.715424 0.605425
O O11 0.929585 0.000000 0.947129
O O12 0.000000 0.744220 0.000000
O O13 0.433261 0.500000 0.620720
#
# Coordination Sequence:
#
# PCOD9187248 Si02
#       5
#     8   8   8   8   8
#     4  11  22  38  60  88 118 156 197 239 291 349
#     4  10  21  38  60  88 119 154 194 239 290 346
#     4  11  21  34  56  86 119 156 197 242 288 338
#     4   9  19  39  64  86 114 153 194 239 296 354
#     4  10  19  35  58  84 118 159 198 236 286 346
#
# _framework density 23.423044999999998
#
# number of rings (size 3 to 8) (size 9 to 14) (size 15 to 20)
#    0.000    1.800    2.000    4.200    0.000    3.200 
#    0.000    0.000    0.000    4.200    0.000    0.000 
#    0.000    0.000    0.000    0.000    0.000    0.000 
#
# Total GULP energy -111833.525695 kJ/mol
# GULP energy per Si atom -5591.676285 kJ/mol
# Density = 2.336973 g / cm^3
# Si number density = 23.423045 Si / 1000 Ang^3
#
#
#
# Elastic Constant Matrix: (Units=GPa)
#
#
# Indices 1 2 3 4 5 6 
#
# 1 105.2696 7.0313 10.5650 0.0000 26.8854 0.0000
# 2 7.0313 37.9820 4.7033 0.0000 -2.9173 0.0000
# 3 10.5650 4.7033 75.5148 0.0000 31.4093 0.0000
# 4 0.0000 0.0000 0.0000 13.1273 0.0000 10.2821
# 5 26.8854 -2.9173 31.4093 0.0000 42.4213 0.0000
# 6 0.0000 0.0000 0.0000 10.2821 0.0000 22.6126
#
#
#
# Elastic Compliance Matrix: (Units=1/GPa)
#
#
# Indices 1 2 3 4 5 6 
#
# 1 0.011934 -0.003271 0.002563 0.000000 -0.009686 0.000000
# 2 -0.003271 0.028011 -0.004263 0.000000 0.007156 0.000000
# 3 0.002563 -0.004263 0.020154 0.000000 -0.016839 0.000000
# 4 0.000000 0.000000 0.000000 0.118315 0.000000 -0.053799
# 5 -0.009686 0.007156 -0.016839 0.000000 0.042672 0.000000
# 6 0.000000 0.000000 0.000000 -0.053799 0.000000 0.068686
#
#
# Mechanical properties :
#
#
# Convention : Reuss Voigt Hill
#
# Bulk Modulus (GPa) = 19.93751 29.26286 24.60018
# Shear Modulus (GPa) = 15.80106 28.73003 22.26554
#
# Velocity S-wave (km/s) = 2.60011 3.50604 3.08650
# Velocity P-wave (km/s) = 4.18862 5.37681 4.81947
#
# Compressibility (1/GPa) = 0.05015672
#
# Stress axis : x y z
#
# Youngs Moduli (GPa) = 83.79080 35.69988 49.61903
#
# Poissons Ratio (x) = 0.11676 -0.12717
# Poissons Ratio (y) = 0.27405 0.21155
# Poissons Ratio (z) = -0.21474 0.15221
#
# Static dielectric constant tensor:
#      x y z
#    x 1.929750 0.000000 0.025770 
#    y 0.000000 1.777520 0.000000 
#    z 0.025770 0.000000 1.939980 
# 
# From -- ./inp_files/211333.got.cif
#   From: 2010.05.17/outbox.cif.g08.bks.cpg/sg12_106_cif.got.tgz:211333.got - 2010.06.03 13:09:07.
