data_PCOD9187402
_publ_section_title
;
Structure prediction by ZEFSAII (Michael W. Deem and Ramdas Pophale) SiO2 
 PCOD9187402
Probable space group: C 2/M
;
_chemical_formula_sum "Si O2"
_cell_formula_units_Z 48
_cell_length_a 10.324030
_cell_length_b 30.107018
_cell_length_c 19.991045
_cell_angle_alpha 90.000000
_cell_angle_beta 26.745499
_cell_angle_gamma 90.000000
_cell_volume 2796.355048
_symmetry_space_group_name_H-M "C 2/M"
_symmetry_group_IT_number 12
_symmetry_cell_setting 'monoclinic'
loop_
_space_group_symop_operation_xyz
x,y,z
-x,y,-z
-x,-y,-z
x,-y,z
1/2+x,1/2+y,z
1/2-x,1/2+y,-z
1/2-x,1/2-y,-z
1/2+x,1/2-y,z
loop_
_atom_site_type_symbol
_atom_site_label
_atom_site_fract_x
_atom_site_fract_y
_atom_site_fract_z
Si Si1 0.592194 0.051650 0.880249
Si Si2 0.448797 0.627460 0.335504
Si Si3 0.577842 0.799906 0.886930
Si Si4 0.995399 0.052734 0.080227
Si Si5 0.482323 0.695189 0.086038
Si Si6 0.671563 0.876481 0.315642
O O1 0.846407 0.085312 0.747217
O O2 0.675518 0.000000 0.833288
O O3 0.500000 0.057909 0.000000
O O4 0.311433 0.060719 0.965228
O O5 0.642384 0.671173 0.258701
O O6 0.343181 0.626166 0.306914
O O7 0.163763 0.624885 0.511654
O O8 0.610340 0.746793 0.865513
O O9 0.500000 0.809734 0.000000
O O10 0.299254 0.811394 0.971267
O O11 0.772424 0.080507 0.227500
O O12 0.936009 0.000000 0.112302
O O13 0.000000 0.065320 0.000000
O O14 0.265638 0.664843 0.226973
O O15 0.500000 0.683707 0.000000
#
# Coordination Sequence:
#
# PCOD9187402 Si02
#       6
#     8   8   8   8   8   8
#     4  10  19  35  59  84 108 144 192 228 263 324
#     4  11  22  35  57  83 117 149 179 231 284 328
#     4  10  19  37  60  80 106 146 189 229 272 326
#     4  10  21  38  60  84 113 148 186 230 275 324
#     4  10  21  36  59  83 105 141 190 234 272 324
#     4  11  22  36  55  85 116 148 183 227 283 334
#
# _framework density 17.165201
#
# number of rings (size 3 to 8) (size 9 to 14) (size 15 to 20)
#    0.000    1.667    3.333    2.000    0.000    1.333 
#    0.000    5.000    0.000    3.000    0.000    0.000 
#    0.000    0.000    0.000    0.000    0.000    0.000 
#
# Total GULP energy -134010.940855 kJ/mol
# GULP energy per Si atom -5583.789202 kJ/mol
# Density = 1.712613 g / cm^3
# Si number density = 17.165201 Si / 1000 Ang^3
#
#
#
# Elastic Constant Matrix: (Units=GPa)
#
#
# Indices 1 2 3 4 5 6 
#
# 1 140.3638 54.7750 74.8455 -0.0012 3.3217 0.0004
# 2 54.7750 98.9864 102.3312 0.0004 -3.7705 0.0000
# 3 74.8455 102.3312 163.1060 -0.0016 0.1577 0.0017
# 4 -0.0012 0.0004 -0.0016 -4.7984 0.0013 0.7356
# 5 3.3217 -3.7705 0.1577 0.0013 23.5964 -0.0008
# 6 0.0004 0.0000 0.0017 0.7356 -0.0008 10.9167
#
#
#
# Elastic Compliance Matrix: (Units=1/GPa)
#
#
# Indices 1 2 3 4 5 6 
#
# 1 0.009659 -0.002362 -0.002949 -0.000002 -0.001717 0.000000
# 2 -0.002362 0.029860 -0.017655 0.000011 0.005222 0.000003
# 3 -0.002949 -0.017655 0.018563 -0.000008 -0.002530 -0.000003
# 4 -0.000002 0.000011 -0.000008 -0.206270 0.000014 0.013899
# 5 -0.001717 0.005222 -0.002530 0.000014 0.043472 0.000003
# 6 0.000000 0.000003 -0.000003 0.013899 0.000003 0.090666
#
#
# Mechanical properties :
#
#
# Convention : Reuss Voigt Hill
#
# Bulk Modulus (GPa) = 82.30025 96.26219 89.28122
# Shear Modulus (GPa) = 139.15043 17.30990 78.23017
#
# Velocity S-wave (km/s) = 9.01340 3.17902 6.75824
# Velocity P-wave (km/s) = 12.50488 8.34725 10.63129
#
# Compressibility (1/GPa) = 0.01215063
#
# Stress axis : x y z
#
# Youngs Moduli (GPa) = 103.52968 33.48967 53.86982
#
# Poissons Ratio (x) = 0.07910 0.15886
# Poissons Ratio (y) = 0.24452 0.95108
# Poissons Ratio (z) = 0.30530 0.59126
#
# Static dielectric constant tensor:
#      x y z
#    x 1.576860 0.000000 -0.001460 
#    y 0.000000 1.598410 0.000000 
#    z -0.001460 0.000000 1.531950 
# 
# From -- ./inp_files/53842.got.cif
#   From: 2010.05.17/outbox.cif.g08.bks.cpg/sg12_27_cif.got.tgz:53842.got - 2010.06.03 13:09:07.
