data_PCOD9187446
_publ_section_title
;
Structure prediction by ZEFSAII (Michael W. Deem and Ramdas Pophale) SiO2 
 PCOD9187446
Probable space group: C 2/M
;
_chemical_formula_sum "Si O2"
_cell_formula_units_Z 64
_cell_length_a 24.512000
_cell_length_b 15.034512
_cell_length_c 17.426331
_cell_angle_alpha 90.000000
_cell_angle_beta 148.156440
_cell_angle_gamma 90.000000
_cell_volume 3388.287869
_symmetry_space_group_name_H-M "C 2/M"
_symmetry_group_IT_number 12
_symmetry_cell_setting 'monoclinic'
loop_
_space_group_symop_operation_xyz
x,y,z
-x,y,-z
-x,-y,-z
x,-y,z
1/2+x,1/2+y,z
1/2-x,1/2+y,-z
1/2-x,1/2-y,-z
1/2+x,1/2-y,z
loop_
_atom_site_type_symbol
_atom_site_label
_atom_site_fract_x
_atom_site_fract_y
_atom_site_fract_z
Si Si1 0.401722 0.393349 0.833230
Si Si2 0.188927 0.600430 0.302539
Si Si3 0.337581 0.324957 0.591766
Si Si4 0.242818 0.605218 0.203802
Si Si5 0.515663 0.104940 0.864364
Si Si6 0.677882 0.893836 0.639367
Si Si7 0.479038 0.797450 0.664005
Si Si8 0.394501 0.750200 0.328094
O O1 0.413119 0.500000 0.837409
O O2 0.387723 0.353000 0.731737
O O3 0.295205 0.378118 0.752037
O O4 0.500000 0.360926 0.000000
O O5 0.163330 0.500000 0.247237
O O6 0.269356 0.600461 0.468211
O O7 0.242833 0.639949 0.291885
O O8 0.081078 0.641644 0.201761
O O9 0.250000 0.250000 0.500000
O O10 0.419883 0.286603 0.629930
O O11 0.271324 0.500000 0.232915
O O12 0.317125 0.668119 0.244173
O O13 0.124736 0.615240 0.035772
O O14 0.516378 0.148398 0.782200
O O15 0.495652 0.000000 0.830727
O O16 0.602006 0.855933 0.482508
O O17 0.652016 0.836736 0.684276
O O18 0.662353 0.000000 0.631030
O O19 0.570555 0.771080 0.716194
O O20 0.500000 0.727854 0.500000
#
# Coordination Sequence:
#
# PCOD9187446 Si02
#       8
#     8   8   8   8   8   8   8   8
#     4  10  22  40  61  88 122 158 198 246 303 364
#     4  10  19  35  59  85 114 146 186 241 295 352
#     4  12  21  36  58  89 117 151 192 239 296 357
#     4  10  22  39  59  83 115 154 196 241 294 350
#     4  10  20  35  56  85 116 148 186 238 303 359
#     4  10  20  38  62  87 117 156 198 244 297 355
#     4  11  22  36  55  85 119 153 194 246 290 351
#     4  10  23  39  57  82 114 149 204 247 288 349
#
# _framework density 18.888596
#
# number of rings (size 3 to 8) (size 9 to 14) (size 15 to 20)
#    0.000    1.625    2.500    2.625    0.000    8.000 
#    0.000    1.250    0.000    3.000    0.000    0.000 
#    0.000    0.000    0.000    0.000    0.000    0.000 
#
# Total GULP energy -178642.992603 kJ/mol
# GULP energy per Si atom -5582.593519 kJ/mol
# Density = 1.884560 g / cm^3
# Si number density = 18.888596 Si / 1000 Ang^3
#
#
#
# Elastic Constant Matrix: (Units=GPa)
#
#
# Indices 1 2 3 4 5 6 
#
# 1 136.8203 49.9519 50.0829 0.0000 9.3996 0.0000
# 2 49.9519 76.5290 41.4412 0.0000 14.0347 0.0000
# 3 50.0829 41.4412 90.9959 0.0000 0.1022 0.0000
# 4 0.0000 0.0000 0.0000 23.1187 0.0000 0.9380
# 5 9.3996 14.0347 0.1022 0.0000 19.3555 0.0000
# 6 0.0000 0.0000 0.0000 0.9380 0.0000 25.4394
#
#
#
# Elastic Compliance Matrix: (Units=1/GPa)
#
#
# Indices 1 2 3 4 5 6 
#
# 1 0.010417 -0.004467 -0.003697 0.000000 -0.001800 0.000000
# 2 -0.004467 0.022948 -0.007976 0.000000 -0.014428 0.000000
# 3 -0.003697 -0.007976 0.016648 0.000000 0.007491 0.000000
# 4 0.000000 0.000000 0.000000 0.043320 0.000000 -0.001597
# 5 -0.001800 -0.014428 0.007491 0.000000 0.062961 0.000000
# 6 0.000000 0.000000 0.000000 -0.001597 0.000000 0.039368
#
#
# Mechanical properties :
#
#
# Convention : Reuss Voigt Hill
#
# Bulk Modulus (GPa) = 56.39275 65.25525 60.82400
# Shear Modulus (GPa) = 21.38104 24.44065 22.91084
#
# Velocity S-wave (km/s) = 3.36810 3.60104 3.48652
# Velocity P-wave (km/s) = 6.71161 7.20502 6.96269
#
# Compressibility (1/GPa) = 0.01773278
#
# Stress axis : x y z
#
# Youngs Moduli (GPa) = 96.00022 43.57728 60.06705
#
# Poissons Ratio (x) = 0.19467 0.22205
# Poissons Ratio (y) = 0.42886 0.47909
# Poissons Ratio (z) = 0.35488 0.34757
#
# Static dielectric constant tensor:
#      x y z
#    x 1.690630 0.000000 0.000150 
#    y 0.000000 1.696900 0.000000 
#    z 0.000150 0.000000 1.641340 
# 
# From -- ./inp_files/278170.got.cif
#   From: 2010.05.17/outbox.cif.g08.bks.cpg/sg12_140_cif.got.tgz:278170.got - 2010.06.03 13:09:07.
