data_PCOD9187525
_publ_section_title
;
Structure prediction by ZEFSAII (Michael W. Deem and Ramdas Pophale) SiO2 
 PCOD9187525
Probable space group: C 2/M
;
_chemical_formula_sum "Si O2"
_cell_formula_units_Z 64
_cell_length_a 23.103456
_cell_length_b 16.811729
_cell_length_c 10.437154
_cell_angle_alpha 90.000000
_cell_angle_beta 46.218198
_cell_angle_gamma 90.000000
_cell_volume 2926.823985
_symmetry_space_group_name_H-M "C 2/M"
_symmetry_group_IT_number 12
_symmetry_cell_setting 'monoclinic'
loop_
_space_group_symop_operation_xyz
x,y,z
-x,y,-z
-x,-y,-z
x,-y,z
1/2+x,1/2+y,z
1/2-x,1/2+y,-z
1/2-x,1/2-y,-z
1/2+x,1/2-y,z
loop_
_atom_site_type_symbol
_atom_site_label
_atom_site_fract_x
_atom_site_fract_y
_atom_site_fract_z
Si Si1 0.649462 0.905266 0.013790
Si Si2 0.128043 0.822722 0.684312
Si Si3 0.686334 0.845765 0.674967
Si Si4 0.341639 0.595163 0.103862
Si Si5 0.504802 0.827450 0.632393
Si Si6 0.051783 0.850550 0.534935
Si Si7 0.837376 0.412567 0.544132
Si Si8 0.178401 0.903862 0.152261
O O1 0.569084 0.860315 0.176166
O O2 0.635972 0.000000 0.033941
O O3 0.672512 0.874477 0.838577
O O4 0.725983 0.889162 0.988372
O O5 0.219449 0.828843 0.491937
O O6 0.129546 0.729382 0.723988
O O7 0.115178 0.867026 0.839843
O O8 0.074199 0.861758 0.652333
O O9 0.669797 0.914149 0.597606
O O10 0.349543 0.500000 0.099342
O O11 0.247710 0.614808 0.270825
O O12 0.358376 0.617588 0.930723
O O13 0.500000 0.864671 0.500000
O O14 0.506110 0.732924 0.618733
O O15 0.592500 0.851873 0.540329
O O16 0.136675 0.855346 0.330569
O O17 0.000000 0.895832 0.500000
O O18 0.855289 0.500000 0.569183
O O19 0.168419 0.000000 0.187376
#
# Coordination Sequence:
#
# PCOD9187525 Si02
#       8
#     8   8   8   8   8   8   8   8
#     4  11  23  40  66  97 131 172 219 273 324 381
#     4  10  20  39  65  90 129 172 215 271 323 383
#     4  10  20  37  62  94 125 168 222 267 316 381
#     4   9  20  37  64  98 124 162 215 272 332 388
#     4  11  24  40  57  89 132 175 219 261 325 392
#     4  11  24  44  65  92 129 173 219 268 329 386
#     4  10  19  35  59  87 130 172 209 260 322 390
#     4  10  22  43  69  98 129 165 223 278 322 384
#
# _framework density 21.866707000000002
#
# number of rings (size 3 to 8) (size 9 to 14) (size 15 to 20)
#    0.000    1.750    2.500    1.500    0.000    5.750 
#    0.000    6.875    0.000    1.500    0.000    0.000 
#    0.000    0.000    0.000    0.000    0.000    0.000 
#
# Total GULP energy -178218.151991 kJ/mol
# GULP energy per Si atom -5569.317250 kJ/mol
# Density = 2.181694 g / cm^3
# Si number density = 21.866707 Si / 1000 Ang^3
#
#
#
# Elastic Constant Matrix: (Units=GPa)
#
#
# Indices 1 2 3 4 5 6 
#
# 1 28.0065 39.2112 -32.9193 0.0000 74.4173 0.0000
# 2 39.2112 51.3758 40.6216 0.0000 -7.1892 0.0000
# 3 -32.9193 40.6216 52.1275 0.0000 57.8867 0.0000
# 4 0.0000 0.0000 0.0000 43.9562 0.0000 -8.7531
# 5 74.4173 -7.1892 57.8867 0.0000 19.9122 0.0000
# 6 0.0000 0.0000 0.0000 -8.7531 0.0000 25.4556
#
#
#
# Elastic Compliance Matrix: (Units=1/GPa)
#
#
# Indices 1 2 3 4 5 6 
#
# 1 0.004323 0.003503 -0.007421 0.000000 0.006682 0.000000
# 2 0.003503 0.015129 0.000496 0.000000 -0.009071 0.000000
# 3 -0.007421 0.000496 0.007578 0.000000 0.005884 0.000000
# 4 0.000000 0.000000 0.000000 0.024422 0.000000 0.008398
# 5 0.006682 -0.009071 0.005884 0.000000 0.004867 0.000000
# 6 0.000000 0.000000 0.000000 0.008398 0.000000 0.042172
#
#
# Mechanical properties :
#
#
# Convention : Reuss Voigt Hill
#
# Bulk Modulus (GPa) = 49.53928 25.03741 37.28834
# Shear Modulus (GPa) = 44.61755 23.50455 34.06105
#
# Velocity S-wave (km/s) = 4.52202 3.28213 3.95101
# Velocity P-wave (km/s) = 7.06888 5.08311 6.15659
#
# Compressibility (1/GPa) = 0.02018600
#
# Stress axis : x y z
#
# Youngs Moduli (GPa) = 231.33370 66.09624 131.96896
#
# Poissons Ratio (x) = -0.23155 0.97931
# Poissons Ratio (y) = -0.81042 -0.06541
# Poissons Ratio (z) = 1.71667 -0.03276
#
# Static dielectric constant tensor:
#      x y z
#    x 0.153670 0.000000 1.248080 
#    y 0.000000 1.799070 0.000000 
#    z 1.248080 0.000000 0.968110 
# 
# From -- ./inp_files/99073.got.cif
#   From: 2010.05.17/outbox.cif.g08.bks.cpg/sg12_50_cif.got.tgz:99073.got - 2010.06.03 13:09:07.
