data_PCOD9187674
_publ_section_title
;
Structure prediction by ZEFSAII (Michael W. Deem and Ramdas Pophale) SiO2 
 PCOD9187674
Probable space group: C 2/M
;
_chemical_formula_sum "Si O2"
_cell_formula_units_Z 48
_cell_length_a 23.282731
_cell_length_b 14.312455
_cell_length_c 9.959636
_cell_angle_alpha 90.000000
_cell_angle_beta 140.966568
_cell_angle_gamma 90.000000
_cell_volume 2090.143355
_symmetry_space_group_name_H-M "C 2/M"
_symmetry_group_IT_number 12
_symmetry_cell_setting 'monoclinic'
loop_
_space_group_symop_operation_xyz
x,y,z
-x,y,-z
-x,-y,-z
x,-y,z
1/2+x,1/2+y,z
1/2-x,1/2+y,-z
1/2-x,1/2-y,-z
1/2+x,1/2-y,z
loop_
_atom_site_type_symbol
_atom_site_label
_atom_site_fract_x
_atom_site_fract_y
_atom_site_fract_z
Si Si1 0.838705 0.282675 0.577667
Si Si2 0.593567 0.607908 0.723568
Si Si3 0.390271 0.892440 0.915310
Si Si4 0.672259 0.398926 0.574922
Si Si5 0.414525 0.112639 0.249525
Si Si6 0.237517 0.613771 0.820072
O O1 0.750000 0.250000 0.500000
O O2 0.900356 0.337304 0.795220
O O3 0.876872 0.187582 0.584012
O O4 0.803330 0.346614 0.391327
O O5 0.500000 0.652666 0.500000
O O6 0.570929 0.500000 0.721272
O O7 0.655256 0.604560 0.702364
O O8 0.659105 0.645271 0.959308
O O9 0.280594 0.893551 0.746283
O O10 0.418508 0.000000 0.949235
O O11 0.430087 0.852552 0.126608
O O12 0.640115 0.500000 0.466606
O O13 0.500000 0.127921 0.500000
O O14 0.327486 0.146294 0.175813
O O15 0.402728 0.000000 0.212972
O O16 0.236238 0.500000 0.814456
#
# Coordination Sequence:
#
# PCOD9187674 Si02
#       6
#     8   8   8   8   8   8
#     4  10  21  34  55  83 115 156 193 230 285 347
#     4   9  17  32  58  88 113 145 194 245 290 332
#     4   9  16  32  56  83 117 152 184 227 288 346
#     4   9  17  33  56  81 111 149 192 237 287 337
#     4   9  17  32  58  89 117 151 192 233 282 344
#     4  10  19  35  60  89 117 148 190 237 285 341
#
# _framework density 22.964932000000001
#
# number of rings (size 3 to 8) (size 9 to 14) (size 15 to 20)
#    0.000    2.667    1.667    0.500    0.000    1.333 
#    0.000    1.667    3.667    7.000    0.000   19.833 
#    0.000    0.667    0.000    0.000    0.000    0.000 
#
# Total GULP energy -134019.253545 kJ/mol
# GULP energy per Si atom -5584.135564 kJ/mol
# Density = 2.291266 g / cm^3
# Si number density = 22.964932 Si / 1000 Ang^3
#
#
#
# Elastic Constant Matrix: (Units=GPa)
#
#
# Indices 1 2 3 4 5 6 
#
# 1 52.2134 4.6673 48.0361 0.0000 -3.4681 0.0000
# 2 4.6673 86.9764 51.4152 0.0000 -21.7977 0.0000
# 3 48.0361 51.4152 197.9347 0.0000 -27.7444 0.0000
# 4 0.0000 0.0000 0.0000 -16.9101 0.0000 -12.1523
# 5 -3.4681 -21.7977 -27.7444 0.0000 39.2695 0.0000
# 6 0.0000 0.0000 0.0000 -12.1523 0.0000 12.8239
#
#
#
# Elastic Compliance Matrix: (Units=1/GPa)
#
#
# Indices 1 2 3 4 5 6 
#
# 1 0.025229 0.002412 -0.006936 0.000000 -0.001333 0.000000
# 2 0.002412 0.015023 -0.003651 0.000000 0.005973 0.000000
# 3 -0.006936 -0.003651 0.008118 0.000000 0.003096 0.000000
# 4 0.000000 0.000000 0.000000 -0.035179 0.000000 -0.033337
# 5 -0.001333 0.005973 0.003096 0.000000 0.030850 0.000000
# 6 0.000000 0.000000 0.000000 -0.033337 0.000000 0.046389
#
#
# Mechanical properties :
#
#
# Convention : Reuss Voigt Hill
#
# Bulk Modulus (GPa) = 31.22969 60.59574 45.91271
# Shear Modulus (GPa) = 42.57037 22.57037 32.57037
#
# Velocity S-wave (km/s) = 4.31015 3.13840 3.77007
# Velocity P-wave (km/s) = 6.19663 6.29096 6.24397
#
# Compressibility (1/GPa) = 0.03202081
#
# Stress axis : x y z
#
# Youngs Moduli (GPa) = 39.63635 66.56564 123.18592
#
# Poissons Ratio (x) = -0.16058 0.85446
# Poissons Ratio (y) = -0.09562 0.44969
# Poissons Ratio (z) = 0.27493 0.24300
#
# Static dielectric constant tensor:
#      x y z
#    x 1.881620 0.000000 0.032390 
#    y 0.000000 1.904300 0.000000 
#    z 0.032390 0.000000 1.872830 
# 
# From -- ./inp_files/105053.got.cif
#   From: 2010.05.17/outbox.cif.g08.bks.cpg/sg12_53_cif.got.tgz:105053.got - 2010.06.03 13:09:07.
