data_PCOD9187781
_publ_section_title
;
Structure prediction by ZEFSAII (Michael W. Deem and Ramdas Pophale) SiO2 
 PCOD9187781
Probable space group: C 2/M
;
_chemical_formula_sum "Si O2"
_cell_formula_units_Z 40
_cell_length_a 28.416016
_cell_length_b 8.702070
_cell_length_c 9.713500
_cell_angle_alpha 90.000000
_cell_angle_beta 135.063002
_cell_angle_gamma 90.000000
_cell_volume 1696.556922
_symmetry_space_group_name_H-M "C 2/M"
_symmetry_group_IT_number 12
_symmetry_cell_setting 'monoclinic'
loop_
_space_group_symop_operation_xyz
x,y,z
-x,y,-z
-x,-y,-z
x,-y,z
1/2+x,1/2+y,z
1/2-x,1/2+y,-z
1/2-x,1/2-y,-z
1/2+x,1/2-y,z
loop_
_atom_site_type_symbol
_atom_site_label
_atom_site_fract_x
_atom_site_fract_y
_atom_site_fract_z
Si Si1 0.804938 0.819049 0.511670
Si Si2 0.062885 0.685424 0.306358
Si Si3 0.710506 0.678707 0.112651
Si Si4 0.883516 0.678131 0.286917
Si Si5 0.581250 0.179056 0.940712
O O1 0.750000 0.750000 0.500000
O O2 0.878348 0.745909 0.668277
O O3 0.772426 0.774711 0.296522
O O4 0.808796 0.000000 0.536368
O O5 0.062218 0.500000 0.298757
O O6 0.084284 0.733053 0.505670
O O7 0.986224 0.732677 0.127329
O O8 0.725906 0.500000 0.150483
O O9 0.679371 0.729041 0.902665
O O10 0.647395 0.718842 0.082401
O O11 0.863664 0.500000 0.265314
O O12 0.931876 0.678968 0.253070
O O13 0.595974 0.000000 0.007406
#
# Coordination Sequence:
#
# PCOD9187781 Si02
#       5
#     8   8   8   8   8
#     4  12  26  44  61  79 108 146 193 241 288 336
#     4  10  19  35  61  89 118 152 190 228 277 336
#     4  10  20  36  58  84 117 152 188 231 281 330
#     4   8  16  32  57  88 121 154 184 222 276 335
#     4   8  16  33  57  88 121 153 184 222 276 336
#
# _framework density 23.577165999999998
#
# number of rings (size 3 to 8) (size 9 to 14) (size 15 to 20)
#    1.200    1.200    0.000    3.600    0.000    4.800 
#    0.000    2.000    0.000    6.000    0.000    0.000 
#    0.000    0.000    0.000    0.000    0.000    0.000 
#
# Total GULP energy -111693.640779 kJ/mol
# GULP energy per Si atom -5584.682039 kJ/mol
# Density = 2.352350 g / cm^3
# Si number density = 23.577166 Si / 1000 Ang^3
#
#
#
# Elastic Constant Matrix: (Units=GPa)
#
#
# Indices 1 2 3 4 5 6 
#
# 1 131.5672 9.1453 39.7043 0.0000 28.2131 0.0000
# 2 9.1453 53.5234 17.8482 0.0000 19.6191 0.0000
# 3 39.7043 17.8482 96.8002 0.0000 26.5672 0.0000
# 4 0.0000 0.0000 0.0000 25.4138 0.0000 7.0953
# 5 28.2131 19.6191 26.5672 0.0000 55.0721 0.0000
# 6 0.0000 0.0000 0.0000 7.0953 0.0000 20.0277
#
#
#
# Elastic Compliance Matrix: (Units=1/GPa)
#
#
# Indices 1 2 3 4 5 6 
#
# 1 0.009197 0.000706 -0.002928 0.000000 -0.003551 0.000000
# 2 0.000706 0.021937 -0.002409 0.000000 -0.007015 0.000000
# 3 -0.002928 -0.002409 0.013057 0.000000 -0.003941 0.000000
# 4 0.000000 0.000000 0.000000 0.043668 0.000000 -0.015470
# 5 -0.003551 -0.007015 -0.003941 0.000000 0.024377 0.000000
# 6 0.000000 0.000000 0.000000 -0.015470 0.000000 0.055412
#
#
# Mechanical properties :
#
#
# Convention : Reuss Voigt Hill
#
# Bulk Modulus (GPa) = 28.62916 46.14294 37.38605
# Shear Modulus (GPa) = 26.51784 34.44892 30.48338
#
# Velocity S-wave (km/s) = 3.35733 3.82660 3.59962
# Velocity P-wave (km/s) = 5.21517 6.25598 5.75914
#
# Compressibility (1/GPa) = 0.03492942
#
# Stress axis : x y z
#
# Youngs Moduli (GPa) = 108.73667 45.58426 76.58568
#
# Poissons Ratio (x) = -0.03220 0.22424
# Poissons Ratio (y) = -0.07682 0.18453
# Poissons Ratio (z) = 0.31837 0.10983
#
# Static dielectric constant tensor:
#      x y z
#    x 2.013920 0.000000 -0.054790 
#    y 0.000000 1.781370 0.000000 
#    z -0.054790 0.000000 1.946630 
# 
# From -- ./inp_files/187005.got.cif
#   From: 2010.05.17/outbox.cif.g08.bks.cpg/sg12_94_cif.got.tgz:187005.got - 2010.06.03 13:09:07.
