data_PCOD9187342
_publ_section_title
;
Structure prediction by ZEFSAII (Michael W. Deem and Ramdas Pophale) SiO2 
 PCOD9187342
Probable space group: C 2/M
;
_chemical_formula_sum "Si O2"
_cell_formula_units_Z 44
_cell_length_a 9.537216
_cell_length_b 16.693722
_cell_length_c 12.463893
_cell_angle_alpha 90.000000
_cell_angle_beta 115.297012
_cell_angle_gamma 90.000000
_cell_volume 1794.102699
_symmetry_space_group_name_H-M "C 2/M"
_symmetry_group_IT_number 12
_symmetry_cell_setting 'monoclinic'
loop_
_space_group_symop_operation_xyz
x,y,z
-x,y,-z
-x,-y,-z
x,-y,z
1/2+x,1/2+y,z
1/2-x,1/2+y,-z
1/2-x,1/2-y,-z
1/2+x,1/2-y,z
loop_
_atom_site_type_symbol
_atom_site_label
_atom_site_fract_x
_atom_site_fract_y
_atom_site_fract_z
Si Si1 0.330915 0.866936 0.966907
Si Si2 0.273573 0.594709 0.415866
Si Si3 0.069147 0.000000 0.831553
Si Si4 0.535040 0.356710 0.329708
Si Si5 0.671133 0.223487 0.810088
Si Si6 0.434491 0.091401 0.357690
O O1 0.299228 0.791126 0.877553
O O2 0.194717 0.930229 0.907947
O O3 0.500000 0.901134 0.000000
O O4 0.327560 0.832091 0.085391
O O5 0.302849 0.500000 0.447012
O O6 0.329275 0.643348 0.538254
O O7 0.383300 0.619155 0.353979
O O8 0.091178 0.602144 0.337661
O O9 0.954084 0.070405 0.748119
O O10 0.485794 0.274671 0.258709
O O11 0.678283 0.163474 0.711768
O O12 0.500000 0.096871 0.500000
O O13 0.380789 0.000000 0.323584
#
# Coordination Sequence:
#
# PCOD9187342 Si02
#       6
#     8   8   4   8   8   8
#     4  10  23  40  60  88 118 155 204 249 299 348
#     4  10  19  35  62  92 120 152 190 244 305 363
#     4  10  19  35  64  90 116 146 198 251 303 354
#     4  10  19  35  58  96 124 144 192 246 309 358
#     4  10  24  38  56  88 120 155 196 247 294 347
#     4  10  24  41  59  86 121 163 205 235 291 365
#
# _framework density 24.524792999999999
#
# number of rings (size 3 to 8) (size 9 to 14) (size 15 to 20)
#    0.000    2.000    1.818    0.818    8.909    2.182 
#    0.000    0.000    0.000    0.545    0.000    0.000 
#    0.000    0.000    0.000    0.000    0.000    0.000 
#
# Total GULP energy -122559.154837 kJ/mol
# GULP energy per Si atom -5570.870674 kJ/mol
# Density = 2.446897 g / cm^3
# Si number density = 24.524793 Si / 1000 Ang^3
#
#
#
# Elastic Constant Matrix: (Units=GPa)
#
#
# Indices 1 2 3 4 5 6 
#
# 1 63.6950 7.5897 4.5425 0.0000 9.8104 0.0000
# 2 7.5897 163.5381 62.1139 0.0000 1.8362 0.0000
# 3 4.5425 62.1139 94.8414 0.0000 11.1607 0.0000
# 4 0.0000 0.0000 0.0000 -1.2064 0.0000 21.3416
# 5 9.8104 1.8362 11.1607 0.0000 19.6636 0.0000
# 6 0.0000 0.0000 0.0000 21.3416 0.0000 21.2484
#
#
#
# Elastic Compliance Matrix: (Units=1/GPa)
#
#
# Indices 1 2 3 4 5 6 
#
# 1 0.017141 -0.001044 0.000919 0.000000 -0.008976 0.000000
# 2 -0.001044 0.008313 -0.005748 0.000000 0.003007 0.000000
# 3 0.000919 -0.005748 0.015275 0.000000 -0.008592 0.000000
# 4 0.000000 0.000000 0.000000 -0.044166 0.000000 0.044360
# 5 -0.008976 0.003007 -0.008592 0.000000 0.059929 0.000000
# 6 0.000000 0.000000 0.000000 0.044360 0.000000 0.002508
#
#
# Mechanical properties :
#
#
# Convention : Reuss Voigt Hill
#
# Bulk Modulus (GPa) = 34.50238 52.28517 43.39377
# Shear Modulus (GPa) = 62.18370 24.46301 43.32336
#
# Velocity S-wave (km/s) = 5.04088 3.16172 4.20755
# Velocity P-wave (km/s) = 6.92673 5.89018 6.42938
#
# Compressibility (1/GPa) = 0.02898351
#
# Stress axis : x y z
#
# Youngs Moduli (GPa) = 58.33913 120.29890 65.46445
#
# Poissons Ratio (x) = 0.12556 -0.06015
# Poissons Ratio (y) = 0.06089 0.37629
# Poissons Ratio (z) = -0.05360 0.69148
#
# Static dielectric constant tensor:
#      x y z
#    x 2.044350 0.000000 -0.031950 
#    y 0.000000 1.880000 0.000000 
#    z -0.031950 0.000000 1.932860 
# 
# From -- ./inp_files/204654.got.cif
#   From: 2010.05.17/outbox.cif.g08.bks.cpg/sg12_103_cif.got.tgz:204654.got - 2010.06.03 13:09:07.
