data_PCOD9187810
_publ_section_title
;
Structure prediction by ZEFSAII (Michael W. Deem and Ramdas Pophale) SiO2 
 PCOD9187810
Probable space group: C 2/M
;
_chemical_formula_sum "Si O2"
_cell_formula_units_Z 58
_cell_length_a 14.585792
_cell_length_b 17.591039
_cell_length_c 24.932578
_cell_angle_alpha 90.000000
_cell_angle_beta 29.143296
_cell_angle_gamma 90.000000
_cell_volume 3115.398847
_symmetry_space_group_name_H-M "C 2/M"
_symmetry_group_IT_number 12
_symmetry_cell_setting 'monoclinic'
loop_
_space_group_symop_operation_xyz
x,y,z
-x,y,-z
-x,-y,-z
x,-y,z
1/2+x,1/2+y,z
1/2-x,1/2+y,-z
1/2-x,1/2-y,-z
1/2+x,1/2-y,z
loop_
_atom_site_type_symbol
_atom_site_label
_atom_site_fract_x
_atom_site_fract_y
_atom_site_fract_z
Si Si1 0.208452 0.114380 0.809035
Si Si2 0.763029 0.799453 0.407729
Si Si3 0.843331 0.214680 0.731128
Si Si4 0.554713 0.353057 0.526092
Si Si5 0.573385 0.586199 0.759361
Si Si6 0.125668 0.583833 0.561150
Si Si7 0.286398 0.916526 0.127604
Si Si8 0.000000 0.000000 0.000000
O O1 0.232461 0.206510 0.796433
O O2 0.426077 0.088023 0.692729
O O3 0.101766 0.095354 0.807945
O O4 0.105520 0.067783 0.908830
O O5 0.668590 0.719694 0.445778
O O6 0.633694 0.851027 0.512220
O O7 0.952405 0.780517 0.344332
O O8 0.811608 0.850103 0.331590
O O9 0.740790 0.147893 0.815113
O O10 0.891723 0.183011 0.647080
O O11 0.500000 0.396644 0.500000
O O12 0.697891 0.399659 0.490335
O O13 0.633983 0.500000 0.714201
O O14 0.359712 0.594753 0.846827
O O15 0.146762 0.500000 0.526274
O O16 0.239665 0.000000 0.174412
O O17 0.500000 0.916539 0.000000
#
# Coordination Sequence:
#
# PCOD9187810 Si02
#       8
#     8   8   8   8   8   8   8   2
#     4  12  22  41  58  84 120 162 204 240 291 358
#     4  10  19  35  61  91 116 151 184 249 302 352
#     4  10  20  37  62  88 119 156 198 240 302 358
#     4  11  21  36  57  86 124 155 192 242 288 352
#     4  10  20  36  61  90 118 143 195 252 297 351
#     4  11  21  37  58  83 122 160 196 232 297 365
#     4   9  20  40  65  87 114 148 194 259 313 345
#     4  12  28  40  60  78 122 176 192 248 296 336
#
# _framework density 18.6172
#
# number of rings (size 3 to 8) (size 9 to 14) (size 15 to 20)
#    0.000    1.517    4.138    2.069    0.966    3.586 
#    0.000    3.448    0.000    0.000    0.000    0.000 
#    0.000    0.000    0.000    0.000    0.000    0.000 
#
# Total GULP energy -161463.132219 kJ/mol
# GULP energy per Si atom -5567.694214 kJ/mol
# Density = 1.857483 g / cm^3
# Si number density = 18.617200 Si / 1000 Ang^3
#
#
#
# Elastic Constant Matrix: (Units=GPa)
#
#
# Indices 1 2 3 4 5 6 
#
# 1 51.1465 19.8329 30.7273 -0.0003 13.2226 -0.0053
# 2 19.8329 106.2330 38.8580 0.0026 2.8036 -0.0099
# 3 30.7273 38.8580 103.0101 0.0234 15.8889 -0.0157
# 4 -0.0003 0.0026 0.0234 29.3507 -0.0023 1.7337
# 5 13.2226 2.8036 15.8889 -0.0023 16.0137 0.0027
# 6 -0.0053 -0.0099 -0.0157 1.7337 0.0027 -5.9437
#
#
#
# Elastic Compliance Matrix: (Units=1/GPa)
#
#
# Indices 1 2 3 4 5 6 
#
# 1 0.028152 -0.003173 -0.004370 0.000004 -0.018354 -0.000016
# 2 -0.003173 0.011368 -0.004060 0.000003 0.004658 -0.000003
# 3 -0.004370 -0.004060 0.014023 -0.000010 -0.009595 -0.000033
# 4 0.000004 0.000003 -0.000010 0.033494 0.000009 0.009770
# 5 -0.018354 0.004658 -0.009595 0.000009 0.086306 0.000075
# 6 -0.000016 -0.000003 -0.000033 0.009770 0.000075 -0.165397
#
#
# Mechanical properties :
#
#
# Convention : Reuss Voigt Hill
#
# Bulk Modulus (GPa) = 32.96309 48.80289 40.88299
# Shear Modulus (GPa) = 121.17046 19.28223 70.22635
#
# Velocity S-wave (km/s) = 8.07629 3.22175 6.14842
# Velocity P-wave (km/s) = 10.23293 6.33328 8.50950
#
# Compressibility (1/GPa) = 0.03033697
#
# Stress axis : x y z
#
# Youngs Moduli (GPa) = 35.52111 87.96696 71.31255
#
# Poissons Ratio (x) = 0.27913 0.31161
# Poissons Ratio (y) = 0.11271 0.28955
# Poissons Ratio (z) = 0.15521 0.35717
#
# Static dielectric constant tensor:
#      x y z
#    x 1.679890 0.000000 -0.017080 
#    y 0.000000 1.670890 0.000000 
#    z -0.017080 0.000000 1.634620 
# 
# From -- ./inp_files/340638.got.cif
#   From: 2010.05.17/outbox.cif.g08.bks.cpg/sg12_171_cif.got.tgz:340638.got - 2010.06.03 13:09:07.
