data_PCOD9187684
_publ_section_title
;
Structure prediction by ZEFSAII (Michael W. Deem and Ramdas Pophale) SiO2 
 PCOD9187684
Probable space group: C 2/M
;
_chemical_formula_sum "Si O2"
_cell_formula_units_Z 56
_cell_length_a 25.696925
_cell_length_b 8.045216
_cell_length_c 18.525578
_cell_angle_alpha 90.000000
_cell_angle_beta 138.208499
_cell_angle_gamma 90.000000
_cell_volume 2552.347962
_symmetry_space_group_name_H-M "C 2/M"
_symmetry_group_IT_number 12
_symmetry_cell_setting 'monoclinic'
loop_
_space_group_symop_operation_xyz
x,y,z
-x,y,-z
-x,-y,-z
x,-y,z
1/2+x,1/2+y,z
1/2-x,1/2+y,-z
1/2-x,1/2-y,-z
1/2+x,1/2-y,z
loop_
_atom_site_type_symbol
_atom_site_label
_atom_site_fract_x
_atom_site_fract_y
_atom_site_fract_z
Si Si1 0.801431 0.806490 0.738914
Si Si2 0.874127 0.195154 0.432226
Si Si3 0.373204 0.297683 0.272670
Si Si4 0.217104 0.191573 0.042385
Si Si5 0.518685 0.296806 0.327991
Si Si6 0.596877 0.189542 0.024928
Si Si7 0.057672 0.200882 0.207403
O O1 0.719048 0.715587 0.659763
O O2 0.854225 0.790592 0.865399
O O3 0.857979 0.742971 0.733766
O O4 0.783556 0.000000 0.708578
O O5 0.900107 0.256814 0.380148
O O6 0.918064 0.263271 0.547719
O O7 0.893530 0.000000 0.451763
O O8 0.364577 0.500000 0.263357
O O9 0.289796 0.217852 0.171001
O O10 0.434626 0.252347 0.274201
O O11 0.144855 0.291752 0.999865
O O12 0.193253 0.000000 0.013030
O O13 0.250000 0.250000 0.000000
O O14 0.520573 0.500000 0.326990
O O15 0.536383 0.238587 0.265532
O O16 0.597139 0.000000 0.049429
O O17 0.509672 0.247054 0.918001
O O18 0.059036 0.000000 0.209506
#
# Coordination Sequence:
#
# PCOD9187684 Si02
#       7
#     8   8   8   8   8   8   8
#     4  11  23  39  60  87 120 161 204 250 305 363
#     4  10  20  36  61  90 120 157 204 250 297 359
#     4  10  19  35  60  89 120 156 202 248 297 358
#     4  12  24  38  59  88 125 162 198 243 298 358
#     4   9  19  37  61  88 119 158 202 249 299 357
#     4  12  24  40  62  89 119 155 202 252 306 364
#     4  10  22  40  61  86 120 162 205 249 305 366
#
# _framework density 21.940581999999999
#
# number of rings (size 3 to 8) (size 9 to 14) (size 15 to 20)
#    0.000    1.429    1.429    4.714    0.000    6.286 
#    0.000    1.429    0.000    1.714    0.000    0.000 
#    0.000    0.000    0.000    0.000    0.000    0.000 
#
# Total GULP energy -156567.972137 kJ/mol
# GULP energy per Si atom -5591.713291 kJ/mol
# Density = 2.189064 g / cm^3
# Si number density = 21.940582 Si / 1000 Ang^3
#
#
#
# Elastic Constant Matrix: (Units=GPa)
#
#
# Indices 1 2 3 4 5 6 
#
# 1 100.8439 -6.1245 -7.3995 0.0000 -11.5345 0.0000
# 2 -6.1245 23.5547 -8.3207 0.0000 -5.4975 0.0000
# 3 -7.3995 -8.3207 43.8037 0.0000 -11.8233 0.0000
# 4 0.0000 0.0000 0.0000 12.2226 0.0000 1.0651
# 5 -11.5345 -5.4975 -11.8233 0.0000 24.4512 0.0000
# 6 0.0000 0.0000 0.0000 1.0651 0.0000 19.1218
#
#
#
# Elastic Compliance Matrix: (Units=1/GPa)
#
#
# Indices 1 2 3 4 5 6 
#
# 1 0.012066 0.007848 0.006374 0.000000 0.010538 0.000000
# 2 0.007848 0.057314 0.019196 0.000000 0.025870 0.000000
# 3 0.006374 0.019196 0.033961 0.000000 0.023744 0.000000
# 4 0.000000 0.000000 0.000000 0.082215 0.000000 -0.004580
# 5 0.010538 0.025870 0.023744 0.000000 0.063167 0.000000
# 6 0.000000 0.000000 0.000000 -0.004580 0.000000 0.052552
#
#
# Mechanical properties :
#
#
# Convention : Reuss Voigt Hill
#
# Bulk Modulus (GPa) = 5.87628 13.83478 9.85553
# Shear Modulus (GPa) = 17.17242 23.82892 20.50067
#
# Velocity S-wave (km/s) = 2.80067 3.29913 3.06007
# Velocity P-wave (km/s) = 3.62525 4.56416 4.12153
#
# Compressibility (1/GPa) = 0.17017557
#
# Stress axis : x y z
#
# Youngs Moduli (GPa) = 82.87746 17.44783 29.44559
#
# Poissons Ratio (x) = -0.13694 -0.18767
# Poissons Ratio (y) = -0.65045 -0.56523
# Poissons Ratio (z) = -0.52822 -0.33492
#
# Static dielectric constant tensor:
#      x y z
#    x 1.812100 0.000000 -0.032140 
#    y 0.000000 1.769460 0.000000 
#    z -0.032140 0.000000 1.805240 
# 
# From -- ./inp_files/292544.got.cif
#   From: 2010.05.17/outbox.cif.g08.bks.cpg/sg12_147_cif.got.tgz:292544.got - 2010.06.03 13:09:07.
