data_PCOD9187678
_publ_section_title
;
Structure prediction by ZEFSAII (Michael W. Deem and Ramdas Pophale) SiO2 
 PCOD9187678
Probable space group: C 2/M
;
_chemical_formula_sum "Si O2"
_cell_formula_units_Z 32
_cell_length_a 9.840662
_cell_length_b 17.577354
_cell_length_c 12.146125
_cell_angle_alpha 90.000000
_cell_angle_beta 129.431281
_cell_angle_gamma 90.000000
_cell_volume 1622.745723
_symmetry_space_group_name_H-M "C 2/M"
_symmetry_group_IT_number 12
_symmetry_cell_setting 'monoclinic'
loop_
_space_group_symop_operation_xyz
x,y,z
-x,y,-z
-x,-y,-z
x,-y,z
1/2+x,1/2+y,z
1/2-x,1/2+y,-z
1/2-x,1/2-y,-z
1/2+x,1/2-y,z
loop_
_atom_site_type_symbol
_atom_site_label
_atom_site_fract_x
_atom_site_fract_y
_atom_site_fract_z
Si Si1 0.302180 0.500000 0.850345
Si Si2 0.003792 0.203114 0.185111
Si Si3 0.540080 0.588099 0.399552
Si Si4 0.282686 0.167190 0.152111
Si Si5 0.808237 0.500000 0.447850
O O1 0.202737 0.576571 0.832718
O O2 0.313417 0.500000 0.724019
O O3 0.500000 0.500000 0.000000
O O4 0.954431 0.285335 0.208530
O O5 0.982222 0.142933 0.272577
O O6 0.189730 0.195144 0.217804
O O7 0.859498 0.183693 0.017438
O O8 0.500000 0.617625 0.500000
O O9 0.468324 0.500000 0.356694
O O10 0.748364 0.572450 0.487305
O O11 0.000000 0.500000 0.500000
#
# Coordination Sequence:
#
# PCOD9187678 Si02
#       5
#     4   8   8   8   4
#     4  12  18  37  66  88 107 163 207 239 293 375
#     4  10  19  36  56  87 116 151 190 252 298 348
#     4   9  18  36  58  84 117 166 195 233 300 370
#     4  10  20  34  62  85 116 147 200 247 298 349
#     4  10  19  35  60  89 118 148 205 252 286 345
#
# _framework density 19.719664000000002
#
# number of rings (size 3 to 8) (size 9 to 14) (size 15 to 20)
#    0.750    1.250    5.000    0.000    1.750    0.000 
#    4.500    2.500    0.000    3.000    0.000    0.000 
#    0.000    0.000    0.000    0.000    0.000    0.000 
#
# Total GULP energy -89093.418040 kJ/mol
# GULP energy per Si atom -5568.338628 kJ/mol
# Density = 1.967478 g / cm^3
# Si number density = 19.719664 Si / 1000 Ang^3
#
#
#
# Elastic Constant Matrix: (Units=GPa)
#
#
# Indices 1 2 3 4 5 6 
#
# 1 92.5463 48.2252 42.2974 0.0000 -27.6050 0.0000
# 2 48.2252 151.0468 17.1421 0.0000 -22.2425 0.0000
# 3 42.2974 17.1421 81.1551 0.0000 -36.6510 0.0000
# 4 0.0000 0.0000 0.0000 13.3615 0.0000 -10.1722
# 5 -27.6050 -22.2425 -36.6510 0.0000 32.3636 0.0000
# 6 0.0000 0.0000 0.0000 -10.1722 0.0000 19.2447
#
#
#
# Elastic Compliance Matrix: (Units=1/GPa)
#
#
# Indices 1 2 3 4 5 6 
#
# 1 0.017084 -0.004011 -0.005569 0.000000 0.005508 0.000000
# 2 -0.004011 0.008397 0.002821 0.000000 0.005544 0.000000
# 3 -0.005569 0.002821 0.027344 0.000000 0.028155 0.000000
# 4 0.000000 0.000000 0.000000 0.125240 0.000000 0.066198
# 5 0.005508 0.005544 0.028155 0.000000 0.071292 0.000000
# 6 0.000000 0.000000 0.000000 0.066198 0.000000 0.086953
#
#
# Mechanical properties :
#
#
# Convention : Reuss Voigt Hill
#
# Bulk Modulus (GPa) = 25.44122 60.00861 42.72492
# Shear Modulus (GPa) = 13.77669 27.46618 20.62143
#
# Velocity S-wave (km/s) = 2.64602 3.73612 3.23728
# Velocity P-wave (km/s) = 4.71855 7.00773 5.97382
#
# Compressibility (1/GPa) = 0.03930629
#
# Stress axis : x y z
#
# Youngs Moduli (GPa) = 58.53418 119.08347 36.57107
#
# Poissons Ratio (x) = 0.47768 0.20367
# Poissons Ratio (y) = 0.23480 -0.10316
# Poissons Ratio (z) = 0.32598 -0.33591
#
# Static dielectric constant tensor:
#      x y z
#    x 1.722540 0.000000 -0.003620 
#    y 0.000000 1.732940 0.000000 
#    z -0.003620 0.000000 1.704780 
# 
# From -- ./inp_files/128705.got.cif
#   From: 2010.05.17/outbox.cif.g08.bks.cpg/sg12_65_cif.got.tgz:128705.got - 2010.06.03 13:09:07.
