data_PCOD9187390
_publ_section_title
;
Structure prediction by ZEFSAII (Michael W. Deem and Ramdas Pophale) SiO2 
 PCOD9187390
Probable space group: C 2/M
;
_chemical_formula_sum "Si O2"
_cell_formula_units_Z 56
_cell_length_a 17.087619
_cell_length_b 14.785251
_cell_length_c 13.124682
_cell_angle_alpha 90.000000
_cell_angle_beta 120.895562
_cell_angle_gamma 90.000000
_cell_volume 2845.373709
_symmetry_space_group_name_H-M "C 2/M"
_symmetry_group_IT_number 12
_symmetry_cell_setting 'monoclinic'
loop_
_space_group_symop_operation_xyz
x,y,z
-x,y,-z
-x,-y,-z
x,-y,z
1/2+x,1/2+y,z
1/2-x,1/2+y,-z
1/2-x,1/2-y,-z
1/2+x,1/2-y,z
loop_
_atom_site_type_symbol
_atom_site_label
_atom_site_fract_x
_atom_site_fract_y
_atom_site_fract_z
Si Si1 0.436263 0.607670 0.195151
Si Si2 0.106067 0.210460 0.033418
Si Si3 0.486886 0.895391 0.676716
Si Si4 0.300810 0.820792 0.463976
Si Si5 0.571618 0.900974 0.955582
Si Si6 0.136997 0.897865 0.247717
Si Si7 0.917940 0.232064 0.372662
O O1 0.425179 0.500000 0.196384
O O2 0.544962 0.627531 0.248466
O O3 0.402920 0.660775 0.272582
O O4 0.388984 0.647145 0.062175
O O5 0.153368 0.167438 0.162750
O O6 0.131455 0.312510 0.018741
O O7 0.000000 0.212358 0.000000
O O8 0.384348 0.866875 0.579566
O O9 0.514489 0.885443 0.813612
O O10 0.548619 0.825485 0.656341
O O11 0.501908 0.000000 0.658325
O O12 0.250000 0.750000 0.500000
O O13 0.225780 0.891527 0.376174
O O14 0.338473 0.762435 0.394428
O O15 0.617406 0.000000 0.977993
O O16 0.500000 0.906232 0.000000
O O17 0.121161 0.000000 0.199203
O O18 0.000000 0.197834 0.500000
#
# Coordination Sequence:
#
# PCOD9187390 Si02
#       7
#     8   8   8   8   8   8   8
#     4  10  19  35  59  83 111 149 194 237 276 327
#     4   9  17  30  57  82 114 144 188 234 275 325
#     4  10  20  37  61  86 112 147 190 235 281 334
#     4  11  24  37  56  81 118 153 187 231 289 343
#     4   9  17  29  54  87 115 142 183 232 280 331
#     4  10  20  35  57  88 116 149 191 234 280 331
#     4  10  21  37  56  81 110 147 193 234 282 335
#
# _framework density 19.681069000000001
#
# number of rings (size 3 to 8) (size 9 to 14) (size 15 to 20)
#    0.000    2.143    1.429    2.571    4.000    5.143 
#    0.000    2.143    0.000    0.857    0.000    0.000 
#    0.000    0.000    0.000    0.000    0.000    0.000 
#
# Total GULP energy -156214.204964 kJ/mol
# GULP energy per Si atom -5579.078749 kJ/mol
# Density = 1.963627 g / cm^3
# Si number density = 19.681069 Si / 1000 Ang^3
#
#
#
# Elastic Constant Matrix: (Units=GPa)
#
#
# Indices 1 2 3 4 5 6 
#
# 1 37.1764 15.8545 15.2907 0.0000 -10.2403 0.0000
# 2 15.8545 126.0234 37.0249 0.0000 -10.5096 0.0000
# 3 15.2907 37.0249 69.1674 0.0000 -19.9376 0.0000
# 4 0.0000 0.0000 0.0000 12.2891 0.0000 25.5945
# 5 -10.2403 -10.5096 -19.9376 0.0000 22.0201 0.0000
# 6 0.0000 0.0000 0.0000 25.5945 0.0000 -43.0126
#
#
#
# Elastic Compliance Matrix: (Units=1/GPa)
#
#
# Indices 1 2 3 4 5 6 
#
# 1 0.032110 -0.002336 -0.002523 0.000000 0.011532 0.000000
# 2 -0.002336 0.009586 -0.004884 0.000000 -0.000933 0.000000
# 3 -0.002523 -0.004884 0.022489 0.000000 0.016858 0.000000
# 4 0.000000 0.000000 0.000000 0.036338 0.000000 0.021623
# 5 0.011532 -0.000933 0.016858 0.000000 0.065594 0.000000
# 6 0.000000 0.000000 0.000000 0.021623 0.000000 -0.010382
#
#
# Mechanical properties :
#
#
# Convention : Reuss Voigt Hill
#
# Bulk Modulus (GPa) = 22.37276 40.96748 31.67012
# Shear Modulus (GPa) = 26.29892 9.20579 17.75235
#
# Velocity S-wave (km/s) = 3.65945 2.16510 3.00659
# Velocity P-wave (km/s) = 5.40812 5.20683 5.30843
#
# Compressibility (1/GPa) = 0.04469721
#
# Stress axis : x y z
#
# Youngs Moduli (GPa) = 31.14316 104.31891 44.46601
#
# Poissons Ratio (x) = 0.24374 0.11221
# Poissons Ratio (y) = 0.07277 0.21717
# Poissons Ratio (z) = 0.07859 0.50948
#
# Static dielectric constant tensor:
#      x y z
#    x 1.671890 0.000000 0.011650 
#    y 0.000000 1.764620 0.000000 
#    z 0.011650 0.000000 1.715470 
# 
# From -- ./inp_files/156764.got.cif
#   From: 2010.05.17/outbox.cif.g08.bks.cpg/sg12_79_cif.got.tgz:156764.got - 2010.06.03 13:09:07.
