data_PCOD9187526
_publ_section_title
;
Structure prediction by ZEFSAII (Michael W. Deem and Ramdas Pophale) SiO2 
 PCOD9187526
Probable space group: C 2/M
;
_chemical_formula_sum "Si O2"
_cell_formula_units_Z 64
_cell_length_a 33.564323
_cell_length_b 8.040861
_cell_length_c 15.631540
_cell_angle_alpha 90.000000
_cell_angle_beta 132.868487
_cell_angle_gamma 90.000000
_cell_volume 3091.983157
_symmetry_space_group_name_H-M "C 2/M"
_symmetry_group_IT_number 12
_symmetry_cell_setting 'monoclinic'
loop_
_space_group_symop_operation_xyz
x,y,z
-x,y,-z
-x,-y,-z
x,-y,z
1/2+x,1/2+y,z
1/2-x,1/2+y,-z
1/2-x,1/2-y,-z
1/2+x,1/2-y,z
loop_
_atom_site_type_symbol
_atom_site_label
_atom_site_fract_x
_atom_site_fract_y
_atom_site_fract_z
Si Si1 0.543412 0.796788 0.897980
Si Si2 0.370175 0.800492 0.489095
Si Si3 0.220130 0.698328 0.042557
Si Si4 0.749135 0.194546 0.727644
Si Si5 0.366213 0.800939 0.835380
Si Si6 0.060689 0.804440 0.573352
Si Si7 0.599273 0.200397 0.811789
Si Si8 0.421035 0.796211 0.741880
O O1 0.554382 0.747089 0.815768
O O2 0.483965 0.745593 0.842047
O O3 0.544805 0.000000 0.900371
O O4 0.592043 0.738533 0.030672
O O5 0.308876 0.734098 0.386796
O O6 0.407104 0.767018 0.460186
O O7 0.397231 0.739245 0.616325
O O8 0.366218 0.000000 0.490496
O O9 0.223233 0.500000 0.058937
O O10 0.245647 0.781183 0.162952
O O11 0.250000 0.750000 0.000000
O O12 0.157093 0.743275 0.938063
O O13 0.803857 0.266140 0.766375
O O14 0.749306 0.000000 0.708091
O O15 0.385738 0.739885 0.771244
O O16 0.372399 0.000000 0.844031
O O17 0.092103 0.776146 0.708110
O O18 0.000000 0.733395 0.500000
O O19 0.055364 0.000000 0.549352
O O20 0.597291 0.000000 0.799391
O O21 0.420620 0.000000 0.740818
#
# Coordination Sequence:
#
# PCOD9187526 Si02
#       8
#     8   8   8   8   8   8   8   8
#     4   9  16  31  56  88 116 140 181 239 294 344
#     4  10  22  40  59  82 112 153 203 241 278 338
#     4  11  22  37  57  84 113 145 189 236 286 342
#     4  11  23  38  56  81 117 157 195 238 285 340
#     4  10  19  35  59  88 116 146 187 240 296 348
#     4  11  24  39  56  84 119 153 189 232 287 345
#     4  10  20  35  57  83 111 146 190 233 278 337
#     4   9  18  33  59  87 111 144 191 244 292 338
#
# _framework density 20.698689999999999
#
# number of rings (size 3 to 8) (size 9 to 14) (size 15 to 20)
#    0.000    1.875    1.250    3.000    0.000    9.000 
#    0.000    0.625    0.000    2.250    0.000    0.000 
#    0.000    0.000    0.000    0.000    0.000    0.000 
#
# Total GULP energy -178771.436326 kJ/mol
# GULP energy per Si atom -5586.607385 kJ/mol
# Density = 2.065158 g / cm^3
# Si number density = 20.698690 Si / 1000 Ang^3
#
#
#
# Elastic Constant Matrix: (Units=GPa)
#
#
# Indices 1 2 3 4 5 6 
#
# 1 170.3486 1.0825 66.6246 0.0000 -5.1591 0.0000
# 2 1.0825 5.8214 6.5585 0.0000 1.4527 0.0000
# 3 66.6246 6.5585 112.8588 0.0000 1.8433 0.0000
# 4 0.0000 0.0000 0.0000 13.1960 0.0000 5.5984
# 5 -5.1591 1.4527 1.8433 0.0000 37.6028 0.0000
# 6 0.0000 0.0000 0.0000 5.5984 0.0000 1.4651
#
#
#
# Elastic Compliance Matrix: (Units=1/GPa)
#
#
# Indices 1 2 3 4 5 6 
#
# 1 0.007766 0.003695 -0.004819 0.000000 0.001159 0.000000
# 2 0.003695 0.187215 -0.012961 -0.000001 -0.006090 0.000002
# 3 -0.004819 -0.012961 0.012471 0.000000 -0.000772 0.000000
# 4 0.000000 -0.000001 0.000000 -0.122013 0.000000 0.466224
# 5 0.001159 -0.006090 -0.000772 0.000000 0.027026 0.000000
# 6 0.000000 0.000002 0.000000 0.466224 0.000000 -1.098950
#
#
# Mechanical properties :
#
#
# Convention : Reuss Voigt Hill
#
# Bulk Modulus (GPa) = 5.57779 48.61776 27.09778
# Shear Modulus (GPa) = -5.56450 24.77033 9.60292
#
# Velocity S-wave (km/s) = -1.64139 3.46310 2.15626
# Velocity P-wave (km/s) = 0.94426 6.28730 4.39537
#
# Compressibility (1/GPa) = 0.17928259
#
# Stress axis : x y z
#
# Youngs Moduli (GPa) = 128.75826 5.34147 80.18603
#
# Poissons Ratio (x) = -0.01974 0.38638
# Poissons Ratio (y) = -0.47579 1.03933
# Poissons Ratio (z) = 0.62042 0.06923
#
# Static dielectric constant tensor:
#      x y z
#    x 1.726790 0.000000 0.020840 
#    y 0.000000 1.749360 0.000000 
#    z 0.020840 0.000000 1.730390 
# 
# From -- ./inp_files/250064.got.cif
#   From: 2010.05.17/outbox.cif.g08.bks.cpg/sg12_126_cif.got.tgz:250064.got - 2010.06.03 13:09:07.
