data_PCOD9187501
_publ_section_title
;
Structure prediction by ZEFSAII (Michael W. Deem and Ramdas Pophale) SiO2 
 PCOD9187501
Probable space group: C 2/M
;
_chemical_formula_sum "Si O2"
_cell_formula_units_Z 56
_cell_length_a 20.336611
_cell_length_b 18.908906
_cell_length_c 20.641401
_cell_angle_alpha 90.000000
_cell_angle_beta 20.901262
_cell_angle_gamma 90.000000
_cell_volume 2831.773917
_symmetry_space_group_name_H-M "C 2/M"
_symmetry_group_IT_number 12
_symmetry_cell_setting 'monoclinic'
loop_
_space_group_symop_operation_xyz
x,y,z
-x,y,-z
-x,-y,-z
x,-y,z
1/2+x,1/2+y,z
1/2-x,1/2+y,-z
1/2-x,1/2-y,-z
1/2+x,1/2-y,z
loop_
_atom_site_type_symbol
_atom_site_label
_atom_site_fract_x
_atom_site_fract_y
_atom_site_fract_z
Si Si1 0.908128 0.115381 0.415660
Si Si2 0.295465 0.575888 0.658435
Si Si3 0.163173 0.079475 0.069424
Si Si4 0.010237 0.778419 0.150989
Si Si5 0.815179 0.266939 0.209466
Si Si6 0.465897 0.842740 0.297842
Si Si7 0.890223 0.743509 0.726364
O O1 0.824916 0.076938 0.554323
O O2 0.737134 0.128284 0.525390
O O3 0.072872 0.080681 0.223829
O O4 0.989460 0.188070 0.368886
O O5 0.500000 0.579285 0.500000
O O6 0.211498 0.500000 0.755206
O O7 0.197407 0.648367 0.768970
O O8 0.056063 0.141506 0.129083
O O9 0.146905 0.000000 0.058035
O O10 0.375236 0.104907 0.873904
O O11 0.844216 0.768085 0.252958
O O12 0.980282 0.728991 0.241193
O O13 0.195778 0.750300 0.944410
O O14 0.655865 0.241970 0.307108
O O15 0.000000 0.250003 0.000000
O O16 0.511899 0.822354 0.329171
#
# Coordination Sequence:
#
# PCOD9187501 Si02
#       7
#     8   8   8   8   8   8   8
#     4  12  21  36  61  88 116 157 195 240 288 349
#     4  11  23  36  50  78 121 157 191 231 277 349
#     4  11  24  40  59  86 123 156 187 245 305 343
#     4  10  19  39  61  87 114 151 203 246 281 350
#     4  10  21  37  60  82 114 153 199 240 290 343
#     4  11  21  37  63  86 116 150 203 244 287 343
#     4  10  19  35  59  87 114 150 194 246 290 337
#
# _framework density 19.775590999999999
#
# number of rings (size 3 to 8) (size 9 to 14) (size 15 to 20)
#    0.000    1.286    5.714    1.714    0.000    1.429 
#    0.000    0.000    0.000   10.714    0.000    1.000 
#    0.000    0.000    0.000    0.000    0.000    0.000 
#
# Total GULP energy -156343.195125 kJ/mol
# GULP energy per Si atom -5583.685540 kJ/mol
# Density = 1.973058 g / cm^3
# Si number density = 19.775591 Si / 1000 Ang^3
#
#
#
# Elastic Constant Matrix: (Units=GPa)
#
#
# Indices 1 2 3 4 5 6 
#
# 1 104.0903 14.3144 26.5584 0.0069 -13.2928 -0.0025
# 2 14.3144 79.6839 17.5249 0.0060 -3.3302 -0.0033
# 3 26.5584 17.5249 72.4718 -0.0200 -2.7482 0.0013
# 4 0.0069 0.0060 -0.0200 10.0686 0.0110 1.3975
# 5 -13.2928 -3.3302 -2.7482 0.0110 25.8562 -0.0062
# 6 -0.0025 -0.0033 0.0013 1.3975 -0.0062 14.0498
#
#
#
# Elastic Compliance Matrix: (Units=1/GPa)
#
#
# Indices 1 2 3 4 5 6 
#
# 1 0.011375 -0.001002 -0.003724 -0.000021 0.005323 0.000007
# 2 -0.001002 0.013391 -0.002837 -0.000015 0.000908 0.000005
# 3 -0.003724 -0.002837 0.015827 0.000037 -0.000598 -0.000007
# 4 -0.000021 -0.000015 0.000037 0.100709 -0.000054 -0.010017
# 5 0.005323 0.000908 -0.000598 -0.000054 0.041466 0.000025
# 6 0.000007 0.000005 -0.000007 -0.010017 0.000025 0.072172
#
#
# Mechanical properties :
#
#
# Convention : Reuss Voigt Hill
#
# Bulk Modulus (GPa) = 39.26637 41.44905 40.35771
# Shear Modulus (GPa) = 17.94984 23.18480 20.56732
#
# Velocity S-wave (km/s) = 3.01604 3.42774 3.22846
# Velocity P-wave (km/s) = 5.65930 6.05566 5.86084
#
# Compressibility (1/GPa) = 0.02546709
#
# Stress axis : x y z
#
# Youngs Moduli (GPa) = 87.91321 74.67487 63.18464
#
# Poissons Ratio (x) = 0.07481 0.23532
# Poissons Ratio (y) = 0.08807 0.17924
# Poissons Ratio (z) = 0.32742 0.21183
#
# Static dielectric constant tensor:
#      x y z
#    x 1.743610 -0.000010 0.005060 
#    y -0.000010 1.700290 0.000010 
#    z 0.005060 0.000010 1.729050 
# 
# From -- ./inp_files/322666.got.cif
#   From: 2010.05.17/outbox.cif.g08.bks.cpg/sg12_162_cif.got.tgz:322666.got - 2010.06.03 13:09:07.
