data_PCOD9187347
_publ_section_title
;
Structure prediction by ZEFSAII (Michael W. Deem and Ramdas Pophale) SiO2 
 PCOD9187347
Probable space group: C 2/M
;
_chemical_formula_sum "Si O2"
_cell_formula_units_Z 64
_cell_length_a 17.173369
_cell_length_b 7.377285
_cell_length_c 20.097472
_cell_angle_alpha 90.000000
_cell_angle_beta 89.715039
_cell_angle_gamma 90.000000
_cell_volume 2546.174264
_symmetry_space_group_name_H-M "C 2/M"
_symmetry_group_IT_number 12
_symmetry_cell_setting 'monoclinic'
loop_
_space_group_symop_operation_xyz
x,y,z
-x,y,-z
-x,-y,-z
x,-y,z
1/2+x,1/2+y,z
1/2-x,1/2+y,-z
1/2-x,1/2-y,-z
1/2+x,1/2-y,z
loop_
_atom_site_type_symbol
_atom_site_label
_atom_site_fract_x
_atom_site_fract_y
_atom_site_fract_z
Si Si1 0.573863 0.792540 0.962588
Si Si2 0.830101 0.791580 0.660043
Si Si3 0.158708 0.219031 0.090768
Si Si4 0.593611 0.215835 0.719411
Si Si5 0.918422 0.719380 0.533215
Si Si6 0.575020 0.283583 0.218742
Si Si7 0.321944 0.221898 0.153984
Si Si8 0.174931 0.278768 0.590163
O O1 0.641463 0.791590 0.017845
O O2 0.552331 0.000000 0.947159
O O3 0.500000 0.706374 0.000000
O O4 0.608957 0.714459 0.895126
O O5 0.900434 0.787433 0.606818
O O6 0.861488 0.711643 0.728628
O O7 0.756277 0.714065 0.620873
O O8 0.808433 0.000000 0.674826
O O9 0.092383 0.278311 0.143855
O O10 0.240048 0.276129 0.123073
O O11 0.158620 0.000000 0.085388
O O12 0.509864 0.250526 0.751448
O O13 0.658710 0.281005 0.771505
O O14 0.610078 0.278128 0.644686
O O15 0.601647 0.000000 0.716027
O O16 0.918924 0.500000 0.537131
O O17 0.850463 0.780816 0.482822
O O18 0.000000 0.773704 0.500000
O O19 0.585353 0.500000 0.216845
O O20 0.321933 0.000000 0.153506
O O21 0.176891 0.500000 0.586375
#
# Coordination Sequence:
#
# PCOD9187347 Si02
#       8
#     8   8   8   8   8   8   8   8
#     4  10  20  34  52  77 107 134 167 214 258 298
#     4  10  20  35  54  75 102 137 173 208 251 304
#     4  10  20  35  54  75 102 137 173 208 251 304
#     4  10  19  35  59  79  99 134 174 208 252 308
#     4  10  20  34  52  77 107 134 167 214 258 298
#     4  10  21  35  51  75 105 132 166 214 256 294
#     4   9  18  33  54  78 102 132 171 211 251 300
#     4   9  18  33  54  78 102 132 171 211 251 300
#
# _framework density 25.135749000000001
#
# number of rings (size 3 to 8) (size 9 to 14) (size 15 to 20)
#    0.000    2.250    0.000    3.000    0.000    6.500 
#    0.000    2.500    0.000    1.500    0.000    0.000 
#    0.000    0.000    0.000    0.000    0.000    0.000 
#
# Total GULP energy -179005.538238 kJ/mol
# GULP energy per Si atom -5593.923070 kJ/mol
# Density = 2.507854 g / cm^3
# Si number density = 25.135749 Si / 1000 Ang^3
#
#
#
# Elastic Constant Matrix: (Units=GPa)
#
#
# Indices 1 2 3 4 5 6 
#
# 1 63.0975 -4.5354 -19.0677 0.0000 1.9920 0.0000
# 2 -4.5354 92.1461 -3.0763 0.0000 3.0584 0.0000
# 3 -19.0677 -3.0763 98.3432 0.0000 2.8085 0.0000
# 4 0.0000 0.0000 0.0000 4.8746 0.0000 -5.3529
# 5 1.9920 3.0584 2.8085 0.0000 46.9742 0.0000
# 6 0.0000 0.0000 0.0000 -5.3529 0.0000 1.7111
#
#
#
# Elastic Compliance Matrix: (Units=1/GPa)
#
#
# Indices 1 2 3 4 5 6 
#
# 1 0.016961 0.000979 0.003347 0.000000 -0.000983 0.000000
# 2 0.000979 0.010945 0.000555 0.000000 -0.000787 0.000000
# 3 0.003347 0.000555 0.010858 0.000000 -0.000827 0.000000
# 4 0.000000 0.000000 0.000000 -0.084239 0.000000 -0.263528
# 5 -0.000983 -0.000787 -0.000827 0.000000 0.021431 0.000000
# 6 0.000000 0.000000 0.000000 -0.263528 0.000000 -0.239981
#
#
# Mechanical properties :
#
#
# Convention : Reuss Voigt Hill
#
# Bulk Modulus (GPa) = 20.60678 22.24756 21.42717
# Shear Modulus (GPa) = -19.40906 29.39640 4.99367
#
# Velocity S-wave (km/s) = -2.78181 3.42351 1.41103
# Velocity P-wave (km/s) = 1.44981 4.94949 3.34630
#
# Compressibility (1/GPa) = 0.04852771
#
# Stress axis : x y z
#
# Youngs Moduli (GPa) = 58.95719 91.36446 92.09407
#
# Poissons Ratio (x) = -0.08947 -0.30827
# Poissons Ratio (y) = -0.05773 -0.05109
# Poissons Ratio (z) = -0.19735 -0.05068
#
# Static dielectric constant tensor:
#      x y z
#    x 2.005730 0.000000 -0.013130 
#    y 0.000000 2.128490 0.000000 
#    z -0.013130 0.000000 1.930440 
# 
# From -- ./inp_files/314080.got.cif
#   From: 2010.05.17/outbox.cif.g08.bks.cpg/sg12_158_cif.got.tgz:314080.got - 2010.06.03 13:09:07.
