data_PCOD9187776
_publ_section_title
;
Structure prediction by ZEFSAII (Michael W. Deem and Ramdas Pophale) SiO2 
 PCOD9187776
Probable space group: C 2/M
;
_chemical_formula_sum "Si O2"
_cell_formula_units_Z 64
_cell_length_a 31.257428
_cell_length_b 7.835398
_cell_length_c 11.625891
_cell_angle_alpha 90.000000
_cell_angle_beta 94.491657
_cell_angle_gamma 90.000000
_cell_volume 2838.603065
_symmetry_space_group_name_H-M "C 2/M"
_symmetry_group_IT_number 12
_symmetry_cell_setting 'monoclinic'
loop_
_space_group_symop_operation_xyz
x,y,z
-x,y,-z
-x,-y,-z
x,-y,z
1/2+x,1/2+y,z
1/2-x,1/2+y,-z
1/2-x,1/2-y,-z
1/2+x,1/2-y,z
loop_
_atom_site_type_symbol
_atom_site_label
_atom_site_fract_x
_atom_site_fract_y
_atom_site_fract_z
Si Si1 0.860847 0.792499 0.862948
Si Si2 0.777228 0.202513 0.390744
Si Si3 0.570172 0.800626 0.300864
Si Si4 0.237428 0.796685 0.130774
Si Si5 0.009901 0.294243 0.873465
Si Si6 0.046886 0.192242 0.532455
Si Si7 0.394218 0.298888 0.110502
Si Si8 0.132142 0.789563 0.659377
O O1 0.886652 0.722459 0.760912
O O2 0.811740 0.739574 0.861858
O O3 0.862703 0.000000 0.857615
O O4 0.884632 0.727696 0.983086
O O5 0.750000 0.250000 0.500000
O O6 0.760567 0.242927 0.256452
O O7 0.826654 0.268404 0.403530
O O8 0.779481 0.000000 0.395665
O O9 0.529443 0.746019 0.215541
O O10 0.568926 0.688844 0.413264
O O11 0.564725 0.000000 0.329837
O O12 0.238990 0.000000 0.132308
O O13 0.250000 0.750000 0.000000
O O14 0.012074 0.500000 0.874965
O O15 0.056206 0.227106 0.848464
O O16 0.000000 0.233626 0.000000
O O17 0.084979 0.274673 0.613415
O O18 0.000000 0.273136 0.500000
O O19 0.038557 0.000000 0.575587
O O20 0.385984 0.500000 0.100251
O O21 0.363874 0.236814 0.206403
O O22 0.130177 0.000000 0.653043
#
# Coordination Sequence:
#
# PCOD9187776 Si02
#       8
#     8   8   8   8   8   8   8   8
#     4  10  22  38  60  89 121 155 197 251 309 369
#     4  11  24  44  68  96 134 174 219 270 327 389
#     4  11  23  37  56  83 119 158 199 246 302 364
#     4  11  24  44  69  97 129 167 213 268 331 392
#     4  10  20  35  51  76 120 161 190 236 304 361
#     4  10  21  39  63  88 117 157 204 250 301 364
#     4  10  19  35  61  89 113 149 204 250 295 358
#     4   9  20  39  63  89 121 159 198 254 310 356
#
# _framework density 22.546301
#
# number of rings (size 3 to 8) (size 9 to 14) (size 15 to 20)
#    0.000    1.750    1.250    2.625    1.750    5.500 
#    0.000    3.750    0.000    0.000    0.000    0.000 
#    0.000    0.000    0.000    0.000    0.000    0.000 
#
# Total GULP energy -178529.952624 kJ/mol
# GULP energy per Si atom -5579.061020 kJ/mol
# Density = 2.249498 g / cm^3
# Si number density = 22.546301 Si / 1000 Ang^3
#
#
#
# Elastic Constant Matrix: (Units=GPa)
#
#
# Indices 1 2 3 4 5 6 
#
# 1 127.8781 4.6981 44.2648 0.0000 -20.5194 0.0000
# 2 4.6981 36.3931 9.2274 0.0000 0.1758 0.0000
# 3 44.2648 9.2274 120.7526 0.0000 -21.9909 0.0000
# 4 0.0000 0.0000 0.0000 17.2134 0.0000 -4.4928
# 5 -20.5194 0.1758 -21.9909 0.0000 37.6154 0.0000
# 6 0.0000 0.0000 0.0000 -4.4928 0.0000 15.3976
#
#
#
# Elastic Compliance Matrix: (Units=1/GPa)
#
#
# Indices 1 2 3 4 5 6 
#
# 1 0.009353 -0.000527 -0.002752 0.000000 0.003496 0.000000
# 2 -0.000527 0.028131 -0.002275 0.000000 -0.001749 0.000000
# 3 -0.002752 -0.002275 0.010288 0.000000 0.004524 0.000000
# 4 0.000000 0.000000 0.000000 0.062883 0.000000 0.018348
# 5 0.003496 -0.001749 0.004524 0.000000 0.031145 0.000000
# 6 0.000000 0.000000 0.000000 0.018348 0.000000 0.070299
#
#
# Mechanical properties :
#
#
# Convention : Reuss Voigt Hill
#
# Bulk Modulus (GPa) = 27.27398 44.60048 35.93723
# Shear Modulus (GPa) = 21.23801 29.16751 25.20276
#
# Velocity S-wave (km/s) = 3.07249 3.60067 3.34701
# Velocity P-wave (km/s) = 4.97092 6.09189 5.55973
#
# Compressibility (1/GPa) = 0.03666498
#
# Stress axis : x y z
#
# Youngs Moduli (GPa) = 106.92120 35.54794 97.20234
#
# Poissons Ratio (x) = 0.01872 0.26746
# Poissons Ratio (y) = 0.05630 0.22115
# Poissons Ratio (z) = 0.29420 0.08088
#
# Static dielectric constant tensor:
#      x y z
#    x 1.857180 0.000000 0.040160 
#    y 0.000000 1.888320 0.000000 
#    z 0.040160 0.000000 1.904400 
# 
# From -- ./inp_files/187465.got.cif
#   From: 2010.05.17/outbox.cif.g08.bks.cpg/sg12_94_cif.got.tgz:187465.got - 2010.06.03 13:09:07.
