data_PCOD9187800
_publ_section_title
;
Structure prediction by ZEFSAII (Michael W. Deem and Ramdas Pophale) SiO2 
 PCOD9187800
Probable space group: C 2/M
;
_chemical_formula_sum "Si O2"
_cell_formula_units_Z 64
_cell_length_a 18.282747
_cell_length_b 13.483104
_cell_length_c 16.371390
_cell_angle_alpha 90.000000
_cell_angle_beta 127.988637
_cell_angle_gamma 90.000000
_cell_volume 3180.653142
_symmetry_space_group_name_H-M "C 2/M"
_symmetry_group_IT_number 12
_symmetry_cell_setting 'monoclinic'
loop_
_space_group_symop_operation_xyz
x,y,z
-x,y,-z
-x,-y,-z
x,-y,z
1/2+x,1/2+y,z
1/2-x,1/2+y,-z
1/2-x,1/2-y,-z
1/2+x,1/2-y,z
loop_
_atom_site_type_symbol
_atom_site_label
_atom_site_fract_x
_atom_site_fract_y
_atom_site_fract_z
Si Si1 0.594231 0.817188 0.516934
Si Si2 0.430112 0.768130 0.836249
Si Si3 0.818246 0.886665 0.398893
Si Si4 0.800838 0.386589 0.845905
Si Si5 0.362756 0.255366 0.028877
Si Si6 0.794282 0.612462 0.109067
Si Si7 0.262906 0.386426 0.744313
Si Si8 0.121147 0.614672 0.351172
O O1 0.500000 0.843722 0.500000
O O2 0.609204 0.698256 0.529644
O O3 0.684654 0.859632 0.625059
O O4 0.598501 0.858124 0.428267
O O5 0.397142 0.863354 0.865462
O O6 0.532454 0.732941 0.927161
O O7 0.350988 0.686045 0.797453
O O8 0.426333 0.806483 0.741113
O O9 0.776073 0.869652 0.278154
O O10 0.730246 0.878263 0.400345
O O11 0.852094 0.000000 0.425865
O O12 0.794381 0.500000 0.867903
O O13 0.805310 0.312332 0.924750
O O14 0.358695 0.192783 0.109415
O O15 0.307979 0.358087 0.994693
O O16 0.820620 0.500000 0.107170
O O17 0.785149 0.622315 0.200025
O O18 0.293100 0.500000 0.755023
O O19 0.094028 0.500000 0.316485
#
# Coordination Sequence:
#
# PCOD9187800 Si02
#       8
#     8   8   8   8   8   8   8   8
#     4  12  24  40  64  90 123 160 204 249 306 373
#     4  11  22  39  62  89 123 156 204 254 303 350
#     4   9  19  39  65  89 121 159 201 253 306 354
#     4  10  19  35  61  90 120 156 200 250 298 349
#     4  11  22  37  62  91 122 163 208 246 292 363
#     4  10  23  41  60  88 129 166 197 246 305 360
#     4  11  24  43  63  88 124 162 204 251 306 362
#     4  10  22  40  62  88 118 156 200 254 305 355
#
# _framework density 20.121653999999999
#
# number of rings (size 3 to 8) (size 9 to 14) (size 15 to 20)
#    0.000    1.500    3.750    2.625    1.750    4.250 
#    0.000    1.250    0.000    0.000    0.000    0.000 
#    0.000    0.000    0.000    0.000    0.000    0.000 
#
# Total GULP energy -178629.435061 kJ/mol
# GULP energy per Si atom -5582.169846 kJ/mol
# Density = 2.007586 g / cm^3
# Si number density = 20.121654 Si / 1000 Ang^3
#
#
#
# Elastic Constant Matrix: (Units=GPa)
#
#
# Indices 1 2 3 4 5 6 
#
# 1 70.9781 10.8103 27.8275 0.0000 -14.6357 0.0000
# 2 10.8103 75.6420 14.9843 0.0000 -10.2815 0.0000
# 3 27.8275 14.9843 31.0794 0.0000 -20.8453 0.0000
# 4 0.0000 0.0000 0.0000 16.4364 0.0000 -10.8508
# 5 -14.6357 -10.2815 -20.8453 0.0000 30.1017 0.0000
# 6 0.0000 0.0000 0.0000 -10.8508 0.0000 12.7923
#
#
#
# Elastic Compliance Matrix: (Units=1/GPa)
#
#
# Indices 1 2 3 4 5 6 
#
# 1 0.022242 0.000828 -0.024034 0.000000 -0.005546 0.000000
# 2 0.000828 0.014648 -0.007802 0.000000 0.000003 0.000000
# 3 -0.024034 -0.007802 0.089315 0.000000 0.047500 0.000000
# 4 0.000000 0.000000 0.000000 0.138267 0.000000 0.117282
# 5 -0.005546 0.000003 0.047500 0.000000 0.063419 0.000000
# 6 0.000000 0.000000 0.000000 0.117282 0.000000 0.177654
#
#
# Mechanical properties :
#
#
# Convention : Reuss Voigt Hill
#
# Bulk Modulus (GPa) = 15.57869 31.66040 23.61954
# Shear Modulus (GPa) = 8.48959 20.13791 14.31375
#
# Velocity S-wave (km/s) = 2.05628 3.16699 2.67003
# Velocity P-wave (km/s) = 3.66016 5.39831 4.61186
#
# Compressibility (1/GPa) = 0.06419027
#
# Stress axis : x y z
#
# Youngs Moduli (GPa) = 44.96054 68.27016 11.19627
#
# Poissons Ratio (x) = -0.05656 0.26909
# Poissons Ratio (y) = -0.03725 0.08735
# Poissons Ratio (z) = 1.08058 0.53263
#
# Static dielectric constant tensor:
#      x y z
#    x 1.716870 0.000000 -0.015100 
#    y 0.000000 1.731930 0.000000 
#    z -0.015100 0.000000 1.746710 
# 
# From -- ./inp_files/225764.got.cif
#   From: 2010.05.17/outbox.cif.g08.bks.cpg/sg12_113_cif.got.tgz:225764.got - 2010.06.03 13:09:07.
