data_PCOD9187695
_publ_section_title
;
Structure prediction by ZEFSAII (Michael W. Deem and Ramdas Pophale) SiO2 
 PCOD9187695
Probable space group: C 2/M
;
_chemical_formula_sum "Si O2"
_cell_formula_units_Z 44
_cell_length_a 17.336533
_cell_length_b 19.294748
_cell_length_c 11.445668
_cell_angle_alpha 90.000000
_cell_angle_beta 143.206645
_cell_angle_gamma 90.000000
_cell_volume 2293.079442
_symmetry_space_group_name_H-M "C 2/M"
_symmetry_group_IT_number 12
_symmetry_cell_setting 'monoclinic'
loop_
_space_group_symop_operation_xyz
x,y,z
-x,y,-z
-x,-y,-z
x,-y,z
1/2+x,1/2+y,z
1/2-x,1/2+y,-z
1/2-x,1/2-y,-z
1/2+x,1/2-y,z
loop_
_atom_site_type_symbol
_atom_site_label
_atom_site_fract_x
_atom_site_fract_y
_atom_site_fract_z
Si Si1 0.244293 0.423634 0.798713
Si Si2 0.228977 0.923128 0.446536
Si Si3 0.887071 0.714486 0.130263
Si Si4 0.982483 0.417530 0.118249
Si Si5 0.500000 0.175968 0.500000
Si Si6 0.488138 0.658279 0.125107
O O1 0.210803 0.500000 0.802033
O O2 0.275231 0.428703 0.698771
O O3 0.125128 0.372283 0.658395
O O4 0.369301 0.392307 0.012279
O O5 0.374324 0.905599 0.656519
O O6 0.118890 0.868378 0.342925
O O7 0.199767 0.000000 0.459512
O O8 0.981246 0.717073 0.357431
O O9 0.949383 0.764981 0.111521
O O10 0.890990 0.637188 0.076730
O O11 0.750000 0.750000 0.000000
O O12 0.950058 0.500000 0.095994
O O13 0.000000 0.405796 0.000000
O O14 0.500000 0.655212 0.000000
#
# Coordination Sequence:
#
# PCOD9187695 Si02
#       6
#     8   8   8   8   4   8
#     4  10  19  35  60  90 118 150 193 244 301 362
#     4   9  18  35  59  89 118 149 198 249 302 362
#     4  12  25  41  57  88 127 159 206 251 309 370
#     4  10  22  41  65  89 118 163 214 259 302 362
#     4  12  23  38  58  84 121 164 200 240 305 358
#     4  10  21  38  60  90 121 156 195 250 314 361
#
# _framework density 19.188171000000001
#
# number of rings (size 3 to 8) (size 9 to 14) (size 15 to 20)
#    0.000    1.636    3.636    1.364    0.000    5.091 
#    0.000    0.000    0.000    0.000    0.000    5.727 
#    0.000    0.000    0.000    0.000    0.000    0.000 
#
# Total GULP energy -122560.233516 kJ/mol
# GULP energy per Si atom -5570.919705 kJ/mol
# Density = 1.914450 g / cm^3
# Si number density = 19.188171 Si / 1000 Ang^3
#
#
#
# Elastic Constant Matrix: (Units=GPa)
#
#
# Indices 1 2 3 4 5 6 
#
# 1 55.0350 32.7080 24.0481 0.0000 11.6374 0.0000
# 2 32.7080 80.0702 44.8805 0.0000 18.5151 0.0000
# 3 24.0481 44.8805 52.7877 0.0000 1.8200 0.0000
# 4 0.0000 0.0000 0.0000 26.4538 0.0000 8.3162
# 5 11.6374 18.5151 1.8200 0.0000 28.9111 0.0000
# 6 0.0000 0.0000 0.0000 8.3162 0.0000 35.1572
#
#
#
# Elastic Compliance Matrix: (Units=1/GPa)
#
#
# Indices 1 2 3 4 5 6 
#
# 1 0.025682 -0.004749 -0.007426 0.000000 -0.006829 0.000000
# 2 -0.004749 0.032194 -0.024617 0.000000 -0.017156 0.000000
# 3 -0.007426 -0.024617 0.042702 0.000000 0.016066 0.000000
# 4 0.000000 0.000000 0.000000 0.040839 0.000000 -0.009660
# 5 -0.006829 -0.017156 0.016066 0.000000 0.047313 0.000000
# 6 0.000000 0.000000 0.000000 -0.009660 0.000000 0.030729
#
#
# Mechanical properties :
#
#
# Convention : Reuss Voigt Hill
#
# Bulk Modulus (GPa) = 37.04560 43.46290 40.25425
# Shear Modulus (GPa) = 16.55407 23.85486 20.20446
#
# Velocity S-wave (km/s) = 2.94040 3.52974 3.24846
# Velocity P-wave (km/s) = 5.55665 6.26994 5.92404
#
# Compressibility (1/GPa) = 0.02699376
#
# Stress axis : x y z
#
# Youngs Moduli (GPa) = 38.93821 31.06161 23.41798
#
# Poissons Ratio (x) = 0.14752 0.17391
# Poissons Ratio (y) = 0.18492 0.57647
# Poissons Ratio (z) = 0.28917 0.76463
#
# Static dielectric constant tensor:
#      x y z
#    x 1.707380 0.000000 -0.001810 
#    y 0.000000 1.725830 0.000000 
#    z -0.001810 0.000000 1.659900 
# 
# From -- ./inp_files/145804.got.cif
#   From: 2010.05.17/outbox.cif.g08.bks.cpg/sg12_73_cif.got.tgz:145804.got - 2010.06.03 13:09:07.
