data_PCOD9187079
_publ_section_title
;
Structure prediction by ZEFSAII (Michael W. Deem and Ramdas Pophale) SiO2 
 PCOD9187079
Probable space group: C 2/M
;
_chemical_formula_sum "Si O2"
_cell_formula_units_Z 50
_cell_length_a 22.192604
_cell_length_b 11.914286
_cell_length_c 15.223330
_cell_angle_alpha 90.000000
_cell_angle_beta 36.601559
_cell_angle_gamma 90.000000
_cell_volume 2400.003908
_symmetry_space_group_name_H-M "C 2/M"
_symmetry_group_IT_number 12
_symmetry_cell_setting 'monoclinic'
loop_
_space_group_symop_operation_xyz
x,y,z
-x,y,-z
-x,-y,-z
x,-y,z
1/2+x,1/2+y,z
1/2-x,1/2+y,-z
1/2-x,1/2-y,-z
1/2+x,1/2-y,z
loop_
_atom_site_type_symbol
_atom_site_label
_atom_site_fract_x
_atom_site_fract_y
_atom_site_fract_z
Si Si1 0.198054 0.211189 0.922338
Si Si2 0.194766 0.627320 0.559156
Si Si3 0.014340 0.628796 0.087899
Si Si4 0.643364 0.372175 0.170246
Si Si5 0.439585 0.373466 0.478857
Si Si6 0.327351 0.843354 0.618731
Si Si7 0.500000 0.000000 0.500000
O O1 0.288775 0.292869 0.848757
O O2 0.232704 0.146179 0.794759
O O3 0.181237 0.133842 0.026587
O O4 0.099354 0.285660 0.021126
O O5 0.235543 0.500000 0.538007
O O6 0.250000 0.750000 0.500000
O O7 0.090755 0.640802 0.736073
O O8 0.179973 0.616875 0.471835
O O9 0.049221 0.500000 0.061764
O O10 0.000000 0.643872 0.000000
O O11 0.647232 0.500000 0.198586
O O12 0.526306 0.335936 0.309418
O O13 0.500000 0.370798 0.500000
O O14 0.408196 0.500000 0.497710
O O15 0.348384 0.289215 0.586911
O O16 0.421670 0.903057 0.554759
#
# Coordination Sequence:
#
# PCOD9187079 Si02
#       7
#     8   8   8   8   8   8   2
#     4  11  22  37  59  90 126 165 212 263 330 399
#     4  11  25  46  71 100 133 177 232 287 346 407
#     4  10  22  42  66  94 125 167 219 281 339 400
#     4  10  21  36  54  85 124 164 204 258 316 388
#     4  10  19  35  57  84 122 160 213 262 322 389
#     4  12  23  40  65  96 130 175 221 273 340 405
#     4  12  24  40  62  96 136 180 222 264 340 408
#
# _framework density 20.833299
#
# number of rings (size 3 to 8) (size 9 to 14) (size 15 to 20)
#    0.000    1.280    3.200    2.400    1.120    2.560 
#    0.000    0.800    0.000    1.920    0.000    0.000 
#    0.000    0.000    0.000    0.000    0.000    0.000 
#
# Total GULP energy -139223.761025 kJ/mol
# GULP energy per Si atom -5568.950441 kJ/mol
# Density = 2.078588 g / cm^3
# Si number density = 20.833299 Si / 1000 Ang^3
#
#
#
# Elastic Constant Matrix: (Units=GPa)
#
#
# Indices 1 2 3 4 5 6 
#
# 1 50.6761 33.4187 29.1157 0.0000 9.5041 0.0000
# 2 33.4187 114.0852 30.5620 0.0000 -9.3268 0.0000
# 3 29.1157 30.5620 129.3411 0.0000 33.2376 0.0000
# 4 0.0000 0.0000 0.0000 -9.9623 0.0000 23.5317
# 5 9.5041 -9.3268 33.2376 0.0000 23.8324 0.0000
# 6 0.0000 0.0000 0.0000 23.5317 0.0000 -11.2183
#
#
#
# Elastic Compliance Matrix: (Units=1/GPa)
#
#
# Indices 1 2 3 4 5 6 
#
# 1 0.029091 -0.009572 -0.000535 0.000000 -0.014602 0.000000
# 2 -0.009572 0.014570 -0.005820 0.000000 0.017636 0.000000
# 3 -0.000535 -0.005820 0.015208 0.000000 -0.023274 0.000000
# 4 0.000000 0.000000 0.000000 0.025382 0.000000 0.053241
# 5 -0.014602 0.017636 -0.023274 0.000000 0.087144 0.000000
# 6 0.000000 0.000000 0.000000 0.053241 0.000000 0.022540
#
#
# Mechanical properties :
#
#
# Convention : Reuss Voigt Hill
#
# Bulk Modulus (GPa) = 37.01547 53.36613 45.19080
# Shear Modulus (GPa) = 21.29525 13.93077 17.61301
#
# Velocity S-wave (km/s) = 3.20061 2.58869 2.91078
# Velocity P-wave (km/s) = 5.60933 5.88273 5.74765
#
# Compressibility (1/GPa) = 0.02701573
#
# Stress axis : x y z
#
# Youngs Moduli (GPa) = 34.37466 68.63262 65.75474
#
# Poissons Ratio (x) = 0.65696 0.03515
# Poissons Ratio (y) = 0.32904 0.38271
# Poissons Ratio (z) = 0.01837 0.39946
#
# Static dielectric constant tensor:
#      x y z
#    x 1.726950 0.000000 0.018980 
#    y 0.000000 1.778590 0.000000 
#    z 0.018980 0.000000 1.794210 
# 
# From -- ./inp_files/239947.got.cif
#   From: 2010.05.17/outbox.cif.g08.bks.cpg/sg12_120_cif.got.tgz:239947.got - 2010.06.03 13:09:07.
