data_PCOD9187310
_publ_section_title
;
Structure prediction by ZEFSAII (Michael W. Deem and Ramdas Pophale) SiO2 
 PCOD9187310
Probable space group: C 2/M
;
_chemical_formula_sum "Si O2"
_cell_formula_units_Z 56
_cell_length_a 27.524149
_cell_length_b 17.650533
_cell_length_c 5.508423
_cell_angle_alpha 90.000000
_cell_angle_beta 70.012419
_cell_angle_gamma 90.000000
_cell_volume 2514.890467
_symmetry_space_group_name_H-M "C 2/M"
_symmetry_group_IT_number 12
_symmetry_cell_setting 'monoclinic'
loop_
_space_group_symop_operation_xyz
x,y,z
-x,y,-z
-x,-y,-z
x,-y,z
1/2+x,1/2+y,z
1/2-x,1/2+y,-z
1/2-x,1/2-y,-z
1/2+x,1/2-y,z
loop_
_atom_site_type_symbol
_atom_site_label
_atom_site_fract_x
_atom_site_fract_y
_atom_site_fract_z
Si Si1 0.706881 0.590789 0.531888
Si Si2 0.060970 0.919567 0.438091
Si Si3 0.020264 0.374786 0.218662
Si Si4 0.266488 0.909262 0.934808
Si Si5 0.618915 0.664908 0.959790
Si Si6 0.370515 0.184473 0.794302
Si Si7 0.939993 0.757910 0.310232
O O1 0.698854 0.500000 0.541960
O O2 0.731400 0.611995 0.229705
O O3 0.654555 0.635400 0.681452
O O4 0.741551 0.607523 0.713352
O O5 0.061554 0.835334 0.540955
O O6 0.000000 0.927775 0.500000
O O7 0.076407 0.000000 0.534264
O O8 0.099303 0.906838 0.145367
O O9 0.081241 0.356650 0.146890
O O10 0.000000 0.413244 0.500000
O O11 0.988417 0.295434 0.268819
O O12 0.000000 0.410197 0.000000
O O13 0.273018 0.000000 0.935981
O O14 0.321174 0.868319 0.866070
O O15 0.569159 0.707836 0.937968
O O16 0.644461 0.734229 0.062509
O O17 0.393201 0.206002 0.490422
#
# Coordination Sequence:
#
# PCOD9187310 Si02
#       7
#     8   8   8   8   8   8   8
#     4  10  24  43  63  88 125 169 211 259 317 370
#     4  10  22  36  52  81 121 164 213 257 301 365
#     4  10  19  35  58  87 123 158 195 243 307 368
#     4  10  24  45  66  89 123 165 209 263 322 378
#     4  11  22  37  60  89 120 164 208 261 310 366
#     4  10  22  37  63  92 120 162 207 260 312 372
#     4  10  21  36  57  87 122 162 199 256 309 371
#
# _framework density 22.26737
#
# number of rings (size 3 to 8) (size 9 to 14) (size 15 to 20)
#    0.000    1.857    1.429    2.571    6.000    2.286 
#    0.000    1.429    0.000    4.286    0.000    0.000 
#    0.000    0.000    0.000    0.000    0.000    0.000 
#
# Total GULP energy -156023.997536 kJ/mol
# GULP energy per Si atom -5572.285626 kJ/mol
# Density = 2.221669 g / cm^3
# Si number density = 22.267370 Si / 1000 Ang^3
#
#
#
# Elastic Constant Matrix: (Units=GPa)
#
#
# Indices 1 2 3 4 5 6 
#
# 1 90.3771 32.4711 15.5438 0.0000 -5.0646 0.0000
# 2 32.4711 67.9519 23.2354 0.0000 -5.9531 0.0000
# 3 15.5438 23.2354 87.1394 0.0000 2.2388 0.0000
# 4 0.0000 0.0000 0.0000 6.2989 0.0000 -14.6002
# 5 -5.0646 -5.9531 2.2388 0.0000 37.0467 0.0000
# 6 0.0000 0.0000 0.0000 -14.6002 0.0000 34.1308
#
#
#
# Elastic Compliance Matrix: (Units=1/GPa)
#
#
# Indices 1 2 3 4 5 6 
#
# 1 0.013433 -0.006065 -0.000802 0.000000 0.000910 0.000000
# 2 -0.006065 0.019241 -0.004113 0.000000 0.002511 0.000000
# 3 -0.000802 -0.004113 0.012755 0.000000 -0.001541 0.000000
# 4 0.000000 0.000000 0.000000 18.747610 0.000000 8.019718
# 5 0.000910 0.002511 -0.001541 0.000000 0.027614 0.000000
# 6 0.000000 0.000000 0.000000 8.019718 0.000000 3.459916
#
#
# Mechanical properties :
#
#
# Convention : Reuss Voigt Hill
#
# Bulk Modulus (GPa) = 42.61070 43.10767 42.85918
# Shear Modulus (GPa) = 0.22411 27.10981 13.66696
#
# Velocity S-wave (km/s) = 0.31759 3.49301 2.48012
# Velocity P-wave (km/s) = 4.39454 5.97238 5.24315
#
# Compressibility (1/GPa) = 0.02346829
#
# Stress axis : x y z
#
# Youngs Moduli (GPa) = 74.44495 51.97274 78.39845
#
# Poissons Ratio (x) = 0.31520 0.06290
# Poissons Ratio (y) = 0.45149 0.32247
# Poissons Ratio (z) = 0.05973 0.21377
#
# Static dielectric constant tensor:
#      x y z
#    x 1.861740 0.000000 0.153700 
#    y 0.000000 1.799820 0.000000 
#    z 0.153700 0.000000 2.291900 
# 
# From -- ./inp_files/25603.got.cif
#   From: 2010.05.17/outbox.cif.g08.bks.cpg/sg12_13_cif.got.tgz:25603.got - 2010.06.03 13:09:07.
