data_PCOD9187043
_publ_section_title
;
Structure prediction by ZEFSAII (Michael W. Deem and Ramdas Pophale) SiO2 
 PCOD9187043
Probable space group: C 2/M
;
_chemical_formula_sum "Si O2"
_cell_formula_units_Z 40
_cell_length_a 9.441781
_cell_length_b 22.810142
_cell_length_c 9.365657
_cell_angle_alpha 90.000000
_cell_angle_beta 117.512893
_cell_angle_gamma 90.000000
_cell_volume 1788.949976
_symmetry_space_group_name_H-M "C 2/M"
_symmetry_group_IT_number 12
_symmetry_cell_setting 'monoclinic'
loop_
_space_group_symop_operation_xyz
x,y,z
-x,y,-z
-x,-y,-z
x,-y,z
1/2+x,1/2+y,z
1/2-x,1/2+y,-z
1/2-x,1/2-y,-z
1/2+x,1/2-y,z
loop_
_atom_site_type_symbol
_atom_site_label
_atom_site_fract_x
_atom_site_fract_y
_atom_site_fract_z
Si Si1 0.491086 0.751483 0.659209
Si Si2 0.096291 0.625936 0.265157
Si Si3 0.247725 0.376096 0.047909
Si Si4 0.173953 0.000000 0.011054
Si Si5 0.849336 0.782885 0.870876
Si Si6 0.984848 0.500000 0.661972
O O1 0.500000 0.732616 0.500000
O O2 0.417700 0.817678 0.637818
O O3 0.673239 0.756981 0.797972
O O4 0.390556 0.711556 0.722307
O O5 0.227650 0.638743 0.205027
O O6 0.104357 0.560543 0.334582
O O7 0.927154 0.623332 0.104367
O O8 0.313176 0.441451 0.073890
O O9 0.344400 0.336640 0.979841
O O10 0.333961 0.000000 0.186693
O O11 0.000000 0.000000 0.000000
O O12 0.000000 0.745282 0.000000
O O13 0.000000 0.500000 0.500000
#
# Coordination Sequence:
#
# PCOD9187043 Si02
#       6
#     8   8   8   4   8   4
#     4  11  24  40  59  87 121 154 193 243 298 347
#     4   9  19  34  60  85 115 147 195 243 283 342
#     4   9  19  35  58  89 111 147 198 242 285 334
#     4  10  19  35  57  83 115 145 184 241 283 336
#     4  11  24  39  62  86 115 156 200 244 286 350
#     4  10  19  35  59  85 115 153 189 232 294 352
#
# _framework density 22.359486
#
# number of rings (size 3 to 8) (size 9 to 14) (size 15 to 20)
#    0.000    2.000    0.000    3.000    8.400    2.400 
#    0.000    0.000    0.000    2.400    0.000    0.000 
#    0.000    0.000    0.000    0.000    0.000    0.000 
#
# Total GULP energy -111592.962984 kJ/mol
# GULP energy per Si atom -5579.648149 kJ/mol
# Density = 2.230859 g / cm^3
# Si number density = 22.359486 Si / 1000 Ang^3
#
#
#
# Elastic Constant Matrix: (Units=GPa)
#
#
# Indices 1 2 3 4 5 6 
#
# 1 135.1136 45.2099 46.4296 0.0000 -37.5338 0.0000
# 2 45.2099 157.7811 45.9867 0.0000 -37.3336 0.0000
# 3 46.4296 45.9867 92.4843 0.0000 -40.1502 0.0000
# 4 0.0000 0.0000 0.0000 23.8689 0.0000 -11.5560
# 5 -37.5338 -37.3336 -40.1502 0.0000 56.3375 0.0000
# 6 0.0000 0.0000 0.0000 -11.5560 0.0000 29.7903
#
#
#
# Elastic Compliance Matrix: (Units=1/GPa)
#
#
# Indices 1 2 3 4 5 6 
#
# 1 0.009764 -0.001103 -0.002674 0.000000 0.003868 0.000000
# 2 -0.001103 0.007989 -0.002084 0.000000 0.003074 0.000000
# 3 -0.002674 -0.002084 0.017113 0.000000 0.009033 0.000000
# 4 0.000000 0.000000 0.000000 0.051583 0.000000 0.020010
# 5 0.003868 0.003074 0.009033 0.000000 0.028802 0.000000
# 6 0.000000 0.000000 0.000000 0.020010 0.000000 0.041330
#
#
# Mechanical properties :
#
#
# Convention : Reuss Voigt Hill
#
# Bulk Modulus (GPa) = 43.20872 73.40350 58.30611
# Shear Modulus (GPa) = 28.40635 38.51618 33.46126
#
# Velocity S-wave (km/s) = 3.56819 4.15491 3.87268
# Velocity P-wave (km/s) = 6.02847 7.47782 6.79192
#
# Compressibility (1/GPa) = 0.02314348
#
# Stress axis : x y z
#
# Youngs Moduli (GPa) = 102.42043 125.17704 58.43518
#
# Poissons Ratio (x) = 0.13807 0.15624
# Poissons Ratio (y) = 0.11297 0.12179
# Poissons Ratio (z) = 0.27385 0.26088
#
# Static dielectric constant tensor:
#      x y z
#    x 1.894720 0.000000 -0.007670 
#    y 0.000000 1.887600 0.000000 
#    z -0.007670 0.000000 1.837660 
# 
# From -- ./inp_files/39462.got.cif
#   From: 2010.05.17/outbox.cif.g08.bks.cpg/sg12_20_cif.got.tgz:39462.got - 2010.06.03 13:09:07.
