data_PCOD9187589
_publ_section_title
;
Structure prediction by ZEFSAII (Michael W. Deem and Ramdas Pophale) SiO2 
 PCOD9187589
Probable space group: C 2/M
;
_chemical_formula_sum "Si O2"
_cell_formula_units_Z 48
_cell_length_a 21.080864
_cell_length_b 27.171072
_cell_length_c 7.515634
_cell_angle_alpha 90.000000
_cell_angle_beta 31.945626
_cell_angle_gamma 90.000000
_cell_volume 2277.771940
_symmetry_space_group_name_H-M "C 2/M"
_symmetry_group_IT_number 12
_symmetry_cell_setting 'monoclinic'
loop_
_space_group_symop_operation_xyz
x,y,z
-x,y,-z
-x,-y,-z
x,-y,z
1/2+x,1/2+y,z
1/2-x,1/2+y,-z
1/2-x,1/2-y,-z
1/2+x,1/2-y,z
loop_
_atom_site_type_symbol
_atom_site_label
_atom_site_fract_x
_atom_site_fract_y
_atom_site_fract_z
Si Si1 0.759295 0.840856 0.563735
Si Si2 0.513059 0.207246 0.183052
Si Si3 0.098753 0.088366 0.148418
Si Si4 0.058164 0.187157 0.583949
Si Si5 0.856801 0.946329 0.322071
Si Si6 0.755511 0.667986 0.832447
O O1 0.869346 0.815553 0.403668
O O2 0.781889 0.898437 0.553318
O O3 0.757326 0.830202 0.354978
O O4 0.634544 0.821311 0.936455
O O5 0.519143 0.263706 0.226995
O O6 0.390611 0.183646 0.549166
O O7 0.500000 0.205789 0.000000
O O8 0.000000 0.061711 0.500000
O O9 0.018269 0.136553 0.267498
O O10 0.151813 0.055373 0.869682
O O11 0.212165 0.112226 0.976494
O O12 0.159375 0.194441 0.189727
O O13 0.826035 0.000000 0.469574
O O14 0.000000 0.938194 0.000000
#
# Coordination Sequence:
#
# PCOD9187589 Si02
#       6
#     8   8   8   8   8   8
#     4  10  22  39  58  80 118 149 185 239 280 325
#     4  10  23  35  54  83 114 156 196 221 270 336
#     4   9  19  34  54  79 115 141 180 234 280 329
#     4  11  21  35  56  80 113 157 184 226 277 325
#     4  10  19  35  60  84 106 139 186 238 288 333
#     4   9  21  38  52  80 115 149 196 227 262 333
#
# _framework density 21.073225999999998
#
# number of rings (size 3 to 8) (size 9 to 14) (size 15 to 20)
#    0.000    2.167    1.667    0.500    7.000    2.333 
#    3.000    0.000    0.000   12.500    0.000    1.167 
#    0.000    0.000    0.000    0.000    0.000    0.000 
#
# Total GULP energy -133719.820929 kJ/mol
# GULP energy per Si atom -5571.659205 kJ/mol
# Density = 2.102526 g / cm^3
# Si number density = 21.073226 Si / 1000 Ang^3
#
#
#
# Elastic Constant Matrix: (Units=GPa)
#
#
# Indices 1 2 3 4 5 6 
#
# 1 46.2336 22.8801 11.1842 0.0000 -6.2922 0.0000
# 2 22.8801 127.9841 56.8842 0.0000 -23.7681 0.0000
# 3 11.1842 56.8842 106.3956 0.0000 -11.3919 0.0000
# 4 0.0000 0.0000 0.0000 17.7716 0.0000 -11.5845
# 5 -6.2922 -23.7681 -11.3919 0.0000 29.8269 0.0000
# 6 0.0000 0.0000 0.0000 -11.5845 0.0000 32.6075
#
#
#
# Elastic Compliance Matrix: (Units=1/GPa)
#
#
# Indices 1 2 3 4 5 6 
#
# 1 0.023828 -0.003782 -0.000279 0.000000 0.001907 0.000000
# 2 -0.003782 0.012141 -0.005363 0.000000 0.006829 0.000000
# 3 -0.000279 -0.005363 0.012336 0.000000 0.000379 0.000000
# 4 0.000000 0.000000 0.000000 0.073228 0.000000 0.026016
# 5 0.001907 0.006829 0.000379 0.000000 0.039516 0.000000
# 6 0.000000 0.000000 0.000000 0.026016 0.000000 0.039910
#
#
# Mechanical properties :
#
#
# Convention : Reuss Voigt Hill
#
# Bulk Modulus (GPa) = 33.94572 51.39000 42.66786
# Shear Modulus (GPa) = 21.77468 28.68553 25.23010
#
# Velocity S-wave (km/s) = 3.21796 3.69349 3.46390
# Velocity P-wave (km/s) = 5.47270 6.52905 6.02408
#
# Compressibility (1/GPa) = 0.02945879
#
# Stress axis : x y z
#
# Youngs Moduli (GPa) = 41.96794 82.36391 81.06429
#
# Poissons Ratio (x) = 0.31148 0.02259
# Poissons Ratio (y) = 0.15871 0.43471
# Poissons Ratio (z) = 0.01169 0.44168
#
# Static dielectric constant tensor:
#      x y z
#    x 1.943090 0.000000 0.050280 
#    y 0.000000 1.789390 0.000000 
#    z 0.050280 0.000000 1.808210 
# 
# From -- ./inp_files/99964.got.cif
#   From: 2010.05.17/outbox.cif.g08.bks.cpg/sg12_50_cif.got.tgz:99964.got - 2010.06.03 13:09:07.
