data_PCOD9187909
_publ_section_title
;
Structure prediction by ZEFSAII (Michael W. Deem and Ramdas Pophale) SiO2 
 PCOD9187909
Probable space group: C 2/M
;
_chemical_formula_sum "Si O2"
_cell_formula_units_Z 48
_cell_length_a 32.571692
_cell_length_b 8.425373
_cell_length_c 9.162461
_cell_angle_alpha 90.000000
_cell_angle_beta 85.107369
_cell_angle_gamma 90.000000
_cell_volume 2505.279905
_symmetry_space_group_name_H-M "C 2/M"
_symmetry_group_IT_number 12
_symmetry_cell_setting 'monoclinic'
loop_
_space_group_symop_operation_xyz
x,y,z
-x,y,-z
-x,-y,-z
x,-y,z
1/2+x,1/2+y,z
1/2-x,1/2+y,-z
1/2-x,1/2-y,-z
1/2+x,1/2-y,z
loop_
_atom_site_type_symbol
_atom_site_label
_atom_site_fract_x
_atom_site_fract_y
_atom_site_fract_z
Si Si1 0.178218 0.253125 0.764184
Si Si2 0.517894 0.684378 0.644538
Si Si3 0.676695 0.000000 0.507008
Si Si4 0.583983 0.681871 0.838201
Si Si5 0.685689 0.000000 0.019565
Si Si6 0.749489 0.500000 0.746938
Si Si7 0.888117 0.500000 0.724698
Si Si8 0.932144 0.811668 0.825976
O O1 0.177708 0.353347 0.616595
O O2 0.132394 0.182414 0.791442
O O3 0.183572 0.353412 0.910237
O O4 0.218089 0.144557 0.744536
O O5 0.500000 0.756668 0.500000
O O6 0.528823 0.500000 0.602223
O O7 0.557100 0.757618 0.716082
O O8 0.480108 0.684515 0.769283
O O9 0.716046 0.000000 0.388753
O O10 0.636204 0.000000 0.419990
O O11 0.569337 0.500000 0.849753
O O12 0.575402 0.740861 0.004296
O O13 0.726018 0.000000 0.107923
O O14 0.646817 0.000000 0.138732
O O15 0.912029 0.668373 0.737582
O O16 0.917657 0.000000 0.811446
#
# Coordination Sequence:
#
# PCOD9187909 Si02
#       8
#     8   8   4   8   4   4   4   8
#     4  11  21  40  63  92 119 163 204 255 310 383
#     4   9  19  35  58  89 129 167 205 261 307 360
#     4  10  26  40  59  86 133 162 193 256 330 360
#     4  10  19  35  62  92 121 160 216 261 307 365
#     4  10  22  40  63  90 129 153 194 268 317 356
#     4  11  22  42  66  90 118 160 211 251 313 391
#     4  11  22  42  60  92 131 164 203 270 306 369
#     4  10  21  39  63  91 125 167 216 254 316 366
#
# _framework density 19.159537
#
# number of rings (size 3 to 8) (size 9 to 14) (size 15 to 20)
#    0.000    1.833    2.500    1.500    2.333    2.000 
#    1.500    3.750    3.667    0.000    0.000    0.000 
#    0.000    0.000    0.000    0.000    0.000    0.000 
#
# Total GULP energy -133683.623652 kJ/mol
# GULP energy per Si atom -5570.150986 kJ/mol
# Density = 1.911593 g / cm^3
# Si number density = 19.159537 Si / 1000 Ang^3
#
#
#
# Elastic Constant Matrix: (Units=GPa)
#
#
# Indices 1 2 3 4 5 6 
#
# 1 111.9175 30.3228 53.0963 0.0000 23.3901 0.0000
# 2 30.3228 67.4673 27.2146 0.0000 20.8557 0.0000
# 3 53.0963 27.2146 111.6008 0.0000 24.8422 0.0000
# 4 0.0000 0.0000 0.0000 -5.7723 0.0000 -3.4846
# 5 23.3901 20.8557 24.8422 0.0000 37.5029 0.0000
# 6 0.0000 0.0000 0.0000 -3.4846 0.0000 19.6695
#
#
#
# Elastic Compliance Matrix: (Units=1/GPa)
#
#
# Indices 1 2 3 4 5 6 
#
# 1 0.012533 -0.002790 -0.004560 0.000000 -0.003244 0.000000
# 2 -0.002790 0.019146 -0.001594 0.000000 -0.007851 0.000000
# 3 -0.004560 -0.001594 0.012537 0.000000 -0.004574 0.000000
# 4 0.000000 0.000000 0.000000 -0.156503 0.000000 -0.027726
# 5 -0.003244 -0.007851 -0.004574 0.000000 0.036084 0.000000
# 6 0.000000 0.000000 0.000000 -0.027726 0.000000 0.045928
#
#
# Mechanical properties :
#
#
# Convention : Reuss Voigt Hill
#
# Bulk Modulus (GPa) = 37.98348 56.91701 47.45024
# Shear Modulus (GPa) = -1384.50592 22.30348 -681.10122
#
# Velocity S-wave (km/s) = -26.91075 3.41558 -18.87488
# Velocity P-wave (km/s) = 30.75251 6.73248 21.21780
#
# Compressibility (1/GPa) = 0.02632724
#
# Stress axis : x y z
#
# Youngs Moduli (GPa) = 79.79213 52.23032 79.76483
#
# Poissons Ratio (x) = 0.14575 0.36373
# Poissons Ratio (y) = 0.22266 0.12711
# Poissons Ratio (z) = 0.36385 0.08323
#
# Static dielectric constant tensor:
#      x y z
#    x 1.638150 0.000000 0.030910 
#    y 0.000000 1.194230 0.000000 
#    z 0.030910 0.000000 1.676440 
# 
# From -- ./inp_files/108863.got.cif
#   From: 2010.05.17/outbox.cif.g08.bks.cpg/sg12_55_cif.got.tgz:108863.got - 2010.06.03 13:09:07.
