data_PCOD9187799
_publ_section_title
;
Structure prediction by ZEFSAII (Michael W. Deem and Ramdas Pophale) SiO2 
 PCOD9187799
Probable space group: C 2/M
;
_chemical_formula_sum "Si O2"
_cell_formula_units_Z 64
_cell_length_a 23.969614
_cell_length_b 10.930030
_cell_length_c 20.958389
_cell_angle_alpha 90.000000
_cell_angle_beta 34.982087
_cell_angle_gamma 90.000000
_cell_volume 3148.020970
_symmetry_space_group_name_H-M "C 2/M"
_symmetry_group_IT_number 12
_symmetry_cell_setting 'monoclinic'
loop_
_space_group_symop_operation_xyz
x,y,z
-x,y,-z
-x,-y,-z
x,-y,z
1/2+x,1/2+y,z
1/2-x,1/2+y,-z
1/2-x,1/2-y,-z
1/2+x,1/2-y,z
loop_
_atom_site_type_symbol
_atom_site_label
_atom_site_fract_x
_atom_site_fract_y
_atom_site_fract_z
Si Si1 0.869274 0.853216 0.788875
Si Si2 0.860038 0.124589 0.369158
Si Si3 0.103360 0.135854 0.867489
Si Si4 0.277101 0.359106 0.117421
Si Si5 0.440147 0.708923 0.862592
Si Si6 0.909932 0.635331 0.214884
Si Si7 0.047196 0.856422 0.523007
Si Si8 0.783901 0.760091 0.559728
O O1 0.793850 0.755278 0.830098
O O2 0.888229 0.804210 0.842936
O O3 0.966639 0.846734 0.654394
O O4 0.841840 0.000000 0.816340
O O5 0.846067 0.223581 0.437044
O O6 0.774822 0.136654 0.397694
O O7 0.962021 0.131567 0.239165
O O8 0.854195 0.000000 0.412535
O O9 0.184477 0.148156 0.846301
O O10 0.101270 0.254176 0.824692
O O11 0.113627 0.000000 0.828084
O O12 0.000000 0.135415 0.000000
O O13 0.240317 0.500000 0.141444
O O14 0.368726 0.339063 0.983937
O O15 0.492483 0.835402 0.835509
O O16 0.916604 0.500000 0.180788
O O17 0.808539 0.647452 0.349060
O O18 0.142729 0.780095 0.451716
O O19 0.000000 0.819897 0.500000
O O20 0.074852 0.000000 0.492002
#
# Coordination Sequence:
#
# PCOD9187799 Si02
#       8
#     8   8   8   8   8   8   8   8
#     4  11  24  41  66  94 119 161 217 261 302 365
#     4  10  19  35  61  90 120 156 198 246 303 371
#     4  10  22  43  66  89 123 168 211 252 308 378
#     4  11  24  42  63  88 124 167 206 256 316 367
#     4  11  22  39  63  92 123 162 206 254 308 374
#     4  11  24  38  63 100 131 161 201 258 318 367
#     4  10  21  39  62  85 118 160 201 250 306 364
#     4  10  21  36  58  91 124 155 195 250 308 366
#
# _framework density 20.330231999999999
#
# number of rings (size 3 to 8) (size 9 to 14) (size 15 to 20)
#    0.000    1.500    2.500    2.625    1.750    4.250 
#    0.000    0.625    0.000    0.750    0.000    0.000 
#    0.000    0.000    0.000    0.000    0.000    0.000 
#
# Total GULP energy -178248.836290 kJ/mol
# GULP energy per Si atom -5570.276134 kJ/mol
# Density = 2.028396 g / cm^3
# Si number density = 20.330232 Si / 1000 Ang^3
#
#
#
# Elastic Constant Matrix: (Units=GPa)
#
#
# Indices 1 2 3 4 5 6 
#
# 1 111.7079 56.8257 6.6324 0.0000 -14.3519 0.0000
# 2 56.8257 137.1249 33.7040 0.0000 -8.6339 0.0000
# 3 6.6324 33.7040 52.6058 0.0000 -7.0102 0.0000
# 4 0.0000 0.0000 0.0000 2.8875 0.0000 6.5135
# 5 -14.3519 -8.6339 -7.0102 0.0000 35.1441 0.0000
# 6 0.0000 0.0000 0.0000 6.5135 0.0000 19.6583
#
#
#
# Elastic Compliance Matrix: (Units=1/GPa)
#
#
# Indices 1 2 3 4 5 6 
#
# 1 0.012047 -0.005336 0.002446 0.000000 0.004097 0.000000
# 2 -0.005336 0.011057 -0.006513 0.000000 -0.000762 0.000000
# 3 0.002446 -0.006513 0.023416 0.000000 0.004069 0.000000
# 4 0.000000 0.000000 0.000000 1.371066 0.000000 -0.454284
# 5 0.004097 -0.000762 0.004069 0.000000 0.030752 0.000000
# 6 0.000000 0.000000 0.000000 -0.454284 0.000000 0.201390
#
#
# Mechanical properties :
#
#
# Convention : Reuss Voigt Hill
#
# Bulk Modulus (GPa) = 36.08253 55.08476 45.58365
# Shear Modulus (GPa) = 2.98014 25.15641 14.06828
#
# Velocity S-wave (km/s) = 1.21204 3.52147 2.63342
# Velocity P-wave (km/s) = 4.44359 6.60970 5.63177
#
# Compressibility (1/GPa) = 0.02771424
#
# Stress axis : x y z
#
# Youngs Moduli (GPa) = 83.00609 90.44420 42.70613
#
# Poissons Ratio (x) = 0.48258 -0.10444
# Poissons Ratio (y) = 0.44289 0.27813
# Poissons Ratio (z) = -0.20300 0.58903
#
# Static dielectric constant tensor:
#      x y z
#    x 1.778390 0.000000 0.013610 
#    y 0.000000 1.777340 0.000000 
#    z 0.013610 0.000000 1.733200 
# 
# From -- ./inp_files/349355.got.cif
#   From: 2010.05.17/outbox.cif.g08.bks.cpg/sg12_175_cif.got.tgz:349355.got - 2010.06.03 13:09:07.
