data_PCOD9187996
_publ_section_title
;
Structure prediction by ZEFSAII (Michael W. Deem and Ramdas Pophale) SiO2 
 PCOD9187996
Probable space group: C 2/M
;
_chemical_formula_sum "Si O2"
_cell_formula_units_Z 48
_cell_length_a 26.673204
_cell_length_b 13.835252
_cell_length_c 12.088651
_cell_angle_alpha 90.000000
_cell_angle_beta 28.897951
_cell_angle_gamma 90.000000
_cell_volume 2155.822145
_symmetry_space_group_name_H-M "C 2/M"
_symmetry_group_IT_number 12
_symmetry_cell_setting 'monoclinic'
loop_
_space_group_symop_operation_xyz
x,y,z
-x,y,-z
-x,-y,-z
x,-y,z
1/2+x,1/2+y,z
1/2-x,1/2+y,-z
1/2-x,1/2-y,-z
1/2+x,1/2-y,z
loop_
_atom_site_type_symbol
_atom_site_label
_atom_site_fract_x
_atom_site_fract_y
_atom_site_fract_z
Si Si1 0.171816 0.384927 0.850511
Si Si2 0.013618 0.114661 0.652042
Si Si3 0.717677 0.113296 0.519255
Si Si4 0.024858 0.747643 0.831242
Si Si5 0.302761 0.718845 0.784290
Si Si6 0.717058 0.611041 0.837522
O O1 0.151371 0.500000 0.895974
O O2 0.237700 0.366326 0.609654
O O3 0.230745 0.349472 0.846250
O O4 0.068219 0.321359 0.033605
O O5 0.044960 0.168459 0.704782
O O6 0.086848 0.166425 0.421431
O O7 0.033500 0.000000 0.614695
O O8 0.889568 0.128311 0.890714
O O9 0.620654 0.176913 0.670327
O O10 0.799954 0.128010 0.261298
O O11 0.689996 0.000000 0.568853
O O12 0.000000 0.789500 0.000000
O O13 0.305366 0.818551 0.710496
O O14 0.250000 0.750000 0.000000
O O15 0.745984 0.500000 0.796489
#
# Coordination Sequence:
#
# PCOD9187996 Si02
#       6
#     8   8   8   8   8   8
#     4  10  21  39  65  99 136 174 220 276 333 388
#     4  11  24  43  65  97 134 171 214 269 333 393
#     4   9  18  36  66 101 136 174 214 263 332 406
#     4  10  19  35  66 102 138 175 213 266 328 404
#     4  12  26  44  67  91 125 174 232 274 324 384
#     4  10  22  42  68  97 132 174 218 265 331 405
#
# _framework density 22.265288000000002
#
# number of rings (size 3 to 8) (size 9 to 14) (size 15 to 20)
#    0.000    1.667    3.333    1.000    0.000    6.333 
#    0.000    3.333    0.000    1.000    0.000    0.000 
#    0.000    0.000    0.000    0.000    0.000    0.000 
#
# Total GULP energy -134099.757767 kJ/mol
# GULP energy per Si atom -5587.489907 kJ/mol
# Density = 2.221461 g / cm^3
# Si number density = 22.265288 Si / 1000 Ang^3
#
#
#
# Elastic Constant Matrix: (Units=GPa)
#
#
# Indices 1 2 3 4 5 6 
#
# 1 82.9052 39.8131 36.9155 0.0000 14.1569 0.0000
# 2 39.8131 134.3807 51.7615 0.0000 -3.4850 0.0000
# 3 36.9155 51.7615 117.3157 0.0000 25.6246 0.0000
# 4 0.0000 0.0000 0.0000 30.3452 0.0000 6.3508
# 5 14.1569 -3.4850 25.6246 0.0000 45.9592 0.0000
# 6 0.0000 0.0000 0.0000 6.3508 0.0000 13.8433
#
#
#
# Elastic Compliance Matrix: (Units=1/GPa)
#
#
# Indices 1 2 3 4 5 6 
#
# 1 0.015597 -0.003786 -0.002420 0.000000 -0.003742 0.000000
# 2 -0.003786 0.010342 -0.004324 0.000000 0.004361 0.000000
# 3 -0.002420 -0.004324 0.012642 0.000000 -0.006631 0.000000
# 4 0.000000 0.000000 0.000000 0.036454 0.000000 -0.016724
# 5 -0.003742 0.004361 -0.006631 0.000000 0.026939 0.000000
# 6 0.000000 0.000000 0.000000 -0.016724 0.000000 0.079910
#
#
# Mechanical properties :
#
#
# Convention : Reuss Voigt Hill
#
# Bulk Modulus (GPa) = 57.07770 65.73133 61.40451
# Shear Modulus (GPa) = 23.94824 31.77030 27.85927
#
# Velocity S-wave (km/s) = 3.28317 3.78153 3.54113
# Velocity P-wave (km/s) = 6.32955 6.97514 6.66017
#
# Compressibility (1/GPa) = 0.01751998
#
# Stress axis : x y z
#
# Youngs Moduli (GPa) = 64.11689 96.69364 79.10194
#
# Poissons Ratio (x) = 0.36605 0.19144
# Poissons Ratio (y) = 0.24272 0.34207
# Poissons Ratio (z) = 0.15517 0.41815
#
# Static dielectric constant tensor:
#      x y z
#    x 1.840140 0.000000 0.031560 
#    y 0.000000 1.792370 0.000000 
#    z 0.031560 0.000000 1.901360 
# 
# From -- ./inp_files/143012.got.cif
#   From: 2010.05.17/outbox.cif.g08.bks.cpg/sg12_72_cif.got.tgz:143012.got - 2010.06.03 13:09:07.
