data_PCOD9187962
_publ_section_title
;
Structure prediction by ZEFSAII (Michael W. Deem and Ramdas Pophale) SiO2 
 PCOD9187962
Probable space group: C 2/M
;
_chemical_formula_sum "Si O2"
_cell_formula_units_Z 56
_cell_length_a 11.303715
_cell_length_b 28.872102
_cell_length_c 16.857753
_cell_angle_alpha 90.000000
_cell_angle_beta 28.123556
_cell_angle_gamma 90.000000
_cell_volume 2593.375375
_symmetry_space_group_name_H-M "C 2/M"
_symmetry_group_IT_number 12
_symmetry_cell_setting 'monoclinic'
loop_
_space_group_symop_operation_xyz
x,y,z
-x,y,-z
-x,-y,-z
x,-y,z
1/2+x,1/2+y,z
1/2-x,1/2+y,-z
1/2-x,1/2-y,-z
1/2+x,1/2-y,z
loop_
_atom_site_type_symbol
_atom_site_label
_atom_site_fract_x
_atom_site_fract_y
_atom_site_fract_z
Si Si1 0.782871 0.050160 0.868060
Si Si2 0.438134 0.430606 0.949899
Si Si3 0.291289 0.705623 0.683760
Si Si4 0.114201 0.631407 0.346697
Si Si5 0.039441 0.794613 0.097843
Si Si6 0.941476 0.653027 0.783375
Si Si7 0.802482 0.843971 0.831850
O O1 0.806060 0.048445 0.950405
O O2 0.886641 0.101851 0.785676
O O3 0.893990 0.000000 0.774631
O O4 0.500000 0.050654 0.000000
O O5 0.712303 0.413883 0.758626
O O6 0.500000 0.451791 0.000000
O O7 0.252635 0.387735 0.079711
O O8 0.500000 0.725069 0.500000
O O9 0.401850 0.685999 0.699640
O O10 0.080336 0.744180 0.825638
O O11 0.160690 0.662606 0.715810
O O12 0.307889 0.672500 0.215582
O O13 0.947604 0.637923 0.366996
O O14 0.000000 0.636700 0.500000
O O15 0.132370 0.816875 0.126121
O O16 0.260877 0.801872 0.903067
O O17 0.500000 0.844659 0.000000
#
# Coordination Sequence:
#
# PCOD9187962 Si02
#       7
#     8   8   8   8   8   8   8
#     4  10  19  35  63  95 122 153 204 265 313 358
#     4   9  18  37  59  87 121 163 203 247 308 379
#     4  12  27  37  56  92 123 156 204 257 297 365
#     4  10  21  35  58  85 115 158 201 247 299 353
#     4  11  22  40  57  80 117 164 200 248 294 365
#     4  10  20  39  58  79 119 159 202 239 306 354
#     4  11  22  40  62  86 121 159 207 248 307 369
#
# _framework density 21.593481000000001
#
# number of rings (size 3 to 8) (size 9 to 14) (size 15 to 20)
#    0.000    1.571    4.286    3.000    4.000    0.857 
#    0.000    0.000    0.000    0.857    0.000   12.000 
#    0.000    0.000    0.000    0.000    0.000    0.000 
#
# Total GULP energy -155944.634057 kJ/mol
# GULP energy per Si atom -5569.451216 kJ/mol
# Density = 2.154433 g / cm^3
# Si number density = 21.593481 Si / 1000 Ang^3
#
#
#
# Elastic Constant Matrix: (Units=GPa)
#
#
# Indices 1 2 3 4 5 6 
#
# 1 140.3748 28.9595 25.9955 0.0001 33.6946 0.0003
# 2 28.9595 118.2706 12.5659 -0.0002 10.4603 0.0004
# 3 25.9955 12.5659 75.8502 -0.0003 28.4037 0.0022
# 4 0.0001 -0.0002 -0.0003 2.5046 0.0001 -14.1632
# 5 33.6946 10.4603 28.4037 0.0001 36.5874 -0.0006
# 6 0.0003 0.0004 0.0022 -14.1632 -0.0006 22.8098
#
#
#
# Elastic Compliance Matrix: (Units=1/GPa)
#
#
# Indices 1 2 3 4 5 6 
#
# 1 0.009426 -0.001586 0.000160 0.000001 -0.008351 0.000000
# 2 -0.001586 0.008969 -0.000746 0.000000 -0.000524 0.000000
# 3 0.000160 -0.000746 0.018650 0.000004 -0.014412 0.000000
# 4 0.000001 0.000000 0.000004 -0.158988 -0.000005 -0.098720
# 5 -0.008351 -0.000524 -0.014412 -0.000005 0.046361 0.000000
# 6 0.000000 0.000000 0.000000 -0.098720 0.000000 -0.017457
#
#
# Mechanical properties :
#
#
# Convention : Reuss Voigt Hill
#
# Bulk Modulus (GPa) = 30.58165 52.17085 41.37625
# Shear Modulus (GPa) = -64.27218 30.17866 -17.04676
#
# Velocity S-wave (km/s) = -5.46161 3.74248 -2.81275
# Velocity P-wave (km/s) = 5.05758 6.54888 2.94182
#
# Compressibility (1/GPa) = 0.03269935
#
# Stress axis : x y z
#
# Youngs Moduli (GPa) = 106.08885 111.49213 53.62059
#
# Poissons Ratio (x) = 0.17687 -0.00855
# Poissons Ratio (y) = 0.16830 0.04000
# Poissons Ratio (z) = -0.01693 0.08316
#
# Static dielectric constant tensor:
#      x y z
#    x 1.881310 0.000000 0.015090 
#    y 0.000000 1.822510 0.000000 
#    z 0.015090 0.000000 1.799720 
# 
# From -- ./inp_files/209981.got.cif
#   From: 2010.05.17/outbox.cif.g08.bks.cpg/sg12_105_cif.got.tgz:209981.got - 2010.06.03 13:09:07.
