data_PCOD9187410
_publ_section_title
;
Structure prediction by ZEFSAII (Michael W. Deem and Ramdas Pophale) SiO2 
 PCOD9187410
Probable space group: C 2/M
;
_chemical_formula_sum "Si O2"
_cell_formula_units_Z 56
_cell_length_a 21.862893
_cell_length_b 7.812997
_cell_length_c 18.293089
_cell_angle_alpha 90.000000
_cell_angle_beta 119.004953
_cell_angle_gamma 90.000000
_cell_volume 2732.818445
_symmetry_space_group_name_H-M "C 2/M"
_symmetry_group_IT_number 12
_symmetry_cell_setting 'monoclinic'
loop_
_space_group_symop_operation_xyz
x,y,z
-x,y,-z
-x,-y,-z
x,-y,z
1/2+x,1/2+y,z
1/2-x,1/2+y,-z
1/2-x,1/2-y,-z
1/2+x,1/2-y,z
loop_
_atom_site_type_symbol
_atom_site_label
_atom_site_fract_x
_atom_site_fract_y
_atom_site_fract_z
Si Si1 0.558491 0.289416 0.292594
Si Si2 0.905806 0.207220 0.265271
Si Si3 0.329329 0.701513 0.524999
Si Si4 0.320887 0.293706 0.082092
Si Si5 0.086492 0.204234 0.992667
Si Si6 0.920960 0.701133 0.441427
Si Si7 0.576791 0.297761 0.140786
O O1 0.557423 0.500000 0.289440
O O2 0.480100 0.240243 0.271728
O O3 0.614164 0.227145 0.384451
O O4 0.581849 0.228682 0.225518
O O5 0.842845 0.265843 0.175581
O O6 0.901814 0.268525 0.346009
O O7 0.906161 0.000000 0.268082
O O8 0.331775 0.500000 0.535655
O O9 0.250000 0.750000 0.500000
O O10 0.361431 0.736964 0.463336
O O11 0.325708 0.500000 0.088541
O O12 0.376932 0.223651 0.056990
O O13 0.250000 0.250000 0.000000
O O14 0.004727 0.215274 0.927856
O O15 0.101427 0.000000 0.004619
O O16 0.110165 0.275259 0.085404
O O17 0.925977 0.500000 0.458066
O O18 0.000000 0.775183 0.500000
O O19 0.595227 0.500000 0.155667
#
# Coordination Sequence:
#
# PCOD9187410 Si02
#       7
#     8   8   8   8   8   8   8
#     4   9  16  29  53  80 106 143 192 238 283 345
#     4  10  19  35  59  84 111 151 203 248 292 354
#     4  11  23  40  61  85 120 160 197 244 303 364
#     4  10  20  34  52  77 112 151 190 237 290 348
#     4   8  13  23  43  71 102 132 166 216 271 316
#     4  11  23  39  62  92 121 150 197 257 312 369
#     4   8  12  22  44  74 101 126 167 223 269 312
#
# _framework density 20.491664
#
# number of rings (size 3 to 8) (size 9 to 14) (size 15 to 20)
#    0.000    2.429    2.857    1.714    0.000    1.143 
#    2.571    0.000    0.000    0.000    0.000    3.000 
#    0.000    0.000    0.000    0.000    0.000    0.000 
#
# Total GULP energy -155892.594186 kJ/mol
# GULP energy per Si atom -5567.592650 kJ/mol
# Density = 2.044502 g / cm^3
# Si number density = 20.491664 Si / 1000 Ang^3
#
#
#
# Elastic Constant Matrix: (Units=GPa)
#
#
# Indices 1 2 3 4 5 6 
#
# 1 74.2384 5.5815 58.9670 0.0000 -10.4682 0.0000
# 2 5.5815 25.6318 -2.6717 0.0000 2.9928 0.0000
# 3 58.9670 -2.6717 158.4104 0.0000 -25.6335 0.0000
# 4 0.0000 0.0000 0.0000 10.6474 0.0000 7.0560
# 5 -10.4682 2.9928 -25.6335 0.0000 36.6833 0.0000
# 6 0.0000 0.0000 0.0000 7.0560 0.0000 8.6718
#
#
#
# Elastic Compliance Matrix: (Units=1/GPa)
#
#
# Indices 1 2 3 4 5 6 
#
# 1 0.019794 -0.005184 -0.007298 0.000000 0.000972 0.000000
# 2 -0.005184 0.040751 0.002074 0.000000 -0.003355 0.000000
# 3 -0.007298 0.002074 0.009809 0.000000 0.004603 0.000000
# 4 0.000000 0.000000 0.000000 0.203825 0.000000 -0.165846
# 5 0.000972 -0.003355 0.004603 0.000000 0.031027 0.000000
# 6 0.000000 0.000000 0.000000 -0.165846 0.000000 0.250259
#
#
# Mechanical properties :
#
#
# Convention : Reuss Voigt Hill
#
# Bulk Modulus (GPa) = 20.18687 42.44822 31.31755
# Shear Modulus (GPa) = 8.43462 24.29409 16.36436
#
# Velocity S-wave (km/s) = 2.03102 3.44693 2.82899
# Velocity P-wave (km/s) = 3.92081 6.04993 5.09776
#
# Compressibility (1/GPa) = 0.04953715
#
# Stress axis : x y z
#
# Youngs Moduli (GPa) = 50.52053 24.53932 101.94491
#
# Poissons Ratio (x) = 0.12722 0.74403
# Poissons Ratio (y) = 0.26192 -0.21147
# Poissons Ratio (z) = 0.36872 -0.05090
#
# Static dielectric constant tensor:
#      x y z
#    x 1.817750 0.000000 0.001620 
#    y 0.000000 1.769820 0.000000 
#    z 0.001620 0.000000 1.776940 
# 
# From -- ./inp_files/281645.got.cif
#   From: 2010.05.17/outbox.cif.g08.bks.cpg/sg12_141_cif.got.tgz:281645.got - 2010.06.03 13:09:07.
