data_PCOD9187900
_publ_section_title
;
Structure prediction by ZEFSAII (Michael W. Deem and Ramdas Pophale) SiO2 
 PCOD9187900
Probable space group: C 2/M
;
_chemical_formula_sum "Si O2"
_cell_formula_units_Z 56
_cell_length_a 8.981955
_cell_length_b 27.074643
_cell_length_c 17.677912
_cell_angle_alpha 90.000000
_cell_angle_beta 44.511502
_cell_angle_gamma 90.000000
_cell_volume 3013.804539
_symmetry_space_group_name_H-M "C 2/M"
_symmetry_group_IT_number 12
_symmetry_cell_setting 'monoclinic'
loop_
_space_group_symop_operation_xyz
x,y,z
-x,y,-z
-x,-y,-z
x,-y,z
1/2+x,1/2+y,z
1/2-x,1/2+y,-z
1/2-x,1/2-y,-z
1/2+x,1/2-y,z
loop_
_atom_site_type_symbol
_atom_site_label
_atom_site_fract_x
_atom_site_fract_y
_atom_site_fract_z
Si Si1 0.207738 0.712476 0.876774
Si Si2 0.662231 0.264877 0.739082
Si Si3 0.758827 0.834172 0.614914
Si Si4 0.339765 0.943731 0.985373
Si Si5 0.962120 0.059295 0.226519
Si Si6 0.294988 0.110438 0.210248
Si Si7 0.912685 0.364009 0.615895
O O1 0.421427 0.720285 0.845003
O O2 0.244986 0.745396 0.788976
O O3 0.194952 0.656867 0.850414
O O4 0.000000 0.724347 0.000000
O O5 0.685079 0.219494 0.672389
O O6 0.779902 0.312920 0.665383
O O7 0.755263 0.869882 0.688813
O O8 0.603141 0.855141 0.606568
O O9 0.000000 0.829572 0.500000
O O10 0.469893 0.912819 0.877626
O O11 0.320529 0.000000 0.966662
O O12 0.500000 0.943292 0.000000
O O13 0.111930 0.927775 0.099841
O O14 0.749332 0.091692 0.304635
O O15 0.112301 0.074593 0.243443
O O16 0.928503 0.000000 0.238955
O O17 0.000000 0.372481 0.500000
#
# Coordination Sequence:
#
# PCOD9187900 Si02
#       7
#     8   8   8   8   8   8   8
#     4  11  21  36  58  91 130 160 191 237 292 353
#     4  11  23  39  60  89 121 160 200 241 291 355
#     4  11  25  42  60  87 117 156 205 249 295 349
#     4   8  15  31  59  91 119 151 192 236 284 350
#     4  10  20  38  64  93 121 154 197 242 295 354
#     4  10  19  35  62  91 120 158 198 239 287 348
#     4  12  25  41  63  85 117 156 202 252 300 352
#
# _framework density 18.581166
#
# number of rings (size 3 to 8) (size 9 to 14) (size 15 to 20)
#    0.000    1.571    2.857    4.286    2.000    1.429 
#    0.000    2.143    0.000    4.714    0.000    0.000 
#    0.000    0.000    0.000    0.000    0.000    0.000 
#
# Total GULP energy -156205.724078 kJ/mol
# GULP energy per Si atom -5578.775860 kJ/mol
# Density = 1.853887 g / cm^3
# Si number density = 18.581166 Si / 1000 Ang^3
#
#
#
# Elastic Constant Matrix: (Units=GPa)
#
#
# Indices 1 2 3 4 5 6 
#
# 1 67.1865 27.6365 35.4063 0.0000 -15.3071 0.0000
# 2 27.6365 83.9413 58.4261 0.0000 -8.5282 0.0000
# 3 35.4063 58.4261 125.3688 0.0000 -18.3921 0.0000
# 4 0.0000 0.0000 0.0000 11.9020 0.0000 13.9847
# 5 -15.3071 -8.5282 -18.3921 0.0000 29.2131 0.0000
# 6 0.0000 0.0000 0.0000 13.9847 0.0000 -7.3020
#
#
#
# Elastic Compliance Matrix: (Units=1/GPa)
#
#
# Indices 1 2 3 4 5 6 
#
# 1 0.019555 -0.003846 -0.002636 0.000000 0.007465 0.000000
# 2 -0.003846 0.018389 -0.007703 0.000000 -0.001497 0.000000
# 3 -0.002636 -0.007703 0.012977 0.000000 0.004540 0.000000
# 4 0.000000 0.000000 0.000000 0.025850 0.000000 0.049507
# 5 0.007465 -0.001497 0.004540 0.000000 0.040564 0.000000
# 6 0.000000 0.000000 0.000000 0.049507 0.000000 -0.042134
#
#
# Mechanical properties :
#
#
# Convention : Reuss Voigt Hill
#
# Bulk Modulus (GPa) = 44.34131 57.71491 51.02811
# Shear Modulus (GPa) = 45.00965 17.09780 31.05372
#
# Velocity S-wave (km/s) = 4.92705 3.03672 4.09252
# Velocity P-wave (km/s) = 7.50221 6.58968 7.06071
#
# Compressibility (1/GPa) = 0.02255233
#
# Stress axis : x y z
#
# Youngs Moduli (GPa) = 51.13696 54.38050 77.06007
#
# Poissons Ratio (x) = 0.20912 0.20309
# Poissons Ratio (y) = 0.19665 0.59362
# Poissons Ratio (z) = 0.13477 0.41891
#
# Static dielectric constant tensor:
#      x y z
#    x 1.653090 0.000000 -0.008540 
#    y 0.000000 1.643150 0.000000 
#    z -0.008540 0.000000 1.631880 
# 
# From -- ./inp_files/124243.got.cif
#   From: 2010.05.17/outbox.cif.g08.bks.cpg/sg12_63_cif.got.tgz:124243.got - 2010.06.03 13:09:07.
