data_PCOD9187399
_publ_section_title
;
Structure prediction by ZEFSAII (Michael W. Deem and Ramdas Pophale) SiO2 
 PCOD9187399
Probable space group: C 2/M
;
_chemical_formula_sum "Si O2"
_cell_formula_units_Z 64
_cell_length_a 30.538073
_cell_length_b 7.793382
_cell_length_c 12.235681
_cell_angle_alpha 90.000000
_cell_angle_beta 86.369788
_cell_angle_gamma 90.000000
_cell_volume 2906.186246
_symmetry_space_group_name_H-M "C 2/M"
_symmetry_group_IT_number 12
_symmetry_cell_setting 'monoclinic'
loop_
_space_group_symop_operation_xyz
x,y,z
-x,y,-z
-x,-y,-z
x,-y,z
1/2+x,1/2+y,z
1/2-x,1/2+y,-z
1/2-x,1/2-y,-z
1/2+x,1/2-y,z
loop_
_atom_site_type_symbol
_atom_site_label
_atom_site_fract_x
_atom_site_fract_y
_atom_site_fract_z
Si Si1 0.767580 0.801781 0.309344
Si Si2 0.330645 0.693965 0.675904
Si Si3 0.999285 0.789959 0.626559
Si Si4 0.207942 0.793773 0.934114
Si Si5 0.586310 0.707114 0.740748
Si Si6 0.159548 0.307229 0.557040
Si Si7 0.416597 0.289823 0.783279
Si Si8 0.609332 0.709718 0.979731
O O1 0.715320 0.790547 0.315889
O O2 0.784573 0.731596 0.190727
O O3 0.791187 0.706446 0.404455
O O4 0.781261 0.000000 0.317333
O O5 0.321399 0.500000 0.715193
O O6 0.346645 0.692368 0.548194
O O7 0.369800 0.766096 0.742322
O O8 0.042515 0.734577 0.685648
O O9 0.000000 0.734416 0.500000
O O10 0.956318 0.733617 0.700010
O O11 0.999176 0.000000 0.625439
O O12 0.160343 0.735893 0.983530
O O13 0.206265 0.000000 0.928995
O O14 0.250000 0.750000 0.000000
O O15 0.585204 0.500000 0.744537
O O16 0.627757 0.758628 0.661019
O O17 0.591693 0.767486 0.864681
O O18 0.150327 0.500000 0.523086
O O19 0.416568 0.500000 0.779686
O O20 0.418158 0.237540 0.909714
O O21 0.609077 0.500000 0.978540
#
# Coordination Sequence:
#
# PCOD9187399 Si02
#       8
#     8   8   8   8   8   8   8   8
#     4  11  22  38  57  81 115 151 193 239 289 344
#     4  11  22  37  58  82 114 152 191 238 293 345
#     4   9  17  30  52  85 118 150 191 236 284 341
#     4  10  20  34  53  77 111 151 193 239 284 337
#     4  10  19  35  59  83 115 152 188 237 294 343
#     4  12  24  38  57  82 114 149 194 240 287 352
#     4   9  18  32  54  85 117 147 187 238 286 339
#     4   9  17  32  52  79 114 148 186 233 286 338
#
# _framework density 22.021989000000001
#
# number of rings (size 3 to 8) (size 9 to 14) (size 15 to 20)
#    0.000    1.875    1.250    3.750    0.000    4.500 
#    0.000    2.500    0.000    4.875    0.000    0.875 
#    0.000    0.000    0.000    0.000    0.000    0.000 
#
# Total GULP energy -178862.018779 kJ/mol
# GULP energy per Si atom -5589.438087 kJ/mol
# Density = 2.197187 g / cm^3
# Si number density = 22.021989 Si / 1000 Ang^3
#
#
#
# Elastic Constant Matrix: (Units=GPa)
#
#
# Indices 1 2 3 4 5 6 
#
# 1 122.1347 0.5873 65.8282 0.0000 1.7849 0.0000
# 2 0.5873 35.0492 -1.7534 0.0000 1.1957 0.0000
# 3 65.8282 -1.7534 137.7438 0.0000 -15.2593 0.0000
# 4 0.0000 0.0000 0.0000 6.0002 0.0000 1.1837
# 5 1.7849 1.1957 -15.2593 0.0000 36.9775 0.0000
# 6 0.0000 0.0000 0.0000 1.1837 0.0000 13.0989
#
#
#
# Elastic Compliance Matrix: (Units=1/GPa)
#
#
# Indices 1 2 3 4 5 6 
#
# 1 0.011325 -0.000378 -0.005739 0.000000 -0.002903 0.000000
# 2 -0.000378 0.028585 0.000465 0.000000 -0.000714 0.000000
# 3 -0.005739 0.000465 0.010518 0.000000 0.004602 0.000000
# 4 0.000000 0.000000 0.000000 0.169687 0.000000 -0.015333
# 5 -0.002903 -0.000714 0.004602 0.000000 0.029106 0.000000
# 6 0.000000 0.000000 0.000000 -0.015333 0.000000 0.077728
#
#
# Mechanical properties :
#
#
# Convention : Reuss Voigt Hill
#
# Bulk Modulus (GPa) = 25.55830 47.13909 36.34869
# Shear Modulus (GPa) = 14.23313 26.56634 20.39974
#
# Velocity S-wave (km/s) = 2.54503 3.47703 3.04688
# Velocity P-wave (km/s) = 4.50191 6.12957 5.37768
#
# Compressibility (1/GPa) = 0.03912624
#
# Stress axis : x y z
#
# Youngs Moduli (GPa) = 88.30113 34.98298 95.07411
#
# Poissons Ratio (x) = 0.01322 0.54559
# Poissons Ratio (y) = 0.03336 -0.04424
# Poissons Ratio (z) = 0.50672 -0.01628
#
# Static dielectric constant tensor:
#      x y z
#    x 1.778980 0.000000 -0.005920 
#    y 0.000000 1.598990 0.000000 
#    z -0.005920 0.000000 1.797070 
# 
# From -- ./inp_files/187618.got.cif
#   From: 2010.05.17/outbox.cif.g08.bks.cpg/sg12_94_cif.got.tgz:187618.got - 2010.06.03 13:09:07.
