data_PCOD9187439
_publ_section_title
;
Structure prediction by ZEFSAII (Michael W. Deem and Ramdas Pophale) SiO2 
 PCOD9187439
Probable space group: C 2/M
;
_chemical_formula_sum "Si O2"
_cell_formula_units_Z 56
_cell_length_a 20.832949
_cell_length_b 17.971989
_cell_length_c 21.396791
_cell_angle_alpha 90.000000
_cell_angle_beta 159.586391
_cell_angle_gamma 90.000000
_cell_volume 2794.250709
_symmetry_space_group_name_H-M "C 2/M"
_symmetry_group_IT_number 12
_symmetry_cell_setting 'monoclinic'
loop_
_space_group_symop_operation_xyz
x,y,z
-x,y,-z
-x,-y,-z
x,-y,z
1/2+x,1/2+y,z
1/2-x,1/2+y,-z
1/2-x,1/2-y,-z
1/2+x,1/2-y,z
loop_
_atom_site_type_symbol
_atom_site_label
_atom_site_fract_x
_atom_site_fract_y
_atom_site_fract_z
Si Si1 0.964794 0.320124 0.853649
Si Si2 0.112737 0.086257 0.538116
Si Si3 0.368986 0.704307 0.247659
Si Si4 0.056564 0.290534 0.312125
Si Si5 0.705554 0.861912 0.767083
Si Si6 0.901311 0.847597 0.819117
Si Si7 0.859017 0.416038 0.516892
O O1 0.820551 0.384686 0.735746
O O2 0.979859 0.303682 0.793416
O O3 0.893891 0.241771 0.816596
O O4 0.168593 0.332320 0.065537
O O5 0.000000 0.092505 0.500000
O O6 0.019231 0.144251 0.404866
O O7 0.107092 0.000000 0.512958
O O8 0.412130 0.740672 0.219362
O O9 0.365150 0.776481 0.289622
O O10 0.250000 0.250000 0.500000
O O11 0.077109 0.369348 0.365250
O O12 0.782033 0.877334 0.768185
O O13 0.535424 0.911636 0.632148
O O14 0.885024 0.868668 0.975713
O O15 0.809956 0.875836 0.672350
O O16 0.810281 0.500000 0.487205
#
# Coordination Sequence:
#
# PCOD9187439 Si02
#       7
#     8   8   8   8   8   8   8
#     4  11  21  39  64  87 115 151 201 249 297 348
#     4  11  24  39  57  87 125 159 196 247 305 362
#     4  10  21  38  64  88 114 152 199 247 298 354
#     4  11  20  40  63  87 114 152 197 249 291 342
#     4   9  20  35  57  87 113 143 188 234 276 342
#     4  10  19  35  59  85 112 146 188 231 281 338
#     4  11  23  37  55  81 117 153 185 227 286 342
#
# _framework density 20.041150999999999
#
# number of rings (size 3 to 8) (size 9 to 14) (size 15 to 20)
#    0.000    1.571    2.857    2.571    0.000    4.571 
#    0.000    2.857    0.000    0.000    0.000    0.000 
#    0.000    0.000    0.000    0.000    0.000    0.000 
#
# Total GULP energy -156440.369327 kJ/mol
# GULP energy per Si atom -5587.156047 kJ/mol
# Density = 1.999554 g / cm^3
# Si number density = 20.041151 Si / 1000 Ang^3
#
#
#
# Elastic Constant Matrix: (Units=GPa)
#
#
# Indices 1 2 3 4 5 6 
#
# 1 36.5015 -3.8924 -7.7212 0.0112 5.3864 0.0102
# 2 -3.8924 64.3446 21.7556 0.0184 12.3273 0.0081
# 3 -7.7212 21.7556 54.8982 0.0139 11.2413 0.0171
# 4 0.0112 0.0184 0.0139 0.3415 0.0126 2.6993
# 5 5.3864 12.3273 11.2413 0.0126 25.9832 0.0063
# 6 0.0102 0.0081 0.0171 2.6993 0.0063 9.3450
#
#
#
# Elastic Compliance Matrix: (Units=1/GPa)
#
#
# Indices 1 2 3 4 5 6 
#
# 1 0.030139 0.001787 0.005468 0.000516 -0.009462 -0.000187
# 2 0.001787 0.018936 -0.005856 0.000440 -0.006821 -0.000130
# 3 0.005468 -0.005856 0.023007 0.000157 -0.008309 -0.000083
# 4 0.000516 0.000440 0.000157 -2.282116 0.000559 0.659182
# 5 -0.009462 -0.006821 -0.008309 0.000559 0.047278 -0.000162
# 6 -0.000187 -0.000130 -0.000083 0.659182 -0.000162 -0.083394
#
#
# Mechanical properties :
#
#
# Convention : Reuss Voigt Hill
#
# Bulk Modulus (GPa) = 13.35467 19.55871 16.45669
# Shear Modulus (GPa) = -2.24821 16.84077 7.29628
#
# Velocity S-wave (km/s) = -1.06030 2.90195 1.91012
# Velocity P-wave (km/s) = 2.27577 4.58355 3.61856
#
# Compressibility (1/GPa) = 0.07488015
#
# Stress axis : x y z
#
# Youngs Moduli (GPa) = 33.17909 52.80909 43.46552
#
# Poissons Ratio (x) = -0.09437 -0.23768
# Poissons Ratio (y) = -0.05929 0.25454
# Poissons Ratio (z) = -0.18143 0.30926
#
# Static dielectric constant tensor:
#      x y z
#    x 1.734570 0.000000 0.004890 
#    y 0.000000 1.689650 -0.000020 
#    z 0.004890 -0.000020 1.707120 
# 
# From -- ./inp_files/322760.got.cif
#   From: 2010.05.17/outbox.cif.g08.bks.cpg/sg12_162_cif.got.tgz:322760.got - 2010.06.03 13:09:07.
