data_PCOD9187102
_publ_section_title
;
Structure prediction by ZEFSAII (Michael W. Deem and Ramdas Pophale) SiO2 
 PCOD9187102
Probable space group: C 2/M
;
_chemical_formula_sum "Si O2"
_cell_formula_units_Z 46
_cell_length_a 17.191102
_cell_length_b 13.830377
_cell_length_c 13.118344
_cell_angle_alpha 90.000000
_cell_angle_beta 136.549011
_cell_angle_gamma 90.000000
_cell_volume 2145.048632
_symmetry_space_group_name_H-M "C 2/M"
_symmetry_group_IT_number 12
_symmetry_cell_setting 'monoclinic'
loop_
_space_group_symop_operation_xyz
x,y,z
-x,y,-z
-x,-y,-z
x,-y,z
1/2+x,1/2+y,z
1/2-x,1/2+y,-z
1/2-x,1/2-y,-z
1/2+x,1/2-y,z
loop_
_atom_site_type_symbol
_atom_site_label
_atom_site_fract_x
_atom_site_fract_y
_atom_site_fract_z
Si Si1 0.500000 0.500000 0.500000
Si Si2 0.688213 0.386718 0.010060
Si Si3 0.544865 0.686122 0.275083
Si Si4 0.944744 0.607757 0.222758
Si Si5 0.158670 0.167084 0.593641
Si Si6 0.500000 0.840634 0.500000
Si Si7 0.624220 0.739389 0.144735
O O1 0.597348 0.584369 0.597360
O O2 0.686920 0.500000 0.036523
O O3 0.811572 0.368263 0.079143
O O4 0.670174 0.320049 0.091996
O O5 0.577725 0.364766 0.836478
O O6 0.518331 0.801161 0.256192
O O7 0.623540 0.653017 0.442367
O O8 0.603853 0.669674 0.222740
O O9 0.969038 0.500000 0.205100
O O10 0.965428 0.605163 0.364681
O O11 0.289512 0.178247 0.740390
O O12 0.103441 0.269594 0.571330
O O13 0.500000 0.777366 0.000000
#
# Coordination Sequence:
#
# PCOD9187102 Si02
#       7
#     2   8   8   8   8   4   8
#     4  10  24  40  64  92 116 164 216 248 286 380
#     4  10  21  38  63  91 120 162 211 259 309 360
#     4  10  22  36  60  87 126 161 198 260 310 365
#     4  10  19  35  57  88 119 157 207 252 308 366
#     4  10  20  40  60  89 120 160 207 245 307 363
#     4   9  17  33  63  82 116 152 198 262 296 352
#     4  10  21  40  63  85 124 162 200 255 318 360
#
# _framework density 21.444735000000001
#
# number of rings (size 3 to 8) (size 9 to 14) (size 15 to 20)
#    0.000    2.087    1.739    1.304    1.217    3.130 
#    1.565    0.435    0.000    0.000    0.000    0.000 
#    0.000    0.000    0.000    0.000    0.000    0.000 
#
# Total GULP energy -128169.966837 kJ/mol
# GULP energy per Si atom -5572.607254 kJ/mol
# Density = 2.139593 g / cm^3
# Si number density = 21.444735 Si / 1000 Ang^3
#
#
#
# Elastic Constant Matrix: (Units=GPa)
#
#
# Indices 1 2 3 4 5 6 
#
# 1 31.9968 1.6516 14.1430 0.0000 0.0935 0.0000
# 2 1.6516 64.0090 19.8739 0.0000 12.6269 0.0000
# 3 14.1430 19.8739 116.4275 0.0000 10.2772 0.0000
# 4 0.0000 0.0000 0.0000 2.6552 0.0000 14.5154
# 5 0.0935 12.6269 10.2772 0.0000 34.5924 0.0000
# 6 0.0000 0.0000 0.0000 14.5154 0.0000 10.6001
#
#
#
# Elastic Compliance Matrix: (Units=1/GPa)
#
#
# Indices 1 2 3 4 5 6 
#
# 1 0.033073 0.000226 -0.004150 0.000000 0.001061 0.000000
# 2 0.000226 0.017512 -0.002518 0.000000 -0.005645 0.000000
# 3 -0.004150 -0.002518 0.009695 0.000000 -0.001950 0.000000
# 4 0.000000 0.000000 0.000000 -0.058066 0.000000 0.079514
# 5 0.001061 -0.005645 -0.001950 0.000000 0.031545 0.000000
# 6 0.000000 0.000000 0.000000 0.079514 0.000000 -0.014545
#
#
# Mechanical properties :
#
#
# Convention : Reuss Voigt Hill
#
# Bulk Modulus (GPa) = 21.09912 31.53003 26.31457
# Shear Modulus (GPa) = 104.38966 21.35386 62.87176
#
# Velocity S-wave (km/s) = 6.98456 3.15899 5.42049
# Velocity P-wave (km/s) = 8.65481 5.29533 7.17448
#
# Compressibility (1/GPa) = 0.04739534
#
# Stress axis : x y z
#
# Youngs Moduli (GPa) = 30.23650 57.10222 103.14460
#
# Poissons Ratio (x) = -0.01289 0.42802
# Poissons Ratio (y) = -0.00683 0.25977
# Poissons Ratio (z) = 0.12547 0.14381
#
# Static dielectric constant tensor:
#      x y z
#    x 1.830800 0.000000 -0.012650 
#    y 0.000000 1.732100 0.000000 
#    z -0.012650 0.000000 1.817260 
# 
# From -- ./inp_files/225490.got.cif
#   From: 2010.05.17/outbox.cif.g08.bks.cpg/sg12_113_cif.got.tgz:225490.got - 2010.06.03 13:09:07.
