data_PCOD9187175
_publ_section_title
;
Structure prediction by ZEFSAII (Michael W. Deem and Ramdas Pophale) SiO2 
 PCOD9187175
Probable space group: C 2/M
;
_chemical_formula_sum "Si O2"
_cell_formula_units_Z 64
_cell_length_a 26.940859
_cell_length_b 13.330740
_cell_length_c 14.228561
_cell_angle_alpha 90.000000
_cell_angle_beta 139.735083
_cell_angle_gamma 90.000000
_cell_volume 3302.752756
_symmetry_space_group_name_H-M "C 2/M"
_symmetry_group_IT_number 12
_symmetry_cell_setting 'monoclinic'
loop_
_space_group_symop_operation_xyz
x,y,z
-x,y,-z
-x,-y,-z
x,-y,z
1/2+x,1/2+y,z
1/2-x,1/2+y,-z
1/2-x,1/2-y,-z
1/2+x,1/2-y,z
loop_
_atom_site_type_symbol
_atom_site_label
_atom_site_fract_x
_atom_site_fract_y
_atom_site_fract_z
Si Si1 0.315026 0.621194 0.291538
Si Si2 0.769788 0.254218 0.682556
Si Si3 0.867134 0.705238 0.646346
Si Si4 0.470521 0.612319 0.854096
Si Si5 0.145138 0.122423 0.862422
Si Si6 0.520313 0.388353 0.419568
Si Si7 0.520875 0.886553 0.919142
Si Si8 0.377580 0.693168 0.980903
O O1 0.313790 0.500000 0.295101
O O2 0.251107 0.670900 0.263094
O O3 0.316341 0.646550 0.182389
O O4 0.395478 0.656936 0.455569
O O5 0.816628 0.309233 0.667653
O O6 0.693907 0.207941 0.525752
O O7 0.826132 0.175721 0.814334
O O8 0.908731 0.813280 0.720477
O O9 0.939634 0.631338 0.748712
O O10 0.440871 0.500000 0.817141
O O11 0.500000 0.645450 0.000000
O O12 0.550140 0.618108 0.912650
O O13 0.056514 0.161312 0.728781
O O14 0.145389 0.000000 0.868953
O O15 0.172193 0.173091 0.997673
O O16 0.500000 0.400862 0.500000
O O17 0.527187 0.500000 0.386904
O O18 0.548871 0.000000 0.945747
O O19 0.500000 0.873941 0.000000
O O20 0.580908 0.801684 0.972610
#
# Coordination Sequence:
#
# PCOD9187175 Si02
#       8
#     8   8   8   8   8   8   8   8
#     4   9  19  33  51  81 114 145 184 226 274 330
#     4  11  22  34  52  77 118 150 178 224 274 332
#     4  10  21  39  53  80 115 147 183 226 276 334
#     4  10  19  35  58  82 108 143 186 228 273 333
#     4   9  18  33  55  82 113 145 179 225 280 333
#     4   7  12  26  46  72 104 131 166 215 261 308
#     4  10  20  38  60  77 101 144 195 240 270 308
#     4  11  20  35  55  83 112 144 184 229 277 332
#
# _framework density 19.377773999999999
#
# number of rings (size 3 to 8) (size 9 to 14) (size 15 to 20)
#    0.000    2.375    2.500    2.625    3.500    2.000 
#    0.000    3.125    0.000    0.000    0.000    2.625 
#    0.000    0.000    0.000    0.000    0.000    0.000 
#
# Total GULP energy -178207.746541 kJ/mol
# GULP energy per Si atom -5568.992079 kJ/mol
# Density = 1.933367 g / cm^3
# Si number density = 19.377774 Si / 1000 Ang^3
#
#
#
# Elastic Constant Matrix: (Units=GPa)
#
#
# Indices 1 2 3 4 5 6 
#
# 1 95.3295 14.7650 30.2295 0.0000 -13.4953 0.0000
# 2 14.7650 68.5367 10.3856 0.0000 -0.7644 0.0000
# 3 30.2295 10.3856 99.7434 0.0000 -5.9081 0.0000
# 4 0.0000 0.0000 0.0000 4.7255 0.0000 -9.0813
# 5 -13.4953 -0.7644 -5.9081 0.0000 33.7127 0.0000
# 6 0.0000 0.0000 0.0000 -9.0813 0.0000 18.5891
#
#
#
# Elastic Compliance Matrix: (Units=1/GPa)
#
#
# Indices 1 2 3 4 5 6 
#
# 1 0.012488 -0.002141 -0.003303 0.000000 0.004372 0.000000
# 2 -0.002141 0.015192 -0.000973 0.000000 -0.000683 0.000000
# 3 -0.003303 -0.000973 0.011164 0.000000 0.000612 0.000000
# 4 0.000000 0.000000 0.000000 3.460402 0.000000 1.690507
# 5 0.004372 -0.000683 0.000612 0.000000 0.031504 0.000000
# 6 0.000000 0.000000 0.000000 1.690507 0.000000 0.879656
#
#
# Mechanical properties :
#
#
# Convention : Reuss Voigt Hill
#
# Bulk Modulus (GPa) = 38.44755 41.59662 40.02209
# Shear Modulus (GPa) = 1.12818 25.28743 13.20781
#
# Velocity S-wave (km/s) = 0.76385 3.61636 2.61357
# Velocity P-wave (km/s) = 4.54556 6.24100 5.45950
#
# Compressibility (1/GPa) = 0.02600946
#
# Stress axis : x y z
#
# Youngs Moduli (GPa) = 80.07850 65.82474 89.57086
#
# Poissons Ratio (x) = 0.14093 0.29584
# Poissons Ratio (y) = 0.17145 0.08719
# Poissons Ratio (z) = 0.26449 0.06407
#
# Static dielectric constant tensor:
#      x y z
#    x 1.729310 0.000000 -0.016330 
#    y 0.000000 1.672480 0.000000 
#    z -0.016330 0.000000 1.757500 
# 
# From -- ./inp_files/246399.got.cif
#   From: 2010.05.17/outbox.cif.g08.bks.cpg/sg12_124_cif.got.tgz:246399.got - 2010.06.03 13:09:07.
