data_PCOD9187875
_publ_section_title
;
Structure prediction by ZEFSAII (Michael W. Deem and Ramdas Pophale) SiO2 
 PCOD9187875
Probable space group: C 2/M
;
_chemical_formula_sum "Si O2"
_cell_formula_units_Z 58
_cell_length_a 14.715752
_cell_length_b 14.880379
_cell_length_c 17.954063
_cell_angle_alpha 90.000000
_cell_angle_beta 41.901937
_cell_angle_gamma 90.000000
_cell_volume 2625.688167
_symmetry_space_group_name_H-M "C 2/M"
_symmetry_group_IT_number 12
_symmetry_cell_setting 'monoclinic'
loop_
_space_group_symop_operation_xyz
x,y,z
-x,y,-z
-x,-y,-z
x,-y,z
1/2+x,1/2+y,z
1/2-x,1/2+y,-z
1/2-x,1/2-y,-z
1/2+x,1/2-y,z
loop_
_atom_site_type_symbol
_atom_site_label
_atom_site_fract_x
_atom_site_fract_y
_atom_site_fract_z
Si Si1 0.697417 0.852181 0.828608
Si Si2 0.083146 0.274543 0.236081
Si Si3 0.697275 0.396809 0.946328
Si Si4 0.459143 0.106134 0.439005
Si Si5 0.286148 0.710000 0.373155
Si Si6 0.000000 0.500000 0.000000
Si Si7 0.337241 0.400646 0.589796
Si Si8 0.406275 0.334787 0.150854
O O1 0.819264 0.804637 0.797382
O O2 0.759892 0.896014 0.716199
O O3 0.597501 0.770937 0.865649
O O4 0.617552 0.922681 0.925055
O O5 0.170915 0.333922 0.124449
O O6 0.051295 0.339734 0.325147
O O7 0.939506 0.234556 0.300401
O O8 0.729091 0.500000 0.942303
O O9 0.651337 0.384605 0.887248
O O10 0.559719 0.366888 0.072373
O O11 0.500000 0.125680 0.500000
O O12 0.306025 0.143791 0.522380
O O13 0.468553 0.000000 0.420832
O O14 0.208514 0.806007 0.417995
O O15 0.306100 0.659617 0.281795
O O16 0.500000 0.396882 0.500000
O O17 0.304830 0.500000 0.575858
#
# Coordination Sequence:
#
# PCOD9187875 Si02
#       8
#     8   8   8   8   8   2   8   8
#     4  10  20  36  58  85 113 153 206 253 294 348
#     4  11  23  39  58  87 129 164 192 249 322 370
#     4  10  19  35  62  89 114 156 214 260 296 362
#     4  11  23  41  67  94 118 158 209 256 302 366
#     4  11  23  39  61  87 131 162 196 248 320 377
#     4  12  20  36  62  84 110 152 210 256 282 344
#     4  10  20  37  61  88 115 157 212 254 289 355
#     4   9  19  36  61  85 114 158 204 255 307 353
#
# _framework density 22.089448000000001
#
# number of rings (size 3 to 8) (size 9 to 14) (size 15 to 20)
#    0.000    1.655    0.690    7.034    0.000    3.862 
#    1.241    1.379    6.069    0.000    0.000    0.000 
#    0.000    0.000    0.000    0.000    0.000    0.000 
#
# Total GULP energy -161776.401741 kJ/mol
# GULP energy per Si atom -5578.496612 kJ/mol
# Density = 2.203917 g / cm^3
# Si number density = 22.089448 Si / 1000 Ang^3
#
#
#
# Elastic Constant Matrix: (Units=GPa)
#
#
# Indices 1 2 3 4 5 6 
#
# 1 28.1487 11.1716 12.9182 0.0000 -15.1071 0.0000
# 2 11.1716 96.6620 31.8216 0.0000 -15.7375 0.0000
# 3 12.9182 31.8216 102.6058 0.0000 -23.4553 0.0000
# 4 0.0000 0.0000 0.0000 57.0942 0.0000 12.4393
# 5 -15.1071 -15.7375 -23.4553 0.0000 31.1149 0.0000
# 6 0.0000 0.0000 0.0000 12.4393 0.0000 22.3101
#
#
#
# Elastic Compliance Matrix: (Units=1/GPa)
#
#
# Indices 1 2 3 4 5 6 
#
# 1 0.048387 -0.001826 -0.000443 0.000000 0.022236 0.000000
# 2 -0.001826 0.011972 -0.002781 0.000000 0.003072 0.000000
# 3 -0.000443 -0.002781 0.012437 0.000000 0.007754 0.000000
# 4 0.000000 0.000000 0.000000 0.019937 0.000000 -0.011116
# 5 0.022236 0.003072 0.007754 0.000000 0.050334 0.000000
# 6 0.000000 0.000000 0.000000 -0.011116 0.000000 0.051021
#
#
# Mechanical properties :
#
#
# Convention : Reuss Voigt Hill
#
# Bulk Modulus (GPa) = 15.94971 37.69323 26.82147
# Shear Modulus (GPa) = 22.21373 33.53752 27.87563
#
# Velocity S-wave (km/s) = 3.17460 3.90071 3.55624
# Velocity P-wave (km/s) = 4.54683 6.11460 5.38804
#
# Compressibility (1/GPa) = 0.06269707
#
# Stress axis : x y z
#
# Youngs Moduli (GPa) = 20.66650 83.52803 80.40767
#
# Poissons Ratio (x) = 0.15255 0.03558
# Poissons Ratio (y) = 0.03774 0.22359
# Poissons Ratio (z) = 0.00915 0.23226
#
# Static dielectric constant tensor:
#      x y z
#    x 1.879460 0.000000 0.028650 
#    y 0.000000 1.777540 0.000000 
#    z 0.028650 0.000000 1.819090 
# 
# From -- ./inp_files/343803.got.cif
#   From: 2010.05.17/outbox.cif.g08.bks.cpg/sg12_172_cif.got.tgz:343803.got - 2010.06.03 13:09:07.
