data_PCOD9187860
_publ_section_title
;
Structure prediction by ZEFSAII (Michael W. Deem and Ramdas Pophale) SiO2 
 PCOD9187860
Probable space group: C 2/M
;
_chemical_formula_sum "Si O2"
_cell_formula_units_Z 52
_cell_length_a 13.790100
_cell_length_b 14.692365
_cell_length_c 16.616973
_cell_angle_alpha 90.000000
_cell_angle_beta 40.137107
_cell_angle_gamma 90.000000
_cell_volume 2170.271489
_symmetry_space_group_name_H-M "C 2/M"
_symmetry_group_IT_number 12
_symmetry_cell_setting 'monoclinic'
loop_
_space_group_symop_operation_xyz
x,y,z
-x,y,-z
-x,-y,-z
x,-y,z
1/2+x,1/2+y,z
1/2-x,1/2+y,-z
1/2-x,1/2-y,-z
1/2+x,1/2-y,z
loop_
_atom_site_type_symbol
_atom_site_label
_atom_site_fract_x
_atom_site_fract_y
_atom_site_fract_z
Si Si1 0.819653 0.000000 0.930763
Si Si2 0.042381 0.632093 0.067165
Si Si3 0.701149 0.104442 0.514600
Si Si4 0.151985 0.393787 0.232365
Si Si5 0.414209 0.660055 0.970797
Si Si6 0.265598 0.598210 0.655303
Si Si7 0.174286 0.300638 0.376451
O O1 0.696428 0.921262 0.981282
O O2 0.929110 0.919402 0.897481
O O3 0.908970 0.595230 0.208238
O O4 0.044636 0.739707 0.082613
O O5 0.000000 0.621825 0.000000
O O6 0.526070 0.121314 0.648695
O O7 0.785376 0.106756 0.546346
O O8 0.749592 0.173776 0.413879
O O9 0.709160 0.000000 0.478515
O O10 0.178595 0.500000 0.196007
O O11 0.238732 0.338171 0.110134
O O12 0.221980 0.364196 0.273057
O O13 0.500000 0.638435 0.000000
O O14 0.330810 0.500000 0.640426
O O15 0.320654 0.695183 0.652800
O O16 0.000000 0.324158 0.500000
#
# Coordination Sequence:
#
# PCOD9187860 Si02
#       7
#     4   8   8   8   8   8   8
#     4  12  22  38  60  90 120 160 206 258 296 354
#     4  11  24  42  63  89 121 167 214 253 299 364
#     4   9  19  35  59  89 112 147 195 242 294 355
#     4  10  19  35  62  85 118 154 194 237 297 363
#     4  11  23  39  61  92 128 164 203 250 311 362
#     4  11  22  38  62  81 112 159 202 240 291 363
#     4  10  20  35  56  90 118 147 187 247 299 350
#
# _framework density 23.960135999999999
#
# number of rings (size 3 to 8) (size 9 to 14) (size 15 to 20)
#    0.000    1.538    1.538    4.615    2.154    2.154 
#    0.000    0.000    0.000    0.000   12.000    0.000 
#    0.000    0.000    0.000    0.000    0.000    0.000 
#
# Total GULP energy -144808.757881 kJ/mol
# GULP energy per Si atom -5569.567611 kJ/mol
# Density = 2.390560 g / cm^3
# Si number density = 23.960136 Si / 1000 Ang^3
#
#
#
# Elastic Constant Matrix: (Units=GPa)
#
#
# Indices 1 2 3 4 5 6 
#
# 1 75.8983 24.9219 -7.3119 0.0000 6.4134 0.0000
# 2 24.9219 100.7744 20.2431 0.0000 3.4038 0.0000
# 3 -7.3119 20.2431 45.5234 -0.0001 4.7939 0.0001
# 4 0.0000 0.0000 -0.0001 16.5732 0.0000 -14.6412
# 5 6.4134 3.4038 4.7939 0.0000 19.6712 0.0000
# 6 0.0000 0.0000 0.0001 -14.6412 0.0000 22.9462
#
#
#
# Elastic Compliance Matrix: (Units=1/GPa)
#
#
# Indices 1 2 3 4 5 6 
#
# 1 0.015707 -0.004745 0.005219 0.000000 -0.005572 0.000000
# 2 -0.004745 0.012340 -0.006350 0.000000 0.000959 0.000000
# 3 0.005219 -0.006350 0.026369 0.000000 -0.007029 0.000000
# 4 0.000000 0.000000 0.000000 0.138292 0.000000 0.088240
# 5 -0.005572 0.000959 -0.007029 0.000000 0.054200 0.000000
# 6 0.000000 0.000000 0.000000 0.088240 0.000000 0.099883
#
#
# Mechanical properties :
#
#
# Convention : Reuss Voigt Hill
#
# Bulk Modulus (GPa) = 23.43845 33.10027 28.26936
# Shear Modulus (GPa) = 13.41333 24.12765 18.77049
#
# Velocity S-wave (km/s) = 2.36862 3.17676 2.80197
# Velocity P-wave (km/s) = 4.15740 5.22498 4.72146
#
# Compressibility (1/GPa) = 0.04266494
#
# Stress axis : x y z
#
# Youngs Moduli (GPa) = 63.66526 81.03896 37.92326
#
# Poissons Ratio (x) = 0.38451 -0.19794
# Poissons Ratio (y) = 0.30207 0.24082
# Poissons Ratio (z) = -0.33230 0.51462
#
# Static dielectric constant tensor:
#      x y z
#    x 1.997970 0.000000 -0.024400 
#    y 0.000000 1.873340 0.000000 
#    z -0.024400 0.000000 1.941250 
# 
# From -- ./inp_files/270602.got.cif
#   From: 2010.05.17/outbox.cif.g08.bks.cpg/sg12_136_cif.got.tgz:270602.got - 2010.06.03 13:09:07.
