data_PCOD9187609
_publ_section_title
;
Structure prediction by ZEFSAII (Michael W. Deem and Ramdas Pophale) SiO2 
 PCOD9187609
Probable space group: C 2/M
;
_chemical_formula_sum "Si O2"
_cell_formula_units_Z 64
_cell_length_a 31.095915
_cell_length_b 8.369197
_cell_length_c 16.700969
_cell_angle_alpha 90.000000
_cell_angle_beta 47.145439
_cell_angle_gamma 90.000000
_cell_volume 3186.263333
_symmetry_space_group_name_H-M "C 2/M"
_symmetry_group_IT_number 12
_symmetry_cell_setting 'monoclinic'
loop_
_space_group_symop_operation_xyz
x,y,z
-x,y,-z
-x,-y,-z
x,-y,z
1/2+x,1/2+y,z
1/2-x,1/2+y,-z
1/2-x,1/2-y,-z
1/2+x,1/2-y,z
loop_
_atom_site_type_symbol
_atom_site_label
_atom_site_fract_x
_atom_site_fract_y
_atom_site_fract_z
Si Si1 0.503942 0.190660 0.252035
Si Si2 0.663011 0.807319 0.301170
Si Si3 0.272454 0.307864 0.056523
Si Si4 0.707940 0.194877 0.412214
Si Si5 0.608917 0.306322 0.012949
Si Si6 0.842306 0.807299 0.220255
Si Si7 0.378976 0.806636 0.343879
Si Si8 0.044016 0.190636 0.375112
O O1 0.438482 0.246544 0.312580
O O2 0.525929 0.249364 0.310556
O O3 0.502753 0.000000 0.256264
O O4 0.549023 0.244394 0.126229
O O5 0.724464 0.759700 0.183005
O O6 0.667212 0.758099 0.388533
O O7 0.609035 0.739423 0.319848
O O8 0.658899 0.000000 0.303845
O O9 0.274090 0.500000 0.054107
O O10 0.337105 0.252494 0.998834
O O11 0.250000 0.250000 0.000000
O O12 0.774613 0.249354 0.313475
O O13 0.677301 0.247566 0.532940
O O14 0.709421 0.000000 0.410693
O O15 0.607162 0.500000 0.015760
O O16 0.625875 0.253993 0.901607
O O17 0.875117 0.755169 0.258766
O O18 0.840151 0.000000 0.219333
O O19 0.378595 0.000000 0.342849
O O20 0.000000 0.252054 0.500000
O O21 0.040594 0.000000 0.377757
#
# Coordination Sequence:
#
# PCOD9187609 Si02
#       8
#     8   8   8   8   8   8   8   8
#     4  11  24  41  60  85 116 157 203 242 288 347
#     4  10  19  35  60  85 112 150 193 235 285 346
#     4  10  20  34  54  81 111 145 186 232 283 338
#     4   9  17  35  61  87 116 149 189 240 293 351
#     4  10  21  39  60  84 118 155 192 241 293 345
#     4  10  20  37  62  88 115 151 194 236 292 356
#     4  10  22  38  58  85 116 150 193 246 297 342
#     4  11  24  40  58  85 121 156 193 241 292 343
#
# _framework density 20.086224000000001
#
# number of rings (size 3 to 8) (size 9 to 14) (size 15 to 20)
#    0.000    1.875    1.250    2.625    0.000    7.000 
#    0.000    3.750    0.000    0.000    0.000    0.000 
#    0.000    0.000    0.000    0.000    0.000    0.000 
#
# Total GULP energy -178760.997168 kJ/mol
# GULP energy per Si atom -5586.281161 kJ/mol
# Density = 2.004051 g / cm^3
# Si number density = 20.086224 Si / 1000 Ang^3
#
#
#
# Elastic Constant Matrix: (Units=GPa)
#
#
# Indices 1 2 3 4 5 6 
#
# 1 88.5309 8.8064 24.9840 0.0000 7.0428 0.0000
# 2 8.8064 8.5366 13.3408 0.0001 -2.0984 -0.0003
# 3 24.9840 13.3408 110.1191 -0.0001 4.3211 0.0000
# 4 0.0000 0.0001 -0.0001 21.5148 0.0000 0.9965
# 5 7.0428 -2.0984 4.3211 0.0000 38.8977 0.0000
# 6 0.0000 -0.0003 0.0000 0.9965 0.0000 27.4828
#
#
#
# Elastic Compliance Matrix: (Units=1/GPa)
#
#
# Indices 1 2 3 4 5 6 
#
# 1 0.013118 -0.012042 -0.001405 0.000000 -0.002869 0.000000
# 2 -0.012042 0.159360 -0.017071 -0.000001 0.012674 0.000002
# 3 -0.001405 -0.017071 0.011544 0.000000 -0.001949 0.000000
# 4 0.000000 -0.000001 0.000000 0.046558 0.000000 -0.001688
# 5 -0.002869 0.012674 -0.001949 0.000000 0.027128 0.000000
# 6 0.000000 0.000002 0.000000 -0.001688 0.000000 0.036448
#
#
# Mechanical properties :
#
#
# Convention : Reuss Voigt Hill
#
# Bulk Modulus (GPa) = 8.13105 33.49433 20.81269
# Shear Modulus (GPa) = 12.62026 28.24943 20.43484
#
# Velocity S-wave (km/s) = 2.50932 3.75428 3.19306
# Velocity P-wave (km/s) = 3.52880 5.95855 4.89677
#
# Compressibility (1/GPa) = 0.12298538
#
# Stress axis : x y z
#
# Youngs Moduli (GPa) = 76.23102 6.27509 86.62174
#
# Poissons Ratio (x) = 0.07557 0.12168
# Poissons Ratio (y) = 0.91801 1.47875
# Poissons Ratio (z) = 0.10708 0.10712
#
# Static dielectric constant tensor:
#      x y z
#    x 1.691300 0.000000 -0.007380 
#    y 0.000000 1.702690 0.000000 
#    z -0.007380 0.000000 1.720800 
# 
# From -- ./inp_files/249875.got.cif
#   From: 2010.05.17/outbox.cif.g08.bks.cpg/sg12_125_cif.got.tgz:249875.got - 2010.06.03 13:09:07.
