data_PCOD9187562
_publ_section_title
;
Structure prediction by ZEFSAII (Michael W. Deem and Ramdas Pophale) SiO2 
 PCOD9187562
Probable space group: C 2/M
;
_chemical_formula_sum "Si O2"
_cell_formula_units_Z 44
_cell_length_a 9.334797
_cell_length_b 28.480053
_cell_length_c 12.090994
_cell_angle_alpha 90.000000
_cell_angle_beta 49.518318
_cell_angle_gamma 90.000000
_cell_volume 2444.959903
_symmetry_space_group_name_H-M "C 2/M"
_symmetry_group_IT_number 12
_symmetry_cell_setting 'monoclinic'
loop_
_space_group_symop_operation_xyz
x,y,z
-x,y,-z
-x,-y,-z
x,-y,z
1/2+x,1/2+y,z
1/2-x,1/2+y,-z
1/2-x,1/2-y,-z
1/2+x,1/2-y,z
loop_
_atom_site_type_symbol
_atom_site_label
_atom_site_fract_x
_atom_site_fract_y
_atom_site_fract_z
Si Si1 0.588850 0.500000 0.830788
Si Si2 0.727208 0.896798 0.266344
Si Si3 0.500000 0.336505 0.500000
Si Si4 0.045051 0.761906 0.657114
Si Si5 0.165046 0.203411 0.836896
Si Si6 0.103374 0.000000 0.568150
Si Si7 0.799808 0.599792 0.463465
O O1 0.693690 0.449559 0.779476
O O2 0.506065 0.500000 0.742047
O O3 0.500000 0.500000 0.000000
O O4 0.829397 0.853160 0.159086
O O5 0.719663 0.883224 0.400181
O O6 0.516927 0.898345 0.325198
O O7 0.459253 0.302857 0.623555
O O8 0.326728 0.369135 0.552926
O O9 0.250000 0.750000 0.500000
O O10 0.097310 0.780486 0.750666
O O11 0.879685 0.722688 0.745702
O O12 0.000000 0.221470 0.000000
O O13 0.228076 0.953357 0.501978
O O14 0.000000 0.000000 0.500000
#
# Coordination Sequence:
#
# PCOD9187562 Si02
#       7
#     4   8   4   8   8   4   8
#     4  10  21  39  61  88 121 159 198 241 310 387
#     4  10  21  37  62  87 120 157 201 247 302 362
#     4  12  20  35  62  88 116 151 206 248 300 348
#     4  12  24  41  63  86 118 164 209 252 299 365
#     4  12  25  41  61  90 125 160 202 258 313 360
#     4  10  19  35  59  91 122 151 196 262 309 345
#     4  10  20  34  60  92 117 153 205 255 291 359
#
# _framework density 17.996203999999999
#
# number of rings (size 3 to 8) (size 9 to 14) (size 15 to 20)
#    0.000    1.091    4.545    2.727    2.545    2.182 
#    0.000    0.000    0.000    4.364    0.000    0.000 
#    0.000    0.000    0.000    0.000    0.000    0.000 
#
# Total GULP energy -122474.695766 kJ/mol
# GULP energy per Si atom -5567.031626 kJ/mol
# Density = 1.795524 g / cm^3
# Si number density = 17.996204 Si / 1000 Ang^3
#
#
#
# Elastic Constant Matrix: (Units=GPa)
#
#
# Indices 1 2 3 4 5 6 
#
# 1 123.8189 46.9219 55.8759 0.0000 1.0075 0.0000
# 2 46.9219 112.1454 39.8540 0.0000 -5.5969 0.0000
# 3 55.8759 39.8540 119.4587 0.0000 5.7103 0.0000
# 4 0.0000 0.0000 0.0000 4.3169 0.0000 16.6709
# 5 1.0075 -5.5969 5.7103 0.0000 19.6149 0.0000
# 6 0.0000 0.0000 0.0000 16.6709 0.0000 17.2916
#
#
#
# Elastic Compliance Matrix: (Units=1/GPa)
#
#
# Indices 1 2 3 4 5 6 
#
# 1 0.011163 -0.003216 -0.004135 0.000000 -0.000287 0.000000
# 2 -0.003216 0.011349 -0.002480 0.000000 0.004125 0.000000
# 3 -0.004135 -0.002480 0.011314 0.000000 -0.003789 0.000000
# 4 0.000000 0.000000 0.000000 -0.085067 0.000000 0.082013
# 5 -0.000287 0.004125 -0.003789 0.000000 0.053276 0.000000
# 6 0.000000 0.000000 0.000000 0.082013 0.000000 -0.021237
#
#
# Mechanical properties :
#
#
# Convention : Reuss Voigt Hill
#
# Bulk Modulus (GPa) = 70.59175 71.19186 70.89181
# Shear Modulus (GPa) = 965.12670 22.42945 493.77808
#
# Velocity S-wave (km/s) = 23.18316 3.53419 16.58236
# Velocity P-wave (km/s) = 27.49405 7.50328 20.15220
#
# Compressibility (1/GPa) = 0.01416596
#
# Stress axis : x y z
#
# Youngs Moduli (GPa) = 89.58001 88.10989 88.38947
#
# Poissons Ratio (x) = 0.28332 0.36549
# Poissons Ratio (y) = 0.28805 0.21917
# Poissons Ratio (z) = 0.37041 0.21848
#
# Static dielectric constant tensor:
#      x y z
#    x 1.627950 0.000000 0.017880 
#    y 0.000000 1.634750 0.000000 
#    z 0.017880 0.000000 1.661790 
# 
# From -- ./inp_files/41644.got.cif
#   From: 2010.05.17/outbox.cif.g08.bks.cpg/sg12_21_cif.got.tgz:41644.got - 2010.06.03 13:09:07.
