data_PCOD9187479
_publ_section_title
;
Structure prediction by ZEFSAII (Michael W. Deem and Ramdas Pophale) SiO2 
 PCOD9187479
Probable space group: C 2/M
;
_chemical_formula_sum "Si O2"
_cell_formula_units_Z 40
_cell_length_a 27.805935
_cell_length_b 8.858899
_cell_length_c 9.198029
_cell_angle_alpha 90.000000
_cell_angle_beta 71.668144
_cell_angle_gamma 90.000000
_cell_volume 2150.765090
_symmetry_space_group_name_H-M "C 2/M"
_symmetry_group_IT_number 12
_symmetry_cell_setting 'monoclinic'
loop_
_space_group_symop_operation_xyz
x,y,z
-x,y,-z
-x,-y,-z
x,-y,z
1/2+x,1/2+y,z
1/2-x,1/2+y,-z
1/2-x,1/2-y,-z
1/2+x,1/2-y,z
loop_
_atom_site_type_symbol
_atom_site_label
_atom_site_fract_x
_atom_site_fract_y
_atom_site_fract_z
Si Si1 0.796820 0.819707 0.366948
Si Si2 0.101489 0.679801 0.223954
Si Si3 0.796405 0.318273 0.046393
Si Si4 0.003371 0.173150 0.673293
Si Si5 0.391692 0.179128 0.438760
O O1 0.750000 0.750000 0.500000
O O2 0.796141 0.751553 0.206433
O O3 0.848426 0.769207 0.396596
O O4 0.792488 0.000000 0.366601
O O5 0.092906 0.500000 0.221954
O O6 0.111332 0.712797 0.385328
O O7 0.050348 0.762779 0.223667
O O8 0.150807 0.719104 0.084307
O O9 0.792048 0.500000 0.056982
O O10 0.750000 0.250000 0.000000
O O11 0.052395 0.271271 0.665734
O O12 0.000000 0.177584 0.500000
O O13 0.010561 0.000000 0.710828
O O14 0.384577 0.000000 0.425768
#
# Coordination Sequence:
#
# PCOD9187479 Si02
#       5
#     8   8   8   8   8
#     4  12  25  41  60  84 114 149 191 237 288 343
#     4   9  19  35  57  84 114 149 188 231 280 335
#     4  11  23  40  61  86 116 150 190 236 288 343
#     4   9  17  30  52  83 116 150 188 229 275 330
#     4  10  19  35  59  86 116 150 189 233 282 336
#
# _framework density 18.598032
#
# number of rings (size 3 to 8) (size 9 to 14) (size 15 to 20)
#    0.000    1.800    0.000    4.800    0.000    6.400 
#    0.000    1.000    0.000    6.000    0.000    0.000 
#    0.000    0.000    0.000    0.000    0.000    0.000 
#
# Total GULP energy -111750.001959 kJ/mol
# GULP energy per Si atom -5587.500098 kJ/mol
# Density = 1.855570 g / cm^3
# Si number density = 18.598032 Si / 1000 Ang^3
#
#
#
# Elastic Constant Matrix: (Units=GPa)
#
#
# Indices 1 2 3 4 5 6 
#
# 1 145.9659 75.5274 75.4121 0.0000 -23.9392 0.0000
# 2 75.5274 106.5346 66.0122 0.0000 -13.6728 0.0000
# 3 75.4121 66.0122 107.7302 0.0000 -20.9323 0.0000
# 4 0.0000 0.0000 0.0000 26.5509 0.0000 -0.2978
# 5 -23.9392 -13.6728 -20.9323 0.0000 26.1110 0.0000
# 6 0.0000 0.0000 0.0000 -0.2978 0.0000 41.9412
#
#
#
# Elastic Compliance Matrix: (Units=1/GPa)
#
#
# Indices 1 2 3 4 5 6 
#
# 1 0.013061 -0.005727 -0.004607 0.000000 0.005282 0.000000
# 2 -0.005727 0.017650 -0.007144 0.000000 -0.001735 0.000000
# 3 -0.004607 -0.007144 0.018167 0.000000 0.006599 0.000000
# 4 0.000000 0.000000 0.000000 0.037666 0.000000 0.000267
# 5 0.005282 -0.001735 0.006599 0.000000 0.047523 0.000000
# 6 0.000000 0.000000 0.000000 0.000267 0.000000 0.023845
#
#
# Mechanical properties :
#
#
# Convention : Reuss Voigt Hill
#
# Bulk Modulus (GPa) = 71.82342 88.23713 80.03027
# Shear Modulus (GPa) = 25.31541 28.47257 26.89399
#
# Velocity S-wave (km/s) = 3.69343 3.91697 3.80684
# Velocity P-wave (km/s) = 7.54263 8.24647 7.90239
#
# Compressibility (1/GPa) = 0.01392304
#
# Stress axis : x y z
#
# Youngs Moduli (GPa) = 76.56610 56.65634 55.04449
#
# Poissons Ratio (x) = 0.32445 0.25360
# Poissons Ratio (y) = 0.43846 0.39322
# Poissons Ratio (z) = 0.35276 0.40474
#
# Static dielectric constant tensor:
#      x y z
#    x 1.617690 0.000000 -0.003650 
#    y 0.000000 1.622290 0.000000 
#    z -0.003650 0.000000 1.629920 
# 
# From -- ./inp_files/92816.got.cif
#   From: 2010.05.17/outbox.cif.g08.bks.cpg/sg12_47_cif.got.tgz:92816.got - 2010.06.03 13:09:07.
