data_PCOD9187004
_publ_section_title
;
Structure prediction by ZEFSAII (Michael W. Deem and Ramdas Pophale) SiO2 
 PCOD9187004
Probable space group: C 2/M
;
_chemical_formula_sum "Si O2"
_cell_formula_units_Z 56
_cell_length_a 24.332817
_cell_length_b 8.751154
_cell_length_c 16.104191
_cell_angle_alpha 90.000000
_cell_angle_beta 55.891801
_cell_angle_gamma 90.000000
_cell_volume 2839.334291
_symmetry_space_group_name_H-M "C 2/M"
_symmetry_group_IT_number 12
_symmetry_cell_setting 'monoclinic'
loop_
_space_group_symop_operation_xyz
x,y,z
-x,y,-z
-x,-y,-z
x,-y,z
1/2+x,1/2+y,z
1/2-x,1/2+y,-z
1/2-x,1/2-y,-z
1/2+x,1/2-y,z
loop_
_atom_site_type_symbol
_atom_site_label
_atom_site_fract_x
_atom_site_fract_y
_atom_site_fract_z
Si Si1 0.578368 0.180839 0.449627
Si Si2 0.068687 0.686500 0.983361
Si Si3 0.794869 0.181431 0.388778
Si Si4 0.336617 0.318946 0.769383
Si Si5 0.207321 0.684723 0.787617
Si Si6 0.076872 0.684243 0.642678
Si Si7 0.570068 0.183976 0.173265
O O1 0.500000 0.202144 0.500000
O O2 0.620073 0.274141 0.347920
O O3 0.592125 0.220523 0.533664
O O4 0.592370 0.000000 0.426079
O O5 0.067838 0.500000 0.983883
O O6 0.133793 0.733143 0.877431
O O7 0.073670 0.735070 0.074868
O O8 0.000000 0.737637 0.000000
O O9 0.750000 0.250000 0.500000
O O10 0.774454 0.244688 0.316362
O O11 0.869807 0.235863 0.344085
O O12 0.789558 0.000000 0.394440
O O13 0.337671 0.500000 0.779803
O O14 0.261645 0.271577 0.810603
O O15 0.370862 0.243197 0.819497
O O16 0.208257 0.500000 0.779158
O O17 0.082126 0.500000 0.648257
O O18 0.001447 0.728720 0.728013
O O19 0.571928 0.000000 0.172957
#
# Coordination Sequence:
#
# PCOD9187004 Si02
#       7
#     8   8   8   8   8   8   8
#     4  10  19  35  57  82 112 151 198 242 284 341
#     4   9  18  36  65  91 111 146 200 251 292 341
#     4  12  25  40  60  87 118 155 196 240 293 352
#     4  11  23  36  54  84 123 159 192 241 299 354
#     4  10  22  41  61  86 120 157 198 244 294 349
#     4  10  20  36  60  87 117 152 194 247 296 344
#     4  10  20  37  62  89 115 152 200 244 287 346
#
# _framework density 19.722933999999999
#
# number of rings (size 3 to 8) (size 9 to 14) (size 15 to 20)
#    0.000    1.714    1.429    3.429    0.000    7.714 
#    0.000    0.714    0.000    1.714    0.000    0.000 
#    0.000    0.000    0.000    0.000    0.000    0.000 
#
# Total GULP energy -156508.450082 kJ/mol
# GULP energy per Si atom -5589.587503 kJ/mol
# Density = 1.967804 g / cm^3
# Si number density = 19.722934 Si / 1000 Ang^3
#
#
#
# Elastic Constant Matrix: (Units=GPa)
#
#
# Indices 1 2 3 4 5 6 
#
# 1 154.5352 37.2448 60.2826 0.0000 9.9800 0.0000
# 2 37.2448 21.3600 23.4939 -0.0001 5.0354 0.0000
# 3 60.2826 23.4939 111.9499 0.0000 9.6065 0.0000
# 4 0.0000 -0.0001 0.0000 11.6034 0.0000 7.4361
# 5 9.9800 5.0354 9.6065 0.0000 32.1118 0.0000
# 6 0.0000 0.0000 0.0000 7.4361 0.0000 29.1287
#
#
#
# Elastic Compliance Matrix: (Units=1/GPa)
#
#
# Indices 1 2 3 4 5 6 
#
# 1 0.011729 -0.017538 -0.002626 0.000000 -0.000110 0.000000
# 2 -0.017538 0.088188 -0.008564 0.000001 -0.005816 0.000000
# 3 -0.002626 -0.008564 0.012274 0.000000 -0.001513 0.000000
# 4 0.000000 0.000001 0.000000 0.103039 0.000000 -0.026304
# 5 -0.000110 -0.005816 -0.001513 0.000000 0.032540 0.000000
# 6 0.000000 0.000000 0.000000 -0.026304 0.000000 0.041045
#
#
# Mechanical properties :
#
#
# Convention : Reuss Voigt Hill
#
# Bulk Modulus (GPa) = 18.27012 58.87642 38.57327
# Shear Modulus (GPa) = 13.71683 25.69035 19.70359
#
# Velocity S-wave (km/s) = 2.64005 3.61302 3.16416
# Velocity P-wave (km/s) = 4.31006 6.87908 5.74014
#
# Compressibility (1/GPa) = 0.05473418
#
# Stress axis : x y z
#
# Youngs Moduli (GPa) = 85.25643 11.33947 81.47442
#
# Poissons Ratio (x) = 0.19887 0.21396
# Poissons Ratio (y) = 1.49521 0.69778
# Poissons Ratio (z) = 0.22389 0.09712
#
# Static dielectric constant tensor:
#      x y z
#    x 1.698320 0.000000 -0.006650 
#    y 0.000000 1.665270 0.000000 
#    z -0.006650 0.000000 1.674020 
# 
# From -- ./inp_files/238261.got.cif
#   From: 2010.05.17/outbox.cif.g08.bks.cpg/sg12_120_cif.got.tgz:238261.got - 2010.06.03 13:09:07.
