data_PCOD9187106
_publ_section_title
;
Structure prediction by ZEFSAII (Michael W. Deem and Ramdas Pophale) SiO2 
 PCOD9187106
Probable space group: C 2/M
;
_chemical_formula_sum "Si O2"
_cell_formula_units_Z 56
_cell_length_a 10.213033
_cell_length_b 14.951579
_cell_length_c 26.468930
_cell_angle_alpha 90.000000
_cell_angle_beta 145.925003
_cell_angle_gamma 90.000000
_cell_volume 2264.547481
_symmetry_space_group_name_H-M "C 2/M"
_symmetry_group_IT_number 12
_symmetry_cell_setting 'monoclinic'
loop_
_space_group_symop_operation_xyz
x,y,z
-x,y,-z
-x,-y,-z
x,-y,z
1/2+x,1/2+y,z
1/2-x,1/2+y,-z
1/2-x,1/2-y,-z
1/2+x,1/2-y,z
loop_
_atom_site_type_symbol
_atom_site_label
_atom_site_fract_x
_atom_site_fract_y
_atom_site_fract_z
Si Si1 0.924128 0.741728 0.287198
Si Si2 0.694194 0.095237 0.820268
Si Si3 0.400272 0.400025 0.216641
Si Si4 0.314117 0.683528 0.476837
Si Si5 0.730098 0.655593 0.932836
Si Si6 0.637774 0.865300 0.917675
Si Si7 0.145797 0.097206 0.656744
O O1 0.033259 0.814141 0.282486
O O2 0.857751 0.814851 0.308957
O O3 0.752747 0.682305 0.196912
O O4 0.086571 0.672769 0.369911
O O5 0.722564 0.099529 0.890364
O O6 0.412497 0.094220 0.725432
O O7 0.782564 0.000000 0.829565
O O8 0.486129 0.500000 0.254431
O O9 0.397373 0.387013 0.155635
O O10 0.131558 0.390747 0.153525
O O11 0.500000 0.730711 0.500000
O O12 0.250000 0.750000 0.500000
O O13 0.463235 0.607446 0.552383
O O14 0.670862 0.759770 0.920102
O O15 0.720080 0.612501 0.985673
O O16 0.000000 0.651548 0.000000
O O17 0.097092 0.000000 0.665546
#
# Coordination Sequence:
#
# PCOD9187106 Si02
#       7
#     8   8   8   8   8   8   8
#     4  11  21  36  57  89 124 156 198 259 313 362
#     4  11  21  34  60  90 115 153 206 256 301 362
#     4  11  21  35  60  89 116 158 208 250 292 359
#     4  10  21  37  60  92 124 167 208 259 320 377
#     4   9  20  35  57  90 119 155 192 243 312 369
#     4  10  19  35  57  89 118 152 196 249 301 358
#     4  10  21  38  62  92 119 157 211 257 303 368
#
# _framework density 24.729002000000001
#
# number of rings (size 3 to 8) (size 9 to 14) (size 15 to 20)
#    0.000    1.714    4.286    0.857    0.000    4.000 
#    0.000    0.000    0.000   16.714    0.000    0.000 
#    0.000    0.000    0.000    0.000    0.000    0.000 
#
# Total GULP energy -156098.010118 kJ/mol
# GULP energy per Si atom -5574.928933 kJ/mol
# Density = 2.467272 g / cm^3
# Si number density = 24.729002 Si / 1000 Ang^3
#
#
#
# Elastic Constant Matrix: (Units=GPa)
#
#
# Indices 1 2 3 4 5 6 
#
# 1 102.4363 32.3788 25.4079 0.0000 -37.2241 0.0000
# 2 32.3788 130.9760 42.5302 0.0000 -26.5534 0.0000
# 3 25.4079 42.5302 118.8345 0.0000 -41.1554 0.0001
# 4 0.0000 0.0000 0.0000 5.5151 0.0000 6.6232
# 5 -37.2241 -26.5534 -41.1554 0.0000 35.8121 0.0000
# 6 0.0000 0.0000 0.0001 6.6232 0.0000 24.6851
#
#
#
# Elastic Compliance Matrix: (Units=1/GPa)
#
#
# Indices 1 2 3 4 5 6 
#
# 1 0.016953 -0.001194 0.004317 0.000000 0.021698 0.000000
# 2 -0.001194 0.009236 -0.001841 0.000000 0.003491 0.000000
# 3 0.004317 -0.001841 0.015336 0.000000 0.020746 0.000000
# 4 0.000000 0.000000 0.000000 0.267523 0.000000 -0.071779
# 5 0.021698 0.003491 0.020746 0.000000 0.076907 0.000000
# 6 0.000000 0.000000 0.000000 -0.071779 0.000000 0.059769
#
#
# Mechanical properties :
#
#
# Convention : Reuss Voigt Hill
#
# Bulk Modulus (GPa) = 22.68148 61.43118 42.05633
# Shear Modulus (GPa) = 10.92047 29.99779 20.45913
#
# Velocity S-wave (km/s) = 2.10372 3.48668 2.87946
# Velocity P-wave (km/s) = 3.88494 6.41131 5.30084
#
# Compressibility (1/GPa) = 0.04408883
#
# Stress axis : x y z
#
# Youngs Moduli (GPa) = 58.98507 108.27475 65.20659
#
# Poissons Ratio (x) = 0.12928 -0.28149
# Poissons Ratio (y) = 0.07043 0.12005
# Poissons Ratio (z) = -0.25464 0.19934
#
# Static dielectric constant tensor:
#      x y z
#    x 2.047600 0.000000 0.037690 
#    y 0.000000 1.959230 0.000000 
#    z 0.037690 0.000000 2.073200 
# 
# From -- ./inp_files/358214.got.cif
#   From: 2010.05.17/outbox.cif.g08.bks.cpg/sg12_180_cif.got.tgz:358214.got - 2010.06.03 13:09:07.
