data_PCOD9187181
_publ_section_title
;
Structure prediction by ZEFSAII (Michael W. Deem and Ramdas Pophale) SiO2 
 PCOD9187181
Probable space group: C 2/M
;
_chemical_formula_sum "Si O2"
_cell_formula_units_Z 48
_cell_length_a 20.121087
_cell_length_b 14.715902
_cell_length_c 8.523206
_cell_angle_alpha 90.000000
_cell_angle_beta 65.064603
_cell_angle_gamma 90.000000
_cell_volume 2288.468976
_symmetry_space_group_name_H-M "C 2/M"
_symmetry_group_IT_number 12
_symmetry_cell_setting 'monoclinic'
loop_
_space_group_symop_operation_xyz
x,y,z
-x,y,-z
-x,-y,-z
x,-y,z
1/2+x,1/2+y,z
1/2-x,1/2+y,-z
1/2-x,1/2-y,-z
1/2+x,1/2-y,z
loop_
_atom_site_type_symbol
_atom_site_label
_atom_site_fract_x
_atom_site_fract_y
_atom_site_fract_z
Si Si1 0.127547 0.603439 0.060092
Si Si2 0.082215 0.202736 0.606139
Si Si3 0.080747 0.211547 0.235313
Si Si4 0.730848 0.649664 0.578470
Si Si5 0.880143 0.598493 0.303053
Si Si6 0.283719 0.607299 0.046923
O O1 0.113312 0.500000 0.127593
O O2 0.084883 0.681248 0.194129
O O3 0.213889 0.621708 0.003834
O O4 0.110469 0.609255 0.892852
O O5 0.090459 0.197041 0.410778
O O6 0.145421 0.141226 0.620382
O O7 0.092252 0.308984 0.644352
O O8 0.999530 0.176473 0.731979
O O9 0.146406 0.163297 0.078811
O O10 0.750000 0.750000 0.500000
O O11 0.793471 0.593699 0.428959
O O12 0.739123 0.637429 0.755731
O O13 0.912805 0.500000 0.317427
O O14 0.299932 0.500000 0.033068
#
# Coordination Sequence:
#
# PCOD9187181 Si02
#       6
#     8   8   8   8   8   8
#     4  10  21  36  60  89 116 149 190 234 287 346
#     4  10  23  38  57  82 112 153 195 233 288 346
#     4  11  22  40  59  80 116 156 190 237 289 340
#     4  10  19  35  58  82 110 144 184 232 280 332
#     4  10  20  36  58  86 117 148 185 236 289 344
#     4  11  23  39  60  87 115 150 195 240 284 338
#
# _framework density 20.974723000000001
#
# number of rings (size 3 to 8) (size 9 to 14) (size 15 to 20)
#    0.000    1.667    0.000    6.000    0.000    5.333 
#    0.000    8.333    0.000    0.000    0.000    0.000 
#    0.000    0.000    0.000    0.000    0.000    0.000 
#
# Total GULP energy -134068.668907 kJ/mol
# GULP energy per Si atom -5586.194538 kJ/mol
# Density = 2.092698 g / cm^3
# Si number density = 20.974723 Si / 1000 Ang^3
#
#
#
# Elastic Constant Matrix: (Units=GPa)
#
#
# Indices 1 2 3 4 5 6 
#
# 1 58.9603 -5.7379 -9.3629 0.0000 -6.4850 0.0000
# 2 -5.7379 45.7660 -1.9847 0.0000 -2.1850 0.0000
# 3 -9.3629 -1.9847 34.7103 0.0000 -3.5764 0.0000
# 4 0.0000 0.0000 0.0000 -0.3407 0.0000 5.0755
# 5 -6.4850 -2.1850 -3.5764 0.0000 23.9769 0.0000
# 6 0.0000 0.0000 0.0000 5.0755 0.0000 17.1014
#
#
#
# Elastic Compliance Matrix: (Units=1/GPa)
#
#
# Indices 1 2 3 4 5 6 
#
# 1 0.018869 0.002920 0.005901 0.000000 0.006250 0.000000
# 2 0.002920 0.022473 0.002402 0.000000 0.003196 0.000000
# 3 0.005901 0.002402 0.031206 0.000000 0.006469 0.000000
# 4 0.000000 0.000000 0.000000 -0.541410 0.000000 0.160685
# 5 0.006250 0.003196 0.006469 0.000000 0.044653 0.000000
# 6 0.000000 0.000000 0.000000 0.160685 0.000000 0.010785
#
#
# Mechanical properties :
#
#
# Convention : Reuss Voigt Hill
#
# Bulk Modulus (GPa) = 10.52709 11.69619 11.11164
# Shear Modulus (GPa) = -12.36996 18.58233 3.10618
#
# Velocity S-wave (km/s) = -2.43112 2.97970 1.21825
# Velocity P-wave (km/s) = 1.68839 4.17452 2.69963
#
# Compressibility (1/GPa) = 0.09499303
#
# Stress axis : x y z
#
# Youngs Moduli (GPa) = 52.99652 44.49760 32.04563
#
# Poissons Ratio (x) = -0.12993 -0.18909
# Poissons Ratio (y) = -0.15475 -0.07697
# Poissons Ratio (z) = -0.31272 -0.10688
#
# Static dielectric constant tensor:
#      x y z
#    x 1.791050 0.000000 -0.028120 
#    y 0.000000 1.759000 0.000000 
#    z -0.028120 0.000000 1.695550 
# 
# From -- ./inp_files/97258.got.cif
#   From: 2010.05.17/outbox.cif.g08.bks.cpg/sg12_49_cif.got.tgz:97258.got - 2010.06.03 13:09:07.
