data_PCOD9187029
_publ_section_title
;
Structure prediction by ZEFSAII (Michael W. Deem and Ramdas Pophale) SiO2 
 PCOD9187029
Probable space group: C 2/M
;
_chemical_formula_sum "Si O2"
_cell_formula_units_Z 56
_cell_length_a 18.046210
_cell_length_b 13.069368
_cell_length_c 17.203014
_cell_angle_alpha 90.000000
_cell_angle_beta 138.829917
_cell_angle_gamma 90.000000
_cell_volume 2670.955672
_symmetry_space_group_name_H-M "C 2/M"
_symmetry_group_IT_number 12
_symmetry_cell_setting 'monoclinic'
loop_
_space_group_symop_operation_xyz
x,y,z
-x,y,-z
-x,-y,-z
x,-y,z
1/2+x,1/2+y,z
1/2-x,1/2+y,-z
1/2-x,1/2-y,-z
1/2+x,1/2-y,z
loop_
_atom_site_type_symbol
_atom_site_label
_atom_site_fract_x
_atom_site_fract_y
_atom_site_fract_z
Si Si1 0.784155 0.885590 0.882434
Si Si2 0.419951 0.807348 0.664038
Si Si3 0.626541 0.829689 0.079363
Si Si4 0.130480 0.381840 0.908340
Si Si5 0.441575 0.831948 0.372950
Si Si6 0.174100 0.115459 0.496843
Si Si7 0.348603 0.384143 0.338853
O O1 0.677419 0.883612 0.739491
O O2 0.863314 0.793377 0.918980
O O3 0.728410 0.860225 0.922927
O O4 0.832117 0.000000 0.922962
O O5 0.521384 0.812219 0.805301
O O6 0.473813 0.857081 0.629541
O O7 0.308154 0.864850 0.601751
O O8 0.717937 0.870440 0.212509
O O9 0.500000 0.860753 0.000000
O O10 0.662806 0.870197 0.023237
O O11 0.097157 0.500000 0.867904
O O12 0.500000 0.856979 0.500000
O O13 0.618569 0.695280 0.394049
O O14 0.411619 0.710194 0.347885
O O15 0.138784 0.130328 0.558728
O O16 0.148751 0.000000 0.454157
O O17 0.384566 0.500000 0.347000
#
# Coordination Sequence:
#
# PCOD9187029 Si02
#       7
#     8   8   8   8   8   8   8
#     4   9  21  39  57  79 110 150 192 229 272 326
#     4  10  20  34  55  79 113 146 184 227 277 329
#     4  11  22  36  59  85 116 146 183 233 282 331
#     4  10  20  37  60  82 108 145 188 230 276 330
#     4  10  19  35  57  83 111 144 187 232 276 325
#     4  10  20  35  55  80 114 148 183 227 281 336
#     4  10  21  36  58  87 115 144 181 232 287 335
#
# _framework density 20.966277999999999
#
# number of rings (size 3 to 8) (size 9 to 14) (size 15 to 20)
#    0.000    2.000    1.429    2.143    0.000    4.286 
#    0.000    0.714    0.000    0.000    0.000    0.000 
#    0.000    0.000    0.000    0.000    0.000    0.000 
#
# Total GULP energy -156435.736710 kJ/mol
# GULP energy per Si atom -5586.990597 kJ/mol
# Density = 2.091856 g / cm^3
# Si number density = 20.966278 Si / 1000 Ang^3
#
#
#
# Elastic Constant Matrix: (Units=GPa)
#
#
# Indices 1 2 3 4 5 6 
#
# 1 27.2367 8.8848 4.5299 0.0000 4.7947 0.0000
# 2 8.8848 93.2386 8.6242 0.0000 -4.0192 0.0000
# 3 4.5299 8.6242 61.6327 0.0000 -2.4320 0.0000
# 4 0.0000 0.0000 0.0000 12.3563 0.0000 -7.2934
# 5 4.7947 -4.0192 -2.4320 0.0000 25.8066 0.0000
# 6 0.0000 0.0000 0.0000 -7.2934 0.0000 14.2472
#
#
#
# Elastic Compliance Matrix: (Units=1/GPa)
#
#
# Indices 1 2 3 4 5 6 
#
# 1 0.039898 -0.003908 -0.002712 0.000000 -0.008277 0.000000
# 2 -0.003908 0.011311 -0.001202 0.000000 0.002374 0.000000
# 3 -0.002712 -0.001202 0.016667 0.000000 0.001887 0.000000
# 4 0.000000 0.000000 0.000000 0.115974 0.000000 0.059369
# 5 -0.008277 0.002374 0.001887 0.000000 0.040835 0.000000
# 6 0.000000 0.000000 0.000000 0.059369 0.000000 0.100582
#
#
# Mechanical properties :
#
#
# Convention : Reuss Voigt Hill
#
# Bulk Modulus (GPa) = 19.14517 25.13176 22.13847
# Shear Modulus (GPa) = 13.95393 21.15329 17.55361
#
# Velocity S-wave (km/s) = 2.58261 3.17980 2.89663
# Velocity P-wave (km/s) = 4.24787 5.04918 4.66576
#
# Compressibility (1/GPa) = 0.05223248
#
# Stress axis : x y z
#
# Youngs Moduli (GPa) = 25.06386 88.40892 59.99832
#
# Poissons Ratio (x) = 0.34549 0.16273
# Poissons Ratio (y) = 0.09795 0.07211
# Poissons Ratio (z) = 0.06798 0.10625
#
# Static dielectric constant tensor:
#      x y z
#    x 1.733290 0.000000 0.004860 
#    y 0.000000 1.776710 0.000000 
#    z 0.004860 0.000000 1.745140 
# 
# From -- ./inp_files/277897.got.cif
#   From: 2010.05.17/outbox.cif.g08.bks.cpg/sg12_139_cif.got.tgz:277897.got - 2010.06.03 13:09:07.
