data_PCOD9187997
_publ_section_title
;
Structure prediction by ZEFSAII (Michael W. Deem and Ramdas Pophale) SiO2 
 PCOD9187997
Probable space group: C 2/M
;
_chemical_formula_sum "Si O2"
_cell_formula_units_Z 42
_cell_length_a 11.117380
_cell_length_b 14.868564
_cell_length_c 12.990080
_cell_angle_alpha 90.000000
_cell_angle_beta 122.564643
_cell_angle_gamma 90.000000
_cell_volume 1809.672349
_symmetry_space_group_name_H-M "C 2/M"
_symmetry_group_IT_number 12
_symmetry_cell_setting 'monoclinic'
loop_
_space_group_symop_operation_xyz
x,y,z
-x,y,-z
-x,-y,-z
x,-y,z
1/2+x,1/2+y,z
1/2-x,1/2+y,-z
1/2-x,1/2-y,-z
1/2+x,1/2-y,z
loop_
_atom_site_type_symbol
_atom_site_label
_atom_site_fract_x
_atom_site_fract_y
_atom_site_fract_z
Si Si1 0.428883 0.395185 0.861304
Si Si2 0.841309 0.823198 0.356163
Si Si3 0.329524 0.106221 0.914870
Si Si4 0.354049 0.103426 0.151359
Si Si5 0.568128 0.745865 0.314587
Si Si6 0.000000 0.000000 0.500000
O O1 0.470918 0.500000 0.866490
O O2 0.260830 0.391979 0.810733
O O3 0.457852 0.337940 0.774089
O O4 0.500000 0.361794 0.000000
O O5 0.748205 0.836893 0.207846
O O6 0.734621 0.769363 0.381322
O O7 0.987279 0.777369 0.382937
O O8 0.883050 0.920361 0.418487
O O9 0.305624 0.000000 0.883950
O O10 0.500000 0.121349 0.000000
O O11 0.279483 0.126697 0.008158
O O12 0.484088 0.168069 0.232635
O O13 0.402105 0.000000 0.162575
#
# Coordination Sequence:
#
# PCOD9187997 Si02
#       6
#     8   8   8   8   8   2
#     4  10  22  38  58  97 157 201 228 274 351 442
#     4  12  27  48  74 106 141 189 243 307 357 424
#     4  10  19  35  66 106 146 188 236 283 354 431
#     4  10  21  37  60 103 155 192 221 280 356 439
#     4  12  25  42  73 109 144 188 239 292 359 437
#     4  12  32  56  82  98 136 188 262 320 362 398
#
# _framework density 23.208621999999998
#
# number of rings (size 3 to 8) (size 9 to 14) (size 15 to 20)
#    0.000    1.143    4.762    1.143    5.333    3.810 
#    0.000    0.000    0.000    1.143    0.000    0.000 
#    0.000    0.000    0.000    0.000    0.000    0.000 
#
# Total GULP energy -117296.449040 kJ/mol
# GULP energy per Si atom -5585.545192 kJ/mol
# Density = 2.315580 g / cm^3
# Si number density = 23.208622 Si / 1000 Ang^3
#
#
#
# Elastic Constant Matrix: (Units=GPa)
#
#
# Indices 1 2 3 4 5 6 
#
# 1 179.5393 52.2217 49.0870 0.0000 -8.7152 0.0000
# 2 52.2217 98.0206 35.2255 0.0000 -7.8184 0.0000
# 3 49.0870 35.2255 70.9453 0.0000 -0.2634 0.0000
# 4 0.0000 0.0000 0.0000 46.2724 0.0000 26.1780
# 5 -8.7152 -7.8184 -0.2634 0.0000 39.6784 0.0000
# 6 0.0000 0.0000 0.0000 26.1780 0.0000 66.9259
#
#
#
# Elastic Compliance Matrix: (Units=1/GPa)
#
#
# Indices 1 2 3 4 5 6 
#
# 1 0.007404 -0.002454 -0.003900 0.000000 0.001117 0.000000
# 2 -0.002454 0.013465 -0.004980 0.000000 0.002081 0.000000
# 3 -0.003900 -0.004980 0.019260 0.000000 -0.001710 0.000000
# 4 0.000000 0.000000 0.000000 0.027752 0.000000 -0.010855
# 5 0.001117 0.002081 -0.001710 0.000000 0.025847 0.000000
# 6 0.000000 0.000000 0.000000 -0.010855 0.000000 0.019188
#
#
# Mechanical properties :
#
#
# Convention : Reuss Voigt Hill
#
# Bulk Modulus (GPa) = 57.27083 69.06373 63.16728
# Shear Modulus (GPa) = 35.35935 44.70674 40.03304
#
# Velocity S-wave (km/s) = 3.90749 4.39372 4.15772
# Velocity P-wave (km/s) = 6.71477 7.45400 7.09402
#
# Compressibility (1/GPa) = 0.01746090
#
# Stress axis : x y z
#
# Youngs Moduli (GPa) = 135.05905 74.26702 51.92018
#
# Poissons Ratio (x) = 0.18224 0.20251
# Poissons Ratio (y) = 0.33142 0.25856
# Poissons Ratio (z) = 0.52678 0.36985
#
# Static dielectric constant tensor:
#      x y z
#    x 1.949980 0.000000 -0.000010 
#    y 0.000000 1.832710 0.000000 
#    z -0.000010 0.000000 1.886410 
# 
# From -- ./inp_files/203937.got.cif
#   From: 2010.05.17/outbox.cif.g08.bks.cpg/sg12_102_cif.got.tgz:203937.got - 2010.06.03 13:09:07.
