data_PCOD9187905
_publ_section_title
;
Structure prediction by ZEFSAII (Michael W. Deem and Ramdas Pophale) SiO2 
 PCOD9187905
Probable space group: C 2/M
;
_chemical_formula_sum "Si O2"
_cell_formula_units_Z 48
_cell_length_a 11.719126
_cell_length_b 21.676288
_cell_length_c 13.024225
_cell_angle_alpha 90.000000
_cell_angle_beta 141.996251
_cell_angle_gamma 90.000000
_cell_volume 2037.090741
_symmetry_space_group_name_H-M "C 2/M"
_symmetry_group_IT_number 12
_symmetry_cell_setting 'monoclinic'
loop_
_space_group_symop_operation_xyz
x,y,z
-x,y,-z
-x,-y,-z
x,-y,z
1/2+x,1/2+y,z
1/2-x,1/2+y,-z
1/2-x,1/2-y,-z
1/2+x,1/2-y,z
loop_
_atom_site_type_symbol
_atom_site_label
_atom_site_fract_x
_atom_site_fract_y
_atom_site_fract_z
Si Si1 0.222853 0.862360 0.658029
Si Si2 0.301095 0.666362 0.135032
Si Si3 0.294818 0.500000 0.403759
Si Si4 0.515695 0.792386 0.755802
Si Si5 0.799130 0.388193 0.229520
Si Si6 0.504569 0.426623 0.848115
Si Si7 0.558492 0.000000 0.421595
O O1 0.277299 0.835186 0.806882
O O2 0.314935 0.819876 0.636262
O O3 0.000000 0.860386 0.500000
O O4 0.284259 0.933930 0.689500
O O5 0.452914 0.719909 0.225642
O O6 0.406794 0.601767 0.190452
O O7 0.141798 0.681224 0.939421
O O8 0.500000 0.500000 0.500000
O O9 0.254581 0.500000 0.499554
O O10 0.609270 0.822167 0.721122
O O11 0.699733 0.402176 0.267205
O O12 0.952551 0.438698 0.311583
O O13 0.640772 0.399707 0.032325
O O14 0.506113 0.500000 0.857310
O O15 0.500000 0.000000 0.500000
#
# Coordination Sequence:
#
# PCOD9187905 Si02
#       7
#     8   8   4   8   8   8   4
#     4  11  24  43  66  90 133 174 216 265 329 395
#     4  10  24  39  66  96 123 175 212 269 325 392
#     4  10  24  44  63  91 137 179 214 271 331 393
#     4  10  22  43  64  91 131 164 224 265 319 385
#     4  10  19  37  58  88 123 163 203 266 322 371
#     4  10  19  35  62  91 123 151 207 271 325 379
#     4  12  22  37  62  96 130 173 219 263 325 390
#
# _framework density 23.563013999999999
#
# number of rings (size 3 to 8) (size 9 to 14) (size 15 to 20)
#    0.000    1.667    3.333    1.000    3.500    3.333 
#    0.000    1.667    0.000    0.000    0.000    0.000 
#    0.000    0.000    0.000    0.000    0.000    0.000 
#
# Total GULP energy -134019.656953 kJ/mol
# GULP energy per Si atom -5584.152373 kJ/mol
# Density = 2.350938 g / cm^3
# Si number density = 23.563014 Si / 1000 Ang^3
#
#
#
# Elastic Constant Matrix: (Units=GPa)
#
#
# Indices 1 2 3 4 5 6 
#
# 1 141.6313 25.0454 12.6263 0.0000 17.8791 0.0000
# 2 25.0454 43.9317 3.5733 0.0000 15.8431 0.0000
# 3 12.6263 3.5733 43.4203 0.0000 12.1369 0.0000
# 4 0.0000 0.0000 0.0000 30.4550 0.0000 5.9216
# 5 17.8791 15.8431 12.1369 0.0000 27.8500 0.0000
# 6 0.0000 0.0000 0.0000 5.9216 0.0000 25.5611
#
#
#
# Elastic Compliance Matrix: (Units=1/GPa)
#
#
# Indices 1 2 3 4 5 6 
#
# 1 0.008144 -0.003598 -0.001347 0.000000 -0.002595 0.000000
# 2 -0.003598 0.030468 0.003118 0.000000 -0.016381 0.000000
# 3 -0.001347 0.003118 0.026668 0.000000 -0.012531 0.000000
# 4 0.000000 0.000000 0.000000 0.034384 0.000000 -0.007966
# 5 -0.002595 -0.016381 -0.012531 0.000000 0.052352 0.000000
# 6 0.000000 0.000000 0.000000 -0.007966 0.000000 0.040967
#
#
# Mechanical properties :
#
#
# Convention : Reuss Voigt Hill
#
# Bulk Modulus (GPa) = 16.22677 34.60815 25.41746
# Shear Modulus (GPa) = 23.02235 29.28911 26.15573
#
# Velocity S-wave (km/s) = 3.12918 3.52946 3.33533
# Velocity P-wave (km/s) = 4.46734 5.59722 5.06389
#
# Compressibility (1/GPa) = 0.06162657
#
# Stress axis : x y z
#
# Youngs Moduli (GPa) = 122.78304 32.82173 37.49748
#
# Poissons Ratio (x) = 0.11809 0.05051
# Poissons Ratio (y) = 0.44175 -0.11691
# Poissons Ratio (z) = 0.16538 -0.10233
#
# Static dielectric constant tensor:
#      x y z
#    x 1.898270 0.000000 -0.005860 
#    y 0.000000 1.851200 0.000000 
#    z -0.005860 0.000000 1.960790 
# 
# From -- ./inp_files/208029.got.cif
#   From: 2010.05.17/outbox.cif.g08.bks.cpg/sg12_105_cif.got.tgz:208029.got - 2010.06.03 13:09:07.
