data_PCOD9187241
_publ_section_title
;
Structure prediction by ZEFSAII (Michael W. Deem and Ramdas Pophale) SiO2 
 PCOD9187241
Probable space group: C 2/M
;
_chemical_formula_sum "Si O2"
_cell_formula_units_Z 40
_cell_length_a 29.361230
_cell_length_b 10.463878
_cell_length_c 9.074058
_cell_angle_alpha 90.000000
_cell_angle_beta 127.743545
_cell_angle_gamma 90.000000
_cell_volume 2204.511432
_symmetry_space_group_name_H-M "C 2/M"
_symmetry_group_IT_number 12
_symmetry_cell_setting 'monoclinic'
loop_
_space_group_symop_operation_xyz
x,y,z
-x,y,-z
-x,-y,-z
x,-y,z
1/2+x,1/2+y,z
1/2-x,1/2+y,-z
1/2-x,1/2-y,-z
1/2+x,1/2-y,z
loop_
_atom_site_type_symbol
_atom_site_label
_atom_site_fract_x
_atom_site_fract_y
_atom_site_fract_z
Si Si1 0.335186 0.646748 0.672906
Si Si2 0.753968 0.268489 0.750379
Si Si3 0.563704 0.848193 0.195080
Si Si4 0.444081 0.845883 0.470383
Si Si5 0.176882 0.644796 0.851106
O O1 0.355898 0.500000 0.718390
O O2 0.291951 0.664708 0.447945
O O3 0.294039 0.677633 0.730551
O O4 0.386659 0.751700 0.764632
O O5 0.717486 0.201469 0.806204
O O6 0.797057 0.351882 0.934447
O O7 0.558292 0.825150 0.359650
O O8 0.578724 0.000000 0.201505
O O9 0.500000 0.828023 0.000000
O O10 0.500000 0.792710 0.500000
O O11 0.385947 0.793267 0.282106
O O12 0.446000 0.000000 0.453760
O O13 0.169532 0.500000 0.790267
#
# Coordination Sequence:
#
# PCOD9187241 Si02
#       5
#     8   8   8   8   8
#     4  11  23  39  59  86 123 160 196 240 293 354
#     4  10  22  36  56  85 117 159 198 235 288 354
#     4  10  22  39  61  87 115 150 198 248 291 346
#     4   9  18  33  56  84 111 141 187 243 292 337
#     4  10  19  35  58  84 114 150 193 245 293 340
#
# _framework density 18.14461
#
# number of rings (size 3 to 8) (size 9 to 14) (size 15 to 20)
#    0.000    2.000    2.000    1.200    2.800    4.400 
#    0.000    0.000    0.000    0.600    0.000    0.000 
#    0.000    0.000    0.000    0.000    0.000    0.000 
#
# Total GULP energy -111364.390235 kJ/mol
# GULP energy per Si atom -5568.219512 kJ/mol
# Density = 1.810331 g / cm^3
# Si number density = 18.144610 Si / 1000 Ang^3
#
#
#
# Elastic Constant Matrix: (Units=GPa)
#
#
# Indices 1 2 3 4 5 6 
#
# 1 111.9880 46.7627 53.1498 0.0000 15.2760 0.0000
# 2 46.7627 81.9455 31.3092 0.0000 11.7391 0.0000
# 3 53.1498 31.3092 108.4360 0.0000 19.7740 0.0000
# 4 0.0000 0.0000 0.0000 17.5257 0.0000 3.7486
# 5 15.2760 11.7391 19.7740 0.0000 29.0684 0.0000
# 6 0.0000 0.0000 0.0000 3.7486 0.0000 94.2665
#
#
#
# Elastic Compliance Matrix: (Units=1/GPa)
#
#
# Indices 1 2 3 4 5 6 
#
# 1 0.013881 -0.005844 -0.004814 0.000000 -0.001660 0.000000
# 2 -0.005844 0.016451 -0.001409 0.000000 -0.002614 0.000000
# 3 -0.004814 -0.001409 0.013041 0.000000 -0.005773 0.000000
# 4 0.000000 0.000000 0.000000 0.057548 0.000000 -0.002288
# 5 -0.001660 -0.002614 -0.005773 0.000000 0.040257 0.000000
# 6 0.000000 0.000000 0.000000 -0.002288 0.000000 0.010699
#
#
# Mechanical properties :
#
#
# Convention : Reuss Voigt Hill
#
# Bulk Modulus (GPa) = 51.97600 62.75697 57.36649
# Shear Modulus (GPa) = 27.40880 39.58198 33.49539
#
# Velocity S-wave (km/s) = 3.89083 4.67569 4.30120
# Velocity P-wave (km/s) = 6.99231 7.98822 7.50680
#
# Compressibility (1/GPa) = 0.01923965
#
# Stress axis : x y z
#
# Youngs Moduli (GPa) = 72.04158 60.78650 76.68242
#
# Poissons Ratio (x) = 0.35525 0.36911
# Poissons Ratio (y) = 0.42103 0.10802
# Poissons Ratio (z) = 0.34677 0.08563
#
# Static dielectric constant tensor:
#      x y z
#    x 1.625520 0.000000 0.042440 
#    y 0.000000 1.629580 0.000000 
#    z 0.042440 0.000000 1.666460 
# 
# From -- ./inp_files/83560.got.cif
#   From: 2010.05.17/outbox.cif.g08.bks.cpg/sg12_42_cif.got.tgz:83560.got - 2010.06.03 13:09:07.
