data_PCOD9187673
_publ_section_title
;
Structure prediction by ZEFSAII (Michael W. Deem and Ramdas Pophale) SiO2 
 PCOD9187673
Probable space group: C 2/M
;
_chemical_formula_sum "Si O2"
_cell_formula_units_Z 56
_cell_length_a 19.671397
_cell_length_b 8.640349
_cell_length_c 27.927002
_cell_angle_alpha 90.000000
_cell_angle_beta 39.357925
_cell_angle_gamma 90.000000
_cell_volume 3010.174183
_symmetry_space_group_name_H-M "C 2/M"
_symmetry_group_IT_number 12
_symmetry_cell_setting 'monoclinic'
loop_
_space_group_symop_operation_xyz
x,y,z
-x,y,-z
-x,-y,-z
x,-y,z
1/2+x,1/2+y,z
1/2-x,1/2+y,-z
1/2-x,1/2-y,-z
1/2+x,1/2-y,z
loop_
_atom_site_type_symbol
_atom_site_label
_atom_site_fract_x
_atom_site_fract_y
_atom_site_fract_z
Si Si1 0.864875 0.181458 0.448351
Si Si2 0.617262 0.822551 0.459629
Si Si3 0.329557 0.685662 0.997160
Si Si4 0.787230 0.686649 0.125885
Si Si5 0.263563 0.314350 0.693529
Si Si6 0.089309 0.812332 0.296496
Si Si7 0.578705 0.685857 0.858891
O O1 0.750000 0.250000 0.500000
O O2 0.885807 0.215266 0.492509
O O3 0.967635 0.246153 0.363322
O O4 0.860475 0.000000 0.441612
O O5 0.500000 0.818221 0.500000
O O6 0.702807 0.764043 0.374209
O O7 0.640730 0.000000 0.460912
O O8 0.321477 0.500000 0.002448
O O9 0.454231 0.726247 0.919796
O O10 0.250000 0.750000 0.000000
O O11 0.302536 0.751320 0.064355
O O12 0.792948 0.500000 0.123250
O O13 0.671191 0.735773 0.210409
O O14 0.874917 0.750205 0.115928
O O15 0.262599 0.500000 0.689286
O O16 0.353113 0.271669 0.684749
O O17 0.152789 0.256458 0.776846
O O18 0.085714 0.000000 0.297009
O O19 0.589303 0.500000 0.853316
#
# Coordination Sequence:
#
# PCOD9187673 Si02
#       7
#     8   8   8   8   8   8   8
#     4  11  22  39  58  81 116 157 199 241 289 344
#     4  11  22  36  58  88 118 152 196 241 288 342
#     4  11  24  41  60  85 119 157 192 234 289 345
#     4  10  20  37  63  91 114 149 195 238 287 343
#     4  10  19  35  60  89 115 149 195 240 291 342
#     4   8  17  34  57  83 113 148 187 235 287 336
#     4  10  21  38  60  88 120 152 190 239 290 341
#
# _framework density 18.603574999999999
#
# number of rings (size 3 to 8) (size 9 to 14) (size 15 to 20)
#    0.000    1.857    1.429    3.857    0.000    4.571 
#    2.571    2.143    0.000    0.000    0.000    0.000 
#    0.000    0.000    0.000    0.000    0.000    0.000 
#
# Total GULP energy -156316.392340 kJ/mol
# GULP energy per Si atom -5582.728298 kJ/mol
# Density = 1.856123 g / cm^3
# Si number density = 18.603575 Si / 1000 Ang^3
#
#
#
# Elastic Constant Matrix: (Units=GPa)
#
#
# Indices 1 2 3 4 5 6 
#
# 1 70.1686 18.8981 57.5725 0.0001 -23.5046 -0.0005
# 2 18.8981 42.6074 28.1825 0.0002 -16.2164 -0.0006
# 3 57.5725 28.1825 135.9078 0.0000 -25.0049 -0.0001
# 4 0.0001 0.0002 0.0000 30.0912 0.0000 1.2168
# 5 -23.5046 -16.2164 -25.0049 0.0000 30.0399 0.0001
# 6 -0.0005 -0.0006 -0.0001 1.2168 0.0001 28.9614
#
#
#
# Elastic Compliance Matrix: (Units=1/GPa)
#
#
# Indices 1 2 3 4 5 6 
#
# 1 0.025531 -0.001086 -0.008292 0.000000 0.012488 0.000000
# 2 -0.001086 0.031316 -0.003637 0.000000 0.013028 0.000001
# 3 -0.008292 -0.003637 0.011891 0.000000 0.001446 0.000000
# 4 0.000000 0.000000 0.000000 0.033289 0.000000 -0.001399
# 5 0.012488 0.013028 0.001446 0.000000 0.051297 0.000000
# 6 0.000000 0.000001 0.000000 -0.001399 0.000000 0.034588
#
#
# Mechanical properties :
#
#
# Convention : Reuss Voigt Hill
#
# Bulk Modulus (GPa) = 23.41534 50.88777 37.15156
# Shear Modulus (GPa) = 21.91278 27.42053 24.66665
#
# Velocity S-wave (km/s) = 3.43575 3.84336 3.64525
# Velocity P-wave (km/s) = 5.32475 6.86355 6.14253
#
# Compressibility (1/GPa) = 0.04270704
#
# Stress axis : x y z
#
# Youngs Moduli (GPa) = 39.16832 31.93267 84.09739
#
# Poissons Ratio (x) = 0.03468 0.69738
# Poissons Ratio (y) = 0.04254 0.30584
# Poissons Ratio (z) = 0.32480 0.11613
#
# Static dielectric constant tensor:
#      x y z
#    x 1.645080 0.000000 -0.025980 
#    y 0.000000 1.634300 0.000000 
#    z -0.025980 0.000000 1.660740 
# 
# From -- ./inp_files/362987.got.cif
#   From: 2010.05.17/outbox.cif.g08.bks.cpg/sg12_182_cif.got.tgz:362987.got - 2010.06.03 13:09:07.
