data_PCOD9187281
_publ_section_title
;
Structure prediction by ZEFSAII (Michael W. Deem and Ramdas Pophale) SiO2 
 PCOD9187281
Probable space group: C 2/M
;
_chemical_formula_sum "Si O2"
_cell_formula_units_Z 48
_cell_length_a 23.253659
_cell_length_b 20.242873
_cell_length_c 14.632215
_cell_angle_alpha 90.000000
_cell_angle_beta 158.073202
_cell_angle_gamma 90.000000
_cell_volume 2572.012525
_symmetry_space_group_name_H-M "C 2/M"
_symmetry_group_IT_number 12
_symmetry_cell_setting 'monoclinic'
loop_
_space_group_symop_operation_xyz
x,y,z
-x,y,-z
-x,-y,-z
x,-y,z
1/2+x,1/2+y,z
1/2-x,1/2+y,-z
1/2-x,1/2-y,-z
1/2+x,1/2-y,z
loop_
_atom_site_type_symbol
_atom_site_label
_atom_site_fract_x
_atom_site_fract_y
_atom_site_fract_z
Si Si1 0.215217 0.678845 0.217888
Si Si2 0.876155 0.314462 0.398667
Si Si3 0.028224 0.928395 0.434877
Si Si4 0.629696 0.577519 0.975723
Si Si5 0.161150 0.833828 0.409286
Si Si6 0.929231 0.686284 0.683372
O O1 0.269344 0.750064 0.259698
O O2 0.355674 0.630362 0.406895
O O3 0.210411 0.674250 0.320737
O O4 0.064940 0.655949 0.943249
O O5 0.955805 0.323073 0.615169
O O6 0.000000 0.304158 0.500000
O O7 0.767098 0.376579 0.214126
O O8 0.000000 0.931387 0.500000
O O9 0.883327 0.917772 0.154352
O O10 0.093183 0.000000 0.501170
O O11 0.644482 0.500000 0.021882
O O12 0.465601 0.609055 0.766015
O O13 0.074613 0.763849 0.293742
O O14 0.259785 0.838992 0.462549
#
# Coordination Sequence:
#
# PCOD9187281 Si02
#       6
#     8   8   8   8   8   8
#     4  10  19  35  58  86 112 145 181 245 282 326
#     4  11  24  36  53  86 118 151 193 228 282 341
#     4   9  19  35  57  82 108 151 192 223 275 335
#     4  10  21  40  59  79 116 154 190 235 279 336
#     4   9  19  37  58  85 109 143 195 230 282 335
#     4  10  20  35  59  84 114 147 181 237 283 334
#
# _framework density 18.662428999999999
#
# number of rings (size 3 to 8) (size 9 to 14) (size 15 to 20)
#    0.000    2.167    1.667    1.000    2.333    1.667 
#    0.000    3.333    0.000    4.000    0.000    0.000 
#    0.000    0.000    0.000    0.000    0.000    0.000 
#
# Total GULP energy -133631.577632 kJ/mol
# GULP energy per Si atom -5567.982401 kJ/mol
# Density = 1.861995 g / cm^3
# Si number density = 18.662429 Si / 1000 Ang^3
#
#
#
# Elastic Constant Matrix: (Units=GPa)
#
#
# Indices 1 2 3 4 5 6 
#
# 1 90.9000 2.7695 5.2302 0.0000 1.7264 0.0000
# 2 2.7695 89.1051 14.6804 0.0000 1.6597 0.0000
# 3 5.2302 14.6804 60.9291 0.0000 -4.2717 0.0000
# 4 0.0000 0.0000 0.0000 27.2917 0.0000 -1.4739
# 5 1.7264 1.6597 -4.2717 0.0000 11.9171 0.0000
# 6 0.0000 0.0000 0.0000 -1.4739 0.0000 11.7409
#
#
#
# Elastic Compliance Matrix: (Units=1/GPa)
#
#
# Indices 1 2 3 4 5 6 
#
# 1 0.011104 -0.000134 -0.001059 0.000000 -0.001969 0.000000
# 2 -0.000134 0.011774 -0.003015 0.000000 -0.002701 0.000000
# 3 -0.001059 -0.003015 0.017715 0.000000 0.006923 0.000000
# 4 0.000000 0.000000 0.000000 0.036891 0.000000 0.004631
# 5 -0.001969 -0.002701 0.006923 0.000000 0.087056 0.000000
# 6 0.000000 0.000000 0.000000 0.004631 0.000000 0.085754
#
#
# Mechanical properties :
#
#
# Convention : Reuss Voigt Hill
#
# Bulk Modulus (GPa) = 31.07775 31.81050 31.44412
# Shear Modulus (GPa) = 18.55740 24.74022 21.64881
#
# Velocity S-wave (km/s) = 3.15679 3.64492 3.40960
# Velocity P-wave (km/s) = 5.47502 5.89883 5.69087
#
# Compressibility (1/GPa) = 0.03217736
#
# Stress axis : x y z
#
# Youngs Moduli (GPa) = 90.06162 84.93393 56.44884
#
# Poissons Ratio (x) = 0.01138 0.05978
# Poissons Ratio (y) = 0.01207 0.17018
# Poissons Ratio (z) = 0.09537 0.25605
#
# Static dielectric constant tensor:
#      x y z
#    x 1.742920 0.000000 -0.064640 
#    y 0.000000 1.663890 0.000000 
#    z -0.064640 0.000000 1.661790 
# 
# From -- ./inp_files/132614.got.cif
#   From: 2010.05.17/outbox.cif.g08.bks.cpg/sg12_67_cif.got.tgz:132614.got - 2010.06.03 13:09:07.
