data_PCOD9187549
_publ_section_title
;
Structure prediction by ZEFSAII (Michael W. Deem and Ramdas Pophale) SiO2 
 PCOD9187549
Probable space group: C 2/M
;
_chemical_formula_sum "Si O2"
_cell_formula_units_Z 56
_cell_length_a 25.999073
_cell_length_b 8.373454
_cell_length_c 14.959612
_cell_angle_alpha 90.000000
_cell_angle_beta 58.115093
_cell_angle_gamma 90.000000
_cell_volume 2765.331672
_symmetry_space_group_name_H-M "C 2/M"
_symmetry_group_IT_number 12
_symmetry_cell_setting 'monoclinic'
loop_
_space_group_symop_operation_xyz
x,y,z
-x,y,-z
-x,-y,-z
x,-y,z
1/2+x,1/2+y,z
1/2-x,1/2+y,-z
1/2-x,1/2-y,-z
1/2+x,1/2-y,z
loop_
_atom_site_type_symbol
_atom_site_label
_atom_site_fract_x
_atom_site_fract_y
_atom_site_fract_z
Si Si1 0.133782 0.306763 0.223132
Si Si2 0.074951 0.309041 0.690562
Si Si3 0.523780 0.194686 0.074440
Si Si4 0.840491 0.692986 0.999870
Si Si5 0.498165 0.309215 0.604122
Si Si6 0.255422 0.192088 0.767166
Si Si7 0.207831 0.808960 0.618882
O O1 0.130046 0.500000 0.226649
O O2 0.066098 0.242717 0.295306
O O3 0.178092 0.252841 0.262115
O O4 0.163056 0.259609 0.100990
O O5 0.077580 0.500000 0.692193
O O6 0.139430 0.243573 0.661758
O O7 0.022572 0.252025 0.806661
O O8 0.052886 0.258672 0.612871
O O9 0.523649 0.000000 0.075785
O O10 0.500000 0.247064 0.000000
O O11 0.592501 0.243416 0.029448
O O12 0.836789 0.500000 0.007538
O O13 0.790905 0.762714 0.111676
O O14 0.500000 0.252364 0.500000
O O15 0.502106 0.500000 0.601384
O O16 0.232018 0.252465 0.692831
O O17 0.257959 0.000000 0.759711
O O18 0.250000 0.750000 0.500000
O O19 0.209964 0.000000 0.619401
#
# Coordination Sequence:
#
# PCOD9187549 Si02
#       7
#     8   8   8   8   8   8   8
#     4  10  21  40  63  90 123 163 209 252 304 371
#     4  11  22  41  67  92 122 163 204 252 311 365
#     4   9  17  31  55  87 121 155 197 244 295 360
#     4  10  19  35  59  89 123 160 203 250 303 367
#     4  11  25  42  62  93 127 161 204 257 311 365
#     4  10  23  40  60  89 125 163 205 255 308 364
#     4  11  25  44  63  90 125 163 210 260 310 366
#
# _framework density 20.250736
#
# number of rings (size 3 to 8) (size 9 to 14) (size 15 to 20)
#    0.000    1.714    1.429    2.571    2.000    4.571 
#    0.000    0.000    0.000    3.000    0.000    0.000 
#    0.000    0.000    0.000    0.000    0.000    0.000 
#
# Total GULP energy -156487.128999 kJ/mol
# GULP energy per Si atom -5588.826036 kJ/mol
# Density = 2.020464 g / cm^3
# Si number density = 20.250736 Si / 1000 Ang^3
#
#
#
# Elastic Constant Matrix: (Units=GPa)
#
#
# Indices 1 2 3 4 5 6 
#
# 1 152.7939 18.2185 26.8859 0.0000 19.7541 0.0000
# 2 18.2185 19.2385 5.5407 0.0000 6.8853 0.0000
# 3 26.8859 5.5407 66.6152 0.0000 20.3285 0.0000
# 4 0.0000 0.0000 0.0000 28.7472 0.0000 -6.1272
# 5 19.7541 6.8853 20.3285 0.0000 39.4103 0.0000
# 6 0.0000 0.0000 0.0000 -6.1272 0.0000 25.3400
#
#
#
# Elastic Compliance Matrix: (Units=1/GPa)
#
#
# Indices 1 2 3 4 5 6 
#
# 1 0.007890 -0.006226 -0.002126 0.000000 -0.001770 0.000000
# 2 -0.006226 0.060576 -0.000295 0.000000 -0.007310 0.000000
# 3 -0.002126 -0.000295 0.018459 0.000000 -0.008404 0.000000
# 4 0.000000 0.000000 0.000000 0.036676 0.000000 0.008868
# 5 -0.001770 -0.007310 -0.008404 0.000000 0.031874 0.000000
# 6 0.000000 0.000000 0.000000 0.008868 0.000000 0.041608
#
#
# Mechanical properties :
#
#
# Convention : Reuss Voigt Hill
#
# Bulk Modulus (GPa) = 14.36141 37.77088 26.06614
# Shear Modulus (GPa) = 21.04493 31.23300 26.13897
#
# Velocity S-wave (km/s) = 3.22719 3.93149 3.59662
# Velocity P-wave (km/s) = 4.58187 6.26905 5.49065
#
# Compressibility (1/GPa) = 0.06963106
#
# Stress axis : x y z
#
# Youngs Moduli (GPa) = 126.74025 16.50819 54.17427
#
# Poissons Ratio (x) = 0.10278 0.11520
# Poissons Ratio (y) = 0.78906 0.01597
# Poissons Ratio (z) = 0.26950 0.00487
#
# Static dielectric constant tensor:
#      x y z
#    x 1.698350 0.000000 0.027200 
#    y 0.000000 1.700840 0.000000 
#    z 0.027200 0.000000 1.697130 
# 
# From -- ./inp_files/238348.got.cif
#   From: 2010.05.17/outbox.cif.g08.bks.cpg/sg12_120_cif.got.tgz:238348.got - 2010.06.03 13:09:07.
