data_PCOD9187605
_publ_section_title
;
Structure prediction by ZEFSAII (Michael W. Deem and Ramdas Pophale) SiO2 
 PCOD9187605
Probable space group: C 2/M
;
_chemical_formula_sum "Si O2"
_cell_formula_units_Z 64
_cell_length_a 29.839789
_cell_length_b 9.557582
_cell_length_c 23.682076
_cell_angle_alpha 90.000000
_cell_angle_beta 30.173131
_cell_angle_gamma 90.000000
_cell_volume 3394.678425
_symmetry_space_group_name_H-M "C 2/M"
_symmetry_group_IT_number 12
_symmetry_cell_setting 'monoclinic'
loop_
_space_group_symop_operation_xyz
x,y,z
-x,y,-z
-x,-y,-z
x,-y,z
1/2+x,1/2+y,z
1/2-x,1/2+y,-z
1/2-x,1/2-y,-z
1/2+x,1/2-y,z
loop_
_atom_site_type_symbol
_atom_site_label
_atom_site_fract_x
_atom_site_fract_y
_atom_site_fract_z
Si Si1 0.792666 0.657517 0.313026
Si Si2 0.535331 0.169610 0.210648
Si Si3 0.356145 0.831550 0.570779
Si Si4 0.103953 0.832457 0.030287
Si Si5 0.055260 0.155651 0.882687
Si Si6 0.287589 0.829988 0.770196
Si Si7 0.944847 0.330438 0.681389
Si Si8 0.335946 0.842235 0.395023
O O1 0.772317 0.500000 0.317178
O O2 0.704565 0.751670 0.408275
O O3 0.866108 0.735054 0.195876
O O4 0.837759 0.652469 0.325275
O O5 0.592625 0.247063 0.100428
O O6 0.560840 0.210026 0.246725
O O7 0.431034 0.207520 0.314547
O O8 0.541876 0.000000 0.197519
O O9 0.317278 0.790137 0.674598
O O10 0.459320 0.792601 0.449500
O O11 0.348920 0.000000 0.572708
O O12 0.014820 0.811035 0.090313
O O13 0.111162 0.000000 0.033353
O O14 0.190180 0.789313 0.899345
O O15 0.093605 0.000000 0.829753
O O16 0.000000 0.149418 0.000000
O O17 0.363069 0.781469 0.732069
O O18 0.287746 0.000000 0.769457
O O19 0.942327 0.500000 0.683506
O O20 0.250000 0.750000 0.500000
O O21 0.321969 0.000000 0.432191
#
# Coordination Sequence:
#
# PCOD9187605 Si02
#       8
#     8   8   8   8   8   8   8   8
#     4  11  22  35  52  79 113 146 178 217 272 333
#     4  10  20  36  54  77 113 149 185 225 269 331
#     4  10  19  35  60  85 111 142 183 234 283 335
#     4  10  20  34  54  80 112 146 183 230 276 323
#     4  10  20  35  55  79 107 143 187 230 270 318
#     4   9  18  34  57  86 112 137 182 239 284 326
#     4   9  18  33  58  86 109 141 184 233 285 329
#     4  10  21  35  52  76 108 143 181 224 268 320
#
# _framework density 18.853038000000002
#
# number of rings (size 3 to 8) (size 9 to 14) (size 15 to 20)
#    0.000    2.125    1.250    2.250    0.000    6.750 
#    0.000    2.500    0.000    3.000    0.000    0.000 
#    0.000    0.000    0.000    0.000    0.000    0.000 
#
# Total GULP energy -178490.398680 kJ/mol
# GULP energy per Si atom -5577.824959 kJ/mol
# Density = 1.881013 g / cm^3
# Si number density = 18.853038 Si / 1000 Ang^3
#
#
#
# Elastic Constant Matrix: (Units=GPa)
#
#
# Indices 1 2 3 4 5 6 
#
# 1 68.9823 13.8964 2.4870 -0.0009 4.7751 -0.0002
# 2 13.8964 32.3491 28.8291 -0.0056 -3.1677 0.0030
# 3 2.4870 28.8291 75.6578 -0.0026 7.2674 0.0018
# 4 -0.0009 -0.0056 -0.0026 12.3914 0.0024 3.3526
# 5 4.7751 -3.1677 7.2674 0.0024 29.6216 -0.0006
# 6 -0.0002 0.0030 0.0018 3.3526 -0.0006 18.7611
#
#
#
# Elastic Compliance Matrix: (Units=1/GPa)
#
#
# Indices 1 2 3 4 5 6 
#
# 1 0.017057 -0.011752 0.004406 -0.000003 -0.005087 0.000002
# 2 -0.011752 0.057737 -0.022929 0.000020 0.013694 -0.000010
# 3 0.004406 -0.022929 0.022647 -0.000004 -0.008719 0.000002
# 4 -0.000003 0.000020 -0.000004 0.084801 -0.000004 -0.015154
# 5 -0.005087 0.013694 -0.008719 -0.000004 0.038183 0.000000
# 6 0.000002 -0.000010 0.000002 -0.015154 0.000000 0.056010
#
#
# Mechanical properties :
#
#
# Convention : Reuss Voigt Hill
#
# Bulk Modulus (GPa) = 27.10760 29.71268 28.41014
# Shear Modulus (GPa) = 14.31508 20.93994 17.62751
#
# Velocity S-wave (km/s) = 2.75853 3.33632 3.06109
# Velocity P-wave (km/s) = 4.95535 5.53496 5.25316
#
# Compressibility (1/GPa) = 0.03689002
#
# Stress axis : x y z
#
# Youngs Moduli (GPa) = 58.62614 17.32006 44.15555
#
# Poissons Ratio (x) = 0.20355 -0.19455
# Poissons Ratio (y) = 0.68899 1.01246
# Poissons Ratio (z) = -0.25831 0.39714
#
# Static dielectric constant tensor:
#      x y z
#    x 1.672690 0.000000 0.012110 
#    y 0.000000 1.654790 0.000000 
#    z 0.012110 0.000000 1.653250 
# 
# From -- ./inp_files/353410.got.cif
#   From: 2010.05.17/outbox.cif.g08.bks.cpg/sg12_177_cif.got.tgz:353410.got - 2010.06.03 13:09:07.
