data_PCOD9187658
_publ_section_title
;
Structure prediction by ZEFSAII (Michael W. Deem and Ramdas Pophale) SiO2 
 PCOD9187658
Probable space group: C 2/M
;
_chemical_formula_sum "Si O2"
_cell_formula_units_Z 64
_cell_length_a 30.659562
_cell_length_b 7.800569
_cell_length_c 11.938709
_cell_angle_alpha 90.000000
_cell_angle_beta 93.770171
_cell_angle_gamma 90.000000
_cell_volume 2849.106560
_symmetry_space_group_name_H-M "C 2/M"
_symmetry_group_IT_number 12
_symmetry_cell_setting 'monoclinic'
loop_
_space_group_symop_operation_xyz
x,y,z
-x,y,-z
-x,-y,-z
x,-y,z
1/2+x,1/2+y,z
1/2-x,1/2+y,-z
1/2-x,1/2-y,-z
1/2+x,1/2-y,z
loop_
_atom_site_type_symbol
_atom_site_label
_atom_site_fract_x
_atom_site_fract_y
_atom_site_fract_z
Si Si1 0.739221 0.708395 0.270561
Si Si2 0.326242 0.707060 0.561094
Si Si3 0.990509 0.799572 0.622398
Si Si4 0.297671 0.803625 0.964037
Si Si5 0.574669 0.800356 0.770485
Si Si6 0.164920 0.300296 0.691609
Si Si7 0.405516 0.290180 0.739075
Si Si8 0.606045 0.698519 0.008494
O O1 0.738970 0.500000 0.263855
O O2 0.718979 0.756809 0.386354
O O3 0.707698 0.776575 0.169322
O O4 0.788508 0.772207 0.260871
O O5 0.326826 0.500000 0.547931
O O6 0.333601 0.787804 0.442008
O O7 0.364628 0.754928 0.653823
O O8 0.949180 0.728422 0.683658
O O9 0.000000 0.725674 0.500000
O O10 0.033127 0.786146 0.706992
O O11 0.979730 0.000000 0.602383
O O12 0.304165 0.000000 0.995654
O O13 0.250000 0.750000 0.000000
O O14 0.341908 0.710528 0.007936
O O15 0.620032 0.724442 0.729596
O O16 0.579168 0.786156 0.904806
O O17 0.571969 0.000000 0.737985
O O18 0.164851 0.500000 0.725868
O O19 0.405667 0.500000 0.745006
O O20 0.401402 0.231215 0.867151
O O21 0.593262 0.500000 0.005633
#
# Coordination Sequence:
#
# PCOD9187658 Si02
#       8
#     8   8   8   8   8   8   8   8
#     4  10  20  37  58  83 118 158 201 250 303 359
#     4  10  19  35  60  87 118 154 197 250 305 367
#     4  10  21  40  67  94 120 156 206 253 305 374
#     4  12  24  38  59  87 121 163 211 256 302 360
#     4  11  24  41  59  87 126 161 202 253 309 365
#     4  10  22  37  55  82 119 159 197 248 305 360
#     4   9  19  37  62  91 120 154 198 255 311 362
#     4  11  22  41  65  88 121 160 204 253 309 368
#
# _framework density 22.463180999999999
#
# number of rings (size 3 to 8) (size 9 to 14) (size 15 to 20)
#    0.000    1.625    1.250    3.750    0.000    4.750 
#    0.000    4.375    0.000    0.000    0.000    0.000 
#    0.000    0.000    0.000    0.000    0.000    0.000 
#
# Total GULP energy -178875.398460 kJ/mol
# GULP energy per Si atom -5589.856202 kJ/mol
# Density = 2.241205 g / cm^3
# Si number density = 22.463181 Si / 1000 Ang^3
#
#
#
# Elastic Constant Matrix: (Units=GPa)
#
#
# Indices 1 2 3 4 5 6 
#
# 1 109.5755 -4.8045 23.9142 0.0000 -4.0812 0.0000
# 2 -4.8045 29.8763 -10.8398 0.0000 -7.5490 0.0000
# 3 23.9142 -10.8398 96.8596 0.0000 4.8749 0.0000
# 4 0.0000 0.0000 0.0000 20.2883 0.0000 3.7018
# 5 -4.0812 -7.5490 4.8749 0.0000 35.6099 0.0000
# 6 0.0000 0.0000 0.0000 3.7018 0.0000 16.4468
#
#
#
# Elastic Compliance Matrix: (Units=1/GPa)
#
#
# Indices 1 2 3 4 5 6 
#
# 1 0.009755 0.001135 -0.002366 0.000000 0.001683 0.000000
# 2 0.001135 0.036794 0.003462 0.000000 0.007456 0.000000
# 3 -0.002366 0.003462 0.011351 0.000000 -0.001091 0.000000
# 4 0.000000 0.000000 0.000000 0.051400 0.000000 -0.011569
# 5 0.001683 0.007456 -0.001091 0.000000 0.030005 0.000000
# 6 0.000000 0.000000 0.000000 -0.011569 0.000000 0.063406
#
#
# Mechanical properties :
#
#
# Convention : Reuss Voigt Hill
#
# Bulk Modulus (GPa) = 16.03520 28.09457 22.06488
# Shear Modulus (GPa) = 22.82733 29.67178 26.24955
#
# Velocity S-wave (km/s) = 3.19126 3.63837 3.42213
# Velocity P-wave (km/s) = 4.55333 5.49404 5.04565
#
# Compressibility (1/GPa) = 0.06236279
#
# Stress axis : x y z
#
# Youngs Moduli (GPa) = 102.51188 27.17827 88.09977
#
# Poissons Ratio (x) = -0.03086 0.20845
# Poissons Ratio (y) = -0.11639 -0.30501
# Poissons Ratio (z) = 0.24255 -0.09409
#
# Static dielectric constant tensor:
#      x y z
#    x 1.834970 0.000000 -0.022050 
#    y 0.000000 1.816970 0.000000 
#    z -0.022050 0.000000 1.835760 
# 
# From -- ./inp_files/187616.got.cif
#   From: 2010.05.17/outbox.cif.g08.bks.cpg/sg12_94_cif.got.tgz:187616.got - 2010.06.03 13:09:07.
