data_PCOD9187734
_publ_section_title
;
Structure prediction by ZEFSAII (Michael W. Deem and Ramdas Pophale) SiO2 
 PCOD9187734
Probable space group: C 2/M
;
_chemical_formula_sum "Si O2"
_cell_formula_units_Z 64
_cell_length_a 17.587351
_cell_length_b 13.191971
_cell_length_c 12.533838
_cell_angle_alpha 90.000000
_cell_angle_beta 102.098018
_cell_angle_gamma 90.000000
_cell_volume 2843.413389
_symmetry_space_group_name_H-M "C 2/M"
_symmetry_group_IT_number 12
_symmetry_cell_setting 'monoclinic'
loop_
_space_group_symop_operation_xyz
x,y,z
-x,y,-z
-x,-y,-z
x,-y,z
1/2+x,1/2+y,z
1/2-x,1/2+y,-z
1/2-x,1/2-y,-z
1/2+x,1/2-y,z
loop_
_atom_site_type_symbol
_atom_site_label
_atom_site_fract_x
_atom_site_fract_y
_atom_site_fract_z
Si Si1 0.191673 0.114674 0.517767
Si Si2 0.192634 0.680439 0.622230
Si Si3 0.180507 0.883767 0.173431
Si Si4 0.494997 0.617523 0.845002
Si Si5 0.959334 0.383745 0.311653
Si Si6 0.877826 0.729282 0.093516
Si Si7 0.246000 0.115655 0.950418
Si Si8 0.032400 0.179642 0.390798
O O1 0.181426 0.200093 0.603295
O O2 0.269900 0.136448 0.474767
O O3 0.119707 0.137925 0.417681
O O4 0.188386 0.000000 0.554241
O O5 0.255066 0.664100 0.732862
O O6 0.111598 0.628116 0.625954
O O7 0.210715 0.885312 0.060842
O O8 0.092981 0.845431 0.161360
O O9 0.175763 0.000000 0.208262
O O10 0.504243 0.500000 0.879280
O O11 0.555471 0.691768 0.918912
O O12 0.509860 0.627440 0.721755
O O13 0.985317 0.500000 0.313360
O O14 0.918207 0.346107 0.189705
O O15 0.022814 0.299599 0.363511
O O16 0.831499 0.664070 0.991457
O O17 0.811552 0.804856 0.122596
O O18 0.246509 0.000000 0.911259
O O19 0.000000 0.158798 0.500000
#
# Coordination Sequence:
#
# PCOD9187734 Si02
#       8
#     8   8   8   8   8   8   8   8
#     4  11  23  39  59  83 118 157 193 241 289 334
#     4  11  21  38  60  86 113 150 202 239 282 336
#     4  10  19  35  61  84 110 148 190 244 288 329
#     4  10  21  36  56  82 115 152 191 234 285 336
#     4  11  22  39  61  84 113 151 193 240 288 335
#     4  10  21  35  55  86 116 142 179 230 289 348
#     4  10  20  36  60  87 113 142 184 236 293 342
#     4  11  22  38  51  86 116 154 193 231 286 345
#
# _framework density 22.508158999999999
#
# number of rings (size 3 to 8) (size 9 to 14) (size 15 to 20)
#    0.000    1.500    3.750    2.250    0.000    1.750 
#    0.000    3.125    0.000    0.000    0.000   15.750 
#    0.000    0.000    0.000    0.000    0.000    0.000 
#
# Total GULP energy -178843.205445 kJ/mol
# GULP energy per Si atom -5588.850170 kJ/mol
# Density = 2.245693 g / cm^3
# Si number density = 22.508159 Si / 1000 Ang^3
#
#
#
# Elastic Constant Matrix: (Units=GPa)
#
#
# Indices 1 2 3 4 5 6 
#
# 1 40.8863 5.1082 -7.2825 0.0000 9.1286 0.0000
# 2 5.1082 121.5928 0.7024 0.0000 3.9562 0.0000
# 3 -7.2825 0.7024 66.0016 0.0000 -4.5032 0.0000
# 4 0.0000 0.0000 0.0000 -4.4535 0.0000 0.6462
# 5 9.1286 3.9562 -4.5032 0.0000 22.1282 0.0000
# 6 0.0000 0.0000 0.0000 0.6462 0.0000 29.5104
#
#
#
# Elastic Compliance Matrix: (Units=1/GPa)
#
#
# Indices 1 2 3 4 5 6 
#
# 1 0.027352 -0.000815 0.002299 0.000000 -0.010670 0.000000
# 2 -0.000815 0.008299 -0.000260 0.000000 -0.001200 0.000000
# 3 0.002299 -0.000260 0.015562 0.000000 0.002265 0.000000
# 4 0.000000 0.000000 0.000000 -0.223832 0.000000 0.004901
# 5 -0.010670 -0.001200 0.002265 0.000000 0.050268 0.000000
# 6 0.000000 0.000000 0.000000 0.004901 0.000000 0.033779
#
#
# Mechanical properties :
#
#
# Convention : Reuss Voigt Hill
#
# Bulk Modulus (GPa) = 18.63612 25.05964 21.84788
# Shear Modulus (GPa) = -68.37000 24.76719 -21.80140
#
# Velocity S-wave (km/s) = -5.51739 3.32077 -3.11561
# Velocity P-wave (km/s) = 5.68253 5.08538 1.79304
#
# Compressibility (1/GPa) = 0.05365923
#
# Stress axis : x y z
#
# Youngs Moduli (GPa) = 36.56093 120.49676 64.25867
#
# Poissons Ratio (x) = 0.09823 -0.14771
# Poissons Ratio (y) = 0.02980 0.01672
# Poissons Ratio (z) = -0.08404 0.03135
#
# Static dielectric constant tensor:
#      x y z
#    x 1.893140 0.000000 0.003770 
#    y 0.000000 1.833660 0.000000 
#    z 0.003770 0.000000 1.883940 
# 
# From -- ./inp_files/232485.got.cif
#   From: 2010.05.17/outbox.cif.g08.bks.cpg/sg12_117_cif.got.tgz:232485.got - 2010.06.03 13:09:07.
