data_PCOD9187787
_publ_section_title
;
Structure prediction by ZEFSAII (Michael W. Deem and Ramdas Pophale) SiO2 
 PCOD9187787
Probable space group: C 2/M
;
_chemical_formula_sum "Si O2"
_cell_formula_units_Z 64
_cell_length_a 29.152931
_cell_length_b 8.249209
_cell_length_c 14.612130
_cell_angle_alpha 90.000000
_cell_angle_beta 119.997404
_cell_angle_gamma 90.000000
_cell_volume 3043.337033
_symmetry_space_group_name_H-M "C 2/M"
_symmetry_group_IT_number 12
_symmetry_cell_setting 'monoclinic'
loop_
_space_group_symop_operation_xyz
x,y,z
-x,y,-z
-x,-y,-z
x,-y,z
1/2+x,1/2+y,z
1/2-x,1/2+y,-z
1/2-x,1/2-y,-z
1/2+x,1/2-y,z
loop_
_atom_site_type_symbol
_atom_site_label
_atom_site_fract_x
_atom_site_fract_y
_atom_site_fract_z
Si Si1 0.605222 0.306090 0.253006
Si Si2 0.806068 0.803167 0.516444
Si Si3 0.672397 0.308876 0.669100
Si Si4 0.942255 0.687028 0.465644
Si Si5 0.586945 0.806821 0.848385
Si Si6 0.299211 0.192367 0.109305
Si Si7 0.976839 0.811454 0.679979
Si Si8 0.559066 0.302843 0.023916
O O1 0.613671 0.500000 0.254861
O O2 0.649631 0.243831 0.366993
O O3 0.548687 0.284400 0.246285
O O4 0.599516 0.246644 0.144013
O O5 0.750000 0.750000 0.500000
O O6 0.813786 0.745697 0.419169
O O7 0.809822 0.000000 0.517157
O O8 0.681135 0.500000 0.677806
O O9 0.610079 0.272715 0.621421
O O10 0.703544 0.237168 0.786301
O O11 0.940931 0.500000 0.434205
O O12 0.944297 0.702818 0.577078
O O13 0.000000 0.758684 0.500000
O O14 0.644468 0.745208 0.874190
O O15 0.538482 0.729495 0.743748
O O16 0.584537 0.000000 0.832020
O O17 0.575350 0.767054 0.942588
O O18 0.301060 0.000000 0.104290
O O19 0.250000 0.250000 0.000000
O O20 0.967777 0.000000 0.647269
O O21 0.560062 0.500000 0.017955
O O22 0.500000 0.259378 0.000000
#
# Coordination Sequence:
#
# PCOD9187787 Si02
#       8
#     8   8   8   8   8   8   8   8
#     4   9  18  36  58  84 119 156 199 252 302 351
#     4  10  22  41  63  91 126 162 206 258 307 364
#     4  11  23  42  68  95 126 164 210 259 309 372
#     4  11  23  37  56  89 130 166 204 254 312 369
#     4  11  24  40  59  91 130 163 203 262 321 373
#     4  11  26  47  68  91 125 165 211 264 315 370
#     4  11  20  36  61  87 120 161 206 253 305 371
#     4  10  19  35  61  89 120 163 210 253 303 372
#
# _framework density 21.029547000000001
#
# number of rings (size 3 to 8) (size 9 to 14) (size 15 to 20)
#    0.000    1.500    2.500    2.625    0.000    8.250 
#    0.000    3.125    0.000    0.000    0.000    0.000 
#    0.000    0.000    0.000    0.000    0.000    0.000 
#
# Total GULP energy -178748.826636 kJ/mol
# GULP energy per Si atom -5585.900832 kJ/mol
# Density = 2.098168 g / cm^3
# Si number density = 21.029547 Si / 1000 Ang^3
#
#
#
# Elastic Constant Matrix: (Units=GPa)
#
#
# Indices 1 2 3 4 5 6 
#
# 1 91.6406 7.2894 49.7624 0.0000 9.4713 0.0000
# 2 7.2894 20.7113 11.2892 0.0000 2.8656 0.0000
# 3 49.7624 11.2892 166.9048 0.0000 7.2996 0.0000
# 4 0.0000 0.0000 0.0000 27.8109 0.0000 0.9600
# 5 9.4713 2.8656 7.2996 0.0000 34.2676 0.0000
# 6 0.0000 0.0000 0.0000 0.9600 0.0000 27.5920
#
#
#
# Elastic Compliance Matrix: (Units=1/GPa)
#
#
# Indices 1 2 3 4 5 6 
#
# 1 0.013396 -0.002312 -0.003719 0.000000 -0.002717 0.000000
# 2 -0.002312 0.050950 -0.002623 0.000000 -0.003063 0.000000
# 3 -0.003719 -0.002623 0.007291 0.000000 -0.000306 0.000000
# 4 0.000000 0.000000 0.000000 0.036000 0.000000 -0.001252
# 5 -0.002717 -0.003063 -0.000306 0.000000 0.030254 0.000000
# 6 0.000000 0.000000 0.000000 -0.001252 0.000000 0.036286
#
#
# Mechanical properties :
#
#
# Convention : Reuss Voigt Hill
#
# Bulk Modulus (GPa) = 18.40605 46.21540 32.31073
# Shear Modulus (GPa) = 23.85549 31.99516 27.92532
#
# Velocity S-wave (km/s) = 3.37171 3.90479 3.64800
# Velocity P-wave (km/s) = 4.89177 6.50800 5.75688
#
# Compressibility (1/GPa) = 0.05432996
#
# Stress axis : x y z
#
# Youngs Moduli (GPa) = 74.64729 19.62709 137.15519
#
# Poissons Ratio (x) = 0.04537 0.51007
# Poissons Ratio (y) = 0.17257 0.35975
# Poissons Ratio (z) = 0.27761 0.05148
#
# Static dielectric constant tensor:
#      x y z
#    x 1.772290 0.000000 -0.022890 
#    y 0.000000 1.729180 0.000000 
#    z -0.022890 0.000000 1.781870 
# 
# From -- ./inp_files/249216.got.cif
#   From: 2010.05.17/outbox.cif.g08.bks.cpg/sg12_125_cif.got.tgz:249216.got - 2010.06.03 13:09:07.
