data_PCOD9187069
_publ_section_title
;
Structure prediction by ZEFSAII (Michael W. Deem and Ramdas Pophale) SiO2 
 PCOD9187069
Probable space group: C 2/M
;
_chemical_formula_sum "Si O2"
_cell_formula_units_Z 64
_cell_length_a 16.868973
_cell_length_b 29.515927
_cell_length_c 9.791763
_cell_angle_alpha 90.000000
_cell_angle_beta 53.146887
_cell_angle_gamma 90.000000
_cell_volume 3901.138246
_symmetry_space_group_name_H-M "C 2/M"
_symmetry_group_IT_number 12
_symmetry_cell_setting 'monoclinic'
loop_
_space_group_symop_operation_xyz
x,y,z
-x,y,-z
-x,-y,-z
x,-y,z
1/2+x,1/2+y,z
1/2-x,1/2+y,-z
1/2-x,1/2-y,-z
1/2+x,1/2-y,z
loop_
_atom_site_type_symbol
_atom_site_label
_atom_site_fract_x
_atom_site_fract_y
_atom_site_fract_z
Si Si1 0.467342 0.051156 0.877429
Si Si2 0.428066 0.188425 0.383944
Si Si3 0.924167 0.790149 0.465055
Si Si4 0.692821 0.209936 0.757964
Si Si5 0.287690 0.863455 0.728706
Si Si6 0.870732 0.355808 0.929842
Si Si7 0.897422 0.189311 0.183943
Si Si8 0.900849 0.447454 0.512726
O O1 0.388685 0.091430 0.945388
O O2 0.560675 0.061149 0.681176
O O3 0.433082 0.000000 0.874355
O O4 0.500000 0.050457 0.000000
O O5 0.457773 0.239229 0.392522
O O6 0.348241 0.190843 0.343451
O O7 0.374553 0.165567 0.566562
O O8 0.523522 0.161964 0.233873
O O9 0.811511 0.787182 0.635306
O O10 0.917252 0.814105 0.325400
O O11 0.000000 0.808578 0.500000
O O12 0.647018 0.260684 0.807984
O O13 0.658183 0.176697 0.914821
O O14 0.295126 0.854476 0.882045
O O15 0.184117 0.846661 0.777779
O O16 0.317248 0.914214 0.654830
O O17 0.000000 0.184064 0.000000
O O18 0.872930 0.500000 0.553526
O O19 0.000000 0.439728 0.500000
#
# Coordination Sequence:
#
# PCOD9187069 Si02
#       8
#     8   8   8   8   8   8   8   8
#     4  10  20  33  51  80 118 149 177 220 273 330
#     4  11  19  37  52  77 108 145 183 222 271 324
#     4  11  22  38  57  76 106 147 189 233 275 323
#     4  11  22  38  53  78 109 150 184 231 275 322
#     4  12  21  35  55  80 111 144 186 224 275 325
#     4  12  23  31  56  83 111 148 189 221 266 340
#     4  11  24  40  55  76 111 145 187 239 278 317
#     4  10  19  35  57  84 115 145 179 221 276 337
#
# _framework density 16.405467999999999
#
# number of rings (size 3 to 8) (size 9 to 14) (size 15 to 20)
#    0.000    1.000    5.000    4.500    1.750    0.500 
#    0.000    0.000    0.000    0.375    0.000    0.000 
#    0.000    1.000    0.000    0.000    0.000    0.000 
#
# Total GULP energy -178658.026830 kJ/mol
# GULP energy per Si atom -5583.063338 kJ/mol
# Density = 1.636813 g / cm^3
# Si number density = 16.405468 Si / 1000 Ang^3
#
#
#
# Elastic Constant Matrix: (Units=GPa)
#
#
# Indices 1 2 3 4 5 6 
#
# 1 101.3715 40.8605 34.3694 0.0000 10.9958 0.0000
# 2 40.8605 84.0773 26.3299 0.0000 4.3530 0.0000
# 3 34.3694 26.3299 70.0440 0.0000 9.3811 0.0000
# 4 0.0000 0.0000 0.0000 20.6741 0.0000 1.4950
# 5 10.9958 4.3530 9.3811 0.0000 33.0813 0.0000
# 6 0.0000 0.0000 0.0000 1.4950 0.0000 17.2918
#
#
#
# Elastic Compliance Matrix: (Units=1/GPa)
#
#
# Indices 1 2 3 4 5 6 
#
# 1 0.013732 -0.005143 -0.004453 0.000000 -0.002625 0.000000
# 2 -0.005143 0.015411 -0.003354 0.000000 0.000633 0.000000
# 3 -0.004453 -0.003354 0.018155 0.000000 -0.003227 0.000000
# 4 0.000000 0.000000 0.000000 0.048674 0.000000 -0.004208
# 5 -0.002625 0.000633 -0.003227 0.000000 0.031933 0.000000
# 6 0.000000 0.000000 0.000000 -0.004208 0.000000 0.058195
#
#
# Mechanical properties :
#
#
# Convention : Reuss Voigt Hill
#
# Bulk Modulus (GPa) = 46.73577 50.95692 48.84635
# Shear Modulus (GPa) = 22.81714 24.47165 23.64440
#
# Velocity S-wave (km/s) = 3.73342 3.86641 3.80050
# Velocity P-wave (km/s) = 6.86545 7.14567 7.00696
#
# Compressibility (1/GPa) = 0.02139689
#
# Stress axis : x y z
#
# Youngs Moduli (GPa) = 72.82034 64.88871 55.08152
#
# Poissons Ratio (x) = 0.33374 0.24530
# Poissons Ratio (y) = 0.37453 0.18475
# Poissons Ratio (z) = 0.32429 0.21765
#
# Static dielectric constant tensor:
#      x y z
#    x 1.547800 0.000000 0.032240 
#    y 0.000000 1.568940 0.000000 
#    z 0.032240 0.000000 1.556890 
# 
# From -- ./inp_files/68202.got.cif
#   From: 2010.05.17/outbox.cif.g08.bks.cpg/sg12_35_cif.got.tgz:68202.got - 2010.06.03 13:09:07.
