data_PCOD9187543
_publ_section_title
;
Structure prediction by ZEFSAII (Michael W. Deem and Ramdas Pophale) SiO2 
 PCOD9187543
Probable space group: C 2/M
;
_chemical_formula_sum "Si O2"
_cell_formula_units_Z 56
_cell_length_a 21.815225
_cell_length_b 12.998419
_cell_length_c 18.791014
_cell_angle_alpha 90.000000
_cell_angle_beta 29.153393
_cell_angle_gamma 90.000000
_cell_volume 2595.748655
_symmetry_space_group_name_H-M "C 2/M"
_symmetry_group_IT_number 12
_symmetry_cell_setting 'monoclinic'
loop_
_space_group_symop_operation_xyz
x,y,z
-x,y,-z
-x,-y,-z
x,-y,z
1/2+x,1/2+y,z
1/2-x,1/2+y,-z
1/2-x,1/2-y,-z
1/2+x,1/2-y,z
loop_
_atom_site_type_symbol
_atom_site_label
_atom_site_fract_x
_atom_site_fract_y
_atom_site_fract_z
Si Si1 0.022505 0.717414 0.061694
Si Si2 0.536587 0.274575 0.386403
Si Si3 0.635906 0.884834 0.081873
Si Si4 0.770186 0.117686 0.165247
Si Si5 0.659870 0.312414 0.644534
Si Si6 0.330192 0.894464 0.579793
Si Si7 0.076447 0.836067 0.200712
O O1 0.104138 0.640647 0.030459
O O2 0.896782 0.738846 0.235155
O O3 0.102199 0.823799 0.983342
O O4 0.000000 0.691394 0.000000
O O5 0.500000 0.318764 0.500000
O O6 0.656938 0.197447 0.263106
O O7 0.419899 0.201528 0.488056
O O8 0.552304 0.354385 0.307872
O O9 0.578726 0.788057 0.182551
O O10 0.590272 0.000000 0.144456
O O11 0.783620 0.877573 0.953282
O O12 0.760326 0.110778 0.260491
O O13 0.758869 0.000000 0.149168
O O14 0.750000 0.250000 0.500000
O O15 0.748281 0.392301 0.593477
O O16 0.542348 0.366577 0.725309
O O17 0.406860 0.000000 0.510119
#
# Coordination Sequence:
#
# PCOD9187543 Si02
#       7
#     8   8   8   8   8   8   8
#     4  11  22  39  63  89 120 159 206 251 306 357
#     4  10  19  35  59  89 121 159 196 245 297 365
#     4  10  23  42  63  89 118 150 200 258 302 354
#     4  10  20  35  59  93 123 153 196 250 305 363
#     4  11  22  38  56  84 121 165 198 239 300 364
#     4  10  20  34  56  89 124 160 197 242 301 364
#     4  10  21  40  62  90 115 158 200 240 308 359
#
# _framework density 21.573737999999999
#
# number of rings (size 3 to 8) (size 9 to 14) (size 15 to 20)
#    0.000    1.714    4.286    0.429    0.000    4.571 
#    0.000    0.000    0.000    0.429    0.000    0.000 
#    0.000    0.000    0.000    0.000    0.000    0.000 
#
# Total GULP energy -156074.595525 kJ/mol
# GULP energy per Si atom -5574.092697 kJ/mol
# Density = 2.152463 g / cm^3
# Si number density = 21.573738 Si / 1000 Ang^3
#
#
#
# Elastic Constant Matrix: (Units=GPa)
#
#
# Indices 1 2 3 4 5 6 
#
# 1 118.8930 -4.3755 16.5634 0.0000 11.5085 0.0000
# 2 -4.3755 45.2172 -1.9140 0.0000 5.8844 0.0000
# 3 16.5634 -1.9140 89.2796 0.0000 9.8754 0.0000
# 4 0.0000 0.0000 0.0000 1.2895 0.0000 8.3442
# 5 11.5085 5.8844 9.8754 0.0000 27.3305 0.0000
# 6 0.0000 0.0000 0.0000 8.3442 0.0000 2.0547
#
#
#
# Elastic Compliance Matrix: (Units=1/GPa)
#
#
# Indices 1 2 3 4 5 6 
#
# 1 0.008980 0.001286 -0.001239 0.000000 -0.003611 0.000000
# 2 0.001286 0.023036 0.000900 0.000000 -0.005827 0.000000
# 3 -0.001239 0.000900 0.011889 0.000000 -0.003968 0.000000
# 4 0.000000 0.000000 0.000000 -0.030678 0.000000 0.124585
# 5 -0.003611 -0.005827 -0.003968 0.000000 0.040798 0.000000
# 6 0.000000 0.000000 0.000000 0.124585 0.000000 -0.019253
#
#
# Mechanical properties :
#
#
# Convention : Reuss Voigt Hill
#
# Bulk Modulus (GPa) = 21.83425 30.43749 26.13587
# Shear Modulus (GPa) = 103.85464 22.34268 63.09866
#
# Velocity S-wave (km/s) = 6.94578 3.22163 5.41400
# Velocity P-wave (km/s) = 8.62948 5.28940 7.15701
#
# Compressibility (1/GPa) = 0.04579960
#
# Stress axis : x y z
#
# Youngs Moduli (GPa) = 111.35359 43.40977 84.11262
#
# Poissons Ratio (x) = -0.05584 0.10422
# Poissons Ratio (y) = -0.14325 -0.07568
# Poissons Ratio (z) = 0.13798 -0.03906
#
# Static dielectric constant tensor:
#      x y z
#    x 1.853330 0.000000 0.025750 
#    y 0.000000 1.737620 0.000000 
#    z 0.025750 0.000000 1.811790 
# 
# From -- ./inp_files/284515.got.cif
#   From: 2010.05.17/outbox.cif.g08.bks.cpg/sg12_143_cif.got.tgz:284515.got - 2010.06.03 13:09:07.
