data_PCOD9187885
_publ_section_title
;
Structure prediction by ZEFSAII (Michael W. Deem and Ramdas Pophale) SiO2 
 PCOD9187885
Probable space group: C 2/M
;
_chemical_formula_sum "Si O2"
_cell_formula_units_Z 58
_cell_length_a 14.660320
_cell_length_b 22.642169
_cell_length_c 9.570705
_cell_angle_alpha 90.000000
_cell_angle_beta 77.894407
_cell_angle_gamma 90.000000
_cell_volume 3106.267869
_symmetry_space_group_name_H-M "C 2/M"
_symmetry_group_IT_number 12
_symmetry_cell_setting 'monoclinic'
loop_
_space_group_symop_operation_xyz
x,y,z
-x,y,-z
-x,-y,-z
x,-y,z
1/2+x,1/2+y,z
1/2-x,1/2+y,-z
1/2-x,1/2-y,-z
1/2+x,1/2-y,z
loop_
_atom_site_type_symbol
_atom_site_label
_atom_site_fract_x
_atom_site_fract_y
_atom_site_fract_z
Si Si1 0.778067 0.852047 0.331584
Si Si2 0.500000 0.500000 0.000000
Si Si3 0.392806 0.638792 0.574198
Si Si4 0.414365 0.823820 0.927418
Si Si5 0.611756 0.708121 0.950065
Si Si6 0.088885 0.277372 0.375263
Si Si7 0.870084 0.909376 0.879771
Si Si8 0.296194 0.935185 0.875423
O O1 0.826850 0.867609 0.460909
O O2 0.848455 0.813596 0.211168
O O3 0.682115 0.814948 0.379727
O O4 0.753861 0.909923 0.247578
O O5 0.543171 0.447602 0.090586
O O6 0.500000 0.626262 0.500000
O O7 0.389269 0.708123 0.616900
O O8 0.367532 0.598946 0.715229
O O9 0.440166 0.792853 0.773218
O O10 0.365023 0.884031 0.901691
O O11 0.500000 0.837468 0.000000
O O12 0.351919 0.773609 0.023887
O O13 0.500000 0.714027 0.000000
O O14 0.632848 0.656289 0.052210
O O15 0.000000 0.291388 0.500000
O O16 0.780535 0.938661 0.978852
O O17 0.336839 0.000000 0.838170
#
# Coordination Sequence:
#
# PCOD9187885 Si02
#       8
#     8   2   8   8   8   8   8   8
#     4  10  23  38  62  88 125 166 202 253 318 370
#     4  12  24  40  62  88 114 180 200 256 298 354
#     4  11  23  36  56  93 123 163 200 252 304 374
#     4  10  22  37  64  94 115 156 206 258 314 369
#     4  10  19  35  62  90 121 156 196 258 307 370
#     4  10  22  38  58  90 130 163 195 253 324 377
#     4  11  22  37  62  83 122 159 210 240 304 361
#     4  10  23  42  62  85 117 163 209 258 309 366
#
# _framework density 18.671925999999999
#
# number of rings (size 3 to 8) (size 9 to 14) (size 15 to 20)
#    0.000    1.655    2.759    1.241    9.655    3.034 
#    1.241    0.345    0.000    6.621    0.000    0.000 
#    0.000    0.000    0.000    0.000    0.000    0.000 
#
# Total GULP energy -161519.789148 kJ/mol
# GULP energy per Si atom -5569.647902 kJ/mol
# Density = 1.862943 g / cm^3
# Si number density = 18.671926 Si / 1000 Ang^3
#
#
#
# Elastic Constant Matrix: (Units=GPa)
#
#
# Indices 1 2 3 4 5 6 
#
# 1 80.9439 32.1709 61.9700 0.0000 19.2029 0.0000
# 2 32.1709 132.0302 52.4417 0.0000 14.4196 0.0000
# 3 61.9700 52.4417 157.9757 0.0000 32.9118 0.0000
# 4 0.0000 0.0000 0.0000 2.0009 0.0000 4.7987
# 5 19.2029 14.4196 32.9118 0.0000 36.1442 0.0000
# 6 0.0000 0.0000 0.0000 4.7987 0.0000 16.9352
#
#
#
# Elastic Compliance Matrix: (Units=1/GPa)
#
#
# Indices 1 2 3 4 5 6 
#
# 1 0.018432 -0.001751 -0.005868 0.000000 -0.003751 0.000000
# 2 -0.001751 0.008923 -0.002132 0.000000 -0.000688 0.000000
# 3 -0.005868 -0.002132 0.010506 0.000000 -0.005598 0.000000
# 4 0.000000 0.000000 0.000000 1.559526 0.000000 -0.441899
# 5 -0.003751 -0.000688 -0.005598 0.000000 0.035032 0.000000
# 6 0.000000 0.000000 0.000000 -0.441899 0.000000 0.184263
#
#
# Mechanical properties :
#
#
# Convention : Reuss Voigt Hill
#
# Bulk Modulus (GPa) = 54.46636 73.79055 64.12846
# Shear Modulus (GPa) = 2.71399 25.97389 14.34394
#
# Velocity S-wave (km/s) = 1.20693 3.73375 2.77467
# Velocity P-wave (km/s) = 5.58352 7.62844 6.68464
#
# Compressibility (1/GPa) = 0.01835996
#
# Stress axis : x y z
#
# Youngs Moduli (GPa) = 54.25214 112.07587 95.18490
#
# Poissons Ratio (x) = 0.19624 0.55853
# Poissons Ratio (y) = 0.09499 0.20290
# Poissons Ratio (z) = 0.31834 0.23891
#
# Static dielectric constant tensor:
#      x y z
#    x 1.701430 0.000000 -0.004050 
#    y 0.000000 1.690180 0.000000 
#    z -0.004050 0.000000 1.641060 
# 
# From -- ./inp_files/65379.got.cif
#   From: 2010.05.17/outbox.cif.g08.bks.cpg/sg12_33_cif.got.tgz:65379.got - 2010.06.03 13:09:07.
