data_PCOD9187138
_publ_section_title
;
Structure prediction by ZEFSAII (Michael W. Deem and Ramdas Pophale) SiO2 
 PCOD9187138
Probable space group: C 2/M
;
_chemical_formula_sum "Si O2"
_cell_formula_units_Z 48
_cell_length_a 14.691735
_cell_length_b 7.367642
_cell_length_c 27.847787
_cell_angle_alpha 90.000000
_cell_angle_beta 37.689161
_cell_angle_gamma 90.000000
_cell_volume 1842.899422
_symmetry_space_group_name_H-M "C 2/M"
_symmetry_group_IT_number 12
_symmetry_cell_setting 'monoclinic'
loop_
_space_group_symop_operation_xyz
x,y,z
-x,y,-z
-x,-y,-z
x,-y,z
1/2+x,1/2+y,z
1/2-x,1/2+y,-z
1/2-x,1/2-y,-z
1/2+x,1/2-y,z
loop_
_atom_site_type_symbol
_atom_site_label
_atom_site_fract_x
_atom_site_fract_y
_atom_site_fract_z
Si Si1 0.659787 0.220425 0.688001
Si Si2 0.451277 0.778469 0.862645
Si Si3 0.006022 0.706976 0.444807
Si Si4 0.467856 0.216225 0.359093
Si Si5 0.783958 0.715755 0.180526
Si Si6 0.842582 0.795127 0.052185
O O1 0.536166 0.275181 0.778243
O O2 0.817877 0.293817 0.638372
O O3 0.624107 0.281441 0.648643
O O4 0.665877 0.000000 0.685943
O O5 0.561767 0.723487 0.859171
O O6 0.281079 0.712504 0.931159
O O7 0.444968 0.000000 0.865928
O O8 0.950295 0.500000 0.473003
O O9 0.935705 0.789362 0.425936
O O10 0.000000 0.795016 0.500000
O O11 0.640149 0.247547 0.272931
O O12 0.445867 0.000000 0.370979
O O13 0.792840 0.500000 0.170401
O O14 0.764266 0.802991 0.136924
O O15 0.874913 0.000000 0.021960
O O16 0.000000 0.705969 0.000000
#
# Coordination Sequence:
#
# PCOD9187138 Si02
#       6
#     8   8   8   8   8   8
#     4  10  19  35  58  80 107 145 187 227 270 329
#     4   9  18  34  55  81 111 142 180 227 274 323
#     4  10  22  38  55  82 118 146 178 232 283 323
#     4  10  20  36  58  80 108 147 188 224 271 334
#     4  11  21  34  56  83 112 142 180 232 280 319
#     4  10  21  39  60  81 111 151 187 221 271 334
#
# _framework density 26.045914
#
# number of rings (size 3 to 8) (size 9 to 14) (size 15 to 20)
#    0.000    2.000    3.333    0.500    0.000    2.667 
#    0.000    1.667    0.000    0.000    0.000    0.000 
#    0.000    0.000    0.000    0.000    0.000    0.000 
#
# Total GULP energy -134220.365846 kJ/mol
# GULP energy per Si atom -5592.515244 kJ/mol
# Density = 2.598663 g / cm^3
# Si number density = 26.045914 Si / 1000 Ang^3
#
#
#
# Elastic Constant Matrix: (Units=GPa)
#
#
# Indices 1 2 3 4 5 6 
#
# 1 143.1946 12.5696 15.7954 -0.0007 7.5981 -0.0037
# 2 12.5696 103.3089 -3.6110 -0.0056 8.8130 -0.0127
# 3 15.7954 -3.6110 53.4443 0.0000 8.0944 0.0000
# 4 -0.0007 -0.0056 0.0000 9.4994 -0.0002 -8.7684
# 5 7.5981 8.8130 8.0944 -0.0002 58.6076 -0.0005
# 6 -0.0037 -0.0127 0.0000 -8.7684 -0.0005 -8.4008
#
#
#
# Elastic Compliance Matrix: (Units=1/GPa)
#
#
# Indices 1 2 3 4 5 6 
#
# 1 0.007329 -0.000923 -0.002151 -0.000001 -0.000514 -0.000001
# 2 -0.000923 0.009965 0.001180 -0.000004 -0.001542 -0.000011
# 3 -0.002151 0.001180 0.019826 0.000000 -0.002637 -0.000001
# 4 -0.000001 -0.000004 0.000000 0.053615 0.000000 -0.055961
# 5 -0.000514 -0.001542 -0.002637 0.000000 0.017725 0.000001
# 6 -0.000001 -0.000011 -0.000001 -0.055961 0.000001 -0.060626
#
#
# Mechanical properties :
#
#
# Convention : Reuss Voigt Hill
#
# Bulk Modulus (GPa) = 30.00165 38.82841 34.41503
# Shear Modulus (GPa) = 79.70374 30.28748 54.99561
#
# Velocity S-wave (km/s) = 5.53784 3.41376 4.60008
# Velocity P-wave (km/s) = 7.24113 5.52072 6.43865
#
# Compressibility (1/GPa) = 0.03333150
#
# Stress axis : x y z
#
# Youngs Moduli (GPa) = 136.44355 100.35371 50.43955
#
# Poissons Ratio (x) = 0.09263 0.10847
# Poissons Ratio (y) = 0.12594 -0.05950
# Poissons Ratio (z) = 0.29343 -0.11837
#
# Static dielectric constant tensor:
#      x y z
#    x 2.025410 0.000000 0.009200 
#    y 0.000000 1.966170 0.000000 
#    z 0.009200 0.000000 2.052620 
# 
# From -- ./inp_files/308283.got.cif
#   From: 2010.05.17/outbox.cif.g08.bks.cpg/sg12_155_cif.got.tgz:308283.got - 2010.06.03 13:09:07.
