data_PCOD9187853
_publ_section_title
;
Structure prediction by ZEFSAII (Michael W. Deem and Ramdas Pophale) SiO2 
 PCOD9187853
Probable space group: C 2/M
;
_chemical_formula_sum "Si O2"
_cell_formula_units_Z 40
_cell_length_a 19.722023
_cell_length_b 19.012889
_cell_length_c 15.523089
_cell_angle_alpha 90.000000
_cell_angle_beta 160.367212
_cell_angle_gamma 90.000000
_cell_volume 1955.711854
_symmetry_space_group_name_H-M "C 2/M"
_symmetry_group_IT_number 12
_symmetry_cell_setting 'monoclinic'
loop_
_space_group_symop_operation_xyz
x,y,z
-x,y,-z
-x,-y,-z
x,-y,z
1/2+x,1/2+y,z
1/2-x,1/2+y,-z
1/2-x,1/2-y,-z
1/2+x,1/2-y,z
loop_
_atom_site_type_symbol
_atom_site_label
_atom_site_fract_x
_atom_site_fract_y
_atom_site_fract_z
Si Si1 0.983159 0.623843 0.576786
Si Si2 0.077647 0.160084 0.845200
Si Si3 0.827996 0.217181 0.402929
Si Si4 0.702970 0.080389 0.477804
Si Si5 0.042819 0.302129 0.910119
O O1 0.000000 0.595898 0.500000
O O2 0.905445 0.704392 0.478821
O O3 0.835224 0.585504 0.465820
O O4 0.205479 0.626118 0.883696
O O5 0.997900 0.170617 0.652748
O O6 0.913225 0.115323 0.701092
O O7 0.082576 0.238427 0.892166
O O8 0.646959 0.220755 0.256697
O O9 0.729811 0.188195 0.198245
O O10 0.532948 0.128965 0.229483
O O11 0.692750 0.000000 0.437151
#
# Coordination Sequence:
#
# PCOD9187853 Si02
#       5
#     8   8   8   8   8
#     4  12  23  36  66  95 121 159 208 261 312 359
#     4  11  21  39  66  90 122 163 212 255 308 356
#     4  10  19  35  62 100 119 149 203 269 303 356
#     4  11  25  44  60  88 133 169 202 251 308 373
#     4  10  19  38  67  91 123 160 206 257 311 359
#
# _framework density 20.452911
#
# number of rings (size 3 to 8) (size 9 to 14) (size 15 to 20)
#    0.000    1.200    6.000    1.800    0.000    2.000 
#    0.000    9.000    0.000    1.200    0.000    0.000 
#    0.000    0.000    0.000    0.000    0.000    0.000 
#
# Total GULP energy -111876.632371 kJ/mol
# GULP energy per Si atom -5593.831619 kJ/mol
# Density = 2.040636 g / cm^3
# Si number density = 20.452911 Si / 1000 Ang^3
#
#
#
# Elastic Constant Matrix: (Units=GPa)
#
#
# Indices 1 2 3 4 5 6 
#
# 1 108.6965 31.6004 35.3050 0.0000 -8.2795 0.0000
# 2 31.6004 84.5513 12.8893 0.0000 9.3181 0.0000
# 3 35.3050 12.8893 101.4414 0.0000 -2.3989 0.0000
# 4 0.0000 0.0000 0.0000 0.1434 0.0000 -6.8981
# 5 -8.2795 9.3181 -2.3989 0.0000 22.1375 0.0000
# 6 0.0000 0.0000 0.0000 -6.8981 0.0000 0.4336
#
#
#
# Elastic Compliance Matrix: (Units=1/GPa)
#
#
# Indices 1 2 3 4 5 6 
#
# 1 0.012167 -0.004692 -0.003493 0.000000 0.006147 0.000000
# 2 -0.004692 0.014513 -0.000398 0.000000 -0.007907 0.000000
# 3 -0.003493 -0.000398 0.011126 0.000000 0.000067 0.000000
# 4 0.000000 0.000000 0.000000 -0.009123 0.000000 -0.145156
# 5 0.006147 -0.007907 0.000067 0.000000 0.050806 0.000000
# 6 0.000000 0.000000 0.000000 -0.145156 0.000000 -0.003017
#
#
# Mechanical properties :
#
#
# Convention : Reuss Voigt Hill
#
# Bulk Modulus (GPa) = 48.45144 50.47542 49.46343
# Shear Modulus (GPa) = 49.74247 18.86919 34.30583
#
# Velocity S-wave (km/s) = 4.93693 3.04067 4.09994
# Velocity P-wave (km/s) = 7.49923 6.08769 6.83002
#
# Compressibility (1/GPa) = 0.02063922
#
# Stress axis : x y z
#
# Youngs Moduli (GPa) = 82.19105 68.90433 89.88204
#
# Poissons Ratio (x) = 0.32331 0.31395
# Poissons Ratio (y) = 0.38566 0.03577
# Poissons Ratio (z) = 0.28708 0.02742
#
# Static dielectric constant tensor:
#      x y z
#    x 1.778670 0.000000 0.008630 
#    y 0.000000 1.671940 0.000000 
#    z 0.008630 0.000000 1.750170 
# 
# From -- ./inp_files/234769.got.cif
#   From: 2010.05.17/outbox.cif.g08.bks.cpg/sg12_118_cif.got.tgz:234769.got - 2010.06.03 13:09:07.
