data_PCOD9187210
_publ_section_title
;
Structure prediction by ZEFSAII (Michael W. Deem and Ramdas Pophale) SiO2 
 PCOD9187210
Probable space group: C 2/M
;
_chemical_formula_sum "Si O2"
_cell_formula_units_Z 56
_cell_length_a 9.604862
_cell_length_b 17.151424
_cell_length_c 16.004131
_cell_angle_alpha 90.000000
_cell_angle_beta 65.090672
_cell_angle_gamma 90.000000
_cell_volume 2391.216753
_symmetry_space_group_name_H-M "C 2/M"
_symmetry_group_IT_number 12
_symmetry_cell_setting 'monoclinic'
loop_
_space_group_symop_operation_xyz
x,y,z
-x,y,-z
-x,-y,-z
x,-y,z
1/2+x,1/2+y,z
1/2-x,1/2+y,-z
1/2-x,1/2-y,-z
1/2+x,1/2-y,z
loop_
_atom_site_type_symbol
_atom_site_label
_atom_site_fract_x
_atom_site_fract_y
_atom_site_fract_z
Si Si1 0.519846 0.180170 0.690601
Si Si2 0.688005 0.092883 0.368904
Si Si3 0.893389 0.911830 0.152861
Si Si4 0.220581 0.149630 0.093325
Si Si5 0.927025 0.090042 0.436186
Si Si6 0.183231 0.165708 0.285973
Si Si7 0.165103 0.330563 0.102611
O O1 0.469712 0.130137 0.623077
O O2 0.696913 0.184681 0.670885
O O3 0.432588 0.261937 0.699255
O O4 0.444413 0.143512 0.794166
O O5 0.806659 0.106907 0.261764
O O6 0.777312 0.123255 0.428030
O O7 0.668735 0.000000 0.382167
O O8 0.831504 0.853273 0.098451
O O9 0.073590 0.904965 0.120635
O O10 0.851366 0.000000 0.139353
O O11 0.270379 0.150175 0.176887
O O12 0.154662 0.237527 0.096835
O O13 0.340013 0.135198 0.988883
O O14 0.000000 0.128642 0.500000
O O15 0.070692 0.095102 0.336806
O O16 0.890279 0.000000 0.465105
#
# Coordination Sequence:
#
# PCOD9187210 Si02
#       7
#     8   8   8   8   8   8   8
#     4  10  22  37  58  85 120 160 199 241 290 349
#     4   9  18  37  61  85 116 153 192 239 298 356
#     4  10  19  35  58  83 114 156 207 252 298 359
#     4  10  20  32  53  82 118 155 203 251 294 352
#     4  10  21  40  66  92 116 146 190 243 301 366
#     4  11  22  37  59  85 118 157 198 245 296 353
#     4   9  21  33  50  83 118 158 201 250 295 342
#
# _framework density 23.419039000000001
#
# number of rings (size 3 to 8) (size 9 to 14) (size 15 to 20)
#    0.000    2.143    1.429    1.286   10.000    2.286 
#    0.000    3.571    0.000    2.571    0.000    6.000 
#    0.000    0.000    0.000    0.000    0.000    0.000 
#
# Total GULP energy -156251.087293 kJ/mol
# GULP energy per Si atom -5580.395975 kJ/mol
# Density = 2.336574 g / cm^3
# Si number density = 23.419039 Si / 1000 Ang^3
#
#
#
# Elastic Constant Matrix: (Units=GPa)
#
#
# Indices 1 2 3 4 5 6 
#
# 1 156.8201 16.0428 35.5494 0.0000 27.8568 0.0000
# 2 16.0428 25.7809 6.1402 0.0000 6.8826 0.0000
# 3 35.5494 6.1402 69.9695 0.0000 16.6004 0.0000
# 4 0.0000 0.0000 0.0000 7.5944 0.0000 0.1885
# 5 27.8568 6.8826 16.6004 0.0000 33.6228 0.0000
# 6 0.0000 0.0000 0.0000 0.1885 0.0000 42.2208
#
#
#
# Elastic Compliance Matrix: (Units=1/GPa)
#
#
# Indices 1 2 3 4 5 6 
#
# 1 0.008168 -0.003157 -0.002742 0.000000 -0.004767 0.000000
# 2 -0.003157 0.042457 -0.000771 0.000000 -0.005695 0.000000
# 3 -0.002742 -0.000771 0.017190 0.000000 -0.006058 0.000000
# 4 0.000000 0.000000 0.000000 0.131691 0.000000 -0.000588
# 5 -0.004767 -0.005695 -0.006058 0.000000 0.037848 0.000000
# 6 0.000000 0.000000 0.000000 -0.000588 0.000000 0.023688
#
#
# Mechanical properties :
#
#
# Convention : Reuss Voigt Hill
#
# Bulk Modulus (GPa) = 18.35688 40.89284 29.62486
# Shear Modulus (GPa) = 17.09175 29.67680 23.38427
#
# Velocity S-wave (km/s) = 2.70445 3.56365 3.16336
# Velocity P-wave (km/s) = 4.19614 5.86788 5.10096
#
# Compressibility (1/GPa) = 0.05447548
#
# Stress axis : x y z
#
# Youngs Moduli (GPa) = 122.42741 23.55334 58.17397
#
# Poissons Ratio (x) = 0.07436 0.15950
# Poissons Ratio (y) = 0.38651 0.04484
# Poissons Ratio (z) = 0.33568 0.01815
#
# Static dielectric constant tensor:
#      x y z
#    x 1.893160 0.000000 0.009840 
#    y 0.000000 1.856160 0.000000 
#    z 0.009840 0.000000 1.962740 
# 
# From -- ./inp_files/256998.got.cif
#   From: 2010.05.17/outbox.cif.g08.bks.cpg/sg12_129_cif.got.tgz:256998.got - 2010.06.03 13:09:07.
