data_PCOD9187859
_publ_section_title
;
Structure prediction by ZEFSAII (Michael W. Deem and Ramdas Pophale) SiO2 
 PCOD9187859
Probable space group: C 2/M
;
_chemical_formula_sum "Si O2"
_cell_formula_units_Z 58
_cell_length_a 21.214786
_cell_length_b 7.548722
_cell_length_c 27.561081
_cell_angle_alpha 90.000000
_cell_angle_beta 142.305102
_cell_angle_gamma 90.000000
_cell_volume 2698.820241
_symmetry_space_group_name_H-M "C 2/M"
_symmetry_group_IT_number 12
_symmetry_cell_setting 'monoclinic'
loop_
_space_group_symop_operation_xyz
x,y,z
-x,y,-z
-x,-y,-z
x,-y,z
1/2+x,1/2+y,z
1/2-x,1/2+y,-z
1/2-x,1/2-y,-z
1/2+x,1/2-y,z
loop_
_atom_site_type_symbol
_atom_site_label
_atom_site_fract_x
_atom_site_fract_y
_atom_site_fract_z
Si Si1 0.018286 0.217351 0.750488
Si Si2 0.070650 0.712220 0.498492
Si Si3 0.208189 0.285561 0.236537
Si Si4 0.298435 0.292156 0.654136
Si Si5 0.000000 0.000000 0.000000
Si Si6 0.992017 0.702827 0.064756
Si Si7 0.921874 0.787398 0.320120
Si Si8 0.368158 0.710723 0.083683
O O1 0.054373 0.277343 0.719489
O O2 0.093766 0.271282 0.840214
O O3 0.902604 0.279098 0.693400
O O4 0.017429 0.000000 0.749328
O O5 0.077643 0.500000 0.509474
O O6 0.187190 0.783554 0.571313
O O7 0.000000 0.780649 0.500000
O O8 0.012985 0.747027 0.413194
O O9 0.208149 0.500000 0.237585
O O10 0.195451 0.223986 0.283970
O O11 0.314917 0.221586 0.278332
O O12 0.109315 0.231356 0.145017
O O13 0.296915 0.500000 0.640634
O O14 0.055016 0.157374 0.000644
O O15 0.990488 0.500000 0.047435
O O16 0.937637 0.708922 0.083689
O O17 0.912275 0.000000 0.311419
O O18 0.384224 0.500000 0.091828
O O19 0.250000 0.750000 0.000000
#
# Coordination Sequence:
#
# PCOD9187859 Si02
#       8
#     8   8   8   8   2   8   8   8
#     4   9  20  38  62  87 119 165 211 259 320 392
#     4  10  20  34  54  87 121 160 207 259 316 377
#     4  10  21  36  61  90 121 161 209 263 321 377
#     4  10  19  35  62  84 115 163 211 254 310 386
#     4  12  26  44  68 102 136 170 222 270 354 398
#     4  11  24  44  68  99 136 172 222 280 329 403
#     4  10  21  38  58  88 125 161 205 261 325 385
#     4  11  22  41  69  97 129 174 223 269 333 407
#
# _framework density 21.490872
#
# number of rings (size 3 to 8) (size 9 to 14) (size 15 to 20)
#    0.000    1.793    3.448    0.621    0.966    2.483 
#    0.000    4.828    0.000    0.000    0.000    0.000 
#    0.000    0.000    0.000    0.000    0.000    0.000 
#
# Total GULP energy -161803.526593 kJ/mol
# GULP energy per Si atom -5579.431951 kJ/mol
# Density = 2.144196 g / cm^3
# Si number density = 21.490872 Si / 1000 Ang^3
#
#
#
# Elastic Constant Matrix: (Units=GPa)
#
#
# Indices 1 2 3 4 5 6 
#
# 1 88.7336 -6.1326 46.0381 -0.0008 -5.1426 0.0010
# 2 -6.1326 73.9541 0.8349 -0.0015 0.9602 0.0028
# 3 46.0381 0.8349 104.3669 0.0001 2.6503 -0.0002
# 4 -0.0008 -0.0015 0.0001 78.1844 0.0001 -208.4125
# 5 -5.1426 0.9602 2.6503 0.0001 42.9732 -0.0002
# 6 0.0010 0.0028 -0.0002 -208.4125 -0.0002 382.2605
#
#
#
# Elastic Compliance Matrix: (Units=1/GPa)
#
#
# Indices 1 2 3 4 5 6 
#
# 1 0.014937 0.001286 -0.006654 0.000000 0.002169 0.000000
# 2 0.001286 0.013638 -0.000673 0.000000 -0.000109 0.000000
# 3 -0.006654 -0.000673 0.012562 0.000000 -0.001556 0.000000
# 4 0.000000 0.000000 0.000000 -0.028213 0.000000 -0.015382
# 5 0.002169 -0.000109 -0.001556 0.000000 0.023628 0.000000
# 6 0.000000 0.000000 0.000000 -0.015382 0.000000 -0.005771
#
#
# Mechanical properties :
#
#
# Convention : Reuss Voigt Hill
#
# Bulk Modulus (GPa) = 34.42118 38.72618 36.57368
# Shear Modulus (GPa) = 95.15015 115.77124 105.46069
#
# Velocity S-wave (km/s) = 6.66114 7.34758 7.01276
# Velocity P-wave (km/s) = 8.67251 9.48902 9.08994
#
# Compressibility (1/GPa) = 0.02905188
#
# Stress axis : x y z
#
# Youngs Moduli (GPa) = 66.94929 73.32708 79.60662
#
# Poissons Ratio (x) = -0.09427 0.52972
# Poissons Ratio (y) = -0.08607 0.05361
# Poissons Ratio (z) = 0.44549 0.04938
#
# Static dielectric constant tensor:
#      x y z
#    x 1.774090 0.000000 0.012060 
#    y 0.000000 1.809320 0.000000 
#    z 0.012060 0.000000 1.788160 
# 
# From -- ./inp_files/346559.got.cif
#   From: 2010.05.17/outbox.cif.g08.bks.cpg/sg12_174_cif.got.tgz:346559.got - 2010.06.03 13:09:07.
