data_PCOD9187628
_publ_section_title
;
Structure prediction by ZEFSAII (Michael W. Deem and Ramdas Pophale) SiO2 
 PCOD9187628
Probable space group: C 2/M
;
_chemical_formula_sum "Si O2"
_cell_formula_units_Z 64
_cell_length_a 31.232998
_cell_length_b 7.780569
_cell_length_c 18.392385
_cell_angle_alpha 90.000000
_cell_angle_beta 137.103103
_cell_angle_gamma 90.000000
_cell_volume 3042.333600
_symmetry_space_group_name_H-M "C 2/M"
_symmetry_group_IT_number 12
_symmetry_cell_setting 'monoclinic'
loop_
_space_group_symop_operation_xyz
x,y,z
-x,y,-z
-x,-y,-z
x,-y,z
1/2+x,1/2+y,z
1/2-x,1/2+y,-z
1/2-x,1/2-y,-z
1/2+x,1/2-y,z
loop_
_atom_site_type_symbol
_atom_site_label
_atom_site_fract_x
_atom_site_fract_y
_atom_site_fract_z
Si Si1 0.293804 0.204175 0.259404
Si Si2 0.912505 0.294627 0.127125
Si Si3 0.945622 0.200938 0.717475
Si Si4 0.813867 0.292854 0.121867
Si Si5 0.366241 0.308609 0.484791
Si Si6 0.752191 0.196434 0.585696
Si Si7 0.897864 0.199188 0.810736
Si Si8 0.848316 0.208327 0.895149
O O1 0.309476 0.273469 0.198797
O O2 0.350177 0.230793 0.386511
O O3 0.224686 0.268163 0.199674
O O4 0.285161 0.000000 0.241781
O O5 0.920477 0.500000 0.142818
O O6 0.872181 0.231213 0.145781
O O7 0.980873 0.212765 0.205719
O O8 0.874085 0.255279 0.006050
O O9 0.908683 0.274838 0.601354
O O10 0.930448 0.275256 0.779054
O O11 0.924806 0.000000 0.695931
O O12 0.818860 0.500000 0.131186
O O13 0.750000 0.250000 0.000000
O O14 0.391381 0.500000 0.503795
O O15 0.296932 0.311905 0.433583
O O16 0.750000 0.250000 0.500000
O O17 0.823709 0.202341 0.699901
O O18 0.730627 0.000000 0.569306
O O19 0.894969 0.273349 0.888935
O O20 0.920288 0.000000 0.844271
O O21 0.848098 0.000000 0.887519
#
# Coordination Sequence:
#
# PCOD9187628 Si02
#       8
#     8   8   8   8   8   8   8   8
#     4  10  20  36  60  90 119 149 186 233 298 360
#     4  11  24  40  58  85 117 148 191 245 292 340
#     4  10  22  41  59  77 112 162 204 233 274 346
#     4  10  21  38  62  90 117 146 186 237 294 355
#     4  11  22  36  57  87 119 153 196 245 292 339
#     4  11  19  32  53  82 116 152 195 242 288 340
#     4   9  18  34  55  81 113 151 195 234 273 334
#     4  10  19  35  60  86 114 152 191 230 287 353
#
# _framework density 21.036484000000002
#
# number of rings (size 3 to 8) (size 9 to 14) (size 15 to 20)
#    0.000    1.750    3.750    1.125    0.000    3.000 
#    0.000    3.750    0.000    3.750    0.000    0.000 
#    0.000    0.000    0.000    0.000    0.000    0.000 
#
# Total GULP energy -178483.372467 kJ/mol
# GULP energy per Si atom -5577.605390 kJ/mol
# Density = 2.098860 g / cm^3
# Si number density = 21.036484 Si / 1000 Ang^3
#
#
#
# Elastic Constant Matrix: (Units=GPa)
#
#
# Indices 1 2 3 4 5 6 
#
# 1 158.1077 3.6343 62.3723 0.0000 -26.7273 0.0000
# 2 3.6343 31.5147 -2.9218 0.0000 -0.1740 0.0000
# 3 62.3723 -2.9218 72.0991 0.0000 -18.9524 0.0000
# 4 0.0000 0.0000 0.0000 14.7249 0.0000 1.8520
# 5 -26.7273 -0.1740 -18.9524 0.0000 40.5814 0.0000
# 6 0.0000 0.0000 0.0000 1.8520 0.0000 15.7174
#
#
#
# Elastic Compliance Matrix: (Units=1/GPa)
#
#
# Indices 1 2 3 4 5 6 
#
# 1 0.009995 -0.001876 -0.007973 0.000000 0.002851 0.000000
# 2 -0.001876 0.032228 0.003010 0.000000 0.000308 0.000000
# 3 -0.007973 0.003010 0.022243 0.000000 0.005150 0.000000
# 4 0.000000 0.000000 0.000000 0.068934 0.000000 -0.008122
# 5 0.002851 0.000308 0.005150 0.000000 0.028926 0.000000
# 6 0.000000 0.000000 0.000000 -0.008122 0.000000 0.064581
#
#
# Mechanical properties :
#
#
# Convention : Reuss Voigt Hill
#
# Bulk Modulus (GPa) = 19.68972 43.09903 31.39438
# Shear Modulus (GPa) = 19.41631 27.44719 23.43175
#
# Velocity S-wave (km/s) = 3.04136 3.61604 3.34108
# Velocity P-wave (km/s) = 4.65975 6.16170 5.46259
#
# Compressibility (1/GPa) = 0.05078792
#
# Stress axis : x y z
#
# Youngs Moduli (GPa) = 100.04616 31.02858 44.95763
#
# Poissons Ratio (x) = 0.05821 0.35847
# Poissons Ratio (y) = 0.18770 -0.13533
# Poissons Ratio (z) = 0.79771 -0.09340
#
# Static dielectric constant tensor:
#      x y z
#    x 1.767580 0.000000 -0.053380 
#    y 0.000000 1.803610 0.000000 
#    z -0.053380 0.000000 1.750760 
# 
# From -- ./inp_files/295736.got.cif
#   From: 2010.05.17/outbox.cif.g08.bks.cpg/sg12_148_cif.got.tgz:295736.got - 2010.06.03 13:09:07.
