data_PCOD9187804
_publ_section_title
;
Structure prediction by ZEFSAII (Michael W. Deem and Ramdas Pophale) SiO2 
 PCOD9187804
Probable space group: C 2/M
;
_chemical_formula_sum "Si O2"
_cell_formula_units_Z 40
_cell_length_a 14.804349
_cell_length_b 14.488493
_cell_length_c 15.298673
_cell_angle_alpha 90.000000
_cell_angle_beta 29.664990
_cell_angle_gamma 90.000000
_cell_volume 1624.082726
_symmetry_space_group_name_H-M "C 2/M"
_symmetry_group_IT_number 12
_symmetry_cell_setting 'monoclinic'
loop_
_space_group_symop_operation_xyz
x,y,z
-x,y,-z
-x,-y,-z
x,-y,z
1/2+x,1/2+y,z
1/2-x,1/2+y,-z
1/2-x,1/2-y,-z
1/2+x,1/2-y,z
loop_
_atom_site_type_symbol
_atom_site_label
_atom_site_fract_x
_atom_site_fract_y
_atom_site_fract_z
Si Si1 0.467027 0.112314 0.427440
Si Si2 0.361157 0.394057 0.048759
Si Si3 0.954021 0.395173 0.132751
Si Si4 0.190648 0.113348 0.508191
Si Si5 0.831441 0.156399 0.891397
O O1 0.500000 0.141871 0.500000
O O2 0.656637 0.141562 0.223776
O O3 0.306600 0.142256 0.496887
O O4 0.448707 0.000000 0.445090
O O5 0.339591 0.500000 0.094670
O O6 0.500000 0.350638 0.000000
O O7 0.427977 0.390036 0.894081
O O8 0.891194 0.500000 0.167943
O O9 0.805400 0.356089 0.325711
O O10 0.000000 0.351660 0.000000
O O11 0.149931 0.396681 0.015334
O O12 0.986948 0.153425 0.687126
O O13 0.181490 0.000000 0.514140
O O14 0.750000 0.250000 0.000000
#
# Coordination Sequence:
#
# PCOD9187804 Si02
#       5
#     8   8   8   8   8
#     4   9  16  29  54  90 123 155 200 259 321 375
#     4  10  19  35  61  90 122 160 209 264 314 372
#     4  10  22  43  69  93 122 167 229 288 322 367
#     4  10  20  38  66  94 126 169 222 277 325 381
#     4  12  25  39  60  91 135 175 207 260 328 403
#
# _framework density 24.629287000000001
#
# number of rings (size 3 to 8) (size 9 to 14) (size 15 to 20)
#    0.000    1.800    2.000    3.000    0.000    5.600 
#    0.000    3.000    0.000    0.000    0.000    0.000 
#    0.000    0.000    0.000    0.000    0.000    0.000 
#
# Total GULP energy -111656.200209 kJ/mol
# GULP energy per Si atom -5582.810010 kJ/mol
# Density = 2.457323 g / cm^3
# Si number density = 24.629287 Si / 1000 Ang^3
#
#
#
# Elastic Constant Matrix: (Units=GPa)
#
#
# Indices 1 2 3 4 5 6 
#
# 1 55.6585 8.9966 28.5090 0.0048 24.0157 -0.0023
# 2 8.9966 78.0741 18.9114 0.0091 1.3448 -0.0077
# 3 28.5090 18.9114 211.7200 0.0092 12.5028 -0.0089
# 4 0.0048 0.0091 0.0092 15.6860 -0.0072 -4.1716
# 5 24.0157 1.3448 12.5028 -0.0072 44.7202 0.0054
# 6 -0.0023 -0.0077 -0.0089 -4.1716 0.0054 22.2088
#
#
#
# Elastic Compliance Matrix: (Units=1/GPa)
#
#
# Indices 1 2 3 4 5 6 
#
# 1 0.025028 -0.002076 -0.002435 -0.000010 -0.012698 0.000002
# 2 -0.002076 0.013264 -0.000963 -0.000005 0.000985 0.000003
# 3 -0.002435 -0.000963 0.005143 -0.000001 -0.000101 0.000001
# 4 -0.000010 -0.000005 -0.000001 0.067103 0.000015 0.012604
# 5 -0.012698 0.000985 -0.000101 0.000015 0.029179 -0.000005
# 6 0.000002 0.000003 0.000001 0.012604 -0.000005 0.047395
#
#
# Mechanical properties :
#
#
# Convention : Reuss Voigt Hill
#
# Bulk Modulus (GPa) = 30.78120 50.92072 40.85096
# Shear Modulus (GPa) = 23.93614 35.79204 29.86409
#
# Velocity S-wave (km/s) = 3.12084 3.81626 3.48594
# Velocity P-wave (km/s) = 5.05086 6.33547 5.72928
#
# Compressibility (1/GPa) = 0.03248736
#
# Stress axis : x y z
#
# Youngs Moduli (GPa) = 39.95501 75.39252 194.43396
#
# Poissons Ratio (x) = 0.15648 0.47343
# Poissons Ratio (y) = 0.08293 0.18733
# Poissons Ratio (z) = 0.09729 0.07264
#
# Static dielectric constant tensor:
#      x y z
#    x 2.013180 0.000000 0.069420 
#    y 0.000000 2.026110 0.000010 
#    z 0.069420 0.000010 1.985530 
# 
# From -- ./inp_files/216638.got.cif
#   From: 2010.05.17/outbox.cif.g08.bks.cpg/sg12_109_cif.got.tgz:216638.got - 2010.06.03 13:09:07.
