data_PCOD9187752
_publ_section_title
;
Structure prediction by ZEFSAII (Michael W. Deem and Ramdas Pophale) SiO2 
 PCOD9187752
Probable space group: C 2/M
;
_chemical_formula_sum "Si O2"
_cell_formula_units_Z 64
_cell_length_a 30.070310
_cell_length_b 8.415330
_cell_length_c 13.173555
_cell_angle_alpha 90.000000
_cell_angle_beta 101.122917
_cell_angle_gamma 90.000000
_cell_volume 3270.969401
_symmetry_space_group_name_H-M "C 2/M"
_symmetry_group_IT_number 12
_symmetry_cell_setting 'monoclinic'
loop_
_space_group_symop_operation_xyz
x,y,z
-x,y,-z
-x,-y,-z
x,-y,z
1/2+x,1/2+y,z
1/2-x,1/2+y,-z
1/2-x,1/2-y,-z
1/2+x,1/2-y,z
loop_
_atom_site_type_symbol
_atom_site_label
_atom_site_fract_x
_atom_site_fract_y
_atom_site_fract_z
Si Si1 0.936734 0.810517 0.816040
Si Si2 0.429924 0.685818 0.390706
Si Si3 0.393071 0.808373 0.004339
Si Si4 0.166211 0.311789 0.716941
Si Si5 0.894466 0.806576 0.586028
Si Si6 0.705255 0.308894 0.536206
Si Si7 0.299842 0.809602 0.044657
Si Si8 0.466238 0.189295 0.202444
O O1 0.916087 0.743422 0.910272
O O2 0.911328 0.751369 0.702896
O O3 0.989006 0.764816 0.825228
O O4 0.932480 0.000000 0.817209
O O5 0.441555 0.500000 0.398698
O O6 0.378655 0.712517 0.328332
O O7 0.426166 0.746819 0.505275
O O8 0.460349 0.765738 0.317901
O O9 0.392245 0.000000 0.006609
O O10 0.341362 0.750316 0.993158
O O11 0.423168 0.758088 0.115133
O O12 0.154496 0.500000 0.711327
O O13 0.201602 0.271718 0.644512
O O14 0.185870 0.269892 0.834461
O O15 0.842145 0.763687 0.540462
O O16 0.896429 0.000000 0.585303
O O17 0.705821 0.500000 0.545812
O O18 0.750000 0.250000 0.500000
O O19 0.298881 0.000000 0.036218
O O20 0.250000 0.750000 0.000000
O O21 0.469339 0.000000 0.195932
#
# Coordination Sequence:
#
# PCOD9187752 Si02
#       8
#     8   8   8   8   8   8   8   8
#     4  11  23  39  59  86 117 153 198 242 287 348
#     4  10  19  35  61  87 111 148 195 239 283 344
#     4  10  22  42  60  80 117 158 192 236 297 350
#     4  10  19  36  57  81 114 151 187 235 295 346
#     4   8  19  38  56  79 118 154 184 235 300 346
#     4  10  20  36  58  85 113 151 196 239 290 349
#     4  10  22  39  59  85 116 153 193 239 296 351
#     4  11  22  39  61  85 117 155 193 239 298 352
#
# _framework density 19.566065999999999
#
# number of rings (size 3 to 8) (size 9 to 14) (size 15 to 20)
#    0.000    2.000    1.250    3.000    0.000    5.500 
#    0.000   13.750    0.000    0.000    0.000    0.000 
#    0.000    0.000    0.000    0.000    0.000    0.000 
#
# Total GULP energy -178653.628595 kJ/mol
# GULP energy per Si atom -5582.925894 kJ/mol
# Density = 1.952153 g / cm^3
# Si number density = 19.566066 Si / 1000 Ang^3
#
#
#
# Elastic Constant Matrix: (Units=GPa)
#
#
# Indices 1 2 3 4 5 6 
#
# 1 108.4818 5.3982 43.6867 0.0000 -21.2865 0.0000
# 2 5.3982 15.2262 12.4134 0.0000 3.3601 0.0000
# 3 43.6867 12.4134 92.5899 0.0000 -17.0595 0.0000
# 4 0.0000 0.0000 0.0000 27.0693 0.0000 -10.1302
# 5 -21.2865 3.3601 -17.0595 0.0000 32.8957 0.0000
# 6 0.0000 0.0000 0.0000 -10.1302 0.0000 24.8020
#
#
#
# Elastic Compliance Matrix: (Units=1/GPa)
#
#
# Indices 1 2 3 4 5 6 
#
# 1 0.012249 -0.002014 -0.004435 0.000000 0.005832 0.000000
# 2 -0.002014 0.080394 -0.012805 0.000000 -0.016155 0.000000
# 3 -0.004435 -0.012805 0.015835 0.000000 0.006650 0.000000
# 4 0.000000 0.000000 0.000000 0.043608 0.000000 0.017811
# 5 0.005832 -0.016155 0.006650 0.000000 0.039272 0.000000
# 6 0.000000 0.000000 0.000000 0.017811 0.000000 0.047594
#
#
# Mechanical properties :
#
#
# Convention : Reuss Voigt Hill
#
# Bulk Modulus (GPa) = 14.29165 37.69938 25.99552
# Shear Modulus (GPa) = 16.62333 27.27337 21.94835
#
# Velocity S-wave (km/s) = 2.91795 3.73756 3.35290
# Velocity P-wave (km/s) = 4.32120 6.15917 5.32016
#
# Compressibility (1/GPa) = 0.06997095
#
# Stress axis : x y z
#
# Youngs Moduli (GPa) = 81.64191 12.43867 63.15231
#
# Poissons Ratio (x) = 0.02505 0.28006
# Poissons Ratio (y) = 0.16442 0.80865
# Poissons Ratio (z) = 0.36206 0.15927
#
# Static dielectric constant tensor:
#      x y z
#    x 1.678000 0.000000 0.002030 
#    y 0.000000 1.686560 0.000000 
#    z 0.002030 0.000000 1.693780 
# 
# From -- ./inp_files/187613.got.cif
#   From: 2010.05.17/outbox.cif.g08.bks.cpg/sg12_94_cif.got.tgz:187613.got - 2010.06.03 13:09:07.
