data_PCOD9187214
_publ_section_title
;
Structure prediction by ZEFSAII (Michael W. Deem and Ramdas Pophale) SiO2 
 PCOD9187214
Probable space group: C 2/M
;
_chemical_formula_sum "Si O2"
_cell_formula_units_Z 56
_cell_length_a 24.095015
_cell_length_b 20.800699
_cell_length_c 11.579916
_cell_angle_alpha 90.000000
_cell_angle_beta 30.400912
_cell_angle_gamma 90.000000
_cell_volume 2936.985601
_symmetry_space_group_name_H-M "C 2/M"
_symmetry_group_IT_number 12
_symmetry_cell_setting 'monoclinic'
loop_
_space_group_symop_operation_xyz
x,y,z
-x,y,-z
-x,-y,-z
x,-y,z
1/2+x,1/2+y,z
1/2-x,1/2+y,-z
1/2-x,1/2-y,-z
1/2+x,1/2-y,z
loop_
_atom_site_type_symbol
_atom_site_label
_atom_site_fract_x
_atom_site_fract_y
_atom_site_fract_z
Si Si1 0.954846 0.925143 0.455673
Si Si2 0.067958 0.717607 0.578953
Si Si3 0.048528 0.371512 0.035291
Si Si4 0.903943 0.170588 0.920074
Si Si5 0.200653 0.318478 0.129734
Si Si6 0.287780 0.753453 0.301349
Si Si7 0.696455 0.928346 0.953401
O O1 0.823750 0.920248 0.690086
O O2 0.000000 0.900961 0.500000
O O3 0.009486 0.885703 0.254146
O O4 0.985595 0.000000 0.392904
O O5 0.100415 0.691917 0.396231
O O6 0.177266 0.755314 0.423951
O O7 0.041808 0.662322 0.719564
O O8 0.965868 0.765962 0.760816
O O9 0.135579 0.314853 0.852216
O O10 0.115237 0.422393 0.990993
O O11 0.000000 0.393384 0.000000
O O12 0.799689 0.153029 0.029158
O O13 0.857753 0.192745 0.127117
O O14 0.250000 0.250000 0.000000
O O15 0.172311 0.368349 0.080351
O O16 0.250000 0.750000 0.500000
O O17 0.685999 0.000000 0.024716
#
# Coordination Sequence:
#
# PCOD9187214 Si02
#       7
#     8   8   8   8   8   8   8
#     4  10  19  35  58  83 116 157 197 242 303 374
#     4  10  21  35  56  87 122 154 193 251 304 363
#     4  11  22  39  60  83 117 157 206 250 296 361
#     4  10  20  31  55  86 116 153 187 239 307 365
#     4  11  21  35  56  87 122 151 193 245 303 365
#     4  10  19  35  58  88 118 150 199 253 308 352
#     4  11  24  40  60  87 121 161 203 247 303 374
#
# _framework density 19.067167999999999
#
# number of rings (size 3 to 8) (size 9 to 14) (size 15 to 20)
#    0.000    1.571    2.857    4.286    0.000    2.000 
#    0.000    1.429    0.000    1.714    0.000    3.000 
#    0.000    0.000    0.000    0.000    0.000    0.000 
#
# Total GULP energy -156307.314686 kJ/mol
# GULP energy per Si atom -5582.404096 kJ/mol
# Density = 1.902377 g / cm^3
# Si number density = 19.067168 Si / 1000 Ang^3
#
#
#
# Elastic Constant Matrix: (Units=GPa)
#
#
# Indices 1 2 3 4 5 6 
#
# 1 103.5726 35.6301 39.5605 0.0000 -0.6261 0.0000
# 2 35.6301 78.2521 34.3260 0.0000 20.4869 0.0000
# 3 39.5605 34.3260 111.6492 0.0000 22.0648 0.0000
# 4 0.0000 0.0000 0.0000 25.4731 0.0000 -2.5680
# 5 -0.6261 20.4869 22.0648 0.0000 35.5835 0.0000
# 6 0.0000 0.0000 0.0000 -2.5680 0.0000 22.1589
#
#
#
# Elastic Compliance Matrix: (Units=1/GPa)
#
#
# Indices 1 2 3 4 5 6 
#
# 1 0.013280 -0.005850 -0.004124 0.000000 0.006159 0.000000
# 2 -0.005850 0.018789 -0.001761 0.000000 -0.009828 0.000000
# 3 -0.004124 -0.001761 0.012278 0.000000 -0.006672 0.000000
# 4 0.000000 0.000000 0.000000 0.039721 0.000000 0.004603
# 5 0.006159 -0.009828 -0.006672 0.000000 0.038007 0.000000
# 6 0.000000 0.000000 0.000000 0.004603 0.000000 0.045662
#
#
# Mechanical properties :
#
#
# Convention : Reuss Voigt Hill
#
# Bulk Modulus (GPa) = 47.90304 56.94525 52.42414
# Shear Modulus (GPa) = 25.23132 28.90691 27.06911
#
# Velocity S-wave (km/s) = 3.64165 3.89788 3.77194
# Velocity P-wave (km/s) = 6.54675 7.08438 6.82086
#
# Compressibility (1/GPa) = 0.02087550
#
# Stress axis : x y z
#
# Youngs Moduli (GPa) = 75.30087 53.22375 81.44683
#
# Poissons Ratio (x) = 0.31137 0.33590
# Poissons Ratio (y) = 0.44052 0.14345
# Poissons Ratio (z) = 0.31055 0.09374
#
# Static dielectric constant tensor:
#      x y z
#    x 1.708500 0.000000 -0.017760 
#    y 0.000000 1.674710 0.000000 
#    z -0.017760 0.000000 1.673560 
# 
# From -- ./inp_files/177867.got.cif
#   From: 2010.05.17/outbox.cif.g08.bks.cpg/sg12_89_cif.got.tgz:177867.got - 2010.06.03 13:09:07.
