data_PCOD9187730
_publ_section_title
;
Structure prediction by ZEFSAII (Michael W. Deem and Ramdas Pophale) SiO2 
 PCOD9187730
Probable space group: C 2/M
;
_chemical_formula_sum "Si O2"
_cell_formula_units_Z 64
_cell_length_a 10.165837
_cell_length_b 14.691675
_cell_length_c 23.971977
_cell_angle_alpha 90.000000
_cell_angle_beta 85.445568
_cell_angle_gamma 90.000000
_cell_volume 3568.985517
_symmetry_space_group_name_H-M "C 2/M"
_symmetry_group_IT_number 12
_symmetry_cell_setting 'monoclinic'
loop_
_space_group_symop_operation_xyz
x,y,z
-x,y,-z
-x,-y,-z
x,-y,z
1/2+x,1/2+y,z
1/2-x,1/2+y,-z
1/2-x,1/2-y,-z
1/2+x,1/2-y,z
loop_
_atom_site_type_symbol
_atom_site_label
_atom_site_fract_x
_atom_site_fract_y
_atom_site_fract_z
Si Si1 0.847050 0.165312 0.495448
Si Si2 0.801996 0.607221 0.866842
Si Si3 0.894963 0.105143 0.370628
Si Si4 0.803201 0.897307 0.617637
Si Si5 0.168922 0.265744 0.700444
Si Si6 0.903530 0.754863 0.776943
Si Si7 0.016509 0.891593 0.127843
Si Si8 0.883063 0.259213 0.960551
O O1 0.750000 0.250000 0.500000
O O2 0.841340 0.118845 0.435197
O O3 0.807871 0.106136 0.550477
O O4 0.000000 0.192161 0.500000
O O5 0.833910 0.500000 0.862453
O O6 0.857017 0.667633 0.814182
O O7 0.642374 0.615715 0.873257
O O8 0.862937 0.657124 0.918718
O O9 0.822253 0.166763 0.328232
O O10 0.049921 0.132886 0.368010
O O11 0.888656 0.000000 0.355914
O O12 0.693440 0.834118 0.648491
O O13 0.784002 0.000000 0.637289
O O14 0.283045 0.282114 0.741378
O O15 0.029707 0.271133 0.735834
O O16 0.941683 0.837806 0.817270
O O17 0.083823 0.832256 0.076208
O O18 0.049502 0.000000 0.126829
O O19 0.750000 0.250000 0.000000
O O20 0.000000 0.275258 0.000000
#
# Coordination Sequence:
#
# PCOD9187730 Si02
#       8
#     8   8   8   8   8   8   8   8
#     4  10  19  35  61  83 114 151 190 239 298 363
#     4  10  22  41  64  90 122 164 206 243 292 348
#     4  10  21  37  60  87 113 152 199 240 295 370
#     4  10  21  37  59  87 116 151 196 243 297 364
#     4  12  22  38  61  86 117 153 197 249 308 351
#     4  11  24  40  61  88 119 156 200 258 298 342
#     4  10  22  41  66  90 118 167 210 237 288 358
#     4  11  22  39  63  98 133 157 193 247 292 339
#
# _framework density 17.932267
#
# number of rings (size 3 to 8) (size 9 to 14) (size 15 to 20)
#    0.000    1.500    5.000    0.375    0.000    4.500 
#    0.000    1.250    0.000    0.750    0.000    0.000 
#    0.000    0.000    0.000    0.000    0.000    0.000 
#
# Total GULP energy -178540.157835 kJ/mol
# GULP energy per Si atom -5579.379932 kJ/mol
# Density = 1.789145 g / cm^3
# Si number density = 17.932267 Si / 1000 Ang^3
#
#
#
# Elastic Constant Matrix: (Units=GPa)
#
#
# Indices 1 2 3 4 5 6 
#
# 1 79.2709 34.3496 35.3582 0.0000 -11.8313 0.0000
# 2 34.3496 117.1970 39.9514 0.0000 -10.7345 0.0000
# 3 35.3582 39.9514 86.5608 0.0000 -13.6044 0.0000
# 4 0.0000 0.0000 0.0000 -33.2475 0.0000 28.4068
# 5 -11.8313 -10.7345 -13.6044 0.0000 37.8213 0.0000
# 6 0.0000 0.0000 0.0000 28.4068 0.0000 12.2212
#
#
#
# Elastic Compliance Matrix: (Units=1/GPa)
#
#
# Indices 1 2 3 4 5 6 
#
# 1 0.016476 -0.002894 -0.004996 0.000000 0.002536 0.000000
# 2 -0.002894 0.010691 -0.003623 0.000000 0.000826 0.000000
# 3 -0.004996 -0.003623 0.015748 0.000000 0.003074 0.000000
# 4 0.000000 0.000000 0.000000 -0.010073 0.000000 0.023413
# 5 0.002536 0.000826 0.003074 0.000000 0.028573 0.000000
# 6 0.000000 0.000000 0.000000 0.023413 0.000000 0.027403
#
#
# Mechanical properties :
#
#
# Convention : Reuss Voigt Hill
#
# Bulk Modulus (GPa) = 50.27397 55.81635 53.04516
# Shear Modulus (GPa) = 42.20339 14.91696 28.56018
#
# Velocity S-wave (km/s) = 4.85654 2.88731 3.99516
# Velocity P-wave (km/s) = 7.71650 6.50455 7.13630
#
# Compressibility (1/GPa) = 0.01989101
#
# Stress axis : x y z
#
# Youngs Moduli (GPa) = 60.69560 93.53359 63.49849
#
# Poissons Ratio (x) = 0.27065 0.31723
# Poissons Ratio (y) = 0.17563 0.23003
# Poissons Ratio (z) = 0.30323 0.33884
#
# Static dielectric constant tensor:
#      x y z
#    x 1.588770 0.000000 -0.000900 
#    y 0.000000 1.590780 0.000000 
#    z -0.000900 0.000000 1.634590 
# 
# From -- ./inp_files/332918.got.cif
#   From: 2010.05.17/outbox.cif.g08.bks.cpg/sg12_167_cif.got.tgz:332918.got - 2010.06.03 13:09:07.
