data_PCOD9187664
_publ_section_title
;
Structure prediction by ZEFSAII (Michael W. Deem and Ramdas Pophale) SiO2 
 PCOD9187664
Probable space group: C 2/M
;
_chemical_formula_sum "Si O2"
_cell_formula_units_Z 34
_cell_length_a 13.591805
_cell_length_b 15.864758
_cell_length_c 9.088957
_cell_angle_alpha 90.000000
_cell_angle_beta 130.300308
_cell_angle_gamma 90.000000
_cell_volume 1494.714915
_symmetry_space_group_name_H-M "C 2/M"
_symmetry_group_IT_number 12
_symmetry_cell_setting 'monoclinic'
loop_
_space_group_symop_operation_xyz
x,y,z
-x,y,-z
-x,-y,-z
x,-y,z
1/2+x,1/2+y,z
1/2-x,1/2+y,-z
1/2-x,1/2-y,-z
1/2+x,1/2-y,z
loop_
_atom_site_type_symbol
_atom_site_label
_atom_site_fract_x
_atom_site_fract_y
_atom_site_fract_z
Si Si1 0.548253 0.595682 0.379416
Si Si2 0.343486 0.654860 0.964265
Si Si3 0.000000 0.000000 0.000000
Si Si4 0.112994 0.660004 0.954903
Si Si5 0.659225 0.095491 0.304767
O O1 0.500000 0.589773 0.500000
O O2 0.535393 0.500000 0.297465
O O3 0.447271 0.651716 0.197503
O O4 0.696105 0.623129 0.515810
O O5 0.387952 0.577354 0.907528
O O6 0.356945 0.751856 0.931382
O O7 0.204247 0.647080 0.903920
O O8 0.964223 0.649186 0.767661
O O9 0.149438 0.594007 0.117315
O O10 0.644673 0.000000 0.345643
#
# Coordination Sequence:
#
# PCOD9187664 Si02
#       5
#     8   8   2   8   8
#     4  10  19  35  60  88 111 146 199 246 288 338
#     4  11  23  38  59  85 123 157 195 238 292 359
#     4  12  24  36  62  84 118 170 194 228 290 372
#     4  10  21  37  57  91 119 150 194 247 296 344
#     4  10  20  34  64  89 112 145 199 249 294 338
#
# _framework density 22.746814000000001
#
# number of rings (size 3 to 8) (size 9 to 14) (size 15 to 20)
#    0.000    1.647    3.529    2.824    3.294    0.941 
#    0.000    0.000    0.000    1.412    0.000    0.000 
#    0.000    0.000    0.000    0.000    0.000    0.000 
#
# Total GULP energy -94688.238672 kJ/mol
# GULP energy per Si atom -5569.896392 kJ/mol
# Density = 2.269504 g / cm^3
# Si number density = 22.746814 Si / 1000 Ang^3
#
#
#
# Elastic Constant Matrix: (Units=GPa)
#
#
# Indices 1 2 3 4 5 6 
#
# 1 140.3109 46.7525 19.2152 0.0000 53.0862 0.0000
# 2 46.7525 113.4722 2.3756 0.0000 9.6970 0.0000
# 3 19.2152 2.3756 76.4178 0.0000 39.6449 0.0000
# 4 0.0000 0.0000 0.0000 19.0619 0.0000 4.6778
# 5 53.0862 9.6970 39.6449 0.0000 48.0243 0.0000
# 6 0.0000 0.0000 0.0000 4.6778 0.0000 32.0986
#
#
#
# Elastic Compliance Matrix: (Units=1/GPa)
#
#
# Indices 1 2 3 4 5 6 
#
# 1 0.017235 -0.005112 0.009049 0.000000 -0.025490 0.000000
# 2 -0.005112 0.010543 -0.001521 0.000000 0.004778 0.000000
# 3 0.009049 -0.001521 0.027789 0.000000 -0.032636 0.000000
# 4 0.000000 0.000000 0.000000 0.054407 0.000000 -0.007929
# 5 -0.025490 0.004778 -0.032636 0.000000 0.074976 0.000000
# 6 0.000000 0.000000 0.000000 -0.007929 0.000000 0.032310
#
#
# Mechanical properties :
#
#
# Convention : Reuss Voigt Hill
#
# Bulk Modulus (GPa) = 16.55683 51.87639 34.21661
# Shear Modulus (GPa) = 21.49974 37.29411 29.39693
#
# Velocity S-wave (km/s) = 3.07771 4.05351 3.59883
# Velocity P-wave (km/s) = 4.46366 6.69054 5.68716
#
# Compressibility (1/GPa) = 0.06039805
#
# Stress axis : x y z
#
# Youngs Moduli (GPa) = 58.02071 94.85293 35.98514
#
# Poissons Ratio (x) = 0.48492 -0.32563
# Poissons Ratio (y) = 0.29662 0.05474
# Poissons Ratio (z) = -0.52503 0.14428
#
# Static dielectric constant tensor:
#      x y z
#    x 1.708020 0.000000 0.137020 
#    y 0.000000 1.863380 0.000000 
#    z 0.137020 0.000000 1.661040 
# 
# From -- ./inp_files/141752.got.cif
#   From: 2010.05.17/outbox.cif.g08.bks.cpg/sg12_71_cif.got.tgz:141752.got - 2010.06.03 13:09:07.
