data_PCOD9187429
_publ_section_title
;
Structure prediction by ZEFSAII (Michael W. Deem and Ramdas Pophale) SiO2 
 PCOD9187429
Probable space group: C 2/M
;
_chemical_formula_sum "Si O2"
_cell_formula_units_Z 48
_cell_length_a 21.153879
_cell_length_b 8.479131
_cell_length_c 14.480920
_cell_angle_alpha 90.000000
_cell_angle_beta 90.152032
_cell_angle_gamma 90.000000
_cell_volume 2597.382955
_symmetry_space_group_name_H-M "C 2/M"
_symmetry_group_IT_number 12
_symmetry_cell_setting 'monoclinic'
loop_
_space_group_symop_operation_xyz
x,y,z
-x,y,-z
-x,-y,-z
x,-y,z
1/2+x,1/2+y,z
1/2-x,1/2+y,-z
1/2-x,1/2-y,-z
1/2+x,1/2-y,z
loop_
_atom_site_type_symbol
_atom_site_label
_atom_site_fract_x
_atom_site_fract_y
_atom_site_fract_z
Si Si1 0.128676 0.690905 0.789068
Si Si2 0.623708 0.190918 0.215432
Si Si3 0.498133 0.192244 0.105780
Si Si4 0.426783 0.188312 0.403051
Si Si5 0.567803 0.686265 0.395790
Si Si6 0.251667 0.811255 0.895155
O O1 0.131168 0.500000 0.792201
O O2 0.117253 0.737165 0.682521
O O3 0.190468 0.756677 0.838226
O O4 0.066040 0.742167 0.844444
O O5 0.560687 0.241920 0.160391
O O6 0.616374 0.256918 0.318311
O O7 0.685484 0.242187 0.159379
O O8 0.623901 0.000000 0.219961
O O9 0.498230 0.000000 0.105950
O O10 0.500000 0.244658 0.000000
O O11 0.411977 0.268365 0.500510
O O12 0.499743 0.230362 0.379788
O O13 0.422956 0.000000 0.413855
O O14 0.558228 0.500000 0.389838
O O15 0.253296 0.000000 0.898905
O O16 0.250000 0.750000 0.000000
#
# Coordination Sequence:
#
# PCOD9187429 Si02
#       6
#     8   8   8   8   8   8
#     4  10  20  36  59  85 113 150 192 238 286 338
#     4  10  20  38  59  81 111 154 199 231 280 348
#     4   9  16  30  55  82 106 138 188 239 277 330
#     4  10  19  35  59  84 115 156 195 230 279 354
#     4  11  21  33  55  88 121 148 183 243 298 335
#     4  11  24  40  61  84 116 157 194 238 285 345
#
# _framework density 18.480139999999999
#
# number of rings (size 3 to 8) (size 9 to 14) (size 15 to 20)
#    0.000    1.833    1.667    4.500    0.000    5.333 
#    0.000    0.833    0.000    2.000    0.000    0.000 
#    0.000    0.000    0.000    0.000    0.000    0.000 
#
# Total GULP energy -134035.763591 kJ/mol
# GULP energy per Si atom -5584.823483 kJ/mol
# Density = 1.843808 g / cm^3
# Si number density = 18.480140 Si / 1000 Ang^3
#
#
#
# Elastic Constant Matrix: (Units=GPa)
#
#
# Indices 1 2 3 4 5 6 
#
# 1 139.3207 15.6011 81.7927 0.0000 -4.0702 0.0000
# 2 15.6011 15.5670 13.3281 0.0000 0.7849 0.0000
# 3 81.7927 13.3281 157.3256 0.0000 -3.9345 0.0000
# 4 0.0000 0.0000 0.0000 21.4082 0.0000 2.0788
# 5 -4.0702 0.7849 -3.9345 0.0000 33.7205 0.0000
# 6 0.0000 0.0000 0.0000 2.0788 0.0000 25.2069
#
#
#
# Elastic Compliance Matrix: (Units=1/GPa)
#
#
# Indices 1 2 3 4 5 6 
#
# 1 0.010944 -0.006642 -0.005105 0.000000 0.000880 0.000000
# 2 -0.006642 0.073472 -0.002842 0.000000 -0.002843 0.000000
# 3 -0.005105 -0.002842 0.009264 0.000000 0.000531 0.000000
# 4 0.000000 0.000000 0.000000 0.047088 0.000000 -0.003883
# 5 0.000880 -0.002843 0.000531 0.000000 0.029890 0.000000
# 6 0.000000 0.000000 0.000000 -0.003883 0.000000 0.039992
#
#
# Mechanical properties :
#
#
# Convention : Reuss Voigt Hill
#
# Bulk Modulus (GPa) = 15.50344 59.29521 37.39933
# Shear Modulus (GPa) = 19.13294 29.49990 24.31642
#
# Velocity S-wave (km/s) = 3.22114 3.99971 3.63135
# Velocity P-wave (km/s) = 4.71612 7.31340 6.15336
#
# Compressibility (1/GPa) = 0.06450181
#
# Stress axis : x y z
#
# Youngs Moduli (GPa) = 91.37181 13.61071 107.93901
#
# Poissons Ratio (x) = 0.09040 0.55105
# Poissons Ratio (y) = 0.60686 0.30681
# Poissons Ratio (z) = 0.46647 0.03869
#
# Static dielectric constant tensor:
#      x y z
#    x 1.611580 0.000000 -0.003890 
#    y 0.000000 1.630340 0.000000 
#    z -0.003890 0.000000 1.637950 
# 
# From -- ./inp_files/229308.got.cif
#   From: 2010.05.17/outbox.cif.g08.bks.cpg/sg12_115_cif.got.tgz:229308.got - 2010.06.03 13:09:07.
