data_PCOD9187154
_publ_section_title
;
Structure prediction by ZEFSAII (Michael W. Deem and Ramdas Pophale) SiO2 
 PCOD9187154
Probable space group: C 2/M
;
_chemical_formula_sum "Si O2"
_cell_formula_units_Z 52
_cell_length_a 12.230652
_cell_length_b 28.416749
_cell_length_c 17.720521
_cell_angle_alpha 90.000000
_cell_angle_beta 151.549711
_cell_angle_gamma 90.000000
_cell_volume 2934.057937
_symmetry_space_group_name_H-M "C 2/M"
_symmetry_group_IT_number 12
_symmetry_cell_setting 'monoclinic'
loop_
_space_group_symop_operation_xyz
x,y,z
-x,y,-z
-x,-y,-z
x,-y,z
1/2+x,1/2+y,z
1/2-x,1/2+y,-z
1/2-x,1/2-y,-z
1/2+x,1/2-y,z
loop_
_atom_site_type_symbol
_atom_site_label
_atom_site_fract_x
_atom_site_fract_y
_atom_site_fract_z
Si Si1 0.625197 0.500000 0.911140
Si Si2 0.293724 0.000000 0.226950
Si Si3 0.324812 0.500000 0.580692
Si Si4 0.127859 0.082988 0.505259
Si Si5 0.883775 0.817020 0.354189
Si Si6 0.843966 0.578645 0.132375
Si Si7 0.264415 0.265966 0.132835
Si Si8 0.143742 0.321734 0.914479
O O1 0.414210 0.500000 0.842057
O O2 0.492316 0.500000 0.752785
O O3 0.781991 0.545171 0.024416
O O4 0.274930 0.046354 0.162307
O O5 0.545553 0.000000 0.419082
O O6 0.380335 0.546711 0.567312
O O7 0.389531 0.087712 0.689776
O O8 0.000000 0.062197 0.500000
O O9 0.012849 0.133368 0.418990
O O10 0.892623 0.785252 0.284740
O O11 0.618459 0.826921 0.215082
O O12 0.000000 0.795640 0.500000
O O13 0.752615 0.630312 0.056695
O O14 0.348611 0.217552 0.146463
O O15 0.272776 0.302485 0.067507
O O16 0.000000 0.260503 0.000000
#
# Coordination Sequence:
#
# PCOD9187154 Si02
#       8
#     4   4   4   8   8   8   8   8
#     4  11  23  37  55  88 109 148 185 231 276 329
#     4   9  21  40  58  77 113 149 180 229 277 331
#     4  10  22  35  60  83 112 143 188 230 274 334
#     4  10  19  37  55  80 113 152 179 230 284 326
#     4  10  19  36  58  81 110 150 187 226 285 330
#     4  10  19  35  58  81 108 146 192 219 277 340
#     4   9  21  35  56  82 116 145 184 238 288 327
#     4  10  19  37  57  83 110 150 187 232 282 339
#
# _framework density 17.722895000000001
#
# number of rings (size 3 to 8) (size 9 to 14) (size 15 to 20)
#    0.000    2.154    3.077    1.846    2.154    1.846 
#    0.000    1.538    0.000    0.000    0.000    0.000 
#    0.000    0.000    0.000    0.000    0.000    0.000 
#
# Total GULP energy -144780.124230 kJ/mol
# GULP energy per Si atom -5568.466317 kJ/mol
# Density = 1.768256 g / cm^3
# Si number density = 17.722895 Si / 1000 Ang^3
#
#
#
# Elastic Constant Matrix: (Units=GPa)
#
#
# Indices 1 2 3 4 5 6 
#
# 1 68.9523 53.3806 27.5903 0.0033 -18.2425 -0.0184
# 2 53.3806 140.3431 55.1893 0.0002 -22.0650 -0.0012
# 3 27.5903 55.1893 91.0810 0.0000 -32.3236 0.0067
# 4 0.0033 0.0002 0.0000 33.6792 -0.0001 -46.5120
# 5 -18.2425 -22.0650 -32.3236 -0.0001 36.7273 0.0025
# 6 -0.0184 -0.0012 0.0067 -46.5120 0.0025 267.1506
#
#
#
# Elastic Compliance Matrix: (Units=1/GPa)
#
#
# Indices 1 2 3 4 5 6 
#
# 1 0.021868 -0.007347 0.000168 0.000000 0.006596 0.000001
# 2 -0.007347 0.011844 -0.005411 0.000000 -0.001296 0.000000
# 3 0.000168 -0.005411 0.019025 -0.000001 0.013577 -0.000001
# 4 0.000000 0.000000 -0.000001 0.039091 -0.000001 0.006806
# 5 0.006596 -0.001296 0.013577 -0.000001 0.041675 0.000000
# 6 0.000001 0.000000 -0.000001 0.006806 0.000000 0.004928
#
#
# Mechanical properties :
#
#
# Convention : Reuss Voigt Hill
#
# Bulk Modulus (GPa) = 36.28664 63.63298 49.95981
# Shear Modulus (GPa) = 28.93573 78.45915 53.69744
#
# Velocity S-wave (km/s) = 4.04502 6.66078 5.51036
# Velocity P-wave (km/s) = 6.50655 9.75382 8.29072
#
# Compressibility (1/GPa) = 0.02755835
#
# Stress axis : x y z
#
# Youngs Moduli (GPa) = 45.72827 84.43103 52.56168
#
# Poissons Ratio (x) = 0.62031 -0.00885
# Poissons Ratio (y) = 0.33596 0.28441
# Poissons Ratio (z) = -0.00770 0.45686
#
# Static dielectric constant tensor:
#      x y z
#    x 1.609740 0.000000 0.000460 
#    y 0.000000 1.616220 0.000000 
#    z 0.000460 0.000000 1.638500 
# 
# From -- ./inp_files/266161.got.cif
#   From: 2010.05.17/outbox.cif.g08.bks.cpg/sg12_134_cif.got.tgz:266161.got - 2010.06.03 13:09:07.
