data_PCOD9187408
_publ_section_title
;
Structure prediction by ZEFSAII (Michael W. Deem and Ramdas Pophale) SiO2 
 PCOD9187408
Probable space group: C 2/M
;
_chemical_formula_sum "Si O2"
_cell_formula_units_Z 64
_cell_length_a 21.871966
_cell_length_b 15.573912
_cell_length_c 28.392220
_cell_angle_alpha 90.000000
_cell_angle_beta 160.833770
_cell_angle_gamma 90.000000
_cell_volume 3175.184530
_symmetry_space_group_name_H-M "C 2/M"
_symmetry_group_IT_number 12
_symmetry_cell_setting 'monoclinic'
loop_
_space_group_symop_operation_xyz
x,y,z
-x,y,-z
-x,-y,-z
x,-y,z
1/2+x,1/2+y,z
1/2-x,1/2+y,-z
1/2-x,1/2-y,-z
1/2+x,1/2-y,z
loop_
_atom_site_type_symbol
_atom_site_label
_atom_site_fract_x
_atom_site_fract_y
_atom_site_fract_z
Si Si1 0.685797 0.849747 0.387522
Si Si2 0.789939 0.604885 0.843316
Si Si3 0.440798 0.396055 0.848934
Si Si4 0.546027 0.400733 0.339018
Si Si5 0.917942 0.603741 0.347870
Si Si6 0.826788 0.836116 0.664618
Si Si7 0.018368 0.099808 0.565086
Si Si8 0.319663 0.899265 0.172095
O O1 0.806619 0.846343 0.523558
O O2 0.646711 0.759318 0.335166
O O3 0.490861 0.890586 0.260754
O O4 0.823591 0.896707 0.451253
O O5 0.797517 0.500000 0.846087
O O6 0.659405 0.624475 0.793139
O O7 0.675785 0.636791 0.714496
O O8 0.000000 0.636740 0.000000
O O9 0.451710 0.500000 0.850789
O O10 0.260904 0.378875 0.750245
O O11 0.413227 0.354546 0.777983
O O12 0.628381 0.364844 0.011214
O O13 0.577465 0.500000 0.376370
O O14 0.582270 0.393122 0.310451
O O15 0.946523 0.500000 0.367491
O O16 0.879062 0.635899 0.266393
O O17 0.106532 0.644022 0.504943
O O18 0.000000 0.140126 0.500000
O O19 0.070315 0.000000 0.596153
O O20 0.284306 0.000000 0.155005
#
# Coordination Sequence:
#
# PCOD9187408 Si02
#       8
#     8   8   8   8   8   8   8   8
#     4  11  22  36  59  82 118 155 194 228 289 352
#     4   8  15  30  53  78 104 133 173 231 284 321
#     4  10  22  39  59  90 120 149 193 246 296 342
#     4  10  19  35  59  84 110 147 200 245 277 332
#     4  10  20  37  64  88 112 152 200 244 286 343
#     4  12  23  35  58  85 123 152 187 237 296 351
#     4   9  18  34  56  80 106 140 193 241 273 325
#     4  10  20  38  64  87 114 154 199 241 285 343
#
# _framework density 20.156309
#
# number of rings (size 3 to 8) (size 9 to 14) (size 15 to 20)
#    0.000    2.000    1.250    4.125    0.000    4.000 
#    2.250    0.000    5.500    0.000    0.000    0.000 
#    0.000    0.000    0.000    0.000    0.000    0.000 
#
# Total GULP energy -178659.740356 kJ/mol
# GULP energy per Si atom -5583.116886 kJ/mol
# Density = 2.011043 g / cm^3
# Si number density = 20.156309 Si / 1000 Ang^3
#
#
#
# Elastic Constant Matrix: (Units=GPa)
#
#
# Indices 1 2 3 4 5 6 
#
# 1 80.9037 -10.4923 14.2325 -0.3310 -5.0792 -0.0049
# 2 -10.4923 21.8290 -12.7468 -0.1974 -7.7987 0.0035
# 3 14.2325 -12.7468 59.3551 -0.6752 7.7318 0.0582
# 4 -0.3310 -0.1974 -0.6752 43.8284 0.1208 -25.6534
# 5 -5.0792 -7.7987 7.7318 0.1208 22.1059 -0.0093
# 6 -0.0049 0.0035 0.0582 -25.6534 -0.0093 -0.3421
#
#
#
# Elastic Compliance Matrix: (Units=1/GPa)
#
#
# Indices 1 2 3 4 5 6 
#
# 1 0.014276 0.007798 -0.002655 -0.000008 0.006960 -0.000155
# 2 0.007798 0.062045 0.008771 0.000028 0.020612 -0.000664
# 3 -0.002655 0.008771 0.019955 0.000055 -0.004496 -0.000486
# 4 -0.000008 0.000028 0.000055 0.000508 -0.000030 -0.038114
# 5 0.006960 0.020612 -0.004496 -0.000030 0.055680 0.000081
# 6 -0.000155 -0.000664 -0.000486 -0.038114 0.000081 -0.065098
#
#
# Mechanical properties :
#
#
# Convention : Reuss Voigt Hill
#
# Bulk Modulus (GPa) = 8.05792 16.00827 12.03310
# Shear Modulus (GPa) = 49.55085 24.52475 37.03780
#
# Velocity S-wave (km/s) = 4.96353 3.49195 4.29129
# Velocity P-wave (km/s) = 6.07085 4.92113 5.52598
#
# Compressibility (1/GPa) = 0.12410149
#
# Stress axis : x y z
#
# Youngs Moduli (GPa) = 70.04962 16.11743 50.11358
#
# Poissons Ratio (x) = -0.12568 0.13305
# Poissons Ratio (y) = -0.54622 -0.43953
# Poissons Ratio (z) = 0.18598 -0.14136
#
# Static dielectric constant tensor:
#      x y z
#    x 1.701380 -0.000020 -0.006070 
#    y -0.000020 1.751080 0.000000 
#    z -0.006070 0.000000 1.691640 
# 
# From -- ./inp_files/366838.got.cif
#   From: 2010.05.17/outbox.cif.g08.bks.cpg/sg12_184_cif.got.tgz:366838.got - 2010.06.03 13:09:07.
