data_PCOD9187554
_publ_section_title
;
Structure prediction by ZEFSAII (Michael W. Deem and Ramdas Pophale) SiO2 
 PCOD9187554
Probable space group: C 2/M
;
_chemical_formula_sum "Si O2"
_cell_formula_units_Z 48
_cell_length_a 28.519951
_cell_length_b 8.900123
_cell_length_c 15.057804
_cell_angle_alpha 90.000000
_cell_angle_beta 38.742349
_cell_angle_gamma 90.000000
_cell_volume 2391.968153
_symmetry_space_group_name_H-M "C 2/M"
_symmetry_group_IT_number 12
_symmetry_cell_setting 'monoclinic'
loop_
_space_group_symop_operation_xyz
x,y,z
-x,y,-z
-x,-y,-z
x,-y,z
1/2+x,1/2+y,z
1/2-x,1/2+y,-z
1/2-x,1/2-y,-z
1/2+x,1/2-y,z
loop_
_atom_site_type_symbol
_atom_site_label
_atom_site_fract_x
_atom_site_fract_y
_atom_site_fract_z
Si Si1 0.840925 0.678955 0.562728
Si Si2 0.189001 0.322533 0.712651
Si Si3 0.151059 0.678361 0.080523
Si Si4 0.946076 0.675256 0.948208
Si Si5 0.322889 0.678366 0.775638
Si Si6 0.597238 0.322684 0.696275
O O1 0.843137 0.500000 0.555529
O O2 0.760210 0.740703 0.649531
O O3 0.852343 0.736712 0.645750
O O4 0.898397 0.749706 0.407550
O O5 0.205131 0.500000 0.678710
O O6 0.161995 0.250723 0.660669
O O7 0.119146 0.306981 0.883260
O O8 0.150753 0.500000 0.100648
O O9 0.091305 0.707381 0.091981
O O10 0.139884 0.768817 0.187561
O O11 0.234097 0.713758 0.919647
O O12 0.970300 0.500000 0.914993
O O13 0.017729 0.778277 0.855863
O O14 0.329780 0.500000 0.753003
O O15 0.607102 0.500000 0.677203
#
# Coordination Sequence:
#
# PCOD9187554 Si02
#       6
#     8   8   8   8   8   8
#     4  12  24  40  62  88 119 158 201 246 297 352
#     4  11  22  41  65  89 118 156 200 246 295 350
#     4   9  18  35  59  89 120 154 193 238 292 351
#     4  10  21  40  63  88 121 159 197 240 295 352
#     4  10  19  35  59  90 121 153 193 243 295 347
#     4  12  26  41  58  86 123 159 199 247 297 352
#
# _framework density 20.067156000000001
#
# number of rings (size 3 to 8) (size 9 to 14) (size 15 to 20)
#    0.000    1.333    1.667    5.000    0.000    4.667 
#    0.000    0.833    0.000    5.000    0.000    0.000 
#    0.000    0.000    0.000    0.000    0.000    0.000 
#
# Total GULP energy -134266.342092 kJ/mol
# GULP energy per Si atom -5594.430921 kJ/mol
# Density = 2.002148 g / cm^3
# Si number density = 20.067156 Si / 1000 Ang^3
#
#
#
# Elastic Constant Matrix: (Units=GPa)
#
#
# Indices 1 2 3 4 5 6 
#
# 1 54.8665 33.7440 10.2706 0.0000 21.4854 0.0000
# 2 33.7440 98.1160 35.4546 -0.0004 15.6074 0.0001
# 3 10.2706 35.4546 56.5991 -0.0001 13.8068 0.0000
# 4 0.0000 -0.0004 -0.0001 28.1374 0.0000 2.2419
# 5 21.4854 15.6074 13.8068 0.0000 31.9035 0.0000
# 6 0.0000 0.0001 0.0000 2.2419 0.0000 32.7921
#
#
#
# Elastic Compliance Matrix: (Units=1/GPa)
#
#
# Indices 1 2 3 4 5 6 
#
# 1 0.029899 -0.009139 0.004607 0.000000 -0.017659 0.000000
# 2 -0.009139 0.016268 -0.009048 0.000000 0.002111 0.000000
# 3 0.004607 -0.009048 0.024794 0.000000 -0.009406 0.000000
# 4 0.000000 0.000000 0.000000 0.035735 0.000000 -0.002443
# 5 -0.017659 0.002111 -0.009406 0.000000 0.046275 0.000000
# 6 0.000000 0.000000 0.000000 -0.002443 0.000000 0.030662
#
#
# Mechanical properties :
#
#
# Convention : Reuss Voigt Hill
#
# Bulk Modulus (GPa) = 22.82952 40.94667 31.88809
# Shear Modulus (GPa) = 22.18345 27.24076 24.71211
#
# Velocity S-wave (km/s) = 3.32845 3.68840 3.51304
# Velocity P-wave (km/s) = 5.11593 6.21194 5.69038
#
# Compressibility (1/GPa) = 0.04380294
#
# Stress axis : x y z
#
# Youngs Moduli (GPa) = 33.44580 61.46849 40.33178
#
# Poissons Ratio (x) = 0.56173 -0.18579
# Poissons Ratio (y) = 0.30565 0.36490
# Poissons Ratio (z) = -0.15407 0.55614
#
# Static dielectric constant tensor:
#      x y z
#    x 1.692750 0.000000 0.004660 
#    y 0.000000 1.670490 0.000000 
#    z 0.004660 0.000000 1.727240 
# 
# From -- ./inp_files/244674.got.cif
#   From: 2010.05.17/outbox.cif.g08.bks.cpg/sg12_123_cif.got.tgz:244674.got - 2010.06.03 13:09:07.
