data_PCOD9187218
_publ_section_title
;
Structure prediction by ZEFSAII (Michael W. Deem and Ramdas Pophale) SiO2 
 PCOD9187218
Probable space group: C 2/M
;
_chemical_formula_sum "Si O2"
_cell_formula_units_Z 36
_cell_length_a 10.945095
_cell_length_b 15.045423
_cell_length_c 11.420289
_cell_angle_alpha 90.000000
_cell_angle_beta 51.694911
_cell_angle_gamma 90.000000
_cell_volume 1475.762544
_symmetry_space_group_name_H-M "C 2/M"
_symmetry_group_IT_number 12
_symmetry_cell_setting 'monoclinic'
loop_
_space_group_symop_operation_xyz
x,y,z
-x,y,-z
-x,-y,-z
x,-y,z
1/2+x,1/2+y,z
1/2-x,1/2+y,-z
1/2-x,1/2-y,-z
1/2+x,1/2-y,z
loop_
_atom_site_type_symbol
_atom_site_label
_atom_site_fract_x
_atom_site_fract_y
_atom_site_fract_z
Si Si1 0.663667 0.400338 0.838655
Si Si2 0.500000 0.329977 0.500000
Si Si3 0.738275 0.353827 0.034877
Si Si4 0.165348 0.399904 0.771067
Si Si5 0.921520 0.780970 0.293080
O O1 0.652809 0.500000 0.798976
O O2 0.707319 0.329845 0.713160
O O3 0.500000 0.374004 0.000000
O O4 0.767527 0.400212 0.894098
O O5 0.346975 0.386314 0.625765
O O6 0.433672 0.276800 0.425639
O O7 0.834020 0.386262 0.088715
O O8 0.559236 0.352885 0.185681
O O9 0.750000 0.250000 0.000000
O O10 0.116986 0.500000 0.770173
O O11 0.075708 0.317639 0.763117
#
# Coordination Sequence:
#
# PCOD9187218 Si02
#       5
#     8   4   8   8   8
#     4   9  17  31  54  82 109 141 184 231 280 333
#     4  10  23  40  61  80 112 154 205 246 287 334
#     4  10  19  35  58  83 119 151 185 230 287 349
#     4  11  22  38  61  87 116 153 195 242 291 347
#     4  10  21  37  59  83 115 150 190 243 288 336
#
# _framework density 24.394169000000002
#
# number of rings (size 3 to 8) (size 9 to 14) (size 15 to 20)
#    0.000    2.000    2.222    1.667    0.000    6.222 
#    0.000    3.889    0.000    0.000    0.000    0.000 
#    0.000    0.000    0.000    0.000    0.000    0.000 
#
# Total GULP energy -100274.969452 kJ/mol
# GULP energy per Si atom -5570.831636 kJ/mol
# Density = 2.433865 g / cm^3
# Si number density = 24.394169 Si / 1000 Ang^3
#
#
#
# Elastic Constant Matrix: (Units=GPa)
#
#
# Indices 1 2 3 4 5 6 
#
# 1 113.5458 61.5045 70.4114 0.0000 32.6979 0.0000
# 2 61.5045 169.1613 51.7299 0.0000 49.9116 0.0000
# 3 70.4114 51.7299 93.6878 0.0000 47.9386 0.0000
# 4 0.0000 0.0000 0.0000 19.3075 0.0000 3.0663
# 5 32.6979 49.9116 47.9386 0.0000 62.7280 0.0000
# 6 0.0000 0.0000 0.0000 3.0663 0.0000 32.0684
#
#
#
# Elastic Compliance Matrix: (Units=1/GPa)
#
#
# Indices 1 2 3 4 5 6 
#
# 1 0.018013 -0.003521 -0.013503 0.000000 0.003731 0.000000
# 2 -0.003521 0.008611 0.000753 0.000000 -0.005592 0.000000
# 3 -0.013503 0.000753 0.028099 0.000000 -0.015035 0.000000
# 4 0.000000 0.000000 0.000000 0.052592 0.000000 -0.005029
# 5 0.003731 -0.005592 -0.015035 0.000000 0.029936 0.000000
# 6 0.000000 0.000000 0.000000 -0.005029 0.000000 0.031664
#
#
# Mechanical properties :
#
#
# Convention : Reuss Voigt Hill
#
# Bulk Modulus (GPa) = 45.08317 82.63183 63.85750
# Shear Modulus (GPa) = 23.94035 35.67073 29.80554
#
# Velocity S-wave (km/s) = 3.13612 3.82811 3.49926
# Velocity P-wave (km/s) = 5.62449 7.31343 6.52385
#
# Compressibility (1/GPa) = 0.02218122
#
# Stress axis : x y z
#
# Youngs Moduli (GPa) = 55.51514 116.12495 35.58798
#
# Poissons Ratio (x) = 0.40888 0.48054
# Poissons Ratio (y) = 0.19547 -0.02679
# Poissons Ratio (z) = 0.74962 -0.08740
#
# Static dielectric constant tensor:
#      x y z
#    x 2.262430 0.000000 -0.090040 
#    y 0.000000 1.925180 0.000000 
#    z -0.090040 0.000000 2.121410 
# 
# From -- ./inp_files/128958.got.cif
#   From: 2010.05.17/outbox.cif.g08.bks.cpg/sg12_65_cif.got.tgz:128958.got - 2010.06.03 13:09:07.
