data_PCOD9187364
_publ_section_title
;
Structure prediction by ZEFSAII (Michael W. Deem and Ramdas Pophale) SiO2 
 PCOD9187364
Probable space group: C 2/M
;
_chemical_formula_sum "Si O2"
_cell_formula_units_Z 56
_cell_length_a 9.778867
_cell_length_b 31.809816
_cell_length_c 12.243560
_cell_angle_alpha 90.000000
_cell_angle_beta 125.931919
_cell_angle_gamma 90.000000
_cell_volume 3083.823512
_symmetry_space_group_name_H-M "C 2/M"
_symmetry_group_IT_number 12
_symmetry_cell_setting 'monoclinic'
loop_
_space_group_symop_operation_xyz
x,y,z
-x,y,-z
-x,-y,-z
x,-y,z
1/2+x,1/2+y,z
1/2-x,1/2+y,-z
1/2-x,1/2-y,-z
1/2+x,1/2-y,z
loop_
_atom_site_type_symbol
_atom_site_label
_atom_site_fract_x
_atom_site_fract_y
_atom_site_fract_z
Si Si1 0.093186 0.160806 0.299630
Si Si2 0.448480 0.743745 0.599719
Si Si3 0.308197 0.550286 0.374766
Si Si4 0.881963 0.606356 0.543179
Si Si5 0.633541 0.822787 0.754165
Si Si6 0.298943 0.048425 0.920498
Si Si7 0.651472 0.378131 0.985614
O O1 0.024864 0.196516 0.347446
O O2 0.211371 0.126605 0.413939
O O3 0.219736 0.181004 0.268617
O O4 0.939644 0.140771 0.162584
O O5 0.500000 0.751141 0.500000
O O6 0.250000 0.750000 0.500000
O O7 0.542371 0.777873 0.719688
O O8 0.500000 0.560501 0.500000
O O9 0.284939 0.500000 0.375333
O O10 0.176128 0.574148 0.390981
O O11 0.280083 0.560489 0.234091
O O12 0.000000 0.588659 0.500000
O O13 0.993666 0.644335 0.644854
O O14 0.722646 0.844527 0.899566
O O15 0.243420 0.079775 0.989723
O O16 0.250964 0.000000 0.921558
O O17 0.500000 0.050175 0.000000
O O18 0.500000 0.387078 0.000000
#
# Coordination Sequence:
#
# PCOD9187364 Si02
#       7
#     8   8   8   8   8   8   8
#     4  10  21  37  57  84 112 146 186 235 284 329
#     4  12  21  38  62  85 112 150 192 232 279 345
#     4  10  21  36  55  83 118 148 183 238 289 333
#     4  10  19  35  59  81 110 150 191 233 280 338
#     4  10  20  38  57  80 113 145 185 241 282 324
#     4  10  21  39  59  82 117 154 187 233 289 342
#     4  10  22  39  59  83 115 150 191 238 286 334
#
# _framework density 18.159275000000001
#
# number of rings (size 3 to 8) (size 9 to 14) (size 15 to 20)
#    0.000    1.714    2.857    2.143    0.000    2.857 
#    2.571    0.000    0.000   10.286    0.000    0.000 
#    0.000    0.000    0.000    0.000    0.000    0.000 
#
# Total GULP energy -156229.481339 kJ/mol
# GULP energy per Si atom -5579.624334 kJ/mol
# Density = 1.811794 g / cm^3
# Si number density = 18.159275 Si / 1000 Ang^3
#
#
#
# Elastic Constant Matrix: (Units=GPa)
#
#
# Indices 1 2 3 4 5 6 
#
# 1 67.4767 45.0244 21.4164 0.0000 -1.4868 0.0000
# 2 45.0244 74.9461 33.8793 0.0000 -12.6090 0.0000
# 3 21.4164 33.8793 109.8640 0.0000 11.2123 0.0000
# 4 0.0000 0.0000 0.0000 17.7523 0.0000 -11.6666
# 5 -1.4868 -12.6090 11.2123 0.0000 13.0557 0.0000
# 6 0.0000 0.0000 0.0000 -11.6666 0.0000 31.0052
#
#
#
# Elastic Compliance Matrix: (Units=1/GPa)
#
#
# Indices 1 2 3 4 5 6 
#
# 1 0.027764 -0.021696 0.003391 0.000000 -0.020704 0.000000
# 2 -0.021696 0.040303 -0.013065 0.000000 0.047673 0.000000
# 3 0.003391 -0.013065 0.015036 0.000000 -0.025144 0.000000
# 4 0.000000 0.000000 0.000000 0.074837 0.000000 0.028159
# 5 -0.020704 0.047673 -0.025144 0.000000 0.141873 0.000000
# 6 0.000000 0.000000 0.000000 0.028159 0.000000 0.042848
#
#
# Mechanical properties :
#
#
# Convention : Reuss Voigt Hill
#
# Bulk Modulus (GPa) = 49.10366 50.32521 49.71444
# Shear Modulus (GPa) = 12.13040 22.49377 17.31208
#
# Velocity S-wave (km/s) = 2.58737 3.52333 3.09098
# Velocity P-wave (km/s) = 6.00210 6.65771 6.33839
#
# Compressibility (1/GPa) = 0.02036508
#
# Stress axis : x y z
#
# Youngs Moduli (GPa) = 36.01785 24.81196 66.50688
#
# Poissons Ratio (x) = 0.53831 -0.22553
# Poissons Ratio (y) = 0.78143 0.86889
# Poissons Ratio (z) = -0.12214 0.32416
#
# Static dielectric constant tensor:
#      x y z
#    x 1.602770 0.000000 0.001900 
#    y 0.000000 1.955290 0.000000 
#    z 0.001900 0.000000 1.636950 
# 
# From -- ./inp_files/125853.got.cif
#   From: 2010.05.17/outbox.cif.g08.bks.cpg/sg12_63_cif.got.tgz:125853.got - 2010.06.03 13:09:07.
