data_PCOD9187999
_publ_section_title
;
Structure prediction by ZEFSAII (Michael W. Deem and Ramdas Pophale) SiO2 
 PCOD9187999
Probable space group: C 2/M
;
_chemical_formula_sum "Si O2"
_cell_formula_units_Z 52
_cell_length_a 21.247515
_cell_length_b 11.674915
_cell_length_c 13.003412
_cell_angle_alpha 90.000000
_cell_angle_beta 117.962785
_cell_angle_gamma 90.000000
_cell_volume 2849.075718
_symmetry_space_group_name_H-M "C 2/M"
_symmetry_group_IT_number 12
_symmetry_cell_setting 'monoclinic'
loop_
_space_group_symop_operation_xyz
x,y,z
-x,y,-z
-x,-y,-z
x,-y,z
1/2+x,1/2+y,z
1/2-x,1/2+y,-z
1/2-x,1/2-y,-z
1/2+x,1/2-y,z
loop_
_atom_site_type_symbol
_atom_site_label
_atom_site_fract_x
_atom_site_fract_y
_atom_site_fract_z
Si Si1 0.824785 0.793048 0.510292
Si Si2 0.632016 0.500000 0.309639
Si Si3 0.198066 0.866453 0.740043
Si Si4 0.963041 0.363256 0.582336
Si Si5 0.531892 0.500000 0.856109
Si Si6 0.807413 0.248997 0.953630
Si Si7 0.842614 0.000000 0.897899
Si Si8 0.418144 0.261987 0.199673
O O1 0.750000 0.750000 0.500000
O O2 0.853777 0.889620 0.609962
O O3 0.810026 0.846426 0.386922
O O4 0.887033 0.698741 0.541098
O O5 0.552314 0.500000 0.205489
O O6 0.674982 0.500000 0.236162
O O7 0.275739 0.827644 0.839963
O O8 0.140678 0.788188 0.757076
O O9 0.186256 0.000000 0.756310
O O10 0.954769 0.500000 0.582197
O O11 0.000000 0.335917 0.500000
O O12 0.019177 0.315920 0.708893
O O13 0.553693 0.386647 0.810972
O O14 0.576007 0.500000 0.996251
O O15 0.812952 0.118272 0.920450
O O16 0.750000 0.250000 0.000000
O O17 0.879590 0.284990 0.067231
#
# Coordination Sequence:
#
# PCOD9187999 Si02
#       8
#     8   4   8   8   4   8   4   8
#     4  12  26  41  61  90 127 168 213 257 316 386
#     4  12  23  39  64  89 115 171 205 251 325 366
#     4  11  21  38  61  89 123 161 210 260 313 367
#     4  11  24  42  63  90 126 169 212 266 320 378
#     4  10  19  35  66  91 115 151 196 267 308 365
#     4   9  21  36  60  89 123 162 197 259 317 367
#     4  10  21  40  56  92 129 152 207 256 309 377
#     4  10  19  38  62  92 120 153 207 262 316 364
#
# _framework density 18.251532999999998
#
# number of rings (size 3 to 8) (size 9 to 14) (size 15 to 20)
#    0.000    1.385    4.615    1.154    4.308    0.615 
#    5.538    2.308    0.000    0.000    0.000    4.308 
#    0.000    0.000    0.000    0.000    0.000    0.000 
#
# Total GULP energy -144997.431065 kJ/mol
# GULP energy per Si atom -5576.824272 kJ/mol
# Density = 1.820999 g / cm^3
# Si number density = 18.251533 Si / 1000 Ang^3
#
#
#
# Elastic Constant Matrix: (Units=GPa)
#
#
# Indices 1 2 3 4 5 6 
#
# 1 90.1103 49.0861 42.2148 0.0000 7.3274 0.0000
# 2 49.0861 88.2928 59.9407 0.0000 8.0742 0.0000
# 3 42.2148 59.9407 140.4694 0.0000 -0.2257 0.0000
# 4 0.0000 0.0000 0.0000 28.9956 0.0000 3.1549
# 5 7.3274 8.0742 -0.2257 0.0000 31.5899 0.0000
# 6 0.0000 0.0000 0.0000 3.1549 0.0000 24.6223
#
#
#
# Elastic Compliance Matrix: (Units=1/GPa)
#
#
# Indices 1 2 3 4 5 6 
#
# 1 0.016218 -0.007803 -0.001547 0.000000 -0.001778 0.000000
# 2 -0.007803 0.020256 -0.006304 0.000000 -0.003412 0.000000
# 3 -0.001547 -0.006304 0.010277 0.000000 0.002043 0.000000
# 4 0.000000 0.000000 0.000000 0.034976 0.000000 -0.004482
# 5 -0.001778 -0.003412 0.002043 0.000000 0.032955 0.000000
# 6 0.000000 0.000000 0.000000 -0.004482 0.000000 0.041188
#
#
# Mechanical properties :
#
#
# Convention : Reuss Voigt Hill
#
# Bulk Modulus (GPa) = 64.75693 69.03953 66.89823
# Shear Modulus (GPa) = 25.99775 28.21697 27.10736
#
# Velocity S-wave (km/s) = 3.77824 3.93619 3.85802
# Velocity P-wave (km/s) = 7.38855 7.65291 7.52189
#
# Compressibility (1/GPa) = 0.01544236
#
# Stress axis : x y z
#
# Youngs Moduli (GPa) = 61.66178 49.36841 97.30357
#
# Poissons Ratio (x) = 0.38524 0.15051
# Poissons Ratio (y) = 0.48117 0.61339
# Poissons Ratio (z) = 0.09538 0.31121
#
# Static dielectric constant tensor:
#      x y z
#    x 1.680740 0.000000 -0.011610 
#    y 0.000000 1.591240 0.000000 
#    z -0.011610 0.000000 1.660320 
# 
# From -- ./inp_files/165809.got.cif
#   From: 2010.05.17/outbox.cif.g08.bks.cpg/sg12_83_cif.got.tgz:165809.got - 2010.06.03 13:09:07.
