data_PCOD9187157
_publ_section_title
;
Structure prediction by ZEFSAII (Michael W. Deem and Ramdas Pophale) SiO2 
 PCOD9187157
Probable space group: C 2/M
;
_chemical_formula_sum "Si O2"
_cell_formula_units_Z 64
_cell_length_a 20.808099
_cell_length_b 8.394457
_cell_length_c 16.802989
_cell_angle_alpha 90.000000
_cell_angle_beta 103.043383
_cell_angle_gamma 90.000000
_cell_volume 2859.298135
_symmetry_space_group_name_H-M "C 2/M"
_symmetry_group_IT_number 12
_symmetry_cell_setting 'monoclinic'
loop_
_space_group_symop_operation_xyz
x,y,z
-x,y,-z
-x,-y,-z
x,-y,z
1/2+x,1/2+y,z
1/2-x,1/2+y,-z
1/2-x,1/2-y,-z
1/2+x,1/2-y,z
loop_
_atom_site_type_symbol
_atom_site_label
_atom_site_fract_x
_atom_site_fract_y
_atom_site_fract_z
Si Si1 0.931102 0.190734 0.444856
Si Si2 0.167375 0.818168 0.180634
Si Si3 0.709718 0.813830 0.585559
Si Si4 0.854877 0.811706 0.636852
Si Si5 0.499988 0.692281 0.693227
Si Si6 0.700319 0.318689 0.757857
Si Si7 0.578537 0.812751 0.021210
Si Si8 0.408886 0.190653 0.154117
O O1 0.861240 0.245505 0.460770
O O2 0.000000 0.251637 0.500000
O O3 0.942897 0.230315 0.355109
O O4 0.931528 0.000000 0.453231
O O5 0.146961 0.800979 0.267153
O O6 0.227853 0.699813 0.183493
O O7 0.190417 0.000000 0.176778
O O8 0.110518 0.781390 0.102430
O O9 0.783516 0.744650 0.587258
O O10 0.704144 0.788135 0.679636
O O11 0.711033 0.000000 0.567586
O O12 0.928771 0.749709 0.641079
O O13 0.854142 0.000000 0.615443
O O14 0.495858 0.500000 0.697291
O O15 0.522593 0.759635 0.784122
O O16 0.687671 0.500000 0.728195
O O17 0.647431 0.265077 0.807032
O O18 0.598965 0.756117 0.938949
O O19 0.595755 0.000000 0.034415
O O20 0.500000 0.801121 0.000000
O O21 0.405240 0.000000 0.154510
#
# Coordination Sequence:
#
# PCOD9187157 Si02
#       8
#     8   8   8   8   8   8   8   8
#     4  10  21  36  56  84 116 150 186 226 274 330
#     4  10  20  35  55  79 108 141 185 235 279 327
#     4  10  19  35  58  83 113 144 184 232 277 328
#     4   8  17  33  55  82 108 143 186 231 277 321
#     4  10  19  35  58  81 109 145 188 229 272 331
#     4  11  21  35  56  80 107 143 183 224 278 335
#     4  10  22  38  53  74 108 147 183 227 283 333
#     4  11  22  35  54  80 110 141 182 232 276 323
#
# _framework density 22.383113999999999
#
# number of rings (size 3 to 8) (size 9 to 14) (size 15 to 20)
#    0.000    2.000    1.250    3.750    0.000    2.000 
#    0.000    3.750    0.000    0.000    0.000    0.000 
#    0.000    0.000    0.000    0.000    0.000    0.000 
#
# Total GULP energy -178692.875501 kJ/mol
# GULP energy per Si atom -5584.152359 kJ/mol
# Density = 2.233217 g / cm^3
# Si number density = 22.383114 Si / 1000 Ang^3
#
#
#
# Elastic Constant Matrix: (Units=GPa)
#
#
# Indices 1 2 3 4 5 6 
#
# 1 138.0952 15.0576 16.4089 0.0000 14.6303 0.0000
# 2 15.0576 36.7122 11.8622 0.0000 3.6962 0.0000
# 3 16.4089 11.8622 83.2131 0.0000 17.7777 0.0000
# 4 0.0000 0.0000 0.0000 26.9727 0.0000 10.0303
# 5 14.6303 3.6962 17.7777 0.0000 36.7677 0.0000
# 6 0.0000 0.0000 0.0000 10.0303 0.0000 26.0067
#
#
#
# Elastic Compliance Matrix: (Units=1/GPa)
#
#
# Indices 1 2 3 4 5 6 
#
# 1 0.007889 -0.002780 -0.000612 0.000000 -0.002564 0.000000
# 2 -0.002780 0.029567 -0.003644 0.000000 -0.000104 0.000000
# 3 -0.000612 -0.003644 0.013970 0.000000 -0.006145 0.000000
# 4 0.000000 0.000000 0.000000 0.043282 0.000000 -0.016693
# 5 -0.002564 -0.000104 -0.006145 0.000000 0.031200 0.000000
# 6 0.000000 0.000000 0.000000 -0.016693 0.000000 0.044890
#
#
# Mechanical properties :
#
#
# Convention : Reuss Voigt Hill
#
# Bulk Modulus (GPa) = 26.77059 38.29753 32.53406
# Shear Modulus (GPa) = 25.33939 32.26220 28.80079
#
# Velocity S-wave (km/s) = 3.36828 3.80065 3.59098
# Velocity P-wave (km/s) = 5.20704 6.03383 5.63561
#
# Compressibility (1/GPa) = 0.03735443
#
# Stress axis : x y z
#
# Youngs Moduli (GPa) = 126.76216 33.82132 71.58038
#
# Poissons Ratio (x) = 0.09402 0.04378
# Poissons Ratio (y) = 0.35238 0.26087
# Poissons Ratio (z) = 0.07752 0.12326
#
# Static dielectric constant tensor:
#      x y z
#    x 1.854880 0.000000 0.025000 
#    y 0.000000 1.777190 0.000000 
#    z 0.025000 0.000000 1.881080 
# 
# From -- ./inp_files/320082.got.cif
#   From: 2010.05.17/outbox.cif.g08.bks.cpg/sg12_161_cif.got.tgz:320082.got - 2010.06.03 13:09:07.
