data_PCOD9187276
_publ_section_title
;
Structure prediction by ZEFSAII (Michael W. Deem and Ramdas Pophale) SiO2 
 PCOD9187276
Probable space group: C 2/M
;
_chemical_formula_sum "Si O2"
_cell_formula_units_Z 48
_cell_length_a 20.054797
_cell_length_b 10.847739
_cell_length_c 12.530175
_cell_angle_alpha 90.000000
_cell_angle_beta 46.502668
_cell_angle_gamma 90.000000
_cell_volume 1977.406836
_symmetry_space_group_name_H-M "C 2/M"
_symmetry_group_IT_number 12
_symmetry_cell_setting 'monoclinic'
loop_
_space_group_symop_operation_xyz
x,y,z
-x,y,-z
-x,-y,-z
x,-y,z
1/2+x,1/2+y,z
1/2-x,1/2+y,-z
1/2-x,1/2-y,-z
1/2+x,1/2-y,z
loop_
_atom_site_type_symbol
_atom_site_label
_atom_site_fract_x
_atom_site_fract_y
_atom_site_fract_z
Si Si1 0.138780 0.000000 0.920401
Si Si2 0.432085 0.500000 0.243793
Si Si3 0.449806 0.850912 0.712708
Si Si4 0.370423 0.261607 0.449369
Si Si5 0.411202 0.139576 0.997723
Si Si6 0.679622 0.144925 0.711057
Si Si7 0.241349 0.734325 0.135956
O O1 0.120044 0.000000 0.813542
O O2 0.198058 0.881108 0.889685
O O3 0.040279 0.000000 0.090939
O O4 0.402367 0.383404 0.349024
O O5 0.547200 0.795400 0.574454
O O6 0.366033 0.794184 0.738706
O O7 0.445587 0.000000 0.712100
O O8 0.442556 0.812667 0.847982
O O9 0.343974 0.165649 0.386417
O O10 0.277422 0.287844 0.616549
O O11 0.408682 0.191680 0.122059
O O12 0.298749 0.147316 0.112368
O O13 0.444716 0.000000 0.963180
O O14 0.688025 0.000000 0.716998
O O15 0.250000 0.750000 0.000000
#
# Coordination Sequence:
#
# PCOD9187276 Si02
#       7
#     4   4   8   8   8   8   8
#     4  11  22  36  58  86 128 161 190 254 300 360
#     4  11  22  36  56  92 122 153 202 242 308 357
#     4  10  20  37  60  90 116 153 204 246 295 355
#     4  11  22  37  59  87 121 157 198 246 302 360
#     4   9  19  35  59  87 113 148 198 245 297 352
#     4  10  21  40  60  83 117 162 199 244 302 357
#     4  10  19  35  58  85 120 158 194 241 303 353
#
# _framework density 24.274214000000001
#
# number of rings (size 3 to 8) (size 9 to 14) (size 15 to 20)
#    0.000    1.833    1.667    3.500    1.167    2.000 
#    1.500    3.333    0.000    3.000    0.000    0.000 
#    0.000    0.000    0.000    0.000    0.000    0.000 
#
# Total GULP energy -133954.206275 kJ/mol
# GULP energy per Si atom -5581.425261 kJ/mol
# Density = 2.421897 g / cm^3
# Si number density = 24.274214 Si / 1000 Ang^3
#
#
#
# Elastic Constant Matrix: (Units=GPa)
#
#
# Indices 1 2 3 4 5 6 
#
# 1 50.9811 15.6667 24.1523 0.0000 -29.0913 0.0000
# 2 15.6667 90.7207 6.6878 0.0000 -10.9203 0.0000
# 3 24.1523 6.6878 169.2184 0.0000 -10.1034 0.0000
# 4 0.0000 0.0000 0.0000 18.1960 0.0000 -6.8854
# 5 -29.0913 -10.9203 -10.1034 0.0000 54.2858 0.0000
# 6 0.0000 0.0000 0.0000 -6.8854 0.0000 39.5660
#
#
#
# Elastic Compliance Matrix: (Units=1/GPa)
#
#
# Indices 1 2 3 4 5 6 
#
# 1 0.030944 -0.003253 -0.003375 0.000000 0.015300 0.000000
# 2 -0.003253 0.011655 0.000040 0.000000 0.000609 0.000000
# 3 -0.003375 0.000040 0.006353 0.000000 -0.000618 0.000000
# 4 0.000000 0.000000 0.000000 0.058831 0.000000 0.010238
# 5 0.015300 0.000609 -0.000618 0.000000 0.026628 0.000000
# 6 0.000000 0.000000 0.000000 0.010238 0.000000 0.027056
#
#
# Mechanical properties :
#
#
# Convention : Reuss Voigt Hill
#
# Bulk Modulus (GPa) = 27.95139 44.88153 36.41646
# Shear Modulus (GPa) = 26.79987 40.03711 33.41849
#
# Velocity S-wave (km/s) = 3.32632 4.06565 3.71443
# Velocity P-wave (km/s) = 5.12761 6.36937 5.78192
#
# Compressibility (1/GPa) = 0.03577640
#
# Stress axis : x y z
#
# Youngs Moduli (GPa) = 32.31601 85.80031 157.41373
#
# Poissons Ratio (x) = 0.27914 0.53120
# Poissons Ratio (y) = 0.10514 -0.00631
# Poissons Ratio (z) = 0.10905 -0.00344
#
# Static dielectric constant tensor:
#      x y z
#    x 2.342390 0.000000 0.253970 
#    y 0.000000 1.782280 0.000000 
#    z 0.253970 0.000000 2.169160 
# 
# From -- ./inp_files/232834.got.cif
#   From: 2010.05.17/outbox.cif.g08.bks.cpg/sg12_117_cif.got.tgz:232834.got - 2010.06.03 13:09:07.
