data_PCOD9187930
_publ_section_title
;
Structure prediction by ZEFSAII (Michael W. Deem and Ramdas Pophale) SiO2 
 PCOD9187930
Probable space group: C 2/M
;
_chemical_formula_sum "Si O2"
_cell_formula_units_Z 56
_cell_length_a 21.058880
_cell_length_b 17.543675
_cell_length_c 23.539632
_cell_angle_alpha 90.000000
_cell_angle_beta 19.729788
_cell_angle_gamma 90.000000
_cell_volume 2935.879623
_symmetry_space_group_name_H-M "C 2/M"
_symmetry_group_IT_number 12
_symmetry_cell_setting 'monoclinic'
loop_
_space_group_symop_operation_xyz
x,y,z
-x,y,-z
-x,-y,-z
x,-y,z
1/2+x,1/2+y,z
1/2-x,1/2+y,-z
1/2-x,1/2-y,-z
1/2+x,1/2-y,z
loop_
_atom_site_type_symbol
_atom_site_label
_atom_site_fract_x
_atom_site_fract_y
_atom_site_fract_z
Si Si1 0.478966 0.914314 0.627592
Si Si2 0.215754 0.287949 0.704197
Si Si3 0.452262 0.086021 0.888205
Si Si4 0.132744 0.790997 0.181116
Si Si5 0.626020 0.246110 0.318501
Si Si6 0.598590 0.350899 0.723718
Si Si7 0.201923 0.382361 0.098363
O O1 0.391308 0.845784 0.664523
O O2 0.700780 0.893263 0.446948
O O3 0.371088 0.908678 0.778989
O O4 0.459085 0.000000 0.621997
O O5 0.430608 0.280448 0.504738
O O6 0.211863 0.272343 0.774976
O O7 0.116487 0.221073 0.751509
O O8 0.133587 0.369227 0.756987
O O9 0.435082 0.085761 0.834524
O O10 0.437063 0.000000 0.922242
O O11 0.282256 0.141496 0.048995
O O12 0.128601 0.771449 0.251086
O O13 0.186839 0.709615 0.108561
O O14 0.953918 0.819975 0.295157
O O15 0.418953 0.398729 0.898334
#
# Coordination Sequence:
#
# PCOD9187930 Si02
#       7
#     8   8   8   8   8   8   8
#     4  10  22  36  57  90 120 148 189 245 295 332
#     4  10  19  39  57  84 108 154 200 225 286 347
#     4  11  21  34  58  87 117 144 186 248 296 330
#     4  10  19  37  58  87 110 153 197 235 278 350
#     4   9  22  37  60  79 112 156 198 235 271 356
#     4  10  19  35  63  82 116 155 197 229 284 352
#     4  10  19  37  59  88 119 154 189 237 285 353
#
# _framework density 19.074351
#
# number of rings (size 3 to 8) (size 9 to 14) (size 15 to 20)
#    0.000    2.000    2.857    1.286    2.000    5.143 
#    0.000    9.286    0.000    0.857    0.000    0.000 
#    0.000    0.000    0.000    0.000    0.000    0.000 
#
# Total GULP energy -156046.344005 kJ/mol
# GULP energy per Si atom -5573.083714 kJ/mol
# Density = 1.903094 g / cm^3
# Si number density = 19.074351 Si / 1000 Ang^3
#
#
#
# Elastic Constant Matrix: (Units=GPa)
#
#
# Indices 1 2 3 4 5 6 
#
# 1 91.5220 41.1032 5.1160 0.0219 13.6432 0.0014
# 2 41.1032 106.4718 54.2276 -0.0549 -53.3894 -0.0078
# 3 5.1160 54.2276 14.1211 0.0538 47.1443 -0.0149
# 4 0.0219 -0.0549 0.0538 7.3627 -0.0823 6.4673
# 5 13.6432 -53.3894 47.1443 -0.0823 -45.1736 0.0018
# 6 0.0014 -0.0078 -0.0149 6.4673 0.0018 -1.0247
#
#
#
# Elastic Compliance Matrix: (Units=1/GPa)
#
#
# Indices 1 2 3 4 5 6 
#
# 1 0.011640 -0.001746 -0.003599 -0.000012 0.001823 0.000012
# 2 -0.001746 0.006160 0.000679 0.000005 -0.007100 -0.000043
# 3 -0.003599 0.000679 0.016908 0.000041 0.015757 0.000031
# 4 -0.000012 0.000005 0.000041 0.020755 0.000001 0.130995
# 5 0.001823 -0.007100 0.015757 0.000001 0.003249 -0.000158
# 6 0.000012 -0.000043 0.000031 0.130995 -0.000158 -0.149134
#
#
# Mechanical properties :
#
#
# Convention : Reuss Voigt Hill
#
# Bulk Modulus (GPa) = 39.40732 45.88983 42.64858
# Shear Modulus (GPa) = -68.84251 -0.32260 -34.58255
#
# Velocity S-wave (km/s) = -6.01415 -0.41170 -4.26260
# Velocity P-wave (km/s) = 5.24614 4.88719 1.34858
#
# Compressibility (1/GPa) = 0.02537599
#
# Stress axis : x y z
#
# Youngs Moduli (GPa) = 85.91103 162.32656 59.14243
#
# Poissons Ratio (x) = 0.28346 0.21285
# Poissons Ratio (y) = 0.15002 -0.04015
# Poissons Ratio (z) = 0.30918 -0.11018
#
# Static dielectric constant tensor:
#      x y z
#    x 1.755480 0.000000 0.012910 
#    y 0.000000 1.652140 0.000010 
#    z 0.012910 0.000010 1.703720 
# 
# From -- ./inp_files/347771.got.cif
#   From: 2010.05.17/outbox.cif.g08.bks.cpg/sg12_174_cif.got.tgz:347771.got - 2010.06.03 13:09:07.
