data_PCOD9187961
_publ_section_title
;
Structure prediction by ZEFSAII (Michael W. Deem and Ramdas Pophale) SiO2 
 PCOD9187961
Probable space group: C 2/M
;
_chemical_formula_sum "Si O2"
_cell_formula_units_Z 64
_cell_length_a 12.277084
_cell_length_b 28.741761
_cell_length_c 18.302057
_cell_angle_alpha 90.000000
_cell_angle_beta 153.007906
_cell_angle_gamma 90.000000
_cell_volume 2931.147255
_symmetry_space_group_name_H-M "C 2/M"
_symmetry_group_IT_number 12
_symmetry_cell_setting 'monoclinic'
loop_
_space_group_symop_operation_xyz
x,y,z
-x,y,-z
-x,-y,-z
x,-y,z
1/2+x,1/2+y,z
1/2-x,1/2+y,-z
1/2-x,1/2-y,-z
1/2+x,1/2-y,z
loop_
_atom_site_type_symbol
_atom_site_label
_atom_site_fract_x
_atom_site_fract_y
_atom_site_fract_z
Si Si1 0.115608 0.193023 0.150050
Si Si2 0.554385 0.947623 0.344800
Si Si3 0.218269 0.593676 0.687838
Si Si4 0.326489 0.286321 0.259854
Si Si5 0.484471 0.384064 0.377850
Si Si6 0.607213 0.050947 0.214755
Si Si7 0.720385 0.192413 0.030017
Si Si8 0.812059 0.087938 0.114679
O O1 0.212235 0.144484 0.239034
O O2 0.330041 0.231385 0.278761
O O3 0.894089 0.209346 0.069382
O O4 0.000000 0.189286 0.000000
O O5 0.360429 0.936744 0.290175
O O6 0.471390 0.945496 0.211166
O O7 0.760346 0.908843 0.472644
O O8 0.651124 0.000000 0.414594
O O9 0.442844 0.573057 0.777712
O O10 0.000000 0.597838 0.500000
O O11 0.492873 0.328011 0.389114
O O12 0.325546 0.291860 0.171428
O O13 0.061971 0.298797 0.132194
O O14 0.305753 0.408990 0.327575
O O15 0.361757 0.398289 0.227457
O O16 0.725911 0.000000 0.282589
O O17 0.409172 0.054946 0.033653
O O18 0.737361 0.136755 0.033826
#
# Coordination Sequence:
#
# PCOD9187961 Si02
#       8
#     8   8   8   8   8   8   8   8
#     4  11  23  36  66  98 127 169 213 260 314 377
#     4  11  26  46  66  90 129 174 211 263 330 389
#     4  11  25  47  64  89 131 170 213 267 323 378
#     4  10  19  35  63  94 129 167 209 254 312 372
#     4  11  21  41  68  94 130 171 213 252 320 388
#     4  11  24  40  62  97 131 157 206 279 327 370
#     4   9  18  35  56  90 132 156 202 260 312 357
#     4  10  21  39  67  92 123 167 209 268 312 371
#
# _framework density 21.834454000000001
#
# number of rings (size 3 to 8) (size 9 to 14) (size 15 to 20)
#    0.000    1.500    3.750    1.500    3.500    3.250 
#    0.000    3.125    0.000    0.000    0.000    0.000 
#    0.000    0.000    0.000    0.000    0.000    0.000 
#
# Total GULP energy -178608.687224 kJ/mol
# GULP energy per Si atom -5581.521476 kJ/mol
# Density = 2.178476 g / cm^3
# Si number density = 21.834454 Si / 1000 Ang^3
#
#
#
# Elastic Constant Matrix: (Units=GPa)
#
#
# Indices 1 2 3 4 5 6 
#
# 1 119.3208 3.5109 5.1300 0.0002 6.2848 -0.0001
# 2 3.5109 59.0692 0.6092 -0.0003 -2.0242 -0.0004
# 3 5.1300 0.6092 39.7880 0.0005 -0.4821 -0.0002
# 4 0.0002 -0.0003 0.0005 17.3787 -0.0001 -0.1764
# 5 6.2848 -2.0242 -0.4821 -0.0001 21.0186 -0.0005
# 6 -0.0001 -0.0004 -0.0002 -0.1764 -0.0005 26.7044
#
#
#
# Elastic Compliance Matrix: (Units=1/GPa)
#
#
# Indices 1 2 3 4 5 6 
#
# 1 0.008586 -0.000590 -0.001130 0.000000 -0.002650 0.000000
# 2 -0.000590 0.017028 -0.000163 0.000000 0.001812 0.000000
# 3 -0.001130 -0.000163 0.025292 -0.000001 0.000902 0.000000
# 4 0.000000 0.000000 -0.000001 0.057545 0.000000 0.000380
# 5 -0.002650 0.001812 0.000902 0.000000 0.048565 0.000001
# 6 0.000000 0.000000 0.000000 0.000380 0.000001 0.037450
#
#
# Mechanical properties :
#
#
# Convention : Reuss Voigt Hill
#
# Bulk Modulus (GPa) = 21.21252 26.29758 23.75505
# Shear Modulus (GPa) = 23.37048 26.94887 25.15967
#
# Velocity S-wave (km/s) = 3.27517 3.51698 3.39823
# Velocity P-wave (km/s) = 4.90291 5.34438 5.12840
#
# Compressibility (1/GPa) = 0.04714198
#
# Stress axis : x y z
#
# Youngs Moduli (GPa) = 116.46481 58.72640 39.53765
#
# Poissons Ratio (x) = 0.03462 0.04468
# Poissons Ratio (y) = 0.06866 0.00643
# Poissons Ratio (z) = 0.13162 0.00956
#
# Static dielectric constant tensor:
#      x y z
#    x 1.801270 0.000000 -0.015280 
#    y 0.000000 1.860400 0.000000 
#    z -0.015280 0.000000 1.782410 
# 
# From -- ./inp_files/266299.got.cif
#   From: 2010.05.17/outbox.cif.g08.bks.cpg/sg12_134_cif.got.tgz:266299.got - 2010.06.03 13:09:07.
