data_PCOD9187472
_publ_section_title
;
Structure prediction by ZEFSAII (Michael W. Deem and Ramdas Pophale) SiO2 
 PCOD9187472
Probable space group: C 2/M
;
_chemical_formula_sum "Si O2"
_cell_formula_units_Z 48
_cell_length_a 26.424556
_cell_length_b 13.041039
_cell_length_c 23.217422
_cell_angle_alpha 90.000000
_cell_angle_beta 17.935582
_cell_angle_gamma 90.000000
_cell_volume 2463.829208
_symmetry_space_group_name_H-M "C 2/M"
_symmetry_group_IT_number 12
_symmetry_cell_setting 'monoclinic'
loop_
_space_group_symop_operation_xyz
x,y,z
-x,y,-z
-x,-y,-z
x,-y,z
1/2+x,1/2+y,z
1/2-x,1/2+y,-z
1/2-x,1/2-y,-z
1/2+x,1/2-y,z
loop_
_atom_site_type_symbol
_atom_site_label
_atom_site_fract_x
_atom_site_fract_y
_atom_site_fract_z
Si Si1 0.503995 0.765844 0.237180
Si Si2 0.625423 0.725429 0.310127
Si Si3 0.162635 0.880691 0.155711
Si Si4 0.808116 0.120210 0.377324
Si Si5 0.651505 0.614214 0.879761
Si Si6 0.608044 0.110971 0.483780
O O1 0.535202 0.689378 0.257314
O O2 0.350399 0.840138 0.415696
O O3 0.457544 0.690637 0.235114
O O4 0.662210 0.834167 0.053173
O O5 0.500000 0.703780 0.500000
O O6 0.648590 0.633605 0.240053
O O7 0.794694 0.783170 0.144841
O O8 0.534944 0.809251 0.368004
O O9 0.145979 0.000000 0.158664
O O10 0.752370 0.137275 0.371948
O O11 0.837998 0.000000 0.353957
O O12 0.628817 0.500000 0.932914
O O13 0.810435 0.603344 0.666746
O O14 0.500000 0.627990 0.000000
O O15 0.543259 0.000000 0.572414
#
# Coordination Sequence:
#
# PCOD9187472 Si02
#       6
#     8   8   8   8   8   8
#     4  10  22  38  58  83 115 148 185 233 288 331
#     4  10  20  36  56  79 111 152 187 230 277 332
#     4  11  23  40  58  82 113 150 196 238 280 333
#     4  10  19  35  59  86 114 144 181 224 284 349
#     4   9  18  31  51  81 112 142 180 230 284 333
#     4   9  17  31  52  81 113 143 177 221 277 342
#
# _framework density 19.481869
#
# number of rings (size 3 to 8) (size 9 to 14) (size 15 to 20)
#    0.000    2.167    1.667    1.500    2.333    2.333 
#    0.000    1.667    0.000    0.500    0.000    0.000 
#    0.000    0.000    0.000    0.000    0.000    0.000 
#
# Total GULP energy -133695.330878 kJ/mol
# GULP energy per Si atom -5570.638787 kJ/mol
# Density = 1.943753 g / cm^3
# Si number density = 19.481869 Si / 1000 Ang^3
#
#
#
# Elastic Constant Matrix: (Units=GPa)
#
#
# Indices 1 2 3 4 5 6 
#
# 1 59.8674 22.3550 -1.2158 -0.0001 5.7998 0.0007
# 2 22.3550 67.8900 15.0868 -0.0021 2.1420 0.0022
# 3 -1.2158 15.0868 37.3824 0.0026 0.4489 -0.0001
# 4 -0.0001 -0.0021 0.0026 12.8198 0.0004 4.2986
# 5 5.7998 2.1420 0.4489 0.0004 24.6359 -0.0006
# 6 0.0007 0.0022 -0.0001 4.2986 -0.0006 24.3326
#
#
#
# Elastic Compliance Matrix: (Units=1/GPa)
#
#
# Indices 1 2 3 4 5 6 
#
# 1 0.019870 -0.007214 0.003607 -0.000002 -0.004116 0.000000
# 2 -0.007214 0.018841 -0.007841 0.000005 0.000203 -0.000002
# 3 0.003607 -0.007841 0.030041 -0.000008 -0.000715 0.000002
# 4 -0.000002 0.000005 -0.000008 0.082916 -0.000002 -0.014648
# 5 -0.004116 0.000203 -0.000715 -0.000002 0.041556 0.000001
# 6 0.000000 -0.000002 0.000002 -0.014648 0.000001 0.043685
#
#
# Mechanical properties :
#
#
# Convention : Reuss Voigt Hill
#
# Bulk Modulus (GPa) = 21.80771 26.39911 24.10341
# Shear Modulus (GPa) = 18.17588 20.95191 19.56390
#
# Velocity S-wave (km/s) = 3.05776 3.28297 3.17237
# Velocity P-wave (km/s) = 4.86669 5.28683 5.08111
#
# Compressibility (1/GPa) = 0.04585534
#
# Stress axis : x y z
#
# Youngs Moduli (GPa) = 50.32828 53.07468 33.28784
#
# Poissons Ratio (x) = 0.38291 -0.12008
# Poissons Ratio (y) = 0.36309 0.26101
# Poissons Ratio (z) = -0.18155 0.41616
#
# Static dielectric constant tensor:
#      x y z
#    x 1.731820 0.000000 0.025150 
#    y 0.000000 1.710060 0.000000 
#    z 0.025150 0.000000 1.706200 
# 
# From -- ./inp_files/94405.got.cif
#   From: 2010.05.17/outbox.cif.g08.bks.cpg/sg12_48_cif.got.tgz:94405.got - 2010.06.03 13:09:07.
