data_PCOD9187442
_publ_section_title
;
Structure prediction by ZEFSAII (Michael W. Deem and Ramdas Pophale) SiO2 
 PCOD9187442
Probable space group: C 2/M
;
_chemical_formula_sum "Si O2"
_cell_formula_units_Z 64
_cell_length_a 26.619392
_cell_length_b 7.842705
_cell_length_c 15.375279
_cell_angle_alpha 90.000000
_cell_angle_beta 68.876391
_cell_angle_gamma 90.000000
_cell_volume 2994.180216
_symmetry_space_group_name_H-M "C 2/M"
_symmetry_group_IT_number 12
_symmetry_cell_setting 'monoclinic'
loop_
_space_group_symop_operation_xyz
x,y,z
-x,y,-z
-x,-y,-z
x,-y,z
1/2+x,1/2+y,z
1/2-x,1/2+y,-z
1/2-x,1/2-y,-z
1/2+x,1/2-y,z
loop_
_atom_site_type_symbol
_atom_site_label
_atom_site_fract_x
_atom_site_fract_y
_atom_site_fract_z
Si Si1 0.058611 0.702196 0.657543
Si Si2 0.871336 0.207305 0.220427
Si Si3 0.909776 0.793501 0.008190
Si Si4 0.859288 0.302597 0.730231
Si Si5 0.438575 0.301458 0.534105
Si Si6 0.756253 0.807422 0.245517
Si Si7 0.947029 0.705219 0.808443
Si Si8 0.200401 0.812756 0.977121
O O1 0.054943 0.500000 0.645000
O O2 0.097650 0.737015 0.713615
O O3 0.077877 0.784612 0.555964
O O4 0.999329 0.766519 0.722865
O O5 0.903898 0.262575 0.112205
O O6 0.808876 0.269680 0.259713
O O7 0.868685 0.000000 0.218939
O O8 0.855925 0.718318 0.995573
O O9 0.908198 0.000000 0.013453
O O10 0.952913 0.750585 0.907077
O O11 0.846134 0.500000 0.761244
O O12 0.900102 0.295362 0.624181
O O13 0.802471 0.224914 0.732899
O O14 0.893324 0.230857 0.790925
O O15 0.500000 0.237097 0.500000
O O16 0.438271 0.500000 0.560305
O O17 0.779436 0.823549 0.133850
O O18 0.747529 0.000000 0.287156
O O19 0.946139 0.500000 0.803127
O O20 0.187902 0.000000 0.019363
O O21 0.250000 0.750000 0.000000
#
# Coordination Sequence:
#
# PCOD9187442 Si02
#       8
#     8   8   8   8   8   8   8   8
#     4  11  23  39  59  83 109 144 186 228 276 332
#     4   9  19  38  58  79 110 150 192 230 268 316
#     4   9  19  33  51  76 109 149 189 227 269 319
#     4  10  19  35  59  85 113 145 180 226 279 330
#     4  11  23  39  60  86 113 142 175 220 279 336
#     4   8  16  32  55  78 105 144 185 222 268 322
#     4  10  21  34  53  82 114 145 182 229 279 327
#     4   9  16  28  46  71 104 142 183 224 267 318
#
# _framework density 21.3748
#
# number of rings (size 3 to 8) (size 9 to 14) (size 15 to 20)
#    0.000    2.375    1.250    3.000    0.000    4.500 
#    0.000    6.250    0.000    0.000    0.000    0.000 
#    0.000    0.000    0.000    0.000    0.000    0.000 
#
# Total GULP energy -178294.173211 kJ/mol
# GULP energy per Si atom -5571.692913 kJ/mol
# Density = 2.132615 g / cm^3
# Si number density = 21.374800 Si / 1000 Ang^3
#
#
#
# Elastic Constant Matrix: (Units=GPa)
#
#
# Indices 1 2 3 4 5 6 
#
# 1 94.1402 0.3638 32.9512 0.0000 9.6324 0.0000
# 2 0.3638 29.3644 -7.6954 0.0000 -0.4010 0.0000
# 3 32.9512 -7.6954 81.9737 0.0000 10.2060 0.0000
# 4 0.0000 0.0000 0.0000 -45.7828 0.0000 -54.6253
# 5 9.6324 -0.4010 10.2060 0.0000 36.0358 0.0000
# 6 0.0000 0.0000 0.0000 -54.6253 0.0000 -31.6477
#
#
#
# Elastic Compliance Matrix: (Units=1/GPa)
#
#
# Indices 1 2 3 4 5 6 
#
# 1 0.012560 -0.001478 -0.004942 0.000000 -0.001974 0.000000
# 2 -0.001478 0.035099 0.003930 0.000000 -0.000327 0.000000
# 3 -0.004942 0.003930 0.014910 0.000000 -0.002858 0.000000
# 4 0.000000 0.000000 0.000000 0.020617 0.000000 -0.035587
# 5 -0.001974 -0.000327 -0.002858 0.000000 0.029084 0.000000
# 6 0.000000 0.000000 0.000000 -0.035587 0.000000 0.029826
#
#
# Mechanical properties :
#
#
# Convention : Reuss Voigt Hill
#
# Bulk Modulus (GPa) = 17.36431 28.52415 22.94423
# Shear Modulus (GPa) = 30.07134 3.71164 16.89149
#
# Velocity S-wave (km/s) = 3.75488 1.31918 2.81419
# Velocity P-wave (km/s) = 5.19040 3.96157 4.61705
#
# Compressibility (1/GPa) = 0.05758940
#
# Stress axis : x y z
#
# Youngs Moduli (GPa) = 79.61884 28.49123 67.06823
#
# Poissons Ratio (x) = 0.04210 0.33143
# Poissons Ratio (y) = 0.11764 -0.26356
# Poissons Ratio (z) = 0.39345 -0.11196
#
# Static dielectric constant tensor:
#      x y z
#    x 1.769040 0.000000 -0.075290 
#    y 0.000000 1.814820 0.000000 
#    z -0.075290 0.000000 1.714300 
# 
# From -- ./inp_files/243757.got.cif
#   From: 2010.05.17/outbox.cif.g08.bks.cpg/sg12_122_cif.got.tgz:243757.got - 2010.06.03 13:09:07.
