data_PCOD9187780
_publ_section_title
;
Structure prediction by ZEFSAII (Michael W. Deem and Ramdas Pophale) SiO2 
 PCOD9187780
Probable space group: C 2/M
;
_chemical_formula_sum "Si O2"
_cell_formula_units_Z 48
_cell_length_a 13.394212
_cell_length_b 11.757674
_cell_length_c 15.381265
_cell_angle_alpha 90.000000
_cell_angle_beta 70.850576
_cell_angle_gamma 90.000000
_cell_volume 2288.279446
_symmetry_space_group_name_H-M "C 2/M"
_symmetry_group_IT_number 12
_symmetry_cell_setting 'monoclinic'
loop_
_space_group_symop_operation_xyz
x,y,z
-x,y,-z
-x,-y,-z
x,-y,z
1/2+x,1/2+y,z
1/2-x,1/2+y,-z
1/2-x,1/2-y,-z
1/2+x,1/2-y,z
loop_
_atom_site_type_symbol
_atom_site_label
_atom_site_fract_x
_atom_site_fract_y
_atom_site_fract_z
Si Si1 0.016048 0.173940 0.222660
Si Si2 0.177815 0.133758 0.020032
Si Si3 0.315998 0.302881 0.697687
Si Si4 0.374313 0.871050 0.528657
Si Si5 0.610182 0.873794 0.669114
Si Si6 0.813625 0.121192 0.177199
O O1 0.090441 0.153095 0.118803
O O2 0.082700 0.136895 0.288722
O O3 0.979598 0.301205 0.258338
O O4 0.902798 0.124315 0.226191
O O5 0.219701 0.000000 0.021690
O O6 0.250000 0.250000 0.000000
O O7 0.136145 0.131225 0.932669
O O8 0.340899 0.217345 0.611682
O O9 0.216606 0.375765 0.695218
O O10 0.267796 0.222236 0.786171
O O11 0.500000 0.879933 0.500000
O O12 0.357095 0.827600 0.435180
O O13 0.329228 0.000000 0.551590
O O14 0.569891 0.000000 0.664793
O O15 0.757234 0.000000 0.197770
#
# Coordination Sequence:
#
# PCOD9187780 Si02
#       6
#     8   8   8   8   8   8
#     4  11  22  38  60  90 120 161 208 258 309 372
#     4  11  23  42  66  95 129 170 214 262 319 382
#     4  11  21  37  62  89 123 155 206 261 322 371
#     4  10  19  35  61  89 117 161 212 259 314 383
#     4  10  23  39  59  88 125 164 208 262 322 380
#     4  10  22  40  62  87 119 162 209 253 307 378
#
# _framework density 20.976458000000001
#
# number of rings (size 3 to 8) (size 9 to 14) (size 15 to 20)
#    0.000    1.500    3.333    2.000    0.000    4.000 
#    0.000    0.000    0.000    4.500    0.000    0.000 
#    0.000    0.000    0.000    0.000    0.000    0.000 
#
# Total GULP energy -133620.820152 kJ/mol
# GULP energy per Si atom -5567.534173 kJ/mol
# Density = 2.092871 g / cm^3
# Si number density = 20.976458 Si / 1000 Ang^3
#
#
#
# Elastic Constant Matrix: (Units=GPa)
#
#
# Indices 1 2 3 4 5 6 
#
# 1 85.5157 16.1851 2.4195 0.0000 22.4677 0.0000
# 2 16.1851 102.5705 44.2622 0.0000 -7.4395 0.0000
# 3 2.4195 44.2622 94.5878 0.0000 9.3699 0.0000
# 4 0.0000 0.0000 0.0000 16.8474 0.0000 26.1660
# 5 22.4677 -7.4395 9.3699 0.0000 37.7944 0.0000
# 6 0.0000 0.0000 0.0000 26.1660 0.0000 -57.8702
#
#
#
# Elastic Compliance Matrix: (Units=1/GPa)
#
#
# Indices 1 2 3 4 5 6 
#
# 1 0.015209 -0.004322 0.002679 0.000000 -0.010556 0.000000
# 2 -0.004322 0.014038 -0.007163 0.000000 0.007108 0.000000
# 3 0.002679 -0.007163 0.014509 0.000000 -0.006600 0.000000
# 4 0.000000 0.000000 0.000000 0.034870 0.000000 0.015766
# 5 -0.010556 0.007108 -0.006600 0.000000 0.035770 0.000000
# 6 0.000000 0.000000 0.000000 0.015766 0.000000 -0.010151
#
#
# Mechanical properties :
#
#
# Convention : Reuss Voigt Hill
#
# Bulk Modulus (GPa) = 38.24700 45.37863 41.81282
# Shear Modulus (GPa) = 38.29367 14.00813 26.15090
#
# Velocity S-wave (km/s) = 4.27729 2.58699 3.53466
# Velocity P-wave (km/s) = 6.53196 5.53204 6.05268
#
# Compressibility (1/GPa) = 0.02614584
#
# Stress axis : x y z
#
# Youngs Moduli (GPa) = 65.74870 71.23664 68.92225
#
# Poissons Ratio (x) = 0.30786 -0.18464
# Poissons Ratio (y) = 0.28415 0.49366
# Poissons Ratio (z) = -0.17614 0.51023
#
# Static dielectric constant tensor:
#      x y z
#    x 1.755500 0.000000 0.023610 
#    y 0.000000 1.797610 0.000000 
#    z 0.023610 0.000000 1.762460 
# 
# From -- ./inp_files/212548.got.cif
#   From: 2010.05.17/outbox.cif.g08.bks.cpg/sg12_107_cif.got.tgz:212548.got - 2010.06.03 13:09:07.
