data_PCOD9187897
_publ_section_title
;
Structure prediction by ZEFSAII (Michael W. Deem and Ramdas Pophale) SiO2 
 PCOD9187897
Probable space group: C 2/M
;
_chemical_formula_sum "Si O2"
_cell_formula_units_Z 56
_cell_length_a 20.542499
_cell_length_b 8.699305
_cell_length_c 17.978961
_cell_angle_alpha 90.000000
_cell_angle_beta 116.756659
_cell_angle_gamma 90.000000
_cell_volume 2868.918400
_symmetry_space_group_name_H-M "C 2/M"
_symmetry_group_IT_number 12
_symmetry_cell_setting 'monoclinic'
loop_
_space_group_symop_operation_xyz
x,y,z
-x,y,-z
-x,-y,-z
x,-y,z
1/2+x,1/2+y,z
1/2-x,1/2+y,-z
1/2-x,1/2-y,-z
1/2+x,1/2-y,z
loop_
_atom_site_type_symbol
_atom_site_label
_atom_site_fract_x
_atom_site_fract_y
_atom_site_fract_z
Si Si1 0.169989 0.815879 0.657101
Si Si2 0.417739 0.312956 0.971873
Si Si3 0.826484 0.184514 0.066966
Si Si4 0.827311 0.814467 0.781341
Si Si5 0.591816 0.817796 0.754025
Si Si6 0.173084 0.814630 0.488229
Si Si7 0.434133 0.684934 0.698907
O O1 0.249934 0.761195 0.724384
O O2 0.111077 0.746415 0.682730
O O3 0.159253 0.766484 0.565972
O O4 0.166269 0.000000 0.658449
O O5 0.419518 0.500000 0.970652
O O6 0.363102 0.265564 0.877838
O O7 0.500000 0.258610 0.000000
O O8 0.386491 0.269509 0.035954
O O9 0.849592 0.250277 0.158059
O O10 0.823597 0.000000 0.068807
O O11 0.750000 0.250000 0.000000
O O12 0.884400 0.778377 0.744793
O O13 0.817576 0.000000 0.777525
O O14 0.512444 0.762811 0.739201
O O15 0.596500 0.000000 0.756288
O O16 0.250000 0.750000 0.500000
O O17 0.110679 0.769297 0.397851
O O18 0.177303 0.000000 0.488944
O O19 0.444451 0.500000 0.703804
#
# Coordination Sequence:
#
# PCOD9187897 Si02
#       7
#     8   8   8   8   8   8   8
#     4  11  23  39  61  89 122 157 198 250 306 365
#     4   9  18  33  56  85 113 148 194 241 288 347
#     4  11  22  39  63  89 122 161 202 250 305 365
#     4  10  19  35  62  91 119 155 200 245 298 366
#     4  12  26  42  60  86 121 163 211 258 308 361
#     4  10  21  38  63  93 123 158 198 244 302 370
#     4  10  21  39  63  90 123 162 200 247 306 366
#
# _framework density 19.519549999999999
#
# number of rings (size 3 to 8) (size 9 to 14) (size 15 to 20)
#    0.000    1.571    1.429    3.857    0.000    5.714 
#    0.000    3.571    0.000    3.000    0.000    0.000 
#    0.000    0.000    0.000    0.000    0.000    0.000 
#
# Total GULP energy -156548.483722 kJ/mol
# GULP energy per Si atom -5591.017276 kJ/mol
# Density = 1.947512 g / cm^3
# Si number density = 19.519550 Si / 1000 Ang^3
#
#
#
# Elastic Constant Matrix: (Units=GPa)
#
#
# Indices 1 2 3 4 5 6 
#
# 1 59.0898 21.9655 -11.6764 0.0000 -9.2816 0.0000
# 2 21.9655 39.9052 13.2847 0.0000 -4.8745 0.0000
# 3 -11.6764 13.2847 78.4693 0.0000 -11.7738 0.0000
# 4 0.0000 0.0000 0.0000 22.0796 0.0000 6.6504
# 5 -9.2816 -4.8745 -11.7738 0.0000 36.8687 0.0000
# 6 0.0000 0.0000 0.0000 6.6504 0.0000 32.5611
#
#
#
# Elastic Compliance Matrix: (Units=1/GPa)
#
#
# Indices 1 2 3 4 5 6 
#
# 1 0.025188 -0.015506 0.007370 0.000000 0.006644 0.000000
# 2 -0.015506 0.036270 -0.008732 0.000000 -0.001897 0.000000
# 3 0.007370 -0.008732 0.016200 0.000000 0.005874 0.000000
# 4 0.000000 0.000000 0.000000 0.048260 0.000000 -0.009857
# 5 0.006644 -0.001897 0.005874 0.000000 0.030421 0.000000
# 6 0.000000 0.000000 0.000000 -0.009857 0.000000 0.032725
#
#
# Mechanical properties :
#
#
# Convention : Reuss Voigt Hill
#
# Bulk Modulus (GPa) = 22.76830 24.95691 23.86260
# Shear Modulus (GPa) = 21.05790 28.56125 24.80957
#
# Velocity S-wave (km/s) = 3.28809 3.82935 3.56899
# Velocity P-wave (km/s) = 5.10931 5.68904 5.40695
#
# Compressibility (1/GPa) = 0.04392072
#
# Stress axis : x y z
#
# Youngs Moduli (GPa) = 39.70215 27.57095 61.72725
#
# Poissons Ratio (x) = 0.42752 -0.45493
# Poissons Ratio (y) = 0.61563 0.53903
# Poissons Ratio (z) = -0.29261 0.24076
#
# Static dielectric constant tensor:
#      x y z
#    x 1.658550 0.000000 -0.015630 
#    y 0.000000 1.658810 0.000000 
#    z -0.015630 0.000000 1.677570 
# 
# From -- ./inp_files/275521.got.cif
#   From: 2010.05.17/outbox.cif.g08.bks.cpg/sg12_138_cif.got.tgz:275521.got - 2010.06.03 13:09:07.
