data_PCOD9187477
_publ_section_title
;
Structure prediction by ZEFSAII (Michael W. Deem and Ramdas Pophale) SiO2 
 PCOD9187477
Probable space group: C 2/M
;
_chemical_formula_sum "Si O2"
_cell_formula_units_Z 64
_cell_length_a 28.554206
_cell_length_b 15.363658
_cell_length_c 18.881318
_cell_angle_alpha 90.000000
_cell_angle_beta 157.511274
_cell_angle_gamma 90.000000
_cell_volume 3168.329358
_symmetry_space_group_name_H-M "C 2/M"
_symmetry_group_IT_number 12
_symmetry_cell_setting 'monoclinic'
loop_
_space_group_symop_operation_xyz
x,y,z
-x,y,-z
-x,-y,-z
x,-y,z
1/2+x,1/2+y,z
1/2-x,1/2+y,-z
1/2-x,1/2-y,-z
1/2+x,1/2-y,z
loop_
_atom_site_type_symbol
_atom_site_label
_atom_site_fract_x
_atom_site_fract_y
_atom_site_fract_z
Si Si1 0.298042 0.397694 0.523765
Si Si2 0.477695 0.686580 0.676400
Si Si3 0.101894 0.101589 0.192606
Si Si4 0.535063 0.910972 0.629024
Si Si5 0.195069 0.337474 0.624722
Si Si6 0.846046 0.222877 0.192962
Si Si7 0.518469 0.104982 0.110146
Si Si8 0.159570 0.732094 0.050259
O O1 0.283575 0.500000 0.517092
O O2 0.387826 0.385183 0.583076
O O3 0.369214 0.358662 0.690869
O O4 0.158875 0.365650 0.321582
O O5 0.382057 0.762370 0.522159
O O6 0.553776 0.666578 0.710545
O O7 0.572129 0.718898 0.870127
O O8 0.222585 0.111620 0.315454
O O9 0.066756 0.000000 0.154320
O O10 0.000000 0.144096 0.000000
O O11 0.500000 0.920806 0.500000
O O12 0.408716 0.901510 0.493167
O O13 0.596254 0.817374 0.713870
O O14 0.602509 0.000000 0.747149
O O15 0.276483 0.296154 0.802444
O O16 0.771980 0.193337 0.159174
O O17 0.750000 0.250000 0.000000
O O18 0.506120 0.000000 0.106724
O O19 0.500000 0.117344 0.000000
O O20 0.422053 0.160919 0.021761
#
# Coordination Sequence:
#
# PCOD9187477 Si02
#       8
#     8   8   8   8   8   8   8   8
#     4  10  21  39  57  78 113 150 188 239 291 339
#     4  10  22  36  57  83 111 149 192 236 283 348
#     4  10  21  35  51  78 115 148 179 222 282 350
#     4  10  19  35  59  86 114 151 194 234 288 350
#     4  11  21  34  57  84 112 149 186 237 286 342
#     4   9  20  39  55  83 121 151 191 240 284 340
#     4  10  22  39  59  83 109 144 192 242 287 336
#     4  11  21  37  58  83 116 149 185 237 293 342
#
# _framework density 20.199919999999999
#
# number of rings (size 3 to 8) (size 9 to 14) (size 15 to 20)
#    0.000    1.875    1.250    2.625    0.000    4.500 
#    0.000   10.625    0.000    0.000    0.000    5.250 
#    0.000    0.000    0.000    0.000    0.000    0.000 
#
# Total GULP energy -178142.831220 kJ/mol
# GULP energy per Si atom -5566.963476 kJ/mol
# Density = 2.015394 g / cm^3
# Si number density = 20.199920 Si / 1000 Ang^3
#
#
#
# Elastic Constant Matrix: (Units=GPa)
#
#
# Indices 1 2 3 4 5 6 
#
# 1 109.1210 26.2621 27.2168 0.0000 22.1739 0.0000
# 2 26.2621 30.3838 22.3343 0.0000 -2.2022 0.0000
# 3 27.2168 22.3343 89.4019 0.0000 -4.0577 0.0000
# 4 0.0000 0.0000 0.0000 -12.8918 0.0000 4.3021
# 5 22.1739 -2.2022 -4.0577 0.0000 45.8941 0.0000
# 6 0.0000 0.0000 0.0000 4.3021 0.0000 22.6886
#
#
#
# Elastic Compliance Matrix: (Units=1/GPa)
#
#
# Indices 1 2 3 4 5 6 
#
# 1 0.013777 -0.011162 -0.001739 0.000000 -0.007346 0.000000
# 2 -0.011162 0.049410 -0.008628 0.000000 0.007001 0.000000
# 3 -0.001739 -0.008628 0.013945 0.000000 0.001659 0.000000
# 4 0.000000 0.000000 0.000000 -0.072953 0.000000 0.013833
# 5 -0.007346 0.007001 0.001659 0.000000 0.025821 0.000000
# 6 0.000000 0.000000 0.000000 0.013833 0.000000 0.041452
#
#
# Mechanical properties :
#
#
# Convention : Reuss Voigt Hill
#
# Bulk Modulus (GPa) = 29.34743 42.28146 35.81444
# Shear Modulus (GPa) = 39.72413 21.34444 30.53429
#
# Velocity S-wave (km/s) = 4.43939 3.25416 3.89215
# Velocity P-wave (km/s) = 6.39043 5.92421 6.16173
#
# Compressibility (1/GPa) = 0.03407453
#
# Stress axis : x y z
#
# Youngs Moduli (GPa) = 72.58491 20.23900 71.70779
#
# Poissons Ratio (x) = 0.22591 0.12470
# Poissons Ratio (y) = 0.81020 0.61866
# Poissons Ratio (z) = 0.12623 0.17461
#
# Static dielectric constant tensor:
#      x y z
#    x 1.675050 0.000000 0.023600 
#    y 0.000000 1.700740 0.000000 
#    z 0.023600 0.000000 1.741520 
# 
# From -- ./inp_files/330406.got.cif
#   From: 2010.05.17/outbox.cif.g08.bks.cpg/sg12_166_cif.got.tgz:330406.got - 2010.06.03 13:09:07.
