data_PCOD9187031
_publ_section_title
;
Structure prediction by ZEFSAII (Michael W. Deem and Ramdas Pophale) SiO2 
 PCOD9187031
Probable space group: C 2/M
;
_chemical_formula_sum "Si O2"
_cell_formula_units_Z 48
_cell_length_a 10.075726
_cell_length_b 17.512275
_cell_length_c 12.721379
_cell_angle_alpha 90.000000
_cell_angle_beta 76.697189
_cell_angle_gamma 90.000000
_cell_volume 2184.443133
_symmetry_space_group_name_H-M "C 2/M"
_symmetry_group_IT_number 12
_symmetry_cell_setting 'monoclinic'
loop_
_space_group_symop_operation_xyz
x,y,z
-x,y,-z
-x,-y,-z
x,-y,z
1/2+x,1/2+y,z
1/2-x,1/2+y,-z
1/2-x,1/2-y,-z
1/2+x,1/2-y,z
loop_
_atom_site_type_symbol
_atom_site_label
_atom_site_fract_x
_atom_site_fract_y
_atom_site_fract_z
Si Si1 0.790726 0.591114 0.581658
Si Si2 0.037827 0.329082 0.286034
Si Si3 0.594550 0.912702 0.879635
Si Si4 0.812605 0.783648 0.883106
Si Si5 0.463335 0.328830 0.275132
Si Si6 0.638108 0.586213 0.406060
O O1 0.808392 0.500000 0.580908
O O2 0.913642 0.633702 0.615677
O O3 0.659290 0.615171 0.676608
O O4 0.752570 0.611816 0.468370
O O5 0.164786 0.285589 0.204055
O O6 0.934349 0.257830 0.317335
O O7 0.983699 0.390795 0.213164
O O8 0.711243 0.850524 0.870231
O O9 0.641846 0.000000 0.868092
O O10 0.500000 0.904742 0.000000
O O11 0.968091 0.817966 0.852231
O O12 0.750000 0.750000 0.000000
O O13 0.590747 0.358690 0.322691
O O14 0.500000 0.580784 0.500000
O O15 0.670132 0.500000 0.363806
#
# Coordination Sequence:
#
# PCOD9187031 Si02
#       6
#     8   8   8   8   8   8
#     4  10  19  35  57  83 113 143 181 231 281 328
#     4  10  21  34  56  79 108 146 182 223 272 331
#     4  11  21  36  55  76 103 143 186 221 268 335
#     4  10  21  37  56  78 108 142 181 232 279 316
#     4   9  19  32  57  80 105 141 188 223 269 327
#     4   8  15  30  53  81 112 144 177 225 282 330
#
# _framework density 21.973564
#
# number of rings (size 3 to 8) (size 9 to 14) (size 15 to 20)
#    1.000    1.333    1.667    3.000    0.000    2.000 
#    0.000    0.000    0.000    1.000    0.000    3.500 
#    0.000    0.000    0.000    0.000    0.000    0.000 
#
# Total GULP energy -133800.700646 kJ/mol
# GULP energy per Si atom -5575.029194 kJ/mol
# Density = 2.192355 g / cm^3
# Si number density = 21.973564 Si / 1000 Ang^3
#
#
#
# Elastic Constant Matrix: (Units=GPa)
#
#
# Indices 1 2 3 4 5 6 
#
# 1 50.5109 20.7803 13.7880 0.0000 -1.0437 0.0000
# 2 20.7803 95.8092 27.6779 0.0000 6.0449 0.0000
# 3 13.7880 27.6779 67.2456 0.0000 -12.3949 0.0000
# 4 0.0000 0.0000 0.0000 19.0678 0.0000 18.9843
# 5 -1.0437 6.0449 -12.3949 0.0000 37.4424 0.0000
# 6 0.0000 0.0000 0.0000 18.9843 0.0000 19.3175
#
#
#
# Elastic Compliance Matrix: (Units=1/GPa)
#
#
# Indices 1 2 3 4 5 6 
#
# 1 0.022235 -0.004022 -0.002843 0.000000 0.000328 0.000000
# 2 -0.004022 0.013091 -0.005297 0.000000 -0.003979 0.000000
# 3 -0.002843 -0.005297 0.018932 0.000000 0.007043 0.000000
# 4 0.000000 0.000000 0.000000 2.433338 0.000000 -2.391367
# 5 0.000328 -0.003979 0.007043 0.000000 0.029691 0.000000
# 6 0.000000 0.000000 0.000000 -2.391367 0.000000 2.401886
#
#
# Mechanical properties :
#
#
# Convention : Reuss Voigt Hill
#
# Bulk Modulus (GPa) = 33.40662 37.56200 35.48431
# Shear Modulus (GPa) = 1.00939 25.25351 13.13145
#
# Velocity S-wave (km/s) = 0.67850 3.39376 2.44724
# Velocity P-wave (km/s) = 3.98120 5.69984 4.91620
#
# Compressibility (1/GPa) = 0.02993418
#
# Stress axis : x y z
#
# Youngs Moduli (GPa) = 44.97362 76.38823 52.81983
#
# Poissons Ratio (x) = 0.30723 0.15018
# Poissons Ratio (y) = 0.18088 0.27978
# Poissons Ratio (z) = 0.12787 0.40463
#
# Static dielectric constant tensor:
#      x y z
#    x 1.892920 0.000000 -0.017810 
#    y 0.000000 1.774250 0.000000 
#    z -0.017810 0.000000 1.843710 
# 
# From -- ./inp_files/204444.got.cif
#   From: 2010.05.17/outbox.cif.g08.bks.cpg/sg12_103_cif.got.tgz:204444.got - 2010.06.03 13:09:07.
