data_PCOD9187604
_publ_section_title
;
Structure prediction by ZEFSAII (Michael W. Deem and Ramdas Pophale) SiO2 
 PCOD9187604
Probable space group: C 2/M
;
_chemical_formula_sum "Si O2"
_cell_formula_units_Z 40
_cell_length_a 13.141374
_cell_length_b 13.454409
_cell_length_c 11.116001
_cell_angle_alpha 90.000000
_cell_angle_beta 112.085267
_cell_angle_gamma 90.000000
_cell_volume 1821.202139
_symmetry_space_group_name_H-M "C 2/M"
_symmetry_group_IT_number 12
_symmetry_cell_setting 'monoclinic'
loop_
_space_group_symop_operation_xyz
x,y,z
-x,y,-z
-x,-y,-z
x,-y,z
1/2+x,1/2+y,z
1/2-x,1/2+y,-z
1/2-x,1/2-y,-z
1/2+x,1/2-y,z
loop_
_atom_site_type_symbol
_atom_site_label
_atom_site_fract_x
_atom_site_fract_y
_atom_site_fract_z
Si Si1 0.620873 0.888632 0.725734
Si Si2 0.329143 0.267166 0.773189
Si Si3 0.180901 0.113989 0.598827
Si Si4 0.004105 0.192789 0.331066
Si Si5 0.126785 0.609120 0.016529
O O1 0.739160 0.853354 0.730807
O O2 0.533406 0.804440 0.653563
O O3 0.592691 0.000000 0.676135
O O4 0.631016 0.885435 0.875206
O O5 0.286233 0.183287 0.660712
O O6 0.447390 0.304544 0.781729
O O7 0.326965 0.206170 0.896689
O O8 0.102085 0.152163 0.457503
O O9 0.103469 0.129063 0.683000
O O10 0.209126 0.000000 0.593888
O O11 0.174058 0.500000 0.074648
O O12 0.000000 0.607032 0.000000
#
# Coordination Sequence:
#
# PCOD9187604 Si02
#       5
#     8   8   8   8   8
#     4  10  22  37  56  85 117 146 183 228 277 330
#     4  11  21  36  60  86 112 144 187 233 277 323
#     4  10  22  39  58  82 112 148 188 229 275 334
#     4  10  20  37  56  80 112 147 185 227 273 326
#     4  10  19  35  60  85 110 147 186 225 276 333
#
# _framework density 21.963515999999998
#
# number of rings (size 3 to 8) (size 9 to 14) (size 15 to 20)
#    0.000    1.800    2.000    3.000    0.000    2.400 
#    0.000    8.000    0.000    1.800    0.000    0.000 
#    0.000    0.000    0.000    0.000    0.000    0.000 
#
# Total GULP energy -111668.723971 kJ/mol
# GULP energy per Si atom -5583.436199 kJ/mol
# Density = 2.191353 g / cm^3
# Si number density = 21.963516 Si / 1000 Ang^3
#
#
#
# Elastic Constant Matrix: (Units=GPa)
#
#
# Indices 1 2 3 4 5 6 
#
# 1 57.3428 -2.2383 -6.8469 0.0000 -19.7116 0.0000
# 2 -2.2383 83.6102 9.1296 0.0000 -10.1910 0.0000
# 3 -6.8469 9.1296 37.5507 0.0000 -4.2753 0.0000
# 4 0.0000 0.0000 0.0000 -251.0152 0.0000 -75.4293
# 5 -19.7116 -10.1910 -4.2753 0.0000 27.4507 0.0000
# 6 0.0000 0.0000 0.0000 -75.4293 0.0000 -13.1591
#
#
#
# Elastic Compliance Matrix: (Units=1/GPa)
#
#
# Indices 1 2 3 4 5 6 
#
# 1 0.025127 0.002416 0.006261 0.000000 0.019915 0.000000
# 2 0.002416 0.013006 -0.002010 0.000000 0.006251 0.000000
# 3 0.006261 -0.002010 0.029206 0.000000 0.008299 0.000000
# 4 0.000000 0.000000 0.000000 0.005514 0.000000 -0.031607
# 5 0.019915 0.006251 0.008299 0.000000 0.054342 0.000000
# 6 0.000000 0.000000 0.000000 -0.031607 0.000000 0.105184
#
#
# Mechanical properties :
#
#
# Convention : Reuss Voigt Hill
#
# Bulk Modulus (GPa) = 12.39547 19.84363 16.11955
# Shear Modulus (GPa) = 20.33059 -35.44743 -7.55842
#
# Velocity S-wave (km/s) = 3.04576 -4.02172 -1.85710
# Velocity P-wave (km/s) = 4.24556 3.53713 1.66034
#
# Compressibility (1/GPa) = 0.08067461
#
# Stress axis : x y z
#
# Youngs Moduli (GPa) = 39.79824 76.88585 34.23972
#
# Poissons Ratio (x) = -0.18578 -0.21439
# Poissons Ratio (y) = -0.09617 0.06882
# Poissons Ratio (z) = -0.24920 0.15454
#
# Static dielectric constant tensor:
#      x y z
#    x 1.777700 0.000000 -0.034700 
#    y 0.000000 1.797970 0.000000 
#    z -0.034700 0.000000 1.860900 
# 
# From -- ./inp_files/140496.got.cif
#   From: 2010.05.17/outbox.cif.g08.bks.cpg/sg12_71_cif.got.tgz:140496.got - 2010.06.03 13:09:07.
