data_PCOD9187507
_publ_section_title
;
Structure prediction by ZEFSAII (Michael W. Deem and Ramdas Pophale) SiO2 
 PCOD9187507
Probable space group: C 2/M
;
_chemical_formula_sum "Si O2"
_cell_formula_units_Z 40
_cell_length_a 19.752276
_cell_length_b 8.132088
_cell_length_c 13.696738
_cell_angle_alpha 90.000000
_cell_angle_beta 60.043505
_cell_angle_gamma 90.000000
_cell_volume 1906.150628
_symmetry_space_group_name_H-M "C 2/M"
_symmetry_group_IT_number 12
_symmetry_cell_setting 'monoclinic'
loop_
_space_group_symop_operation_xyz
x,y,z
-x,y,-z
-x,-y,-z
x,-y,z
1/2+x,1/2+y,z
1/2-x,1/2+y,-z
1/2-x,1/2-y,-z
1/2+x,1/2-y,z
loop_
_atom_site_type_symbol
_atom_site_label
_atom_site_fract_x
_atom_site_fract_y
_atom_site_fract_z
Si Si1 0.435083 0.201148 0.470340
Si Si2 0.123675 0.801846 0.842257
Si Si3 0.663337 0.696618 0.031510
Si Si4 0.761910 0.698241 0.602652
Si Si5 0.998030 0.695762 0.784079
O O1 0.500000 0.254911 0.500000
O O2 0.349223 0.253768 0.565672
O O3 0.456975 0.257152 0.345229
O O4 0.435301 0.000000 0.468302
O O5 0.193170 0.739747 0.721665
O O6 0.042471 0.757802 0.848668
O O7 0.126945 0.000000 0.843437
O O8 0.140129 0.741188 0.939670
O O9 0.662432 0.500000 0.030350
O O10 0.592651 0.754927 0.151164
O O11 0.750000 0.750000 0.000000
O O12 0.760065 0.500000 0.609015
O O13 0.750000 0.750000 0.500000
O O14 0.002797 0.500000 0.780711
#
# Coordination Sequence:
#
# PCOD9187507 Si02
#       5
#     8   8   8   8   8
#     4   9  19  34  57  86 118 154 193 236 286 346
#     4  10  22  39  62  86 118 158 198 241 291 350
#     4  11  25  43  62  87 117 154 197 244 297 349
#     4  10  19  35  59  87 116 150 190 238 289 345
#     4  11  22  38  63  90 118 155 199 242 290 347
#
# _framework density 20.9847
#
# number of rings (size 3 to 8) (size 9 to 14) (size 15 to 20)
#    0.000    1.800    2.000    1.800    2.800    4.000 
#    0.000    0.000    0.000    3.000    0.000    0.000 
#    0.000    0.000    0.000    0.000    0.000    0.000 
#
# Total GULP energy -111738.703685 kJ/mol
# GULP energy per Si atom -5586.935184 kJ/mol
# Density = 2.093694 g / cm^3
# Si number density = 20.984700 Si / 1000 Ang^3
#
#
#
# Elastic Constant Matrix: (Units=GPa)
#
#
# Indices 1 2 3 4 5 6 
#
# 1 126.5971 -1.7091 13.8358 0.0000 -16.0253 0.0000
# 2 -1.7091 17.4982 3.1566 0.0000 1.3604 0.0000
# 3 13.8358 3.1566 66.7747 0.0000 -16.0666 0.0000
# 4 0.0000 0.0000 0.0000 20.5700 0.0000 -2.7269
# 5 -16.0253 1.3604 -16.0666 0.0000 40.4592 0.0000
# 6 0.0000 0.0000 0.0000 -2.7269 0.0000 29.5430
#
#
#
# Elastic Compliance Matrix: (Units=1/GPa)
#
#
# Indices 1 2 3 4 5 6 
#
# 1 0.008391 0.000793 -0.001087 0.000000 0.002865 0.000000
# 2 0.000793 0.058126 -0.003656 0.000000 -0.003092 0.000000
# 3 -0.001087 -0.003656 0.016916 0.000000 0.006410 0.000000
# 4 0.000000 0.000000 0.000000 0.049217 0.000000 0.004543
# 5 0.002865 -0.003092 0.006410 0.000000 0.028501 0.000000
# 6 0.000000 0.000000 0.000000 0.004543 0.000000 0.034268
#
#
# Mechanical properties :
#
#
# Convention : Reuss Voigt Hill
#
# Bulk Modulus (GPa) = 13.23914 26.82629 20.03272
# Shear Modulus (GPa) = 21.88214 31.15356 26.51785
#
# Velocity S-wave (km/s) = 3.23269 3.85721 3.55868
# Velocity P-wave (km/s) = 4.50071 5.71392 5.14321
#
# Compressibility (1/GPa) = 0.07553360
#
# Stress axis : x y z
#
# Youngs Moduli (GPa) = 119.17154 17.20395 59.11554
#
# Poissons Ratio (x) = -0.01364 0.06424
# Poissons Ratio (y) = -0.09449 0.21613
# Poissons Ratio (z) = 0.12950 0.06290
#
# Static dielectric constant tensor:
#      x y z
#    x 1.744650 0.000000 -0.009600 
#    y 0.000000 1.739050 0.000000 
#    z -0.009600 0.000000 1.763750 
# 
# From -- ./inp_files/220552.got.cif
#   From: 2010.05.17/outbox.cif.g08.bks.cpg/sg12_111_cif.got.tgz:220552.got - 2010.06.03 13:09:07.
