data_PCOD9187924
_publ_section_title
;
Structure prediction by ZEFSAII (Michael W. Deem and Ramdas Pophale) SiO2 
 PCOD9187924
Probable space group: C 2/M
;
_chemical_formula_sum "Si O2"
_cell_formula_units_Z 42
_cell_length_a 16.702267
_cell_length_b 14.452395
_cell_length_c 7.189608
_cell_angle_alpha 90.000000
_cell_angle_beta 75.689498
_cell_angle_gamma 90.000000
_cell_volume 1681.632088
_symmetry_space_group_name_H-M "C 2/M"
_symmetry_group_IT_number 12
_symmetry_cell_setting 'monoclinic'
loop_
_space_group_symop_operation_xyz
x,y,z
-x,y,-z
-x,-y,-z
x,-y,z
1/2+x,1/2+y,z
1/2-x,1/2+y,-z
1/2-x,1/2-y,-z
1/2+x,1/2-y,z
loop_
_atom_site_type_symbol
_atom_site_label
_atom_site_fract_x
_atom_site_fract_y
_atom_site_fract_z
Si Si1 0.186359 0.605473 0.516505
Si Si2 0.923415 0.850557 0.155269
Si Si3 0.000000 0.500000 0.000000
Si Si4 0.140494 0.193830 0.434856
Si Si5 0.701594 0.604522 0.050124
Si Si6 0.880609 0.353488 0.051961
O O1 0.190349 0.500000 0.436665
O O2 0.146831 0.694343 0.433457
O O3 0.274241 0.648061 0.534720
O O4 0.135461 0.598172 0.738738
O O5 0.925767 0.842248 0.376259
O O6 0.911463 0.746861 0.086492
O O7 0.839474 0.896284 0.127694
O O8 0.000000 0.892483 0.000000
O O9 0.052794 0.418442 0.079845
O O10 0.139566 0.155522 0.227621
O O11 0.712669 0.500000 0.111044
O O12 0.791589 0.650089 0.004938
#
# Coordination Sequence:
#
# PCOD9187924 Si02
#       6
#     8   8   2   8   8   8
#     4   9  16  32  58  87 120 164 204 241 305 372
#     4  11  24  40  62  92 126 161 204 261 310 361
#     4  12  16  32  68 100 126 158 194 252 328 370
#     4   9  20  37  60  87 122 163 203 256 305 360
#     4  11  23  42  65  91 122 165 215 251 302 377
#     4  10  19  35  62  96 127 158 200 250 314 381
#
# _framework density 24.975736000000001
#
# number of rings (size 3 to 8) (size 9 to 14) (size 15 to 20)
#    0.000    1.905    2.857    3.429    0.000    2.667 
#    0.000    0.952    2.095    0.000    0.000   18.667 
#    0.000    0.000    0.000    0.000    0.000    0.000 
#
# Total GULP energy -117064.304576 kJ/mol
# GULP energy per Si atom -5574.490694 kJ/mol
# Density = 2.491889 g / cm^3
# Si number density = 24.975736 Si / 1000 Ang^3
#
#
#
# Elastic Constant Matrix: (Units=GPa)
#
#
# Indices 1 2 3 4 5 6 
#
# 1 73.5059 4.8410 23.9212 0.0000 -9.3156 0.0000
# 2 4.8410 149.2557 22.6241 0.0000 -0.1098 0.0000
# 3 23.9212 22.6241 124.3970 0.0000 7.2309 0.0000
# 4 0.0000 0.0000 0.0000 34.8003 0.0000 -46.0930
# 5 -9.3156 -0.1098 7.2309 0.0000 31.7723 0.0000
# 6 0.0000 0.0000 0.0000 -46.0930 0.0000 108.2989
#
#
#
# Elastic Compliance Matrix: (Units=1/GPa)
#
#
# Indices 1 2 3 4 5 6 
#
# 1 0.015326 0.000000 -0.003251 0.000000 0.005233 0.000000
# 2 0.000000 0.006893 -0.001272 0.000000 0.000313 0.000000
# 3 -0.003251 -0.001272 0.009071 0.000000 -0.003022 0.000000
# 4 0.000000 0.000000 0.000000 0.065864 0.000000 0.028032
# 5 0.005233 0.000313 -0.003022 0.000000 0.033697 0.000000
# 6 0.000000 0.000000 0.000000 0.028032 0.000000 0.021165
#
#
# Mechanical properties :
#
#
# Convention : Reuss Voigt Hill
#
# Bulk Modulus (GPa) = 44.95836 49.99235 47.47535
# Shear Modulus (GPa) = 29.67768 54.69246 42.18507
#
# Velocity S-wave (km/s) = 3.45086 4.68463 4.11425
# Velocity P-wave (km/s) = 5.82390 7.02288 6.45130
#
# Compressibility (1/GPa) = 0.02224281
#
# Stress axis : x y z
#
# Youngs Moduli (GPa) = 65.25000 145.07629 110.24218
#
# Poissons Ratio (x) = 0.00006 0.35842
# Poissons Ratio (y) = 0.00003 0.14020
# Poissons Ratio (z) = 0.21214 0.18450
#
# Static dielectric constant tensor:
#      x y z
#    x 2.054380 0.000000 -0.082880 
#    y 0.000000 2.001530 0.000000 
#    z -0.082880 0.000000 2.116780 
# 
# From -- ./inp_files/73555.got.cif
#   From: 2010.05.17/outbox.cif.g08.bks.cpg/sg12_37_cif.got.tgz:73555.got - 2010.06.03 13:09:07.
