data_PCOD9187489
_publ_section_title
;
Structure prediction by ZEFSAII (Michael W. Deem and Ramdas Pophale) SiO2 
 PCOD9187489
Probable space group: C 2/M
;
_chemical_formula_sum "Si O2"
_cell_formula_units_Z 56
_cell_length_a 30.559322
_cell_length_b 8.845608
_cell_length_c 11.714934
_cell_angle_alpha 90.000000
_cell_angle_beta 65.552439
_cell_angle_gamma 90.000000
_cell_volume 2882.803771
_symmetry_space_group_name_H-M "C 2/M"
_symmetry_group_IT_number 12
_symmetry_cell_setting 'monoclinic'
loop_
_space_group_symop_operation_xyz
x,y,z
-x,y,-z
-x,-y,-z
x,-y,z
1/2+x,1/2+y,z
1/2-x,1/2+y,-z
1/2-x,1/2-y,-z
1/2+x,1/2-y,z
loop_
_atom_site_type_symbol
_atom_site_label
_atom_site_fract_x
_atom_site_fract_y
_atom_site_fract_z
Si Si1 0.726992 0.180386 0.204032
Si Si2 0.707288 0.679927 0.471402
Si Si3 0.574048 0.678455 0.180423
Si Si4 0.513499 0.817749 0.858962
Si Si5 0.557220 0.177912 0.431889
Si Si6 0.105968 0.680925 0.624652
Si Si7 0.320803 0.681416 0.968426
O O1 0.711969 0.259829 0.336787
O O2 0.696529 0.236838 0.128209
O O3 0.721561 0.000000 0.222544
O O4 0.782257 0.215148 0.108791
O O5 0.710341 0.500000 0.469650
O O6 0.750000 0.750000 0.500000
O O7 0.656243 0.734662 0.575581
O O8 0.567098 0.500000 0.175473
O O9 0.527967 0.762681 0.180815
O O10 0.578722 0.722203 0.307983
O O11 0.624149 0.722677 0.066217
O O12 0.565964 0.769164 0.759315
O O13 0.513657 0.000000 0.856911
O O14 0.500000 0.765266 0.000000
O O15 0.500000 0.205681 0.500000
O O16 0.581951 0.206638 0.526345
O O17 0.563862 0.000000 0.397109
O O18 0.113749 0.500000 0.627446
O O19 0.319016 0.500000 0.950608
#
# Coordination Sequence:
#
# PCOD9187489 Si02
#       7
#     8   8   8   8   8   8   8
#     4  10  20  38  62  88 119 156 199 246 299 353
#     4  12  26  43  63  87 118 156 203 252 303 358
#     4  11  22  35  55  86 122 155 193 240 291 349
#     4  10  22  41  62  84 115 155 198 240 286 351
#     4  10  19  35  59  86 119 157 195 240 290 346
#     4  10  21  40  64  90 120 154 195 245 300 352
#     4   9  20  37  58  88 124 158 193 240 297 356
#
# _framework density 19.425533999999999
#
# number of rings (size 3 to 8) (size 9 to 14) (size 15 to 20)
#    0.000    1.714    1.429    3.000    0.000    6.857 
#    0.000    2.857    0.000    0.000    0.000    0.000 
#    0.000    0.000    0.000    0.000    0.000    0.000 
#
# Total GULP energy -156476.124927 kJ/mol
# GULP energy per Si atom -5588.433033 kJ/mol
# Density = 1.938132 g / cm^3
# Si number density = 19.425534 Si / 1000 Ang^3
#
#
#
# Elastic Constant Matrix: (Units=GPa)
#
#
# Indices 1 2 3 4 5 6 
#
# 1 110.3520 43.3763 51.5269 0.0000 -34.5373 0.0000
# 2 43.3763 46.2339 44.3333 0.0000 -13.3683 0.0000
# 3 51.5269 44.3333 119.2346 0.0000 -23.3326 0.0000
# 4 0.0000 0.0000 0.0000 23.5378 0.0000 -6.2041
# 5 -34.5373 -13.3683 -23.3326 0.0000 28.7324 0.0000
# 6 0.0000 0.0000 0.0000 -6.2041 0.0000 21.3621
#
#
#
# Elastic Compliance Matrix: (Units=1/GPa)
#
#
# Indices 1 2 3 4 5 6 
#
# 1 0.019922 -0.013449 -0.000175 0.000000 0.017547 0.000000
# 2 -0.013449 0.043755 -0.011457 0.000000 -0.005113 0.000000
# 3 -0.000175 -0.011457 0.013837 0.000000 0.005696 0.000000
# 4 0.000000 0.000000 0.000000 0.046007 0.000000 0.013362
# 5 0.017547 -0.005113 0.005696 0.000000 0.058143 0.000000
# 6 0.000000 0.000000 0.000000 0.013362 0.000000 0.050692
#
#
# Mechanical properties :
#
#
# Convention : Reuss Voigt Hill
#
# Bulk Modulus (GPa) = 36.56125 61.58816 49.07471
# Shear Modulus (GPa) = 17.14466 23.83207 20.48836
#
# Velocity S-wave (km/s) = 2.97405 3.50643 3.25116
# Velocity P-wave (km/s) = 5.53673 6.94024 6.27783
#
# Compressibility (1/GPa) = 0.02735136
#
# Stress axis : x y z
#
# Youngs Moduli (GPa) = 50.19585 22.85438 72.27037
#
# Poissons Ratio (x) = 0.30738 0.01263
# Poissons Ratio (y) = 0.67510 0.82802
# Poissons Ratio (z) = 0.00877 0.26185
#
# Static dielectric constant tensor:
#      x y z
#    x 1.667310 0.000000 -0.023790 
#    y 0.000000 1.652430 0.000000 
#    z -0.023790 0.000000 1.683500 
# 
# From -- ./inp_files/186364.got.cif
#   From: 2010.05.17/outbox.cif.g08.bks.cpg/sg12_94_cif.got.tgz:186364.got - 2010.06.03 13:09:07.
