data_PCOD9187044
_publ_section_title
;
Structure prediction by ZEFSAII (Michael W. Deem and Ramdas Pophale) SiO2 
 PCOD9187044
Probable space group: C 2/M
;
_chemical_formula_sum "Si O2"
_cell_formula_units_Z 48
_cell_length_a 14.813935
_cell_length_b 11.648913
_cell_length_c 22.979770
_cell_angle_alpha 90.000000
_cell_angle_beta 144.466918
_cell_angle_gamma 90.000000
_cell_volume 2304.660109
_symmetry_space_group_name_H-M "C 2/M"
_symmetry_group_IT_number 12
_symmetry_cell_setting 'monoclinic'
loop_
_space_group_symop_operation_xyz
x,y,z
-x,y,-z
-x,-y,-z
x,-y,z
1/2+x,1/2+y,z
1/2-x,1/2+y,-z
1/2-x,1/2-y,-z
1/2+x,1/2-y,z
loop_
_atom_site_type_symbol
_atom_site_label
_atom_site_fract_x
_atom_site_fract_y
_atom_site_fract_z
Si Si1 0.280385 0.370297 0.982424
Si Si2 0.357989 0.124875 0.214837
Si Si3 0.166681 0.742506 0.374509
Si Si4 0.934608 0.734936 0.905967
Si Si5 0.943882 0.128091 0.582044
Si Si6 0.799461 0.631096 0.727147
O O1 0.276922 0.500000 0.007204
O O2 0.452587 0.342801 0.047711
O O3 0.250000 0.250000 0.000000
O O4 0.164649 0.373086 0.866729
O O5 0.534404 0.150673 0.323285
O O6 0.237484 0.218122 0.173831
O O7 0.311540 0.000000 0.211998
O O8 0.097219 0.852711 0.371363
O O9 0.334005 0.713967 0.488804
O O10 0.177525 0.725816 0.311065
O O11 0.919008 0.652421 0.842584
O O12 0.000000 0.681137 0.000000
O O13 0.123731 0.140944 0.659603
O O14 0.898376 0.000000 0.540528
O O15 0.816210 0.500000 0.713515
#
# Coordination Sequence:
#
# PCOD9187044 Si02
#       6
#     8   8   8   8   8   8
#     4  10  21  37  58  85 119 157 203 256 311 371
#     4  10  19  35  57  83 115 156 202 250 303 366
#     4  11  21  37  65  90 121 160 209 252 308 380
#     4  10  21  38  59  86 123 161 204 257 311 365
#     4  10  22  40  62  90 126 162 202 259 318 370
#     4  11  22  39  63  91 125 165 211 260 313 375
#
# _framework density 20.827366999999999
#
# number of rings (size 3 to 8) (size 9 to 14) (size 15 to 20)
#    0.000    1.667    1.667    3.500    0.000    5.667 
#    0.000    6.667    0.000    2.000    0.000    0.000 
#    0.000    0.000    0.000    0.000    0.000    0.000 
#
# Total GULP energy -133727.790117 kJ/mol
# GULP energy per Si atom -5571.991255 kJ/mol
# Density = 2.077996 g / cm^3
# Si number density = 20.827367 Si / 1000 Ang^3
#
#
#
# Elastic Constant Matrix: (Units=GPa)
#
#
# Indices 1 2 3 4 5 6 
#
# 1 70.2672 17.3511 13.4572 0.0000 0.2724 0.0000
# 2 17.3511 47.6111 9.4331 0.0000 -4.4710 0.0000
# 3 13.4572 9.4331 80.3818 0.0000 4.1619 0.0000
# 4 0.0000 0.0000 0.0000 22.7564 0.0000 -1.8333
# 5 0.2724 -4.4710 4.1619 0.0000 35.9475 0.0000
# 6 0.0000 0.0000 0.0000 -1.8333 0.0000 24.7386
#
#
#
# Elastic Compliance Matrix: (Units=1/GPa)
#
#
# Indices 1 2 3 4 5 6 
#
# 1 0.015969 -0.005477 -0.002001 0.000000 -0.000571 0.000000
# 2 -0.005477 0.023705 -0.002032 0.000000 0.003225 0.000000
# 3 -0.002001 -0.002032 0.013105 0.000000 -0.001755 0.000000
# 4 0.000000 0.000000 0.000000 0.044208 0.000000 0.003276
# 5 -0.000571 0.003225 -0.001755 0.000000 0.028427 0.000000
# 6 0.000000 0.000000 0.000000 0.003276 0.000000 0.040665
#
#
# Mechanical properties :
#
#
# Convention : Reuss Voigt Hill
#
# Bulk Modulus (GPa) = 29.62161 30.97144 30.29652
# Shear Modulus (GPa) = 25.46443 27.22307 26.34375
#
# Velocity S-wave (km/s) = 3.50042 3.61928 3.56035
# Velocity P-wave (km/s) = 5.53088 5.68933 5.61066
#
# Compressibility (1/GPa) = 0.03375914
#
# Stress axis : x y z
#
# Youngs Moduli (GPa) = 62.62027 42.18533 76.30681
#
# Poissons Ratio (x) = 0.23104 0.15271
# Poissons Ratio (y) = 0.34296 0.15505
# Poissons Ratio (z) = 0.12532 0.08572
#
# Static dielectric constant tensor:
#      x y z
#    x 1.832580 0.000000 -0.023190 
#    y 0.000000 1.738190 0.000000 
#    z -0.023190 0.000000 1.750180 
# 
# From -- ./inp_files/212503.got.cif
#   From: 2010.05.17/outbox.cif.g08.bks.cpg/sg12_107_cif.got.tgz:212503.got - 2010.06.03 13:09:07.
