data_PCOD9187957
_publ_section_title
;
Structure prediction by ZEFSAII (Michael W. Deem and Ramdas Pophale) SiO2 
 PCOD9187957
Probable space group: C 2/M
;
_chemical_formula_sum "Si O2"
_cell_formula_units_Z 48
_cell_length_a 19.949878
_cell_length_b 15.998004
_cell_length_c 14.521893
_cell_angle_alpha 90.000000
_cell_angle_beta 29.317255
_cell_angle_gamma 90.000000
_cell_volume 2269.397928
_symmetry_space_group_name_H-M "C 2/M"
_symmetry_group_IT_number 12
_symmetry_cell_setting 'monoclinic'
loop_
_space_group_symop_operation_xyz
x,y,z
-x,y,-z
-x,-y,-z
x,-y,z
1/2+x,1/2+y,z
1/2-x,1/2+y,-z
1/2-x,1/2-y,-z
1/2+x,1/2-y,z
loop_
_atom_site_type_symbol
_atom_site_label
_atom_site_fract_x
_atom_site_fract_y
_atom_site_fract_z
Si Si1 0.596939 0.819529 0.270463
Si Si2 0.296167 0.825941 0.579700
Si Si3 0.190624 0.318507 0.942547
Si Si4 0.695434 0.000000 0.171611
Si Si5 0.800116 0.500000 0.048521
Si Si6 0.836263 0.000000 0.189500
Si Si7 0.117053 0.320219 0.739155
Si Si8 0.082937 0.500000 0.807466
O O1 0.564244 0.803025 0.534669
O O2 0.645115 0.819169 0.105248
O O3 0.614933 0.914313 0.281747
O O4 0.698530 0.754463 0.197818
O O5 0.233860 0.916121 0.683065
O O6 0.186074 0.752163 0.715157
O O7 0.339841 0.821639 0.419819
O O8 0.246655 0.411591 0.854850
O O9 0.047120 0.309842 0.061347
O O10 0.809906 0.000000 0.111741
O O11 0.737997 0.000000 0.013560
O O12 0.967638 0.500000 0.863194
O O13 0.000000 0.000000 0.000000
O O14 0.160889 0.413278 0.715025
O O15 0.000000 0.500000 0.000000
#
# Coordination Sequence:
#
# PCOD9187957 Si02
#       8
#     8   8   8   4   4   4   8   4
#     4   9  17  32  56  84 109 155 199 244 294 366
#     4  10  21  39  59  86 125 160 208 253 312 371
#     4   8  15  30  57  85 113 145 206 246 285 355
#     4  10  21  37  59  80 121 165 203 248 310 374
#     4   8  16  35  57  89 116 157 206 248 292 371
#     4  12  28  41  57  92 130 167 211 270 320 377
#     4   9  19  37  62  87 121 166 200 255 305 370
#     4  10  19  35  63  94 119 157 208 251 306 359
#
# _framework density 21.150983
#
# number of rings (size 3 to 8) (size 9 to 14) (size 15 to 20)
#    0.000    2.667    0.000    2.000    2.333    3.333 
#    6.000    0.833    0.000    0.000    0.000    4.667 
#    0.000    0.000    0.000    0.000    0.000    0.000 
#
# Total GULP energy -133887.030773 kJ/mol
# GULP energy per Si atom -5578.626282 kJ/mol
# Density = 2.110284 g / cm^3
# Si number density = 21.150983 Si / 1000 Ang^3
#
#
#
# Elastic Constant Matrix: (Units=GPa)
#
#
# Indices 1 2 3 4 5 6 
#
# 1 129.7045 78.1818 34.8829 0.0000 -24.8078 0.0000
# 2 78.1818 219.6503 39.2698 0.0000 -36.7730 0.0000
# 3 34.8829 39.2698 77.1143 0.0000 -3.8319 0.0000
# 4 0.0000 0.0000 0.0000 6.1656 0.0000 -7.1154
# 5 -24.8078 -36.7730 -3.8319 0.0000 28.4352 0.0000
# 6 0.0000 0.0000 0.0000 -7.1154 0.0000 22.2375
#
#
#
# Elastic Compliance Matrix: (Units=1/GPa)
#
#
# Indices 1 2 3 4 5 6 
#
# 1 0.011293 -0.002304 -0.003618 0.000000 0.006385 0.000000
# 2 -0.002304 0.006851 -0.002120 0.000000 0.006564 0.000000
# 3 -0.003618 -0.002120 0.015495 0.000000 -0.003810 0.000000
# 4 0.000000 0.000000 0.000000 0.257145 0.000000 0.082279
# 5 0.006385 0.006564 -0.003810 0.000000 0.048714 0.000000
# 6 0.000000 0.000000 0.000000 0.082279 0.000000 0.071296
#
#
# Mechanical properties :
#
#
# Convention : Reuss Voigt Hill
#
# Bulk Modulus (GPa) = 56.96622 81.23757 69.10189
# Shear Modulus (GPa) = 11.55461 29.64329 20.59895
#
# Velocity S-wave (km/s) = 2.33982 3.74773 3.12412
# Velocity P-wave (km/s) = 5.85588 7.56433 6.76426
#
# Compressibility (1/GPa) = 0.01755426
#
# Stress axis : x y z
#
# Youngs Moduli (GPa) = 88.55271 145.97182 64.53788
#
# Poissons Ratio (x) = 0.33627 0.23349
# Poissons Ratio (y) = 0.20399 0.13685
# Poissons Ratio (z) = 0.32037 0.30952
#
# Static dielectric constant tensor:
#      x y z
#    x 1.790440 0.000000 0.034830 
#    y 0.000000 1.794210 0.000000 
#    z 0.034830 0.000000 1.773930 
# 
# From -- ./inp_files/167610.got.cif
#   From: 2010.05.17/outbox.cif.g08.bks.cpg/sg12_84_cif.got.tgz:167610.got - 2010.06.03 13:09:07.
