data_PCOD9187177
_publ_section_title
;
Structure prediction by ZEFSAII (Michael W. Deem and Ramdas Pophale) SiO2 
 PCOD9187177
Probable space group: C 2/M
;
_chemical_formula_sum "Si O2"
_cell_formula_units_Z 64
_cell_length_a 19.248286
_cell_length_b 20.867014
_cell_length_c 27.847402
_cell_angle_alpha 90.000000
_cell_angle_beta 160.909014
_cell_angle_gamma 90.000000
_cell_volume 3658.278339
_symmetry_space_group_name_H-M "C 2/M"
_symmetry_group_IT_number 12
_symmetry_cell_setting 'monoclinic'
loop_
_space_group_symop_operation_xyz
x,y,z
-x,y,-z
-x,-y,-z
x,-y,z
1/2+x,1/2+y,z
1/2-x,1/2+y,-z
1/2-x,1/2-y,-z
1/2+x,1/2-y,z
loop_
_atom_site_type_symbol
_atom_site_label
_atom_site_fract_x
_atom_site_fract_y
_atom_site_fract_z
Si Si1 0.073369 0.673169 0.419096
Si Si2 0.216089 0.633894 0.111635
Si Si3 0.499013 0.749936 0.723253
Si Si4 0.371210 0.425518 0.568039
Si Si5 0.548799 0.205520 0.860113
Si Si6 0.537506 0.383629 0.581824
Si Si7 0.983788 0.427011 0.109152
Si Si8 0.629135 0.760585 0.632441
O O1 0.280564 0.710360 0.574990
O O2 0.173139 0.606859 0.465902
O O3 0.987441 0.708428 0.315793
O O4 0.901488 0.683687 0.348702
O O5 0.307088 0.699657 0.148969
O O6 0.409969 0.607016 0.270157
O O7 0.154265 0.585484 0.028704
O O8 0.000000 0.645068 0.000000
O O9 0.491857 0.790566 0.766900
O O10 0.379952 0.500000 0.583703
O O11 0.372347 0.413581 0.511306
O O12 0.570875 0.132005 0.891174
O O13 0.362542 0.239752 0.768704
O O14 0.750000 0.250000 0.000000
O O15 0.500000 0.390419 0.500000
O O16 0.541505 0.307533 0.595238
O O17 0.767707 0.415264 0.740952
O O18 0.956268 0.500000 0.108385
O O19 0.500000 0.776962 0.500000
#
# Coordination Sequence:
#
# PCOD9187177 Si02
#       8
#     8   8   8   8   8   8   8   8
#     4  10  21  35  57  81 108 147 196 235 282 336
#     4  11  21  35  56  82 115 151 190 234 292 357
#     4  10  20  35  56  82 109 144 192 244 279 328
#     4  11  23  36  54  80 116 157 193 238 289 350
#     4  11  22  37  57  85 113 147 193 242 285 344
#     4  10  21  34  52  81 116 151 187 227 285 359
#     4  11  23  35  52  78 117 155 183 224 287 359
#     4  10  19  35  58  82 109 144 188 237 290 335
#
# _framework density 17.494568999999998
#
# number of rings (size 3 to 8) (size 9 to 14) (size 15 to 20)
#    0.000    1.500    3.750    3.000    5.250    1.500 
#    0.000    0.000    0.000    1.125    0.000    0.000 
#    0.000    3.000    0.000    0.000    0.000    0.000 
#
# Total GULP energy -178536.256717 kJ/mol
# GULP energy per Si atom -5579.258022 kJ/mol
# Density = 1.745475 g / cm^3
# Si number density = 17.494569 Si / 1000 Ang^3
#
#
#
# Elastic Constant Matrix: (Units=GPa)
#
#
# Indices 1 2 3 4 5 6 
#
# 1 96.2067 55.7778 21.2955 -0.0188 0.4841 0.0071
# 2 55.7778 91.4809 29.2722 0.0199 15.0988 0.0223
# 3 21.2955 29.2722 50.2534 -0.0014 4.3702 0.0241
# 4 -0.0188 0.0199 -0.0014 16.4561 0.0373 0.2103
# 5 0.4841 15.0988 4.3702 0.0373 23.7224 0.0080
# 6 0.0071 0.0223 0.0241 0.2103 0.0080 16.4210
#
#
#
# Elastic Compliance Matrix: (Units=1/GPa)
#
#
# Indices 1 2 3 4 5 6 
#
# 1 0.017137 -0.011168 -0.001366 0.000017 0.007010 0.000006
# 2 -0.011168 0.022055 -0.007025 -0.000012 -0.012515 -0.000009
# 3 -0.001366 -0.007025 0.024573 0.000009 -0.000027 -0.000026
# 4 0.000017 -0.000012 0.000009 0.060778 -0.000090 -0.000778
# 5 0.007010 -0.012515 -0.000027 -0.000090 0.049982 -0.000009
# 6 0.000006 -0.000009 -0.000026 -0.000778 -0.000009 0.060908
#
#
# Mechanical properties :
#
#
# Convention : Reuss Voigt Hill
#
# Bulk Modulus (GPa) = 40.57786 50.07022 45.32404
# Shear Modulus (GPa) = 17.68248 20.09293 18.88770
#
# Velocity S-wave (km/s) = 3.18266 3.39266 3.28934
# Velocity P-wave (km/s) = 6.06224 6.63547 6.35532
#
# Compressibility (1/GPa) = 0.02464398
#
# Stress axis : x y z
#
# Youngs Moduli (GPa) = 58.35492 45.34218 40.69569
#
# Poissons Ratio (x) = 0.50640 0.05559
# Poissons Ratio (y) = 0.65174 0.28591
# Poissons Ratio (z) = 0.07971 0.31855
#
# Static dielectric constant tensor:
#      x y z
#    x 1.627410 0.000010 -0.007590 
#    y 0.000010 1.579990 -0.000010 
#    z -0.007590 -0.000010 1.622820 
# 
# From -- ./inp_files/364913.got.cif
#   From: 2010.05.17/outbox.cif.g08.bks.cpg/sg12_183_cif.got.tgz:364913.got - 2010.06.03 13:09:07.
