data_PCOD9187835
_publ_section_title
;
Structure prediction by ZEFSAII (Michael W. Deem and Ramdas Pophale) SiO2 
 PCOD9187835
Probable space group: C 2/M
;
_chemical_formula_sum "Si O2"
_cell_formula_units_Z 40
_cell_length_a 22.829458
_cell_length_b 10.903084
_cell_length_c 7.456490
_cell_angle_alpha 90.000000
_cell_angle_beta 85.257188
_cell_angle_gamma 90.000000
_cell_volume 1849.650916
_symmetry_space_group_name_H-M "C 2/M"
_symmetry_group_IT_number 12
_symmetry_cell_setting 'monoclinic'
loop_
_space_group_symop_operation_xyz
x,y,z
-x,y,-z
-x,-y,-z
x,-y,z
1/2+x,1/2+y,z
1/2-x,1/2+y,-z
1/2-x,1/2-y,-z
1/2+x,1/2-y,z
loop_
_atom_site_type_symbol
_atom_site_label
_atom_site_fract_x
_atom_site_fract_y
_atom_site_fract_z
Si Si1 0.359829 0.857405 0.878427
Si Si2 0.394000 0.500000 0.459026
Si Si3 0.684136 0.257991 0.445877
Si Si4 0.017625 0.725923 0.187102
Si Si5 0.987955 0.000000 0.757418
Si Si6 0.601657 0.140842 0.731200
O O1 0.319079 0.772934 0.764896
O O2 0.423990 0.841641 0.769316
O O3 0.341803 0.000000 0.882682
O O4 0.370947 0.817559 0.082990
O O5 0.351554 0.382386 0.494379
O O6 0.445062 0.500000 0.595755
O O7 0.440233 0.500000 0.279911
O O8 0.750000 0.250000 0.500000
O O9 0.649184 0.155269 0.565737
O O10 0.029841 0.869464 0.156698
O O11 0.957577 0.712312 0.310958
O O12 0.000000 0.670233 0.000000
O O13 0.584943 0.000000 0.759580
#
# Coordination Sequence:
#
# PCOD9187835 Si02
#       6
#     8   4   8   8   4   8
#     4  10  22  41  64  93 124 159 206 257 309 371
#     4  11  24  40  60  96 126 161 212 264 306 371
#     4  12  26  43  65  87 124 169 214 256 307 365
#     4  10  19  35  61  93 126 159 198 253 319 378
#     4  11  19  38  60  88 135 159 200 263 317 380
#     4  10  22  41  64  93 124 159 206 257 309 371
#
# _framework density 21.625703999999999
#
# number of rings (size 3 to 8) (size 9 to 14) (size 15 to 20)
#    0.000    1.400    4.000    1.500    2.800    4.000 
#    0.000    3.000    0.000    0.000    0.000    0.000 
#    0.000    0.000    0.000    0.000    0.000    0.000 
#
# Total GULP energy -111482.489873 kJ/mol
# GULP energy per Si atom -5574.124494 kJ/mol
# Density = 2.157648 g / cm^3
# Si number density = 21.625704 Si / 1000 Ang^3
#
#
#
# Elastic Constant Matrix: (Units=GPa)
#
#
# Indices 1 2 3 4 5 6 
#
# 1 101.3534 8.2340 5.6404 0.0000 22.9102 0.0000
# 2 8.2340 88.1560 -1.0840 0.0000 7.8370 0.0000
# 3 5.6404 -1.0840 48.4896 0.0000 14.1591 0.0000
# 4 0.0000 0.0000 0.0000 26.0417 0.0000 -0.7676
# 5 22.9102 7.8370 14.1591 0.0000 30.6997 0.0000
# 6 0.0000 0.0000 0.0000 -0.7676 0.0000 34.1579
#
#
#
# Elastic Compliance Matrix: (Units=1/GPa)
#
#
# Indices 1 2 3 4 5 6 
#
# 1 0.011956 -0.000256 0.001375 0.000000 -0.009491 0.000000
# 2 -0.000256 0.011684 0.001278 0.000000 -0.003381 0.000000
# 3 0.001375 0.001278 0.024137 0.000000 -0.012485 0.000000
# 4 0.000000 0.000000 0.000000 0.038425 0.000000 0.000864
# 5 -0.009491 -0.003381 -0.012485 0.000000 0.046278 0.000000
# 6 0.000000 0.000000 0.000000 0.000864 0.000000 0.029295
#
#
# Mechanical properties :
#
#
# Convention : Reuss Voigt Hill
#
# Bulk Modulus (GPa) = 19.02171 29.28664 24.15418
# Shear Modulus (GPa) = 28.65247 33.19378 30.92312
#
# Velocity S-wave (km/s) = 3.64390 3.92206 3.78554
# Velocity P-wave (km/s) = 5.14966 5.83798 5.50459
#
# Compressibility (1/GPa) = 0.05257151
#
# Stress axis : x y z
#
# Youngs Moduli (GPa) = 83.63869 85.58901 41.42986
#
# Poissons Ratio (x) = 0.02192 -0.05697
# Poissons Ratio (y) = 0.02142 -0.05296
# Poissons Ratio (z) = -0.11500 -0.10941
#
# Static dielectric constant tensor:
#      x y z
#    x 1.785670 0.000000 -0.005790 
#    y 0.000000 1.798480 0.000000 
#    z -0.005790 0.000000 1.916770 
# 
# From -- ./inp_files/83513.got.cif
#   From: 2010.05.17/outbox.cif.g08.bks.cpg/sg12_42_cif.got.tgz:83513.got - 2010.06.03 13:09:07.
