data_PCOD9187620
_publ_section_title
;
Structure prediction by ZEFSAII (Michael W. Deem and Ramdas Pophale) SiO2 
 PCOD9187620
Probable space group: C 2/M
;
_chemical_formula_sum "Si O2"
_cell_formula_units_Z 48
_cell_length_a 12.750638
_cell_length_b 12.793883
_cell_length_c 28.580296
_cell_angle_alpha 90.000000
_cell_angle_beta 26.470804
_cell_angle_gamma 90.000000
_cell_volume 2078.185471
_symmetry_space_group_name_H-M "C 2/M"
_symmetry_group_IT_number 12
_symmetry_cell_setting 'monoclinic'
loop_
_space_group_symop_operation_xyz
x,y,z
-x,y,-z
-x,-y,-z
x,-y,z
1/2+x,1/2+y,z
1/2-x,1/2+y,-z
1/2-x,1/2-y,-z
1/2+x,1/2-y,z
loop_
_atom_site_type_symbol
_atom_site_label
_atom_site_fract_x
_atom_site_fract_y
_atom_site_fract_z
Si Si1 0.347767 0.628777 0.442123
Si Si2 0.178430 0.888203 0.736173
Si Si3 0.760373 0.715772 0.613354
Si Si4 0.389487 0.116939 0.261837
Si Si5 0.010787 0.720264 0.122752
Si Si6 0.164077 0.383263 0.896045
O O1 0.276896 0.500000 0.479415
O O2 0.250000 0.750000 0.500000
O O3 0.332239 0.646761 0.392364
O O4 0.618558 0.627359 0.351942
O O5 0.330355 0.853493 0.630952
O O6 0.138678 0.814207 0.795514
O O7 0.920705 0.890985 0.815100
O O8 0.253631 0.000000 0.722915
O O9 0.591367 0.802575 0.703070
O O10 0.000000 0.769066 0.500000
O O11 0.547085 0.149032 0.154297
O O12 0.436103 0.000000 0.257945
O O13 0.852288 0.666154 0.147470
O O14 0.250000 0.750000 0.000000
O O15 0.064693 0.500000 0.929119
O O16 0.000000 0.328447 0.000000
#
# Coordination Sequence:
#
# PCOD9187620 Si02
#       6
#     8   8   8   8   8   8
#     4  11  23  42  65  95 129 172 218 266 323 388
#     4  10  22  38  58  85 116 155 199 246 300 365
#     4  11  22  39  63  92 122 158 210 258 317 366
#     4  10  23  42  64  90 125 167 212 259 323 392
#     4  11  21  35  59  90 119 150 201 260 304 361
#     4  10  19  35  60  86 111 152 201 242 297 362
#
# _framework density 23.097072000000001
#
# number of rings (size 3 to 8) (size 9 to 14) (size 15 to 20)
#    0.000    1.500    3.333    2.000    0.000    5.667 
#    0.000    0.000    0.000   11.500    0.000    0.000 
#    0.000    0.000    0.000    0.000    0.000    0.000 
#
# Total GULP energy -133632.748785 kJ/mol
# GULP energy per Si atom -5568.031199 kJ/mol
# Density = 2.304450 g / cm^3
# Si number density = 23.097072 Si / 1000 Ang^3
#
#
#
# Elastic Constant Matrix: (Units=GPa)
#
#
# Indices 1 2 3 4 5 6 
#
# 1 70.1937 29.8954 27.6266 0.0188 23.4315 0.0206
# 2 29.8954 157.7523 30.6432 -0.0096 29.6085 -0.0056
# 3 27.6266 30.6432 115.0525 -0.0017 23.7147 -0.0130
# 4 0.0188 -0.0096 -0.0017 201.1816 -0.0156 176.0195
# 5 23.4315 29.6085 23.7147 -0.0156 40.3424 -0.0141
# 6 0.0206 -0.0056 -0.0130 176.0195 -0.0141 202.3072
#
#
#
# Elastic Compliance Matrix: (Units=1/GPa)
#
#
# Indices 1 2 3 4 5 6 
#
# 1 0.018586 -0.001506 -0.002349 -0.000001 -0.008308 -0.000002
# 2 -0.001506 0.007569 -0.000785 0.000001 -0.004219 -0.000001
# 3 -0.002349 -0.000785 0.010315 -0.000002 -0.004123 0.000003
# 4 -0.000001 0.000001 -0.000002 0.020819 0.000003 -0.018113
# 5 -0.008308 -0.004219 -0.004123 0.000003 0.035133 0.000000
# 6 -0.000002 -0.000001 0.000003 -0.018113 0.000000 0.020703
#
#
# Mechanical properties :
#
#
# Convention : Reuss Voigt Hill
#
# Bulk Modulus (GPa) = 36.77958 57.70319 47.24139
# Shear Modulus (GPa) = 38.03229 105.75515 71.89372
#
# Velocity S-wave (km/s) = 4.06227 6.77397 5.58519
# Velocity P-wave (km/s) = 6.16127 9.28544 7.87974
#
# Compressibility (1/GPa) = 0.02718900
#
# Stress axis : x y z
#
# Youngs Moduli (GPa) = 53.80416 132.12202 96.95039
#
# Poissons Ratio (x) = 0.19904 0.22775
# Poissons Ratio (y) = 0.08105 0.07606
# Poissons Ratio (z) = 0.12639 0.10366
#
# Static dielectric constant tensor:
#      x y z
#    x 1.849070 -0.000020 -0.066720 
#    y -0.000020 2.046860 -0.000030 
#    z -0.066720 -0.000030 2.067320 
# 
# From -- ./inp_files/376027.got.cif
#   From: 2010.05.17/outbox.cif.g08.bks.cpg/sg12_189_cif.got.tgz:376027.got - 2010.06.03 13:09:07.
