data_PCOD9187977
_publ_section_title
;
Structure prediction by ZEFSAII (Michael W. Deem and Ramdas Pophale) SiO2 
 PCOD9187977
Probable space group: C 2/M
;
_chemical_formula_sum "Si O2"
_cell_formula_units_Z 40
_cell_length_a 12.142646
_cell_length_b 21.405120
_cell_length_c 9.729558
_cell_angle_alpha 90.000000
_cell_angle_beta 36.933077
_cell_angle_gamma 90.000000
_cell_volume 1519.543550
_symmetry_space_group_name_H-M "C 2/M"
_symmetry_group_IT_number 12
_symmetry_cell_setting 'monoclinic'
loop_
_space_group_symop_operation_xyz
x,y,z
-x,y,-z
-x,-y,-z
x,-y,z
1/2+x,1/2+y,z
1/2-x,1/2+y,-z
1/2-x,1/2-y,-z
1/2+x,1/2-y,z
loop_
_atom_site_type_symbol
_atom_site_label
_atom_site_fract_x
_atom_site_fract_y
_atom_site_fract_z
Si Si1 0.265484 0.068129 0.452830
Si Si2 0.095022 0.735504 0.533664
Si Si3 0.561334 0.171402 0.075836
Si Si4 0.167407 0.072084 0.141740
Si Si5 0.784132 0.884180 0.210661
O O1 0.399589 0.121839 0.270224
O O2 0.267937 0.068732 0.616029
O O3 0.051682 0.079322 0.632314
O O4 0.319977 0.000000 0.346146
O O5 0.250000 0.750000 0.500000
O O6 0.931455 0.714929 0.799288
O O7 0.183234 0.678268 0.360254
O O8 0.000000 0.773106 0.500000
O O9 0.266888 0.126947 0.123339
O O10 0.500000 0.206786 0.000000
O O11 0.207834 0.000000 0.137154
O O12 0.243004 0.086219 0.911891
O O13 0.000000 0.871630 0.000000
#
# Coordination Sequence:
#
# PCOD9187977 Si02
#       5
#     8   8   8   8   8
#     4   9  19  34  58  95 135 175 223 266 321 396
#     4  11  24  48  71  99 130 170 231 293 351 413
#     4  11  24  42  62  94 139 179 220 277 339 405
#     4  10  19  35  64  97 135 181 223 269 329 398
#     4   9  18  37  63  92 132 169 220 279 333 400
#
# _framework density 26.323692999999999
#
# number of rings (size 3 to 8) (size 9 to 14) (size 15 to 20)
#    0.000    2.000    2.000    1.200    0.000    5.600 
#   10.800    7.000    0.000    0.000    0.000    0.000 
#    0.000    0.000    0.000    0.000    0.000    0.000 
#
# Total GULP energy -111735.646217 kJ/mol
# GULP energy per Si atom -5586.782311 kJ/mol
# Density = 2.626378 g / cm^3
# Si number density = 26.323693 Si / 1000 Ang^3
#
#
#
# Elastic Constant Matrix: (Units=GPa)
#
#
# Indices 1 2 3 4 5 6 
#
# 1 148.3596 36.7882 32.7724 0.0001 29.2599 0.0000
# 2 36.7882 76.2370 44.4997 0.0000 -6.1789 0.0000
# 3 32.7724 44.4997 89.9415 0.0000 6.0467 0.0000
# 4 0.0001 0.0000 0.0000 113.1475 0.0000 -3.3952
# 5 29.2599 -6.1789 6.0467 0.0000 49.6646 0.0000
# 6 0.0000 0.0000 0.0000 -3.3952 0.0000 15.6411
#
#
#
# Elastic Compliance Matrix: (Units=1/GPa)
#
#
# Indices 1 2 3 4 5 6 
#
# 1 0.009169 -0.004472 -0.000734 0.000000 -0.005869 0.000000
# 2 -0.004472 0.021224 -0.009302 0.000000 0.006408 0.000000
# 3 -0.000734 -0.009302 0.016169 0.000000 -0.002694 0.000000
# 4 0.000000 0.000000 0.000000 0.008896 0.000000 0.001931
# 5 -0.005869 0.006408 -0.002694 0.000000 0.024718 0.000000
# 6 0.000000 0.000000 0.000000 0.001931 0.000000 0.064353
#
#
# Mechanical properties :
#
#
# Convention : Reuss Voigt Hill
#
# Bulk Modulus (GPa) = 56.99201 60.29542 58.64372
# Shear Modulus (GPa) = 27.87177 49.05583 38.46380
#
# Velocity S-wave (km/s) = 3.25747 4.32158 3.82669
# Velocity P-wave (km/s) = 5.98712 6.91784 6.46924
#
# Compressibility (1/GPa) = 0.01754632
#
# Stress axis : x y z
#
# Youngs Moduli (GPa) = 109.06576 47.11689 61.84599
#
# Poissons Ratio (x) = 0.21069 0.04539
# Poissons Ratio (y) = 0.48771 0.57530
# Poissons Ratio (z) = 0.08004 0.43829
#
# Static dielectric constant tensor:
#      x y z
#    x 2.228740 0.000000 0.009050 
#    y 0.000000 2.035390 0.000000 
#    z 0.009050 0.000000 2.031850 
# 
# From -- ./inp_files/52330.got.cif
#   From: 2010.05.17/outbox.cif.g08.bks.cpg/sg12_27_cif.got.tgz:52330.got - 2010.06.03 13:09:07.
