data_PCOD9187974
_publ_section_title
;
Structure prediction by ZEFSAII (Michael W. Deem and Ramdas Pophale) SiO2 
 PCOD9187974
Probable space group: C 2/M
;
_chemical_formula_sum "Si O2"
_cell_formula_units_Z 36
_cell_length_a 8.024736
_cell_length_b 22.638995
_cell_length_c 8.261566
_cell_angle_alpha 90.000000
_cell_angle_beta 98.151683
_cell_angle_gamma 90.000000
_cell_volume 1485.730066
_symmetry_space_group_name_H-M "C 2/M"
_symmetry_group_IT_number 12
_symmetry_cell_setting 'monoclinic'
loop_
_space_group_symop_operation_xyz
x,y,z
-x,y,-z
-x,-y,-z
x,-y,z
1/2+x,1/2+y,z
1/2-x,1/2+y,-z
1/2-x,1/2-y,-z
1/2+x,1/2-y,z
loop_
_atom_site_type_symbol
_atom_site_label
_atom_site_fract_x
_atom_site_fract_y
_atom_site_fract_z
Si Si1 0.502802 0.275715 0.175706
Si Si2 0.000000 0.886388 0.500000
Si Si3 0.602179 0.593325 0.174592
Si Si4 0.514096 0.064070 0.808244
Si Si5 0.697329 0.176252 0.326363
O O1 0.611857 0.334998 0.167044
O O2 0.570637 0.230979 0.320191
O O3 0.321690 0.301044 0.201058
O O4 0.500000 0.244890 0.000000
O O5 0.993521 0.920046 0.669767
O O6 0.833512 0.845297 0.475585
O O7 0.789143 0.568973 0.204994
O O8 0.500000 0.574419 0.000000
O O9 0.411436 0.118650 0.724881
O O10 0.449440 0.000000 0.743254
O O11 0.500000 0.066635 0.000000
#
# Coordination Sequence:
#
# PCOD9187974 Si02
#       5
#     8   4   8   8   8
#     4  10  19  35  64  94 128 169 209 265 325 385
#     4  10  24  42  65  96 132 172 213 268 326 384
#     4  10  22  43  67  97 131 168 214 265 326 387
#     4  11  23  41  67  96 131 174 219 268 320 383
#     4  11  22  38  60  94 131 168 217 264 322 386
#
# _framework density 24.230511
#
# number of rings (size 3 to 8) (size 9 to 14) (size 15 to 20)
#    0.000    1.556    0.000    6.667    0.000    4.889 
#    0.000    7.778    0.000    0.667    0.000    0.000 
#    0.000    0.000    0.000    0.000    0.000    0.000 
#
# Total GULP energy -100625.755573 kJ/mol
# GULP energy per Si atom -5590.319754 kJ/mol
# Density = 2.417536 g / cm^3
# Si number density = 24.230511 Si / 1000 Ang^3
#
#
#
# Elastic Constant Matrix: (Units=GPa)
#
#
# Indices 1 2 3 4 5 6 
#
# 1 105.2220 47.2187 44.3212 0.0000 10.5692 0.0000
# 2 47.2187 141.7256 12.0263 0.0000 21.9449 0.0000
# 3 44.3212 12.0263 130.7781 0.0000 -11.2481 0.0000
# 4 0.0000 0.0000 0.0000 7.0475 0.0000 3.8787
# 5 10.5692 21.9449 -11.2481 0.0000 41.6283 0.0000
# 6 0.0000 0.0000 0.0000 3.8787 0.0000 26.6515
#
#
#
# Elastic Compliance Matrix: (Units=1/GPa)
#
#
# Indices 1 2 3 4 5 6 
#
# 1 0.013244 -0.003633 -0.004380 0.000000 -0.002631 0.000000
# 2 -0.003633 0.008832 0.000100 0.000000 -0.003706 0.000000
# 3 -0.004380 0.000100 0.009432 0.000000 0.003608 0.000000
# 4 0.000000 0.000000 0.000000 0.154249 0.000000 -0.022448
# 5 -0.002631 -0.003706 0.003608 0.000000 0.027619 0.000000
# 6 0.000000 0.000000 0.000000 -0.022448 0.000000 0.040788
#
#
# Mechanical properties :
#
#
# Convention : Reuss Voigt Hill
#
# Bulk Modulus (GPa) = 63.77227 64.98422 64.37825
# Shear Modulus (GPa) = 18.16748 33.34275 25.75512
#
# Velocity S-wave (km/s) = 2.74118 3.71356 3.26378
# Velocity P-wave (km/s) = 6.03282 6.72791 6.38982
#
# Compressibility (1/GPa) = 0.01568080
#
# Stress axis : x y z
#
# Youngs Moduli (GPa) = 75.50864 113.22791 106.02034
#
# Poissons Ratio (x) = 0.41139 0.46441
# Poissons Ratio (y) = 0.27435 -0.01065
# Poissons Ratio (z) = 0.33076 -0.01137
#
# Static dielectric constant tensor:
#      x y z
#    x 1.992170 0.000000 -0.001790 
#    y 0.000000 1.933340 0.000000 
#    z -0.001790 0.000000 1.995920 
# 
# From -- ./inp_files/39525.got.cif
#   From: 2010.05.17/outbox.cif.g08.bks.cpg/sg12_20_cif.got.tgz:39525.got - 2010.06.03 13:09:07.
