data_PCOD9187326
_publ_section_title
;
Structure prediction by ZEFSAII (Michael W. Deem and Ramdas Pophale) SiO2 
 PCOD9187326
Probable space group: C 2/M
;
_chemical_formula_sum "Si O2"
_cell_formula_units_Z 52
_cell_length_a 12.784473
_cell_length_b 18.522703
_cell_length_c 11.440192
_cell_angle_alpha 90.000000
_cell_angle_beta 102.563859
_cell_angle_gamma 90.000000
_cell_volume 2644.200768
_symmetry_space_group_name_H-M "C 2/M"
_symmetry_group_IT_number 12
_symmetry_cell_setting 'monoclinic'
loop_
_space_group_symop_operation_xyz
x,y,z
-x,y,-z
-x,-y,-z
x,-y,z
1/2+x,1/2+y,z
1/2-x,1/2+y,-z
1/2-x,1/2-y,-z
1/2+x,1/2-y,z
loop_
_atom_site_type_symbol
_atom_site_label
_atom_site_fract_x
_atom_site_fract_y
_atom_site_fract_z
Si Si1 0.863662 0.743310 0.886445
Si Si2 0.896598 0.134662 0.552750
Si Si3 0.336604 0.500000 0.189923
Si Si4 0.749668 0.500000 0.092455
Si Si5 0.778040 0.147030 0.295015
Si Si6 0.904971 0.000000 0.722154
Si Si7 0.482574 0.735541 0.257463
Si Si8 0.341075 0.157134 0.117644
O O1 0.824238 0.691388 0.771393
O O2 0.966688 0.781818 0.856683
O O3 0.772075 0.802429 0.886382
O O4 0.873725 0.690478 0.999517
O O5 0.801021 0.145424 0.438276
O O6 0.933050 0.208370 0.625525
O O7 0.000000 0.111236 0.500000
O O8 0.876570 0.071980 0.641418
O O9 0.285066 0.568448 0.241548
O O10 0.465824 0.500000 0.232761
O O11 0.307667 0.500000 0.047024
O O12 0.661582 0.500000 0.174237
O O13 0.820460 0.572593 0.115648
O O14 0.879014 0.187292 0.259592
O O15 0.430497 0.814641 0.230756
#
# Coordination Sequence:
#
# PCOD9187326 Si02
#       8
#     8   8   4   4   8   4   8   8
#     4  10  20  38  58  84 118 151 198 242 291 348
#     4  10  19  35  58  90 120 153 191 236 299 352
#     4  12  20  38  57  87 120 154 187 238 300 353
#     4  12  25  39  56  87 120 155 201 237 295 353
#     4  10  21  36  61  88 120 154 192 243 294 344
#     4  12  21  34  59  90 120 156 185 236 301 367
#     4  10  20  36  58  84 109 158 195 234 288 342
#     4  10  22  38  56  83 121 154 190 248 291 343
#
# _framework density 19.665676999999999
#
# number of rings (size 3 to 8) (size 9 to 14) (size 15 to 20)
#    0.000    1.538    4.615    2.308    0.000    0.615 
#    2.769    5.385    0.000    0.000    0.000   14.538 
#    0.000    0.000    0.000    0.000    0.000    0.000 
#
# Total GULP energy -145045.874235 kJ/mol
# GULP energy per Si atom -5578.687471 kJ/mol
# Density = 1.962092 g / cm^3
# Si number density = 19.665677 Si / 1000 Ang^3
#
#
#
# Elastic Constant Matrix: (Units=GPa)
#
#
# Indices 1 2 3 4 5 6 
#
# 1 34.2826 18.3292 20.1642 0.0000 -8.0436 0.0000
# 2 18.3292 130.9070 72.0818 0.0000 10.2397 0.0000
# 3 20.1642 72.0818 104.7700 0.0000 10.9532 0.0000
# 4 0.0000 0.0000 0.0000 30.0197 0.0000 -5.0195
# 5 -8.0436 10.2397 10.9532 0.0000 28.0644 0.0000
# 6 0.0000 0.0000 0.0000 -5.0195 0.0000 19.4128
#
#
#
# Elastic Compliance Matrix: (Units=1/GPa)
#
#
# Indices 1 2 3 4 5 6 
#
# 1 0.038163 -0.002579 -0.007102 0.000000 0.014651 0.000000
# 2 -0.002579 0.012513 -0.007880 0.000000 -0.002229 0.000000
# 3 -0.007102 -0.007880 0.016936 0.000000 -0.005771 0.000000
# 4 0.000000 0.000000 0.000000 0.034817 0.000000 0.009002
# 5 0.014651 -0.002229 -0.005771 0.000000 0.042897 0.000000
# 6 0.000000 0.000000 0.000000 0.009002 0.000000 0.053840
#
#
# Mechanical properties :
#
#
# Convention : Reuss Voigt Hill
#
# Bulk Modulus (GPa) = 30.77803 54.56777 42.67290
# Shear Modulus (GPa) = 20.39831 26.12503 23.26167
#
# Velocity S-wave (km/s) = 3.22414 3.64876 3.44300
# Velocity P-wave (km/s) = 5.43550 6.74975 6.12796
#
# Compressibility (1/GPa) = 0.03249071
#
# Stress axis : x y z
#
# Youngs Moduli (GPa) = 26.20345 79.91479 59.04478
#
# Poissons Ratio (x) = 0.20607 0.41937
# Poissons Ratio (y) = 0.06757 0.46526
# Poissons Ratio (z) = 0.18611 0.62972
#
# Static dielectric constant tensor:
#      x y z
#    x 1.720940 0.000000 0.026480 
#    y 0.000000 1.686280 0.000000 
#    z 0.026480 0.000000 1.735480 
# 
# From -- ./inp_files/144943.got.cif
#   From: 2010.05.17/outbox.cif.g08.bks.cpg/sg12_73_cif.got.tgz:144943.got - 2010.06.03 13:09:07.
