data_PCOD9187637
_publ_section_title
;
Structure prediction by ZEFSAII (Michael W. Deem and Ramdas Pophale) SiO2 
 PCOD9187637
Probable space group: C 2/M
;
_chemical_formula_sum "Si O2"
_cell_formula_units_Z 56
_cell_length_a 15.063500
_cell_length_b 18.682412
_cell_length_c 12.020443
_cell_angle_alpha 90.000000
_cell_angle_beta 124.961396
_cell_angle_gamma 90.000000
_cell_volume 2772.353290
_symmetry_space_group_name_H-M "C 2/M"
_symmetry_group_IT_number 12
_symmetry_cell_setting 'monoclinic'
loop_
_space_group_symop_operation_xyz
x,y,z
-x,y,-z
-x,-y,-z
x,-y,z
1/2+x,1/2+y,z
1/2-x,1/2+y,-z
1/2-x,1/2-y,-z
1/2+x,1/2-y,z
loop_
_atom_site_type_symbol
_atom_site_label
_atom_site_fract_x
_atom_site_fract_y
_atom_site_fract_z
Si Si1 0.486440 0.268948 0.246082
Si Si2 0.395154 0.177650 0.488482
Si Si3 0.266420 0.214489 0.177440
Si Si4 0.215584 0.584180 0.403392
Si Si5 0.568992 0.419464 0.320534
Si Si6 0.899612 0.678910 0.861643
Si Si7 0.373007 0.581380 0.888907
O O1 0.559319 0.241039 0.401442
O O2 0.369513 0.233189 0.176886
O O3 0.485408 0.354524 0.252727
O O4 0.546626 0.239303 0.180318
O O5 0.500000 0.146952 0.500000
O O6 0.313285 0.206636 0.337080
O O7 0.343151 0.120660 0.533593
O O8 0.181604 0.278716 0.117260
O O9 0.203388 0.140471 0.111208
O O10 0.193226 0.500000 0.382539
O O11 0.343866 0.592566 0.519045
O O12 0.168184 0.624615 0.262659
O O13 0.523470 0.500000 0.296420
O O14 0.635259 0.417014 0.251352
O O15 0.000000 0.645269 0.000000
O O16 0.350576 0.500000 0.910171
O O17 0.500000 0.596329 0.000000
#
# Coordination Sequence:
#
# PCOD9187637 Si02
#       7
#     8   8   8   8   8   8   8
#     4  10  21  36  57  90 119 149 199 242 295 358
#     4   9  18  32  54  87 118 143 184 248 301 351
#     4  11  20  35  61  87 118 155 192 238 301 355
#     4  10  20  36  59  82 109 157 202 240 295 351
#     4  10  19  35  60  86 117 152 190 244 298 349
#     4  11  23  39  56  80 117 157 201 251 293 343
#     4  10  20  35  57  88 124 153 185 239 304 354
#
# _framework density 20.199445999999998
#
# number of rings (size 3 to 8) (size 9 to 14) (size 15 to 20)
#    0.000    1.857    2.857    1.286    0.000    3.429 
#    0.000    6.429    0.000    5.571    0.000    0.000 
#    0.000    0.000    0.000    0.000    0.000    0.000 
#
# Total GULP energy -156391.145924 kJ/mol
# GULP energy per Si atom -5585.398069 kJ/mol
# Density = 2.015347 g / cm^3
# Si number density = 20.199446 Si / 1000 Ang^3
#
#
#
# Elastic Constant Matrix: (Units=GPa)
#
#
# Indices 1 2 3 4 5 6 
#
# 1 38.0031 39.9336 7.4261 0.0000 10.3818 0.0000
# 2 39.9336 137.6045 27.6903 0.0000 12.8493 0.0000
# 3 7.4261 27.6903 97.9292 0.0000 9.9722 0.0000
# 4 0.0000 0.0000 0.0000 -2.8690 0.0000 21.8913
# 5 10.3818 12.8493 9.9722 0.0000 21.4660 0.0000
# 6 0.0000 0.0000 0.0000 21.8913 0.0000 22.5740
#
#
#
# Elastic Compliance Matrix: (Units=1/GPa)
#
#
# Indices 1 2 3 4 5 6 
#
# 1 0.041446 -0.010992 0.001403 0.000000 -0.014117 0.000000
# 2 -0.010992 0.010924 -0.002237 0.000000 -0.000184 0.000000
# 3 0.001403 -0.002237 0.011200 0.000000 -0.004543 0.000000
# 4 0.000000 0.000000 0.000000 -0.041497 0.000000 0.040242
# 5 -0.014117 -0.000184 -0.004543 0.000000 0.055633 0.000000
# 6 0.000000 0.000000 0.000000 0.040242 0.000000 0.005274
#
#
# Mechanical properties :
#
#
# Convention : Reuss Voigt Hill
#
# Bulk Modulus (GPa) = 25.05077 47.07077 36.06077
# Shear Modulus (GPa) = 41.68753 21.46665 31.57709
#
# Velocity S-wave (km/s) = 4.54783 3.26350 3.95810
# Velocity P-wave (km/s) = 6.32500 6.12814 6.22735
#
# Compressibility (1/GPa) = 0.03991893
#
# Stress axis : x y z
#
# Youngs Moduli (GPa) = 24.12751 91.53802 89.28483
#
# Poissons Ratio (x) = 1.00619 -0.12524
# Poissons Ratio (y) = 0.26521 0.19970
# Poissons Ratio (z) = -0.03384 0.20474
#
# Static dielectric constant tensor:
#      x y z
#    x 1.693510 0.000000 0.009500 
#    y 0.000000 1.694450 0.000000 
#    z 0.009500 0.000000 1.783700 
# 
# From -- ./inp_files/146259.got.cif
#   From: 2010.05.17/outbox.cif.g08.bks.cpg/sg12_74_cif.got.tgz:146259.got - 2010.06.03 13:09:07.
