data_PCOD9187333
_publ_section_title
;
Structure prediction by ZEFSAII (Michael W. Deem and Ramdas Pophale) SiO2 
 PCOD9187333
Probable space group: C 2/M
;
_chemical_formula_sum "Si O2"
_cell_formula_units_Z 56
_cell_length_a 18.627923
_cell_length_b 15.874103
_cell_length_c 9.371433
_cell_angle_alpha 90.000000
_cell_angle_beta 95.491126
_cell_angle_gamma 90.000000
_cell_volume 2758.430727
_symmetry_space_group_name_H-M "C 2/M"
_symmetry_group_IT_number 12
_symmetry_cell_setting 'monoclinic'
loop_
_space_group_symop_operation_xyz
x,y,z
-x,y,-z
-x,-y,-z
x,-y,z
1/2+x,1/2+y,z
1/2-x,1/2+y,-z
1/2-x,1/2-y,-z
1/2+x,1/2-y,z
loop_
_atom_site_type_symbol
_atom_site_label
_atom_site_fract_x
_atom_site_fract_y
_atom_site_fract_z
Si Si1 0.187691 0.092948 0.598086
Si Si2 0.223577 0.594451 0.899961
Si Si3 0.533560 0.899399 0.159710
Si Si4 0.804236 0.339029 0.808601
Si Si5 0.096214 0.402077 0.643384
Si Si6 0.685334 0.338755 0.301639
Si Si7 0.916128 0.771599 0.503259
O O1 0.252232 0.095861 0.720799
O O2 0.218128 0.114893 0.445716
O O3 0.129649 0.167297 0.610568
O O4 0.154574 0.000000 0.587734
O O5 0.216115 0.500000 0.956363
O O6 0.162213 0.603745 0.767536
O O7 0.299586 0.606505 0.834129
O O8 0.211056 0.657372 0.026547
O O9 0.611472 0.858311 0.195429
O O10 0.476252 0.885335 0.276304
O O11 0.544459 0.000000 0.152984
O O12 0.500000 0.872853 0.000000
O O13 0.781672 0.250990 0.732879
O O14 0.093265 0.500000 0.589488
O O15 0.102999 0.326141 0.531486
O O16 0.607934 0.310799 0.348793
O O17 0.000000 0.781392 0.500000
#
# Coordination Sequence:
#
# PCOD9187333 Si02
#       7
#     8   8   8   8   8   8   8
#     4  10  23  41  64  89 118 161 209 261 307 352
#     4  11  22  38  62  91 125 163 203 245 301 366
#     4  10  19  35  58  90 128 164 201 234 292 373
#     4  12  21  38  64  91 126 162 202 251 299 360
#     4  10  21  37  60  92 130 167 200 243 299 368
#     4  10  24  40  61  89 124 157 206 255 307 361
#     4  10  23  43  63  86 121 157 211 258 307 367
#
# _framework density 20.301397999999999
#
# number of rings (size 3 to 8) (size 9 to 14) (size 15 to 20)
#    0.857    0.714    1.429    4.286    2.000    0.571 
#    0.000    1.429    0.000    0.000    0.000    2.000 
#    0.000    0.000    0.000    0.000    0.000    0.000 
#
# Total GULP energy -156101.851612 kJ/mol
# GULP energy per Si atom -5575.066129 kJ/mol
# Density = 2.025519 g / cm^3
# Si number density = 20.301398 Si / 1000 Ang^3
#
#
#
# Elastic Constant Matrix: (Units=GPa)
#
#
# Indices 1 2 3 4 5 6 
#
# 1 85.7698 40.6561 29.6309 0.0000 -3.8031 0.0000
# 2 40.6561 95.2878 16.9716 0.0000 9.9871 0.0000
# 3 29.6309 16.9716 45.3217 0.0000 -2.5885 0.0000
# 4 0.0000 0.0000 0.0000 35.4372 0.0000 2.6272
# 5 -3.8031 9.9871 -2.5885 0.0000 26.5182 0.0000
# 6 0.0000 0.0000 0.0000 2.6272 0.0000 23.2029
#
#
#
# Elastic Compliance Matrix: (Units=1/GPa)
#
#
# Indices 1 2 3 4 5 6 
#
# 1 0.018100 -0.006529 -0.009151 0.000000 0.004161 0.000000
# 2 -0.006529 0.014206 -0.001418 0.000000 -0.006425 0.000000
# 3 -0.009151 -0.001418 0.028694 0.000000 0.002023 0.000000
# 4 0.000000 0.000000 0.000000 0.028458 0.000000 -0.003222
# 5 0.004161 -0.006425 0.002023 0.000000 0.040924 0.000000
# 6 0.000000 0.000000 0.000000 -0.003222 0.000000 0.043463
#
#
# Mechanical properties :
#
#
# Convention : Reuss Voigt Hill
#
# Bulk Modulus (GPa) = 37.30816 44.54407 40.92611
# Shear Modulus (GPa) = 23.04413 26.30639 24.67526
#
# Velocity S-wave (km/s) = 3.37278 3.60362 3.49011
# Velocity P-wave (km/s) = 5.79522 6.26927 6.03690
#
# Compressibility (1/GPa) = 0.02680379
#
# Stress axis : x y z
#
# Youngs Moduli (GPa) = 55.24931 70.39193 34.85065
#
# Poissons Ratio (x) = 0.45958 0.31892
# Poissons Ratio (y) = 0.36072 0.04943
# Poissons Ratio (z) = 0.50558 0.09983
#
# Static dielectric constant tensor:
#      x y z
#    x 1.725040 0.000000 -0.028460 
#    y 0.000000 1.767680 0.000000 
#    z -0.028460 0.000000 1.749750 
# 
# From -- ./inp_files/87370.got.cif
#   From: 2010.05.17/outbox.cif.g08.bks.cpg/sg12_44_cif.got.tgz:87370.got - 2010.06.03 13:09:07.
