data_PCOD9187624
_publ_section_title
;
Structure prediction by ZEFSAII (Michael W. Deem and Ramdas Pophale) SiO2 
 PCOD9187624
Probable space group: C 2/M
;
_chemical_formula_sum "Si O2"
_cell_formula_units_Z 64
_cell_length_a 27.972128
_cell_length_b 13.681494
_cell_length_c 20.084036
_cell_angle_alpha 90.000000
_cell_angle_beta 23.428433
_cell_angle_gamma 90.000000
_cell_volume 3056.046637
_symmetry_space_group_name_H-M "C 2/M"
_symmetry_group_IT_number 12
_symmetry_cell_setting 'monoclinic'
loop_
_space_group_symop_operation_xyz
x,y,z
-x,y,-z
-x,-y,-z
x,-y,z
1/2+x,1/2+y,z
1/2-x,1/2+y,-z
1/2-x,1/2-y,-z
1/2+x,1/2-y,z
loop_
_atom_site_type_symbol
_atom_site_label
_atom_site_fract_x
_atom_site_fract_y
_atom_site_fract_z
Si Si1 0.088755 0.113852 0.128503
Si Si2 0.416499 0.888398 0.541917
Si Si3 0.256343 0.248273 0.164717
Si Si4 0.629932 0.882733 0.638339
Si Si5 0.994608 0.298445 0.931183
Si Si6 0.941499 0.618050 0.770341
Si Si7 0.602307 0.387106 0.739402
Si Si8 0.327669 0.616776 0.839358
O O1 0.083410 0.141563 0.213156
O O2 0.964956 0.118705 0.245959
O O3 0.129542 0.000000 0.075238
O O4 0.182521 0.177516 0.966354
O O5 0.500000 0.892963 0.500000
O O6 0.312153 0.813079 0.693225
O O7 0.499675 0.854950 0.374679
O O8 0.372323 0.000000 0.584913
O O9 0.170589 0.177550 0.231055
O O10 0.364369 0.190339 0.062975
O O11 0.592566 0.849765 0.759176
O O12 0.526550 0.845066 0.720797
O O13 0.760986 0.853594 0.445273
O O14 0.629050 0.000000 0.637840
O O15 0.029712 0.183961 0.880529
O O16 0.000000 0.331334 0.000000
O O17 0.945772 0.500000 0.766177
O O18 0.803539 0.640716 0.961079
O O19 0.600050 0.500000 0.763847
O O20 0.334465 0.500000 0.817487
#
# Coordination Sequence:
#
# PCOD9187624 Si02
#       8
#     8   8   8   8   8   8   8   8
#     4   9  18  33  54  84 116 146 185 235 288 343
#     4  10  21  37  57  86 121 149 183 235 293 347
#     4  11  21  35  55  85 118 151 190 231 288 344
#     4  10  20  39  62  82 109 149 197 239 281 336
#     4  11  24  38  55  85 118 151 190 238 289 338
#     4   9  18  33  57  84 108 144 188 234 284 330
#     4   9  20  38  59  83 113 149 189 235 287 344
#     4  10  19  35  60  86 114 149 194 237 278 335
#
# _framework density 20.942087999999998
#
# number of rings (size 3 to 8) (size 9 to 14) (size 15 to 20)
#    0.000    2.125    1.250    1.875    1.750    3.000 
#    0.000    0.000    0.000    0.375    0.000    1.750 
#    0.000    0.000    0.000    0.000    0.000    0.000 
#
# Total GULP energy -178779.770932 kJ/mol
# GULP energy per Si atom -5586.867842 kJ/mol
# Density = 2.089442 g / cm^3
# Si number density = 20.942088 Si / 1000 Ang^3
#
#
#
# Elastic Constant Matrix: (Units=GPa)
#
#
# Indices 1 2 3 4 5 6 
#
# 1 87.6673 1.2588 5.6774 0.0000 13.1633 0.0000
# 2 1.2588 43.7678 -2.2710 0.0000 5.9663 0.0000
# 3 5.6774 -2.2710 34.0152 0.0000 4.1753 0.0000
# 4 0.0000 0.0000 0.0000 19.9625 0.0000 3.4791
# 5 13.1633 5.9663 4.1753 0.0000 32.5423 0.0000
# 6 0.0000 0.0000 0.0000 3.4791 0.0000 21.5172
#
#
#
# Elastic Compliance Matrix: (Units=1/GPa)
#
#
# Indices 1 2 3 4 5 6 
#
# 1 0.012217 0.000228 -0.001435 0.000000 -0.004800 0.000000
# 2 0.000228 0.023590 0.002112 0.000000 -0.004688 0.000000
# 3 -0.001435 0.002112 0.030232 0.000000 -0.003686 0.000000
# 4 0.000000 0.000000 0.000000 0.051546 0.000000 -0.008335
# 5 -0.004800 -0.004688 -0.003686 0.000000 0.034003 0.000000
# 6 0.000000 0.000000 0.000000 -0.008335 0.000000 0.047822
#
#
# Mechanical properties :
#
#
# Convention : Reuss Voigt Hill
#
# Bulk Modulus (GPa) = 14.73824 19.42007 17.07915
# Shear Modulus (GPa) = 22.70508 25.52341 24.11425
#
# Velocity S-wave (km/s) = 3.29627 3.49486 3.39702
# Velocity P-wave (km/s) = 4.64113 5.05755 4.85381
#
# Compressibility (1/GPa) = 0.06785071
#
# Stress axis : x y z
#
# Youngs Moduli (GPa) = 81.85282 42.39081 33.07808
#
# Poissons Ratio (x) = -0.00968 0.04746
# Poissons Ratio (y) = -0.01870 -0.06987
# Poissons Ratio (z) = 0.11744 -0.08954
#
# Static dielectric constant tensor:
#      x y z
#    x 1.758420 0.000000 -0.030110 
#    y 0.000000 1.820150 0.000000 
#    z -0.030110 0.000000 1.723460 
# 
# From -- ./inp_files/330346.got.cif
#   From: 2010.05.17/outbox.cif.g08.bks.cpg/sg12_166_cif.got.tgz:330346.got - 2010.06.03 13:09:07.
