data_PCOD9187234
_publ_section_title
;
Structure prediction by ZEFSAII (Michael W. Deem and Ramdas Pophale) SiO2 
 PCOD9187234
Probable space group: C 2/M
;
_chemical_formula_sum "Si O2"
_cell_formula_units_Z 48
_cell_length_a 21.036022
_cell_length_b 8.411453
_cell_length_c 15.229188
_cell_angle_alpha 90.000000
_cell_angle_beta 108.274029
_cell_angle_gamma 90.000000
_cell_volume 2558.805781
_symmetry_space_group_name_H-M "C 2/M"
_symmetry_group_IT_number 12
_symmetry_cell_setting 'monoclinic'
loop_
_space_group_symop_operation_xyz
x,y,z
-x,y,-z
-x,-y,-z
x,-y,z
1/2+x,1/2+y,z
1/2-x,1/2+y,-z
1/2-x,1/2-y,-z
1/2+x,1/2-y,z
loop_
_atom_site_type_symbol
_atom_site_label
_atom_site_fract_x
_atom_site_fract_y
_atom_site_fract_z
Si Si1 0.207673 0.307722 0.565019
Si Si2 0.191382 0.809566 0.037516
Si Si3 0.552083 0.309447 0.257945
Si Si4 0.695196 0.693802 0.239966
Si Si5 0.057632 0.307600 0.458276
Si Si6 0.956618 0.690440 0.065681
O O1 0.207966 0.500000 0.564889
O O2 0.250000 0.250000 0.500000
O O3 0.245368 0.254256 0.669710
O O4 0.131152 0.254103 0.521853
O O5 0.201517 0.752487 0.142391
O O6 0.192277 0.000000 0.038800
O O7 0.250000 0.750000 0.000000
O O8 0.118523 0.753650 0.974452
O O9 0.551428 0.500000 0.256640
O O10 0.623931 0.255709 0.249770
O O11 0.545584 0.250489 0.354399
O O12 0.494247 0.246840 0.169243
O O13 0.695261 0.500000 0.239482
O O14 0.057532 0.500000 0.457389
O O15 0.000000 0.254046 0.500000
O O16 0.954955 0.500000 0.063507
O O17 0.000000 0.746066 0.000000
#
# Coordination Sequence:
#
# PCOD9187234 Si02
#       6
#     8   8   8   8   8   8
#     4  10  19  35  58  84 112 150 195 238 287 347
#     4  11  23  41  62  89 125 162 201 249 306 361
#     4  11  21  37  62  89 118 155 202 250 301 359
#     4   9  19  35  58  85 116 156 197 242 299 357
#     4  10  22  38  57  86 124 160 195 244 303 358
#     4  11  23  39  62  91 121 156 203 253 305 366
#
# _framework density 18.758751
#
# number of rings (size 3 to 8) (size 9 to 14) (size 15 to 20)
#    0.000    1.667    3.333    1.500    0.000    2.333 
#    0.000    5.000    0.000    0.000    0.000    0.000 
#    0.000    0.000    0.000    0.000    0.000    0.000 
#
# Total GULP energy -134089.135018 kJ/mol
# GULP energy per Si atom -5587.047292 kJ/mol
# Density = 1.871606 g / cm^3
# Si number density = 18.758751 Si / 1000 Ang^3
#
#
#
# Elastic Constant Matrix: (Units=GPa)
#
#
# Indices 1 2 3 4 5 6 
#
# 1 200.2629 33.7743 129.3447 0.0000 0.4723 0.0000
# 2 33.7743 25.1575 29.5815 0.0000 1.1019 0.0000
# 3 129.3447 29.5815 220.5955 0.0000 9.5097 0.0000
# 4 0.0000 0.0000 0.0000 19.8566 0.0000 -5.6708
# 5 0.4723 1.1019 9.5097 0.0000 39.2080 0.0000
# 6 0.0000 0.0000 0.0000 -5.6708 0.0000 24.6409
#
#
#
# Elastic Compliance Matrix: (Units=1/GPa)
#
#
# Indices 1 2 3 4 5 6 
#
# 1 0.009005 -0.006972 -0.004395 0.000000 0.001153 0.000000
# 2 -0.006972 0.052591 -0.002935 0.000000 -0.000682 0.000000
# 3 -0.004395 -0.002935 0.007577 0.000000 -0.001702 0.000000
# 4 0.000000 0.000000 0.000000 0.053904 0.000000 0.012405
# 5 0.001153 -0.000682 -0.001702 0.000000 0.025923 0.000000
# 6 0.000000 0.000000 0.000000 0.012405 0.000000 0.043438
#
#
# Mechanical properties :
#
#
# Convention : Reuss Voigt Hill
#
# Bulk Modulus (GPa) = 24.64937 92.37966 58.51451
# Shear Modulus (GPa) = 21.31610 33.62880 27.47245
#
# Velocity S-wave (km/s) = 3.37460 4.23862 3.83105
# Velocity P-wave (km/s) = 5.32472 8.56199 7.12953
#
# Compressibility (1/GPa) = 0.04056900
#
# Stress axis : x y z
#
# Youngs Moduli (GPa) = 111.04818 19.01477 131.97852
#
# Poissons Ratio (x) = 0.13258 0.58002
# Poissons Ratio (y) = 0.77426 0.38732
# Poissons Ratio (z) = 0.48804 0.05580
#
# Static dielectric constant tensor:
#      x y z
#    x 1.624640 0.000000 0.003550 
#    y 0.000000 1.643560 0.000000 
#    z 0.003550 0.000000 1.628150 
# 
# From -- ./inp_files/230337.got.cif
#   From: 2010.05.17/outbox.cif.g08.bks.cpg/sg12_116_cif.got.tgz:230337.got - 2010.06.03 13:09:07.
