data_PCOD9187007
_publ_section_title
;
Structure prediction by ZEFSAII (Michael W. Deem and Ramdas Pophale) SiO2 
 PCOD9187007
Probable space group: C 2/M
;
_chemical_formula_sum "Si O2"
_cell_formula_units_Z 56
_cell_length_a 25.272283
_cell_length_b 8.724951
_cell_length_c 15.396185
_cell_angle_alpha 90.000000
_cell_angle_beta 73.876482
_cell_angle_gamma 90.000000
_cell_volume 3261.314435
_symmetry_space_group_name_H-M "C 2/M"
_symmetry_group_IT_number 12
_symmetry_cell_setting 'monoclinic'
loop_
_space_group_symop_operation_xyz
x,y,z
-x,y,-z
-x,-y,-z
x,-y,z
1/2+x,1/2+y,z
1/2-x,1/2+y,-z
1/2-x,1/2-y,-z
1/2+x,1/2-y,z
loop_
_atom_site_type_symbol
_atom_site_label
_atom_site_fract_x
_atom_site_fract_y
_atom_site_fract_z
Si Si1 0.433250 0.816389 0.899066
Si Si2 0.263126 0.182131 0.088976
Si Si3 0.454982 0.317107 0.405310
Si Si4 0.879895 0.817624 0.092669
Si Si5 0.345054 0.816522 0.787709
Si Si6 0.944399 0.683597 0.224116
Si Si7 0.426519 0.183877 0.596597
O O1 0.387046 0.781433 0.847703
O O2 0.493364 0.776945 0.835032
O O3 0.432023 0.000000 0.915073
O O4 0.418606 0.732294 0.994611
O O5 0.230675 0.500000 0.920477
O O6 0.319380 0.254614 0.098198
O O7 0.211359 0.227636 0.172053
O O8 0.250000 0.250000 0.000000
O O9 0.455804 0.500000 0.408906
O O10 0.434288 0.258621 0.322123
O O11 0.421374 0.250171 0.502321
O O12 0.517086 0.253302 0.390298
O O13 0.903377 0.743472 0.169428
O O14 0.878884 0.000000 0.100499
O O15 0.376720 0.780028 0.684192
O O16 0.334776 0.000000 0.795000
O O17 0.941408 0.500000 0.232973
O O18 0.432741 0.000000 0.590549
#
# Coordination Sequence:
#
# PCOD9187007 Si02
#       7
#     8   8   8   8   8   8   8
#     4  10  20  36  57  82 114 152 189 228 278 335
#     4  12  24  39  59  82 110 149 191 236 281 329
#     4  11  21  33  53  84 118 148 185 234 280 331
#     4  12  25  39  56  82 114 151 191 235 280 334
#     4  10  20  36  59  85 114 147 187 234 281 331
#     4  11  22  39  59  81 113 155 192 229 279 341
#     4  10  19  35  57  82 113 151 188 227 282 340
#
# _framework density 17.170991000000001
#
# number of rings (size 3 to 8) (size 9 to 14) (size 15 to 20)
#    0.000    1.143    2.857    6.000    0.000    4.000 
#    0.000    0.000    0.000    0.857    0.000    0.000 
#    0.000    0.000    0.000    0.000    0.000    0.000 
#
# Total GULP energy -156544.097069 kJ/mol
# GULP energy per Si atom -5590.860610 kJ/mol
# Density = 1.713191 g / cm^3
# Si number density = 17.170991 Si / 1000 Ang^3
#
#
#
# Elastic Constant Matrix: (Units=GPa)
#
#
# Indices 1 2 3 4 5 6 
#
# 1 60.5640 24.4393 38.7537 0.0000 14.5170 0.0000
# 2 24.4393 85.4074 56.0855 0.0000 4.1767 0.0000
# 3 38.7537 56.0855 143.0843 0.0000 12.5353 0.0000
# 4 0.0000 0.0000 0.0000 21.1196 0.0000 2.9023
# 5 14.5170 4.1767 12.5353 0.0000 24.3503 0.0000
# 6 0.0000 0.0000 0.0000 2.9023 0.0000 26.9944
#
#
#
# Elastic Compliance Matrix: (Units=1/GPa)
#
#
# Indices 1 2 3 4 5 6 
#
# 1 0.023098 -0.003498 -0.003907 0.000000 -0.011159 0.000000
# 2 -0.003498 0.016303 -0.005635 0.000000 0.002190 0.000000
# 3 -0.003907 -0.005635 0.010438 0.000000 -0.002077 0.000000
# 4 0.000000 0.000000 0.000000 0.048059 0.000000 -0.005167
# 5 -0.011159 0.002190 -0.002077 0.000000 0.048414 0.000000
# 6 0.000000 0.000000 0.000000 -0.005167 0.000000 0.037600
#
#
# Mechanical properties :
#
#
# Convention : Reuss Voigt Hill
#
# Bulk Modulus (GPa) = 42.08995 58.62363 50.35679
# Shear Modulus (GPa) = 22.94516 25.81134 24.37825
#
# Velocity S-wave (km/s) = 3.65948 3.88131 3.77202
# Velocity P-wave (km/s) = 6.51315 7.36894 6.95422
#
# Compressibility (1/GPa) = 0.02375864
#
# Stress axis : x y z
#
# Youngs Moduli (GPa) = 43.29400 61.33984 95.80571
#
# Poissons Ratio (x) = 0.21456 0.37434
# Poissons Ratio (y) = 0.15144 0.53983
# Poissons Ratio (z) = 0.16916 0.34563
#
# Static dielectric constant tensor:
#      x y z
#    x 1.555840 0.000000 -0.003720 
#    y 0.000000 1.571730 0.000000 
#    z -0.003720 0.000000 1.581070 
# 
# From -- ./inp_files/237423.got.cif
#   From: 2010.05.17/outbox.cif.g08.bks.cpg/sg12_119_cif.got.tgz:237423.got - 2010.06.03 13:09:07.
