data_PCOD9187726
_publ_section_title
;
Structure prediction by ZEFSAII (Michael W. Deem and Ramdas Pophale) SiO2 
 PCOD9187726
Probable space group: C 2/M
;
_chemical_formula_sum "Si O2"
_cell_formula_units_Z 64
_cell_length_a 20.305004
_cell_length_b 7.656992
_cell_length_c 23.829057
_cell_angle_alpha 90.000000
_cell_angle_beta 53.577309
_cell_angle_gamma 90.000000
_cell_volume 2981.122699
_symmetry_space_group_name_H-M "C 2/M"
_symmetry_group_IT_number 12
_symmetry_cell_setting 'monoclinic'
loop_
_space_group_symop_operation_xyz
x,y,z
-x,y,-z
-x,-y,-z
x,-y,z
1/2+x,1/2+y,z
1/2-x,1/2+y,-z
1/2-x,1/2-y,-z
1/2+x,1/2-y,z
loop_
_atom_site_type_symbol
_atom_site_label
_atom_site_fract_x
_atom_site_fract_y
_atom_site_fract_z
Si Si1 0.470080 0.289710 0.377515
Si Si2 0.690847 0.795349 0.478168
Si Si3 0.581479 0.794758 0.988366
Si Si4 0.556201 0.712941 0.736512
Si Si5 0.264840 0.288316 0.324785
Si Si6 0.735938 0.714417 0.120962
Si Si7 0.652132 0.706865 0.277641
Si Si8 0.903675 0.788409 0.889755
O O1 0.470504 0.500000 0.376536
O O2 0.401901 0.242044 0.457205
O O3 0.444540 0.230437 0.327946
O O4 0.562459 0.224542 0.339680
O O5 0.750000 0.750000 0.500000
O O6 0.721441 0.719764 0.403571
O O7 0.698821 0.000000 0.467177
O O8 0.670536 0.722627 0.925968
O O9 0.583448 0.000000 0.972491
O O10 0.500000 0.720224 0.000000
O O11 0.578908 0.777197 0.056801
O O12 0.554815 0.500000 0.736424
O O13 0.640770 0.768795 0.722039
O O14 0.476075 0.767700 0.810987
O O15 0.265086 0.500000 0.325162
O O16 0.215852 0.233062 0.294993
O O17 0.737426 0.500000 0.120080
O O18 0.687662 0.774112 0.200889
O O19 0.682836 0.767107 0.093530
O O20 0.641268 0.500000 0.274044
O O21 0.904036 0.000000 0.891567
#
# Coordination Sequence:
#
# PCOD9187726 Si02
#       8
#     8   8   8   8   8   8   8   8
#     4  10  19  37  61  83 111 146 189 235 279 330
#     4  11  22  37  59  84 113 151 190 233 283 337
#     4  10  22  37  53  80 119 151 176 221 285 338
#     4   9  17  34  58  81 106 143 186 229 278 327
#     4  10  22  38  55  79 114 148 178 227 291 338
#     4   9  18  36  59  80 108 149 188 225 276 332
#     4  10  21  37  60  85 110 147 192 233 274 333
#     4  10  19  35  61  83 104 143 194 233 265 323
#
# _framework density 21.468423000000001
#
# number of rings (size 3 to 8) (size 9 to 14) (size 15 to 20)
#    0.000    2.125    2.500    0.750    1.750    2.250 
#    0.000    4.375    0.000    0.000    0.000    0.000 
#    0.000    0.000    0.000    0.000    0.000    0.000 
#
# Total GULP energy -178724.661981 kJ/mol
# GULP energy per Si atom -5585.145687 kJ/mol
# Density = 2.141956 g / cm^3
# Si number density = 21.468423 Si / 1000 Ang^3
#
#
#
# Elastic Constant Matrix: (Units=GPa)
#
#
# Indices 1 2 3 4 5 6 
#
# 1 156.6109 -5.7690 46.1133 -0.0004 -13.9642 -0.0021
# 2 -5.7690 34.3851 -2.5784 -0.0008 -3.7050 -0.0060
# 3 46.1133 -2.5784 94.4042 -0.0002 -18.7002 -0.0003
# 4 -0.0004 -0.0008 -0.0002 16.2676 0.0001 5.5085
# 5 -13.9642 -3.7050 -18.7002 0.0001 37.5212 0.0000
# 6 -0.0021 -0.0060 -0.0003 5.5085 0.0000 18.5799
#
#
#
# Elastic Compliance Matrix: (Units=1/GPa)
#
#
# Indices 1 2 3 4 5 6 
#
# 1 0.007540 0.001141 -0.003410 0.000000 0.001219 0.000001
# 2 0.001141 0.029768 0.001023 -0.000002 0.003874 0.000010
# 3 -0.003410 0.001023 0.013376 0.000000 0.005498 0.000000
# 4 0.000000 -0.000002 0.000000 0.068332 0.000000 -0.020259
# 5 0.001219 0.003874 0.005498 0.000000 0.030228 0.000002
# 6 0.000001 0.000010 0.000000 -0.020259 0.000002 0.059828
#
#
# Mechanical properties :
#
#
# Convention : Reuss Voigt Hill
#
# Bulk Modulus (GPa) = 20.75090 40.10355 30.42722
# Shear Modulus (GPa) = 21.96564 30.98268 26.47416
#
# Velocity S-wave (km/s) = 3.20216 3.80304 3.51546
# Velocity P-wave (km/s) = 4.83306 6.16481 5.53911
#
# Compressibility (1/GPa) = 0.04819068
#
# Stress axis : x y z
#
# Youngs Moduli (GPa) = 132.62309 33.59319 74.76240
#
# Poissons Ratio (x) = -0.03832 0.25498
# Poissons Ratio (y) = -0.15128 -0.07650
# Poissons Ratio (z) = 0.45231 -0.03437
#
# Static dielectric constant tensor:
#      x y z
#    x 1.749790 0.000000 -0.026510 
#    y 0.000000 1.773170 0.000000 
#    z -0.026510 0.000000 1.770670 
# 
# From -- ./inp_files/345997.got.cif
#   From: 2010.05.17/outbox.cif.g08.bks.cpg/sg12_173_cif.got.tgz:345997.got - 2010.06.03 13:09:07.
