data_PCOD9187528
_publ_section_title
;
Structure prediction by ZEFSAII (Michael W. Deem and Ramdas Pophale) SiO2 
 PCOD9187528
Probable space group: C 2/M
;
_chemical_formula_sum "Si O2"
_cell_formula_units_Z 64
_cell_length_a 12.983863
_cell_length_b 14.331838
_cell_length_c 16.335183
_cell_angle_alpha 90.000000
_cell_angle_beta 62.589187
_cell_angle_gamma 90.000000
_cell_volume 2698.422760
_symmetry_space_group_name_H-M "C 2/M"
_symmetry_group_IT_number 12
_symmetry_cell_setting 'monoclinic'
loop_
_space_group_symop_operation_xyz
x,y,z
-x,y,-z
-x,-y,-z
x,-y,z
1/2+x,1/2+y,z
1/2-x,1/2+y,-z
1/2-x,1/2-y,-z
1/2+x,1/2-y,z
loop_
_atom_site_type_symbol
_atom_site_label
_atom_site_fract_x
_atom_site_fract_y
_atom_site_fract_z
Si Si1 0.227382 0.151717 0.083996
Si Si2 0.637801 0.884837 0.695169
Si Si3 0.095883 0.111629 0.402240
Si Si4 0.433035 0.102596 0.104649
Si Si5 0.727353 0.609743 0.737613
Si Si6 0.006078 0.112249 0.252846
Si Si7 0.640995 0.652019 0.950031
Si Si8 0.520157 0.886138 0.398176
O O1 0.299997 0.094870 0.124031
O O2 0.304821 0.245125 0.055506
O O3 0.098383 0.166655 0.164064
O O4 0.203747 0.104834 0.004990
O O5 0.771707 0.854289 0.642841
O O6 0.574780 0.852547 0.802806
O O7 0.571873 0.856328 0.636825
O O8 0.636403 0.000000 0.700608
O O9 0.000000 0.149223 0.500000
O O10 0.043541 0.123625 0.331781
O O11 0.105220 0.000000 0.414680
O O12 0.486422 0.000000 0.096484
O O13 0.500000 0.140732 0.000000
O O14 0.737628 0.500000 0.715490
O O15 0.623625 0.644662 0.718585
O O16 0.686605 0.620153 0.845770
O O17 0.853836 0.649781 0.675567
O O18 0.014030 0.000000 0.229822
O O19 0.500000 0.645046 0.000000
O O20 0.500000 0.861459 0.500000
O O21 0.518050 0.000000 0.395946
#
# Coordination Sequence:
#
# PCOD9187528 Si02
#       8
#     8   8   8   8   8   8   8   8
#     4  11  22  38  58  77 114 153 190 236 281 349
#     4   9  17  30  46  75 113 143 185 232 277 338
#     4   9  17  28  49  81 115 148 182 230 289 340
#     4  10  20  33  53  82 113 146 185 236 292 339
#     4  10  22  38  59  86 117 151 193 241 289 344
#     4  10  19  35  59  88 117 148 190 240 292 337
#     4  11  24  41  56  82 114 152 196 232 285 351
#     4   9  19  34  53  79 114 154 192 234 287 341
#
# _framework density 23.717558
#
# number of rings (size 3 to 8) (size 9 to 14) (size 15 to 20)
#    0.000    2.125    2.500    0.750    3.500    1.250 
#    0.000    0.000    0.000    0.750    0.000    2.625 
#    0.000    0.000    0.000    0.000    0.000    0.000 
#
# Total GULP energy -178660.563730 kJ/mol
# GULP energy per Si atom -5583.142617 kJ/mol
# Density = 2.366358 g / cm^3
# Si number density = 23.717558 Si / 1000 Ang^3
#
#
#
# Elastic Constant Matrix: (Units=GPa)
#
#
# Indices 1 2 3 4 5 6 
#
# 1 165.9525 11.3825 85.1216 0.0000 10.0685 0.0000
# 2 11.3825 62.4761 -7.5556 0.0000 2.1410 0.0000
# 3 85.1216 -7.5556 168.3682 0.0000 -5.8463 0.0000
# 4 0.0000 0.0000 0.0000 -4.3959 0.0000 -7.3034
# 5 10.0685 2.1410 -5.8463 0.0000 35.7046 0.0000
# 6 0.0000 0.0000 0.0000 -7.3034 0.0000 12.1198
#
#
#
# Elastic Compliance Matrix: (Units=1/GPa)
#
#
# Indices 1 2 3 4 5 6 
#
# 1 0.008715 -0.002039 -0.004605 0.000000 -0.003089 0.000000
# 2 -0.002039 0.016596 0.001771 0.000000 -0.000130 0.000000
# 3 -0.004605 0.001771 0.008436 0.000000 0.002574 0.000000
# 4 0.000000 0.000000 0.000000 -0.113677 0.000000 -0.068502
# 5 -0.003089 -0.000130 0.002574 0.000000 0.029308 0.000000
# 6 0.000000 0.000000 0.000000 -0.068502 0.000000 0.041231
#
#
# Mechanical properties :
#
#
# Convention : Reuss Voigt Hill
#
# Bulk Modulus (GPa) = 41.66275 63.85486 52.75881
# Shear Modulus (GPa) = 598.42895 29.20893 313.81894
#
# Velocity S-wave (km/s) = 15.90165 3.51313 11.51531
# Velocity P-wave (km/s) = 18.83492 6.59072 14.11014
#
# Compressibility (1/GPa) = 0.02400225
#
# Stress axis : x y z
#
# Youngs Moduli (GPa) = 114.74432 60.25472 118.53604
#
# Poissons Ratio (x) = 0.12285 0.54584
# Poissons Ratio (y) = 0.23394 -0.20993
# Poissons Ratio (z) = 0.52838 -0.10671
#
# Static dielectric constant tensor:
#      x y z
#    x 1.853160 0.000000 -0.021050 
#    y 0.000000 1.974370 0.000000 
#    z -0.021050 0.000000 1.870800 
# 
# From -- ./inp_files/207695.got.cif
#   From: 2010.05.17/outbox.cif.g08.bks.cpg/sg12_104_cif.got.tgz:207695.got - 2010.06.03 13:09:07.
