data_PCOD9187522
_publ_section_title
;
Structure prediction by ZEFSAII (Michael W. Deem and Ramdas Pophale) SiO2 
 PCOD9187522
Probable space group: C 2/M
;
_chemical_formula_sum "Si O2"
_cell_formula_units_Z 32
_cell_length_a 5.478470
_cell_length_b 20.156699
_cell_length_c 13.522184
_cell_angle_alpha 90.000000
_cell_angle_beta 113.900292
_cell_angle_gamma 90.000000
_cell_volume 1365.184682
_symmetry_space_group_name_H-M "C 2/M"
_symmetry_group_IT_number 12
_symmetry_cell_setting 'monoclinic'
loop_
_space_group_symop_operation_xyz
x,y,z
-x,y,-z
-x,-y,-z
x,-y,z
1/2+x,1/2+y,z
1/2-x,1/2+y,-z
1/2-x,1/2-y,-z
1/2+x,1/2-y,z
loop_
_atom_site_type_symbol
_atom_site_label
_atom_site_fract_x
_atom_site_fract_y
_atom_site_fract_z
Si Si1 0.680310 0.572668 0.930310
Si Si2 0.144349 0.422877 0.394350
Si Si3 0.884165 0.870599 0.634164
Si Si4 0.066392 0.213874 0.816383
O O1 0.624400 0.500000 0.874401
O O2 0.612219 0.639751 0.862217
O O3 0.500000 0.574538 0.000000
O O4 0.000000 0.574538 0.000000
O O5 0.175869 0.500000 0.425873
O O6 0.254345 0.379596 0.504345
O O7 0.329648 0.405754 0.332546
O O8 0.835442 0.405753 0.332545
O O9 0.936451 0.798203 0.686444
O O10 0.348563 0.249998 0.848550
#
# Coordination Sequence:
#
# PCOD9187522 Si02
#       4
#     8   8   8   8
#     4  10  23  44  69  97 125 157 202 256 311 365
#     4  10  19  35  59  87 121 163 211 256 309 364
#     4  10  20  36  55  85 119 159 206 253 294 354
#     4  12  26  43  63  93 129 166 207 248 305 377
#
# _framework density 23.440051
#
# number of rings (size 3 to 8) (size 9 to 14) (size 15 to 20)
#    0.000    1.500    0.000    6.750    0.000    6.000 
#    0.000   17.500    0.000    0.000    0.000    0.000 
#    0.000    0.000    0.000    0.000    0.000    0.000 
#
# Total GULP energy -89327.390944 kJ/mol
# GULP energy per Si atom -5582.961934 kJ/mol
# Density = 2.338670 g / cm^3
# Si number density = 23.440051 Si / 1000 Ang^3
#
#
#
# Elastic Constant Matrix: (Units=GPa)
#
#
# Indices 1 2 3 4 5 6 
#
# 1 274.3108 72.0820 32.0293 0.0000 -6.6552 0.0000
# 2 72.0820 148.5984 52.0473 0.0000 -0.6356 0.0000
# 3 32.0293 52.0473 40.9897 0.0000 -0.7005 0.0000
# 4 0.0000 0.0000 0.0000 64.4490 0.0000 0.5340
# 5 -6.6552 -0.6356 -0.7005 0.0000 15.7518 0.0000
# 6 0.0000 0.0000 0.0000 0.5340 0.0000 47.5063
#
#
#
# Elastic Compliance Matrix: (Units=1/GPa)
#
#
# Indices 1 2 3 4 5 6 
#
# 1 0.004258 -0.001626 -0.001233 0.000000 0.001678 0.000000
# 2 -0.001626 0.012741 -0.014922 0.000000 -0.000836 0.000000
# 3 -0.001233 -0.014922 0.044322 0.000000 0.000848 0.000000
# 4 0.000000 0.000000 0.000000 0.015518 0.000000 -0.000174
# 5 0.001678 -0.000836 0.000848 0.000000 0.064198 0.000000
# 6 0.000000 0.000000 0.000000 -0.000174 0.000000 0.021052
#
#
# Mechanical properties :
#
#
# Convention : Reuss Voigt Hill
#
# Bulk Modulus (GPa) = 38.82309 86.24622 62.53466
# Shear Modulus (GPa) = 24.24387 46.05745 35.15066
#
# Velocity S-wave (km/s) = 3.21953 4.43753 3.87667
# Velocity P-wave (km/s) = 5.51536 7.94543 6.83919
#
# Compressibility (1/GPa) = 0.02575786
#
# Stress axis : x y z
#
# Youngs Moduli (GPa) = 234.87840 78.48504 22.56196
#
# Poissons Ratio (x) = 0.12762 0.02783
# Poissons Ratio (y) = 0.38192 0.33667
# Poissons Ratio (z) = 0.28971 1.17117
#
# Static dielectric constant tensor:
#      x y z
#    x 1.977710 0.000000 0.000160 
#    y 0.000000 1.831420 0.000000 
#    z 0.000160 0.000000 1.982620 
# 
# From -- ./inp_files/190965.got.cif
#   From: 2010.05.17/outbox.cif.g08.bks.cpg/sg12_96_cif.got.tgz:190965.got - 2010.06.03 13:09:07.
