data_PCOD9187998
_publ_section_title
;
Structure prediction by ZEFSAII (Michael W. Deem and Ramdas Pophale) SiO2 
 PCOD9187998
Probable space group: C 2/M
;
_chemical_formula_sum "Si O2"
_cell_formula_units_Z 56
_cell_length_a 14.208587
_cell_length_b 15.816120
_cell_length_c 18.110740
_cell_angle_alpha 90.000000
_cell_angle_beta 139.552861
_cell_angle_gamma 90.000000
_cell_volume 2640.352312
_symmetry_space_group_name_H-M "C 2/M"
_symmetry_group_IT_number 12
_symmetry_cell_setting 'monoclinic'
loop_
_space_group_symop_operation_xyz
x,y,z
-x,y,-z
-x,-y,-z
x,-y,z
1/2+x,1/2+y,z
1/2-x,1/2+y,-z
1/2-x,1/2-y,-z
1/2+x,1/2-y,z
loop_
_atom_site_type_symbol
_atom_site_label
_atom_site_fract_x
_atom_site_fract_y
_atom_site_fract_z
Si Si1 0.486273 0.222739 0.661685
Si Si2 0.642215 0.862795 0.623209
Si Si3 0.826449 0.849105 0.151666
Si Si4 0.780071 0.402466 0.749301
Si Si5 0.810912 0.811525 0.439680
Si Si6 0.968418 0.910350 0.842166
Si Si7 0.532211 0.220836 0.932481
O O1 0.584822 0.164273 0.669285
O O2 0.586033 0.262408 0.783352
O O3 0.342752 0.181355 0.609943
O O4 0.428683 0.299519 0.574653
O O5 0.500000 0.903218 0.500000
O O6 0.675264 0.778284 0.594859
O O7 0.796851 0.906571 0.722358
O O8 0.782645 0.883566 0.206388
O O9 0.936362 0.909097 0.175145
O O10 0.687890 0.824158 0.019709
O O11 0.825519 0.500000 0.773755
O O12 0.678765 0.380595 0.618522
O O13 0.911789 0.335672 0.819937
O O14 0.013275 0.820274 0.904421
O O15 0.998022 0.000000 0.899362
O O16 0.500000 0.212865 0.000000
#
# Coordination Sequence:
#
# PCOD9187998 Si02
#       7
#     8   8   8   8   8   8   8
#     4  10  19  35  66  87 120 164 205 252 312 374
#     4  10  19  36  62  88 119 163 210 255 312 371
#     4  11  21  38  62  93 125 161 208 259 323 375
#     4  11  22  39  63  92 126 160 207 261 321 384
#     4  10  19  36  62  90 119 162 204 252 314 367
#     4  12  24  40  61  91 128 169 218 264 312 373
#     4  10  22  41  66  89 123 168 209 263 321 376
#
# _framework density 21.209291
#
# number of rings (size 3 to 8) (size 9 to 14) (size 15 to 20)
#    0.000    1.429    4.286    1.714    0.000    3.714 
#    0.000    2.857    0.000    0.000    0.000    0.000 
#    0.000    0.000    0.000    0.000    0.000    0.000 
#
# Total GULP energy -156175.572403 kJ/mol
# GULP energy per Si atom -5577.699014 kJ/mol
# Density = 2.116102 g / cm^3
# Si number density = 21.209291 Si / 1000 Ang^3
#
#
#
# Elastic Constant Matrix: (Units=GPa)
#
#
# Indices 1 2 3 4 5 6 
#
# 1 108.3726 26.4580 35.4469 0.0000 26.2616 0.0000
# 2 26.4580 108.0568 22.7500 0.0000 9.9609 0.0000
# 3 35.4469 22.7500 87.7697 0.0001 15.7680 0.0000
# 4 0.0000 0.0000 0.0001 -24.0505 0.0000 -39.8043
# 5 26.2616 9.9609 15.7680 0.0000 31.6301 0.0000
# 6 0.0000 0.0000 0.0000 -39.8043 0.0000 -53.7235
#
#
#
# Elastic Compliance Matrix: (Units=1/GPa)
#
#
# Indices 1 2 3 4 5 6 
#
# 1 0.012725 -0.001665 -0.003189 0.000000 -0.008451 0.000000
# 2 -0.001665 0.010123 -0.001787 0.000000 -0.000914 0.000000
# 3 -0.003189 -0.001787 0.013804 0.000000 -0.003671 0.000000
# 4 0.000000 0.000000 0.000000 0.183795 0.000000 -0.136175
# 5 -0.008451 -0.000914 -0.003671 0.000000 0.040750 0.000000
# 6 0.000000 0.000000 0.000000 -0.136175 0.000000 0.082280
#
#
# Mechanical properties :
#
#
# Convention : Reuss Voigt Hill
#
# Bulk Modulus (GPa) = 42.79234 52.61212 47.70223
# Shear Modulus (GPa) = 13.71558 5.40750 9.56154
#
# Velocity S-wave (km/s) = 2.54575 1.59848 2.12555
# Velocity P-wave (km/s) = 5.37225 5.31666 5.34453
#
# Compressibility (1/GPa) = 0.02336867
#
# Stress axis : x y z
#
# Youngs Moduli (GPa) = 78.58531 98.78836 72.44201
#
# Poissons Ratio (x) = 0.16451 0.23104
# Poissons Ratio (y) = 0.13087 0.12945
# Poissons Ratio (z) = 0.25063 0.17654
#
# Static dielectric constant tensor:
#      x y z
#    x 1.815640 0.000000 0.007300 
#    y 0.000000 1.757980 0.000000 
#    z 0.007300 0.000000 1.802690 
# 
# From -- ./inp_files/310855.got.cif
#   From: 2010.05.17/outbox.cif.g08.bks.cpg/sg12_156_cif.got.tgz:310855.got - 2010.06.03 13:09:07.
