data_PCOD9187476
_publ_section_title
;
Structure prediction by ZEFSAII (Michael W. Deem and Ramdas Pophale) SiO2 
 PCOD9187476
Probable space group: C 2/M
;
_chemical_formula_sum "Si O2"
_cell_formula_units_Z 64
_cell_length_a 28.333473
_cell_length_b 11.619384
_cell_length_c 13.740904
_cell_angle_alpha 90.000000
_cell_angle_beta 131.731775
_cell_angle_gamma 90.000000
_cell_volume 3375.932136
_symmetry_space_group_name_H-M "C 2/M"
_symmetry_group_IT_number 12
_symmetry_cell_setting 'monoclinic'
loop_
_space_group_symop_operation_xyz
x,y,z
-x,y,-z
-x,-y,-z
x,-y,z
1/2+x,1/2+y,z
1/2-x,1/2+y,-z
1/2-x,1/2-y,-z
1/2+x,1/2-y,z
loop_
_atom_site_type_symbol
_atom_site_label
_atom_site_fract_x
_atom_site_fract_y
_atom_site_fract_z
Si Si1 0.328458 0.372056 0.116129
Si Si2 0.880457 0.637204 0.704168
Si Si3 0.826102 0.367475 0.427501
Si Si4 0.522671 0.372283 0.718126
Si Si5 0.491900 0.282855 0.098134
Si Si6 0.366160 0.866787 0.904242
Si Si7 0.755592 0.240902 0.849358
Si Si8 0.470243 0.870959 0.566368
O O1 0.314467 0.500000 0.132141
O O2 0.403259 0.360897 0.205271
O O3 0.298882 0.285949 0.153611
O O4 0.294185 0.351644 0.965894
O O5 0.890459 0.500000 0.705199
O O6 0.840314 0.677639 0.555945
O O7 0.849854 0.654971 0.768064
O O8 0.948018 0.699962 0.800526
O O9 0.805733 0.500000 0.408560
O O10 0.775969 0.303147 0.292424
O O11 0.894227 0.366298 0.466979
O O12 0.501389 0.500000 0.651322
O O13 0.512448 0.371052 0.819939
O O14 0.492361 0.251067 0.641964
O O15 0.500000 0.330336 0.000000
O O16 0.427384 0.209232 0.012008
O O17 0.307695 0.835425 0.892228
O O18 0.383348 0.000000 0.937218
O O19 0.500000 0.872080 0.500000
O O20 0.486941 0.000000 0.632667
#
# Coordination Sequence:
#
# PCOD9187476 Si02
#       8
#     8   8   8   8   8   8   8   8
#     4  10  22  39  55  78 113 149 190 237 287 337
#     4   9  18  34  58  86 116 143 181 241 297 345
#     4  10  20  35  57  81 111 149 188 234 287 339
#     4  11  22  38  59  87 119 154 191 237 299 352
#     4  10  19  35  59  86 114 148 186 236 291 347
#     4  10  20  34  56  87 114 146 191 240 292 340
#     4  11  21  36  57  80 109 150 195 235 280 336
#     4  10  21  38  60  88 116 149 197 245 286 342
#
# _framework density 18.957726999999998
#
# number of rings (size 3 to 8) (size 9 to 14) (size 15 to 20)
#    0.000    1.875    2.500    1.875    0.000    3.000 
#    0.000    1.875    0.000    0.000    0.000    0.000 
#    0.000    0.000    0.000    0.000    0.000    0.000 
#
# Total GULP energy -178326.660063 kJ/mol
# GULP energy per Si atom -5572.708127 kJ/mol
# Density = 1.891458 g / cm^3
# Si number density = 18.957727 Si / 1000 Ang^3
#
#
#
# Elastic Constant Matrix: (Units=GPa)
#
#
# Indices 1 2 3 4 5 6 
#
# 1 60.7428 9.5647 -6.3440 0.0000 -3.3389 0.0000
# 2 9.5647 89.5190 24.6878 0.0000 0.4251 0.0000
# 3 -6.3440 24.6878 59.3270 0.0000 -9.5293 0.0000
# 4 0.0000 0.0000 0.0000 13.5667 0.0000 -5.4361
# 5 -3.3389 0.4251 -9.5293 0.0000 22.6016 0.0000
# 6 0.0000 0.0000 0.0000 -5.4361 0.0000 22.1820
#
#
#
# Elastic Compliance Matrix: (Units=1/GPa)
#
#
# Indices 1 2 3 4 5 6 
#
# 1 0.017554 -0.002939 0.003781 0.000000 0.004243 0.000000
# 2 -0.002939 0.013258 -0.006373 0.000000 -0.003370 0.000000
# 3 0.003781 -0.006373 0.021475 0.000000 0.009733 0.000000
# 4 0.000000 0.000000 0.000000 0.081736 0.000000 0.020031
# 5 0.004243 -0.003370 0.009733 0.000000 0.049038 0.000000
# 6 0.000000 0.000000 0.000000 0.020031 0.000000 0.049991
#
#
# Mechanical properties :
#
#
# Convention : Reuss Voigt Hill
#
# Bulk Modulus (GPa) = 24.25569 29.48952 26.87261
# Shear Modulus (GPa) = 19.39075 23.78206 21.58640
#
# Velocity S-wave (km/s) = 3.20166 3.54570 3.37806
# Velocity P-wave (km/s) = 5.14683 5.68787 5.42410
#
# Compressibility (1/GPa) = 0.04122744
#
# Stress axis : x y z
#
# Youngs Moduli (GPa) = 56.96805 75.42451 46.56511
#
# Poissons Ratio (x) = 0.22164 -0.17608
# Poissons Ratio (y) = 0.16740 0.29675
# Poissons Ratio (z) = -0.21542 0.48066
#
# Static dielectric constant tensor:
#      x y z
#    x 1.647200 0.000000 -0.037590 
#    y 0.000000 1.674240 0.000000 
#    z -0.037590 0.000000 1.660790 
# 
# From -- ./inp_files/250860.got.cif
#   From: 2010.05.17/outbox.cif.g08.bks.cpg/sg12_126_cif.got.tgz:250860.got - 2010.06.03 13:09:07.
