data_PCOD9187558
_publ_section_title
;
Structure prediction by ZEFSAII (Michael W. Deem and Ramdas Pophale) SiO2 
 PCOD9187558
Probable space group: C 2/M
;
_chemical_formula_sum "Si O2"
_cell_formula_units_Z 58
_cell_length_a 24.193430
_cell_length_b 7.599223
_cell_length_c 21.312471
_cell_angle_alpha 90.000000
_cell_angle_beta 134.589437
_cell_angle_gamma 90.000000
_cell_volume 2790.456526
_symmetry_space_group_name_H-M "C 2/M"
_symmetry_group_IT_number 12
_symmetry_cell_setting 'monoclinic'
loop_
_space_group_symop_operation_xyz
x,y,z
-x,y,-z
-x,-y,-z
x,-y,z
1/2+x,1/2+y,z
1/2-x,1/2+y,-z
1/2-x,1/2-y,-z
1/2+x,1/2-y,z
loop_
_atom_site_type_symbol
_atom_site_label
_atom_site_fract_x
_atom_site_fract_y
_atom_site_fract_z
Si Si1 0.571531 0.203804 0.249216
Si Si2 0.758230 0.207981 0.580388
Si Si3 0.000000 0.000000 0.500000
Si Si4 0.158700 0.793524 0.996619
Si Si5 0.831500 0.789535 0.139750
Si Si6 0.093724 0.713611 0.513518
Si Si7 0.995852 0.298843 0.065041
Si Si8 0.496035 0.793451 0.315856
O O1 0.663514 0.207566 0.331034
O O2 0.542757 0.283005 0.160757
O O3 0.532553 0.283278 0.280817
O O4 0.544776 0.000000 0.226253
O O5 0.750000 0.250000 0.500000
O O6 0.679926 0.250612 0.555784
O O7 0.769042 0.000000 0.594196
O O8 0.067130 0.158160 0.547427
O O9 0.156925 0.726597 0.923132
O O10 0.093207 0.700773 0.984367
O O11 0.140171 0.000000 0.980653
O O12 0.245964 0.770358 0.090821
O O13 0.904002 0.728516 0.238408
O O14 0.831645 0.000000 0.138761
O O15 0.086899 0.500000 0.519514
O O16 0.035948 0.773558 0.410635
O O17 0.025379 0.500000 0.081412
O O18 0.000000 0.213934 0.000000
O O19 0.516079 0.000000 0.332134
#
# Coordination Sequence:
#
# PCOD9187558 Si02
#       8
#     8   8   2   8   8   8   8   8
#     4  10  20  35  59  91 125 160 202 258 324 380
#     4  11  22  37  63  98 135 163 207 274 331 379
#     4  12  26  44  72  86 124 192 206 250 320 410
#     4  10  20  34  53  81 113 154 196 247 307 357
#     4  10  20  32  54  85 116 146 196 252 304 368
#     4  10  24  43  64  98 130 168 222 268 316 390
#     4  10  21  38  59  83 117 162 206 251 303 372
#     4  10  19  35  59  90 124 154 198 265 320 362
#
# _framework density 20.785131
#
# number of rings (size 3 to 8) (size 9 to 14) (size 15 to 20)
#    0.000    1.793    2.759    1.448    2.897    2.483 
#    0.000    1.379    3.034    1.655    0.000    0.000 
#    0.000    0.000    0.000    0.000    0.000    0.000 
#
# Total GULP energy -161614.936258 kJ/mol
# GULP energy per Si atom -5572.928836 kJ/mol
# Density = 2.073782 g / cm^3
# Si number density = 20.785131 Si / 1000 Ang^3
#
#
#
# Elastic Constant Matrix: (Units=GPa)
#
#
# Indices 1 2 3 4 5 6 
#
# 1 84.4849 9.8325 27.9217 0.0000 12.4503 0.0000
# 2 9.8325 66.4307 -11.7610 0.0001 -4.9292 0.0002
# 3 27.9217 -11.7610 101.0046 0.0000 11.6537 0.0000
# 4 0.0000 0.0001 0.0000 11.8370 0.0000 15.6705
# 5 12.4503 -4.9292 11.6537 0.0000 28.5164 0.0000
# 6 0.0000 0.0002 0.0000 15.6705 0.0000 16.1511
#
#
#
# Elastic Compliance Matrix: (Units=1/GPa)
#
#
# Indices 1 2 3 4 5 6 
#
# 1 0.014191 -0.003141 -0.003685 0.000000 -0.005233 0.000000
# 2 -0.003141 0.016177 0.002384 0.000000 0.003194 0.000000
# 3 -0.003685 0.002384 0.011506 0.000000 -0.002681 0.000000
# 4 0.000000 0.000000 0.000000 -0.296972 0.000000 0.288137
# 5 -0.005233 0.003194 -0.002681 0.000000 0.039000 0.000000
# 6 0.000000 0.000000 0.000000 0.288137 0.000000 -0.217649
#
#
# Mechanical properties :
#
#
# Convention : Reuss Voigt Hill
#
# Bulk Modulus (GPa) = 30.31296 33.76739 32.04017
# Shear Modulus (GPa) = -12.08122 26.36269 7.14074
#
# Velocity S-wave (km/s) = -2.41351 3.56525 1.85552
# Velocity P-wave (km/s) = 2.61704 5.76447 4.47650
#
# Compressibility (1/GPa) = 0.03298920
#
# Stress axis : x y z
#
# Youngs Moduli (GPa) = 70.46714 61.81553 86.91035
#
# Poissons Ratio (x) = 0.19417 0.32026
# Poissons Ratio (y) = 0.22134 -0.20715
# Poissons Ratio (z) = 0.25967 -0.14734
#
# Static dielectric constant tensor:
#      x y z
#    x 1.768470 0.000000 -0.050550 
#    y 0.000000 1.760530 0.000000 
#    z -0.050550 0.000000 1.762080 
# 
# From -- ./inp_files/324677.got.cif
#   From: 2010.05.17/outbox.cif.g08.bks.cpg/sg12_163_cif.got.tgz:324677.got - 2010.06.03 13:09:07.
