data_PCOD9187355
_publ_section_title
;
Structure prediction by ZEFSAII (Michael W. Deem and Ramdas Pophale) SiO2 
 PCOD9187355
Probable space group: C 2/M
;
_chemical_formula_sum "Si O2"
_cell_formula_units_Z 60
_cell_length_a 17.373152
_cell_length_b 14.793566
_cell_length_c 26.819490
_cell_angle_alpha 90.000000
_cell_angle_beta 28.403129
_cell_angle_gamma 90.000000
_cell_volume 3278.761460
_symmetry_space_group_name_H-M "C 2/M"
_symmetry_group_IT_number 12
_symmetry_cell_setting 'monoclinic'
loop_
_space_group_symop_operation_xyz
x,y,z
-x,y,-z
-x,-y,-z
x,-y,z
1/2+x,1/2+y,z
1/2-x,1/2+y,-z
1/2-x,1/2-y,-z
1/2+x,1/2-y,z
loop_
_atom_site_type_symbol
_atom_site_label
_atom_site_fract_x
_atom_site_fract_y
_atom_site_fract_z
Si Si1 0.483080 0.152335 0.129287
Si Si2 0.871256 0.899067 0.648876
Si Si3 0.760996 0.704773 0.092104
Si Si4 0.751725 0.602206 0.613009
Si Si5 0.486684 0.349551 0.167672
Si Si6 0.000000 0.751723 0.500000
Si Si7 0.755685 0.098303 0.055181
Si Si8 0.553428 0.605069 0.284489
O O1 0.315926 0.100553 0.227398
O O2 0.440854 0.254146 0.169924
O O3 0.610491 0.115362 0.097979
O O4 0.576032 0.161232 0.023570
O O5 0.968920 0.881768 0.644167
O O6 0.905308 0.819725 0.590585
O O7 0.911070 0.000000 0.607263
O O8 0.624096 0.672874 0.130552
O O9 0.766258 0.813518 0.084217
O O10 0.694575 0.668111 0.181890
O O11 0.816325 0.500000 0.569131
O O12 0.659417 0.606531 0.719072
O O13 0.612439 0.619135 0.651295
O O14 0.879902 0.682994 0.540011
O O15 0.580858 0.401882 0.070885
O O16 0.733060 0.000000 0.091959
O O17 0.599807 0.500000 0.249432
#
# Coordination Sequence:
#
# PCOD9187355 Si02
#       8
#     8   8   8   8   8   4   8   8
#     4   9  16  29  47  77 111 138 170 211 254 304
#     4  11  23  38  55  77 107 142 173 214 268 317
#     4   8  16  28  49  76 109 140 171 204 254 312
#     4  10  19  35  59  81 102 133 176 224 268 307
#     4   8  14  28  47  75 107 137 171 212 258 301
#     4  12  24  38  58  78 104 130 182 230 266 304
#     4   9  15  24  46  79 112 142 171 207 250 311
#     4   9  20  37  56  79 108 138 171 211 265 323
#
# _framework density 18.299593000000002
#
# number of rings (size 3 to 8) (size 9 to 14) (size 15 to 20)
#    0.000    2.667    1.333    2.800    0.000    4.800 
#    0.000    1.333    0.000    1.600    0.000    1.867 
#    0.000    0.000    0.000    0.000    0.000    0.000 
#
# Total GULP energy -167109.575876 kJ/mol
# GULP energy per Si atom -5570.319196 kJ/mol
# Density = 1.825794 g / cm^3
# Si number density = 18.299593 Si / 1000 Ang^3
#
#
#
# Elastic Constant Matrix: (Units=GPa)
#
#
# Indices 1 2 3 4 5 6 
#
# 1 30.0271 18.2471 11.8106 0.0002 -4.7524 0.0000
# 2 18.2471 121.7640 37.1993 -0.0022 -0.1188 0.0003
# 3 11.8106 37.1993 49.0797 -0.0033 -8.3983 -0.0001
# 4 0.0002 -0.0022 -0.0033 15.4773 -0.0003 -4.9022
# 5 -4.7524 -0.1188 -8.3983 -0.0003 11.5193 0.0001
# 6 0.0000 0.0003 -0.0001 -4.9022 0.0001 15.3934
#
#
#
# Elastic Compliance Matrix: (Units=1/GPa)
#
#
# Indices 1 2 3 4 5 6 
#
# 1 0.039842 -0.004880 -0.003524 -0.000002 0.013818 -0.000001
# 2 -0.004880 0.011746 -0.009200 -0.000001 -0.008600 0.000000
# 3 -0.003524 -0.009200 0.031912 0.000007 0.021717 0.000003
# 4 -0.000002 -0.000001 0.000007 0.071859 0.000006 0.022884
# 5 0.013818 -0.008600 0.021717 0.000006 0.108256 0.000002
# 6 -0.000001 0.000000 0.000003 0.022884 0.000002 0.072251
#
#
# Mechanical properties :
#
#
# Convention : Reuss Voigt Hill
#
# Bulk Modulus (GPa) = 20.70763 37.26497 28.98630
# Shear Modulus (GPa) = 12.91415 17.38558 15.14986
#
# Velocity S-wave (km/s) = 2.65940 3.08564 2.88041
# Velocity P-wave (km/s) = 4.55745 5.75351 5.19005
#
# Compressibility (1/GPa) = 0.04829138
#
# Stress axis : x y z
#
# Youngs Moduli (GPa) = 25.09903 85.13376 31.33596
#
# Poissons Ratio (x) = 0.41549 0.11043
# Poissons Ratio (y) = 0.12250 0.28829
# Poissons Ratio (z) = 0.08845 0.78323
#
# Static dielectric constant tensor:
#      x y z
#    x 1.633800 0.000000 -0.012880 
#    y 0.000000 1.648900 0.000000 
#    z -0.012880 0.000000 1.635300 
# 
# From -- ./inp_files/363997.got.cif
#   From: 2010.05.17/outbox.cif.g08.bks.cpg/sg12_182_cif.got.tgz:363997.got - 2010.06.03 13:09:07.
