data_PCOD9187344
_publ_section_title
;
Structure prediction by ZEFSAII (Michael W. Deem and Ramdas Pophale) SiO2 
 PCOD9187344
Probable space group: C 2/M
;
_chemical_formula_sum "Si O2"
_cell_formula_units_Z 56
_cell_length_a 20.205221
_cell_length_b 19.327965
_cell_length_c 9.256767
_cell_angle_alpha 90.000000
_cell_angle_beta 56.980975
_cell_angle_gamma 90.000000
_cell_volume 3031.145523
_symmetry_space_group_name_H-M "C 2/M"
_symmetry_group_IT_number 12
_symmetry_cell_setting 'monoclinic'
loop_
_space_group_symop_operation_xyz
x,y,z
-x,y,-z
-x,-y,-z
x,-y,z
1/2+x,1/2+y,z
1/2-x,1/2+y,-z
1/2-x,1/2-y,-z
1/2+x,1/2-y,z
loop_
_atom_site_type_symbol
_atom_site_label
_atom_site_fract_x
_atom_site_fract_y
_atom_site_fract_z
Si Si1 0.080160 0.369985 0.484260
Si Si2 0.170204 0.322800 0.951700
Si Si3 0.981693 0.580867 0.852443
Si Si4 0.253142 0.579456 0.292473
Si Si5 0.771712 0.175885 0.545397
Si Si6 0.682712 0.672898 0.016604
Si Si7 0.909455 0.205796 0.586976
O O1 0.161161 0.409359 0.358051
O O2 0.093748 0.289704 0.425488
O O3 0.000000 0.394019 0.500000
O O4 0.053810 0.383248 0.680884
O O5 0.214258 0.340925 0.749599
O O6 0.229789 0.324214 0.016850
O O7 0.096116 0.371536 0.072695
O O8 0.155295 0.240509 0.960187
O O9 0.971674 0.500000 0.819080
O O10 0.000000 0.580377 0.000000
O O11 0.268518 0.500000 0.297270
O O12 0.264068 0.621558 0.426841
O O13 0.310510 0.610226 0.101784
O O14 0.750000 0.250000 0.500000
O O15 0.858941 0.179305 0.511465
O O16 0.630602 0.675885 0.221600
O O17 0.000000 0.187445 0.500000
#
# Coordination Sequence:
#
# PCOD9187344 Si02
#       7
#     8   8   8   8   8   8   8
#     4  11  21  36  57  88 128 165 199 234 287 365
#     4  10  19  35  59  78 117 165 205 240 281 340
#     4  11  24  36  50  84 130 166 194 229 283 361
#     4  12  24  38  60  91 124 161 202 250 311 366
#     4  11  20  38  62  89 121 160 204 256 300 344
#     4  10  20  38  59  85 111 149 208 258 287 347
#     4  10  21  39  65  92 117 153 207 253 302 359
#
# _framework density 18.474862999999999
#
# number of rings (size 3 to 8) (size 9 to 14) (size 15 to 20)
#    0.000    1.286    2.857    5.571    0.000    4.571 
#    0.000    2.857    0.000    2.571    0.000    0.000 
#    0.000    0.000    0.000    0.000    0.000    0.000 
#
# Total GULP energy -156164.289582 kJ/mol
# GULP energy per Si atom -5577.296056 kJ/mol
# Density = 1.843281 g / cm^3
# Si number density = 18.474863 Si / 1000 Ang^3
#
#
#
# Elastic Constant Matrix: (Units=GPa)
#
#
# Indices 1 2 3 4 5 6 
#
# 1 88.0088 44.3743 24.1692 0.0000 -4.0831 0.0000
# 2 44.3743 127.7957 57.6647 0.0000 -0.4786 0.0000
# 3 24.1692 57.6647 104.4599 0.0000 2.9912 0.0000
# 4 0.0000 0.0000 0.0000 16.9118 0.0000 -0.9515
# 5 -4.0831 -0.4786 2.9912 0.0000 32.1395 0.0000
# 6 0.0000 0.0000 0.0000 -0.9515 0.0000 21.1461
#
#
#
# Elastic Compliance Matrix: (Units=1/GPa)
#
#
# Indices 1 2 3 4 5 6 
#
# 1 0.013916 -0.004461 -0.000808 0.000000 0.001777 0.000000
# 2 -0.004461 0.011866 -0.005522 0.000000 0.000124 0.000000
# 3 -0.000808 -0.005522 0.012848 0.000000 -0.001381 0.000000
# 4 0.000000 0.000000 0.000000 0.059280 0.000000 0.002667
# 5 0.001777 0.000124 -0.001381 0.000000 0.031470 0.000000
# 6 0.000000 0.000000 0.000000 0.002667 0.000000 0.047410
#
#
# Mechanical properties :
#
#
# Convention : Reuss Voigt Hill
#
# Bulk Modulus (GPa) = 58.65702 63.63122 61.14412
# Shear Modulus (GPa) = 24.50325 26.97656 25.73990
#
# Velocity S-wave (km/s) = 3.64579 3.82537 3.73666
# Velocity P-wave (km/s) = 7.03854 7.35038 7.19615
#
# Compressibility (1/GPa) = 0.01704826
#
# Stress axis : x y z
#
# Youngs Moduli (GPa) = 71.85988 84.27521 77.83453
#
# Poissons Ratio (x) = 0.37592 0.06291
# Poissons Ratio (y) = 0.32054 0.42978
# Poissons Ratio (z) = 0.05808 0.46535
#
# Static dielectric constant tensor:
#      x y z
#    x 1.659740 0.000000 0.011060 
#    y 0.000000 1.628090 0.000000 
#    z 0.011060 0.000000 1.681830 
# 
# From -- ./inp_files/87842.got.cif
#   From: 2010.05.17/outbox.cif.g08.bks.cpg/sg12_44_cif.got.tgz:87842.got - 2010.06.03 13:09:07.
