data_PCOD9187502
_publ_section_title
;
Structure prediction by ZEFSAII (Michael W. Deem and Ramdas Pophale) SiO2 
 PCOD9187502
Probable space group: C 2/M
;
_chemical_formula_sum "Si O2"
_cell_formula_units_Z 56
_cell_length_a 16.032774
_cell_length_b 14.833007
_cell_length_c 26.746282
_cell_angle_alpha 90.000000
_cell_angle_beta 28.278342
_cell_angle_gamma 90.000000
_cell_volume 3013.390541
_symmetry_space_group_name_H-M "C 2/M"
_symmetry_group_IT_number 12
_symmetry_cell_setting 'monoclinic'
loop_
_space_group_symop_operation_xyz
x,y,z
-x,y,-z
-x,-y,-z
x,-y,z
1/2+x,1/2+y,z
1/2-x,1/2+y,-z
1/2-x,1/2-y,-z
1/2+x,1/2-y,z
loop_
_atom_site_type_symbol
_atom_site_label
_atom_site_fract_x
_atom_site_fract_y
_atom_site_fract_z
Si Si1 0.329479 0.595283 0.770295
Si Si2 0.500168 0.895824 0.126248
Si Si3 0.203516 0.395474 0.405087
Si Si4 0.830349 0.897061 0.555881
Si Si5 0.048195 0.270341 0.751979
Si Si6 0.329760 0.190285 0.059477
Si Si7 0.336222 0.656649 0.440634
O O1 0.427484 0.500000 0.718433
O O2 0.229405 0.606871 0.874794
O O3 0.471643 0.670682 0.684668
O O4 0.185598 0.595908 0.803720
O O5 0.464778 0.829167 0.190668
O O6 0.556373 0.000000 0.108393
O O7 0.623089 0.845960 0.020306
O O8 0.236184 0.500000 0.373171
O O9 0.341398 0.324607 0.307018
O O10 0.227662 0.386929 0.452457
O O11 0.000000 0.372975 0.500000
O O12 0.665658 0.832795 0.653827
O O13 0.864527 0.893599 0.478404
O O14 0.000000 0.868869 0.500000
O O15 0.790741 0.000000 0.591694
O O16 0.842975 0.252067 0.848876
O O17 0.500000 0.228085 0.000000
O O18 0.250000 0.750000 0.500000
#
# Coordination Sequence:
#
# PCOD9187502 Si02
#       7
#     8   8   8   8   8   8   8
#     4  10  19  35  59  87 115 146 193 250 305 357
#     4  10  22  37  61  90 116 148 194 253 312 360
#     4  11  25  42  60  86 125 168 210 245 285 358
#     4  11  23  39  63  96 129 158 195 247 305 365
#     4  12  22  39  61  88 121 161 195 246 299 358
#     4  10  21  38  59  86 115 152 199 249 302 355
#     4  12  22  36  60  89 123 164 197 243 298 359
#
# _framework density 18.583718000000001
#
# number of rings (size 3 to 8) (size 9 to 14) (size 15 to 20)
#    0.000    1.143    2.857    3.857    2.000    4.571 
#    0.000    0.000    0.000    1.714    0.000    0.000 
#    0.000    0.000    0.000    0.000    0.000    0.000 
#
# Total GULP energy -155993.617523 kJ/mol
# GULP energy per Si atom -5571.200626 kJ/mol
# Density = 1.854142 g / cm^3
# Si number density = 18.583718 Si / 1000 Ang^3
#
#
#
# Elastic Constant Matrix: (Units=GPa)
#
#
# Indices 1 2 3 4 5 6 
#
# 1 105.8399 20.5376 46.3114 -0.0008 10.0470 -0.0010
# 2 20.5376 82.9497 37.9303 0.0003 2.4481 -0.0010
# 3 46.3114 37.9303 116.8797 -0.0006 1.6681 0.0004
# 4 -0.0008 0.0003 -0.0006 8.7801 0.0025 -21.1516
# 5 10.0470 2.4481 1.6681 0.0025 39.4512 0.0011
# 6 -0.0010 -0.0010 0.0004 -21.1516 0.0011 -4.7962
#
#
#
# Elastic Compliance Matrix: (Units=1/GPa)
#
#
# Indices 1 2 3 4 5 6 
#
# 1 0.011780 -0.000844 -0.004354 -0.000001 -0.002763 -0.000001
# 2 -0.000844 0.014235 -0.004278 -0.000001 -0.000488 0.000000
# 3 -0.004354 -0.004278 0.011657 0.000001 0.000881 0.000000
# 4 -0.000001 -0.000001 0.000001 0.009798 0.000001 -0.043211
# 5 -0.002763 -0.000488 0.000881 0.000001 0.026044 0.000003
# 6 -0.000001 0.000000 0.000000 -0.043211 0.000003 -0.017937
#
#
# Mechanical properties :
#
#
# Convention : Reuss Voigt Hill
#
# Bulk Modulus (GPa) = 53.42206 57.24753 55.33480
# Shear Modulus (GPa) = 61.90457 22.07970 41.99214
#
# Velocity S-wave (km/s) = 5.77785 3.45065 4.75870
# Velocity P-wave (km/s) = 8.56274 6.83726 7.74818
#
# Compressibility (1/GPa) = 0.01871886
#
# Stress axis : x y z
#
# Youngs Moduli (GPa) = 84.89324 70.24856 85.78636
#
# Poissons Ratio (x) = 0.05929 0.37352
# Poissons Ratio (y) = 0.07165 0.36702
# Poissons Ratio (z) = 0.36963 0.30054
#
# Static dielectric constant tensor:
#      x y z
#    x 1.686170 0.000000 0.012440 
#    y 0.000000 1.662010 0.000010 
#    z 0.012440 0.000010 1.646490 
# 
# From -- ./inp_files/246592.got.cif
#   From: 2010.05.17/outbox.cif.g08.bks.cpg/sg12_124_cif.got.tgz:246592.got - 2010.06.03 13:09:07.
