data_PCOD9187601
_publ_section_title
;
Structure prediction by ZEFSAII (Michael W. Deem and Ramdas Pophale) SiO2 
 PCOD9187601
Probable space group: C 2/M
;
_chemical_formula_sum "Si O2"
_cell_formula_units_Z 56
_cell_length_a 20.964868
_cell_length_b 8.575624
_cell_length_c 28.441014
_cell_angle_alpha 90.000000
_cell_angle_beta 145.081591
_cell_angle_gamma 90.000000
_cell_volume 2926.911990
_symmetry_space_group_name_H-M "C 2/M"
_symmetry_group_IT_number 12
_symmetry_cell_setting 'monoclinic'
loop_
_space_group_symop_operation_xyz
x,y,z
-x,y,-z
-x,-y,-z
x,-y,z
1/2+x,1/2+y,z
1/2-x,1/2+y,-z
1/2-x,1/2-y,-z
1/2+x,1/2-y,z
loop_
_atom_site_type_symbol
_atom_site_label
_atom_site_fract_x
_atom_site_fract_y
_atom_site_fract_z
Si Si1 0.039074 0.811212 0.258291
Si Si2 0.434370 0.311630 0.007586
Si Si3 0.400937 0.690063 0.810348
Si Si4 0.194210 0.186588 0.839430
Si Si5 0.761061 0.685384 0.559341
Si Si6 0.462057 0.811423 0.529602
Si Si7 0.170894 0.688620 0.719773
O O1 0.072958 0.758037 0.226568
O O2 0.127115 0.748084 0.348914
O O3 0.914242 0.763489 0.196689
O O4 0.043843 0.000000 0.262046
O O5 0.431140 0.500000 0.005608
O O6 0.309301 0.250377 0.929707
O O7 0.500000 0.263018 0.000000
O O8 0.505305 0.260263 0.095638
O O9 0.401254 0.500000 0.810237
O O10 0.279567 0.737722 0.755729
O O11 0.179699 0.245425 0.777346
O O12 0.198371 0.000000 0.841775
O O13 0.763926 0.500000 0.559318
O O14 0.750000 0.750000 0.500000
O O15 0.655212 0.741287 0.525752
O O16 0.500000 0.766786 0.500000
O O17 0.558401 0.765660 0.624731
O O18 0.452246 0.000000 0.524435
O O19 0.172568 0.500000 0.723663
#
# Coordination Sequence:
#
# PCOD9187601 Si02
#       7
#     8   8   8   8   8   8   8
#     4  10  22  41  61  84 117 155 195 239 296 357
#     4  10  19  36  62  87 112 149 197 238 279 340
#     4   9  18  36  62  86 111 150 196 240 281 337
#     4  11  23  36  55  85 119 150 184 237 296 347
#     4  12  25  41  62  87 120 160 203 251 300 355
#     4  10  21  38  63  91 119 155 198 246 300 360
#     4  10  19  35  60  85 109 147 198 239 277 339
#
# _framework density 19.132791999999998
#
# number of rings (size 3 to 8) (size 9 to 14) (size 15 to 20)
#    0.000    1.714    1.429    3.429    0.000    7.429 
#    0.000    2.857    0.000    0.000    0.000    0.000 
#    0.000    0.000    0.000    0.000    0.000    0.000 
#
# Total GULP energy -156496.989241 kJ/mol
# GULP energy per Si atom -5589.178187 kJ/mol
# Density = 1.908925 g / cm^3
# Si number density = 19.132792 Si / 1000 Ang^3
#
#
#
# Elastic Constant Matrix: (Units=GPa)
#
#
# Indices 1 2 3 4 5 6 
#
# 1 93.6272 19.7197 10.2976 0.0000 11.8836 0.0000
# 2 19.7197 17.1347 18.8096 0.0000 6.2149 0.0002
# 3 10.2976 18.8096 95.8585 0.0000 14.9119 0.0000
# 4 0.0000 0.0000 0.0000 26.0388 0.0000 3.3191
# 5 11.8836 6.2149 14.9119 0.0000 39.7673 0.0000
# 6 0.0000 0.0002 0.0000 3.3191 0.0000 19.6841
#
#
#
# Elastic Compliance Matrix: (Units=1/GPa)
#
#
# Indices 1 2 3 4 5 6 
#
# 1 0.014651 -0.018707 0.002467 0.000000 -0.002380 0.000000
# 2 -0.018707 0.099901 -0.017027 0.000000 -0.003638 -0.000001
# 3 0.002467 -0.017027 0.014027 0.000000 -0.003336 0.000000
# 4 0.000000 0.000000 0.000000 0.039248 0.000000 -0.006618
# 5 -0.002380 -0.003638 -0.003336 0.000000 0.027677 0.000000
# 6 0.000000 -0.000001 0.000000 -0.006618 0.000000 0.051918
#
#
# Mechanical properties :
#
#
# Convention : Reuss Voigt Hill
#
# Bulk Modulus (GPa) = 16.11726 33.80826 24.96276
# Shear Modulus (GPa) = 14.94150 27.61760 21.27955
#
# Velocity S-wave (km/s) = 2.79756 3.80342 3.33859
# Velocity P-wave (km/s) = 4.34480 6.08249 5.28555
#
# Compressibility (1/GPa) = 0.06204528
#
# Stress axis : x y z
#
# Youngs Moduli (GPa) = 68.25307 10.00992 71.29028
#
# Poissons Ratio (x) = 0.18725 -0.17587
# Poissons Ratio (y) = 1.27678 1.21389
# Poissons Ratio (z) = -0.16838 0.17044
#
# Static dielectric constant tensor:
#      x y z
#    x 1.646060 0.000000 0.001600 
#    y 0.000000 1.656370 0.000000 
#    z 0.001600 0.000000 1.635090 
# 
# From -- ./inp_files/363234.got.cif
#   From: 2010.05.17/outbox.cif.g08.bks.cpg/sg12_182_cif.got.tgz:363234.got - 2010.06.03 13:09:07.
