data_PCOD9187153
_publ_section_title
;
Structure prediction by ZEFSAII (Michael W. Deem and Ramdas Pophale) SiO2 
 PCOD9187153
Probable space group: C 2/M
;
_chemical_formula_sum "Si O2"
_cell_formula_units_Z 64
_cell_length_a 30.304006
_cell_length_b 7.890819
_cell_length_c 15.072200
_cell_angle_alpha 90.000000
_cell_angle_beta 62.365704
_cell_angle_gamma 90.000000
_cell_volume 3192.980532
_symmetry_space_group_name_H-M "C 2/M"
_symmetry_group_IT_number 12
_symmetry_cell_setting 'monoclinic'
loop_
_space_group_symop_operation_xyz
x,y,z
-x,y,-z
-x,-y,-z
x,-y,z
1/2+x,1/2+y,z
1/2-x,1/2+y,-z
1/2-x,1/2-y,-z
1/2+x,1/2-y,z
loop_
_atom_site_type_symbol
_atom_site_label
_atom_site_fract_x
_atom_site_fract_y
_atom_site_fract_z
Si Si1 0.136716 0.791736 0.446515
Si Si2 0.883199 0.795108 0.733011
Si Si3 0.246050 0.796023 0.400234
Si Si4 0.352692 0.197537 0.241437
Si Si5 0.962953 0.207768 0.803802
Si Si6 0.925676 0.199470 0.327344
Si Si7 0.114456 0.195988 0.980273
Si Si8 0.807219 0.302029 0.949851
O O1 0.117620 0.738603 0.367767
O O2 0.193520 0.734623 0.410367
O O3 0.102026 0.731746 0.559615
O O4 0.136916 0.000000 0.447925
O O5 0.930461 0.741739 0.748216
O O6 0.834534 0.735126 0.831515
O O7 0.882562 0.000000 0.733992
O O8 0.250000 0.750000 0.500000
O O9 0.296268 0.734841 0.304981
O O10 0.244832 0.000000 0.393875
O O11 0.389407 0.282429 0.277511
O O12 0.372328 0.215599 0.123613
O O13 0.351502 0.000000 0.266747
O O14 0.019428 0.269092 0.744177
O O15 0.962419 0.000000 0.807466
O O16 0.932445 0.264141 0.919418
O O17 0.933082 0.000000 0.337507
O O18 0.104684 0.000000 0.967965
O O19 0.160944 0.207419 0.004512
O O20 0.810942 0.500000 0.966723
O O21 0.750000 0.250000 0.000000
#
# Coordination Sequence:
#
# PCOD9187153 Si02
#       8
#     8   8   8   8   8   8   8   8
#     4   9  18  32  55  83 109 142 183 227 276 330
#     4   9  18  35  56  81 113 145 181 229 281 330
#     4  10  20  35  53  77 109 145 181 226 277 325
#     4  11  23  36  53  82 115 147 185 230 279 332
#     4   8  17  34  57  83 109 139 181 236 283 324
#     4  10  19  35  58  81 108 146 190 230 275 331
#     4  10  21  39  59  82 111 144 184 231 283 331
#     4  11  22  37  56  82 112 147 188 229 274 328
#
# _framework density 20.043970000000002
#
# number of rings (size 3 to 8) (size 9 to 14) (size 15 to 20)
#    0.000    2.250    1.250    2.625    1.750    1.500 
#    0.000    9.375    0.000    0.000    0.000    4.375 
#    0.000    0.000    0.000    0.000    0.000    0.000 
#
# Total GULP energy -178634.389059 kJ/mol
# GULP energy per Si atom -5582.324658 kJ/mol
# Density = 1.999835 g / cm^3
# Si number density = 20.043970 Si / 1000 Ang^3
#
#
#
# Elastic Constant Matrix: (Units=GPa)
#
#
# Indices 1 2 3 4 5 6 
#
# 1 85.8662 -2.1297 92.0162 0.0000 -36.3528 0.0000
# 2 -2.1297 21.4926 -4.2282 0.0000 -5.9284 0.0000
# 3 92.0162 -4.2282 166.2918 0.0000 -11.1449 0.0000
# 4 0.0000 0.0000 0.0000 15.6742 0.0000 -2.8290
# 5 -36.3528 -5.9284 -11.1449 0.0000 36.5766 0.0000
# 6 0.0000 0.0000 0.0000 -2.8290 0.0000 11.2141
#
#
#
# Elastic Compliance Matrix: (Units=1/GPa)
#
#
# Indices 1 2 3 4 5 6 
#
# 1 0.120829 0.029888 -0.058930 0.000000 0.106979 0.000000
# 2 0.029888 0.056634 -0.012753 0.000000 0.034999 0.000000
# 3 -0.058930 -0.012753 0.034948 0.000000 -0.049988 0.000000
# 4 0.000000 0.000000 0.000000 0.066842 0.000000 0.016863
# 5 0.106979 0.034999 -0.049988 0.000000 0.124105 0.000000
# 6 0.000000 0.000000 0.000000 0.016863 0.000000 0.093428
#
#
# Mechanical properties :
#
#
# Convention : Reuss Voigt Hill
#
# Bulk Modulus (GPa) = 7.76270 49.44081 28.60175
# Shear Modulus (GPa) = 8.02160 25.22579 16.62369
#
# Velocity S-wave (km/s) = 2.00267 3.55141 2.88299
# Velocity P-wave (km/s) = 3.03790 6.44488 5.03812
#
# Compressibility (1/GPa) = 0.12882117
#
# Stress axis : x y z
#
# Youngs Moduli (GPa) = 8.27613 17.65719 28.61424
#
# Poissons Ratio (x) = -0.52773 1.68625
# Poissons Ratio (y) = -0.24736 0.36491
# Poissons Ratio (z) = 0.48771 0.22517
#
# Static dielectric constant tensor:
#      x y z
#    x 1.687880 0.000000 -0.021720 
#    y 0.000000 1.741970 0.000000 
#    z -0.021720 0.000000 1.689640 
# 
# From -- ./inp_files/249058.got.cif
#   From: 2010.05.17/outbox.cif.g08.bks.cpg/sg12_125_cif.got.tgz:249058.got - 2010.06.03 13:09:07.
