data_PCOD9187495
_publ_section_title
;
Structure prediction by ZEFSAII (Michael W. Deem and Ramdas Pophale) SiO2 
 PCOD9187495
Probable space group: C 2/M
;
_chemical_formula_sum "Si O2"
_cell_formula_units_Z 64
_cell_length_a 14.859281
_cell_length_b 29.480818
_cell_length_c 8.357840
_cell_angle_alpha 90.000000
_cell_angle_beta 54.299782
_cell_angle_gamma 90.000000
_cell_volume 2973.246331
_symmetry_space_group_name_H-M "C 2/M"
_symmetry_group_IT_number 12
_symmetry_cell_setting 'monoclinic'
loop_
_space_group_symop_operation_xyz
x,y,z
-x,y,-z
-x,-y,-z
x,-y,z
1/2+x,1/2+y,z
1/2-x,1/2+y,-z
1/2-x,1/2-y,-z
1/2+x,1/2-y,z
loop_
_atom_site_type_symbol
_atom_site_label
_atom_site_fract_x
_atom_site_fract_y
_atom_site_fract_z
Si Si1 0.491690 0.830755 0.186232
Si Si2 0.751854 0.448302 0.426477
Si Si3 0.591732 0.364610 0.624348
Si Si4 0.156962 0.590387 0.998561
Si Si5 0.783353 0.328577 0.615016
Si Si6 0.644107 0.339875 0.210272
Si Si7 0.889833 0.258175 0.714682
Si Si8 0.868189 0.575737 0.637222
O O1 0.365507 0.830123 0.376804
O O2 0.563760 0.797770 0.220965
O O3 0.500000 0.812962 0.000000
O O4 0.542016 0.881589 0.131829
O O5 0.717230 0.500000 0.437613
O O6 0.647811 0.414179 0.553763
O O7 0.821405 0.432763 0.196229
O O8 0.818157 0.445002 0.526273
O O9 0.659090 0.338263 0.690593
O O10 0.619048 0.341733 0.425862
O O11 0.459932 0.361915 0.774314
O O12 0.249192 0.629496 0.918104
O O13 0.168215 0.560001 0.147076
O O14 0.804054 0.281927 0.683943
O O15 0.830700 0.371445 0.664743
O O16 0.654894 0.287097 0.156553
O O17 0.000000 0.244891 0.500000
O O18 0.000000 0.571644 0.500000
#
# Coordination Sequence:
#
# PCOD9187495 Si02
#       8
#     8   8   8   8   8   8   8   8
#     4  11  20  35  57  88 122 167 214 255 306 377
#     4  10  24  43  66  97 125 163 218 268 322 398
#     4   9  19  39  63  83 128 167 208 262 330 373
#     4  11  23  39  67  91 128 169 210 265 324 382
#     4  10  19  36  61  87 114 174 211 244 311 381
#     4  10  20  39  58  93 124 168 211 267 318 364
#     4  10  19  35  59  86 126 162 217 259 299 376
#     4  11  20  40  66  90 129 170 204 253 326 390
#
# _framework density 21.525293999999999
#
# number of rings (size 3 to 8) (size 9 to 14) (size 15 to 20)
#    0.000    1.750    3.750    2.625    0.000    1.750 
#    2.250    9.375    0.000    0.750    0.000    0.000 
#    0.000    0.000    0.000    0.000    0.000    0.000 
#
# Total GULP energy -178742.744838 kJ/mol
# GULP energy per Si atom -5585.710776 kJ/mol
# Density = 2.147630 g / cm^3
# Si number density = 21.525294 Si / 1000 Ang^3
#
#
#
# Elastic Constant Matrix: (Units=GPa)
#
#
# Indices 1 2 3 4 5 6 
#
# 1 90.8424 49.6163 26.1527 0.0000 5.7666 0.0000
# 2 49.6163 99.5156 9.8156 0.0000 4.7088 0.0000
# 3 26.1527 9.8156 71.1811 0.0000 25.1273 0.0000
# 4 0.0000 0.0000 0.0000 24.4677 0.0000 -2.9968
# 5 5.7666 4.7088 25.1273 0.0000 27.6283 0.0000
# 6 0.0000 0.0000 0.0000 -2.9968 0.0000 8.9332
#
#
#
# Elastic Compliance Matrix: (Units=1/GPa)
#
#
# Indices 1 2 3 4 5 6 
#
# 1 0.017009 -0.008019 -0.006440 0.000000 0.003674 0.000000
# 2 -0.008019 0.013976 0.001869 0.000000 -0.002408 0.000000
# 3 -0.006440 0.001869 0.023264 0.000000 -0.020133 0.000000
# 4 0.000000 0.000000 0.000000 0.042622 0.000000 0.014298
# 5 0.003674 -0.002408 -0.020133 0.000000 0.054148 0.000000
# 6 0.000000 0.000000 0.000000 0.014298 0.000000 0.116739
#
#
# Mechanical properties :
#
#
# Convention : Reuss Voigt Hill
#
# Bulk Modulus (GPa) = 34.40113 48.07871 41.23992
# Shear Modulus (GPa) = 16.52197 23.93613 20.22905
#
# Velocity S-wave (km/s) = 2.77349 3.33828 3.06891
# Velocity P-wave (km/s) = 5.12570 6.10273 5.63543
#
# Compressibility (1/GPa) = 0.02906881
#
# Stress axis : x y z
#
# Youngs Moduli (GPa) = 58.79355 71.54995 42.98470
#
# Poissons Ratio (x) = 0.57374 0.27684
# Poissons Ratio (y) = 0.47145 -0.08034
# Poissons Ratio (z) = 0.37865 -0.13373
#
# Static dielectric constant tensor:
#      x y z
#    x 1.810250 0.000000 0.024530 
#    y 0.000000 1.764060 0.000000 
#    z 0.024530 0.000000 1.835440 
# 
# From -- ./inp_files/68584.got.cif
#   From: 2010.05.17/outbox.cif.g08.bks.cpg/sg12_35_cif.got.tgz:68584.got - 2010.06.03 13:09:07.
