data_PCOD9187774
_publ_section_title
;
Structure prediction by ZEFSAII (Michael W. Deem and Ramdas Pophale) SiO2 
 PCOD9187774
Probable space group: C 2/M
;
_chemical_formula_sum "Si O2"
_cell_formula_units_Z 56
_cell_length_a 17.292746
_cell_length_b 27.416805
_cell_length_c 12.696513
_cell_angle_alpha 90.000000
_cell_angle_beta 147.131928
_cell_angle_gamma 90.000000
_cell_volume 3266.858180
_symmetry_space_group_name_H-M "C 2/M"
_symmetry_group_IT_number 12
_symmetry_cell_setting 'monoclinic'
loop_
_space_group_symop_operation_xyz
x,y,z
-x,y,-z
-x,-y,-z
x,-y,z
1/2+x,1/2+y,z
1/2-x,1/2+y,-z
1/2-x,1/2-y,-z
1/2+x,1/2-y,z
loop_
_atom_site_type_symbol
_atom_site_label
_atom_site_fract_x
_atom_site_fract_y
_atom_site_fract_z
Si Si1 0.600220 0.556640 0.218032
Si Si2 0.635426 0.876704 0.490838
Si Si3 0.941127 0.861369 0.156670
Si Si4 0.150089 0.347804 0.917074
Si Si5 0.846512 0.713041 0.865177
Si Si6 0.286254 0.695714 0.500460
Si Si7 0.711777 0.812718 0.770589
O O1 0.606037 0.500000 0.254626
O O2 0.758773 0.577531 0.377398
O O3 0.527804 0.590739 0.224038
O O4 0.500000 0.560740 0.000000
O O5 0.478881 0.884019 0.261326
O O6 0.714035 0.839998 0.501231
O O7 0.632715 0.846898 0.597075
O O8 0.048053 0.818703 0.314258
O O9 0.809308 0.869539 0.085817
O O10 0.861681 0.840342 0.962532
O O11 0.145574 0.310466 0.812112
O O12 0.134514 0.319919 0.009208
O O13 0.779296 0.685883 0.688806
O O14 0.744637 0.758871 0.769777
O O15 0.000000 0.731039 0.000000
O O16 0.250000 0.750000 0.500000
#
# Coordination Sequence:
#
# PCOD9187774 Si02
#       7
#     8   8   8   8   8   8   8
#     4  10  19  35  61  89 111 141 184 230 287 353
#     4  11  20  36  55  80 113 152 182 226 283 334
#     4   9  22  36  52  80 112 150 180 232 279 330
#     4  10  23  37  50  79 114 153 192 224 280 326
#     4  12  22  34  52  78 113 156 196 235 254 321
#     4  11  21  33  54  78 109 154 195 228 274 322
#     4  10  21  32  54  74 118 150 189 221 276 323
#
# _framework density 17.141850999999999
#
# number of rings (size 3 to 8) (size 9 to 14) (size 15 to 20)
#    0.857    0.714    4.286    1.714    2.000    0.571 
#    2.571    0.714    0.000    2.571    0.000   16.000 
#    0.000    0.000    0.000    0.000    0.000    0.000 
#
# Total GULP energy -155892.505111 kJ/mol
# GULP energy per Si atom -5567.589468 kJ/mol
# Density = 1.710284 g / cm^3
# Si number density = 17.141851 Si / 1000 Ang^3
#
#
#
# Elastic Constant Matrix: (Units=GPa)
#
#
# Indices 1 2 3 4 5 6 
#
# 1 78.0911 20.9509 33.1611 0.0000 1.3533 0.0000
# 2 20.9509 74.2219 27.7123 0.0000 4.6601 0.0000
# 3 33.1611 27.7123 87.1317 0.0000 8.5906 0.0000
# 4 0.0000 0.0000 0.0000 14.0727 0.0000 -1.0782
# 5 1.3533 4.6601 8.5906 0.0000 40.7927 0.0000
# 6 0.0000 0.0000 0.0000 -1.0782 0.0000 8.9357
#
#
#
# Elastic Compliance Matrix: (Units=1/GPa)
#
#
# Indices 1 2 3 4 5 6 
#
# 1 0.015701 -0.002523 -0.005259 0.000000 0.000875 0.000000
# 2 -0.002523 0.015716 -0.003951 0.000000 -0.000880 0.000000
# 3 -0.005259 -0.003951 0.014985 0.000000 -0.002530 0.000000
# 4 0.000000 0.000000 0.000000 0.071723 0.000000 0.008654
# 5 0.000875 -0.000880 -0.002530 0.000000 0.025118 0.000000
# 6 0.000000 0.000000 0.000000 0.008654 0.000000 0.112955
#
#
# Mechanical properties :
#
#
# Convention : Reuss Voigt Hill
#
# Bulk Modulus (GPa) = 43.60433 44.78817 44.19625
# Shear Modulus (GPa) = 17.40285 23.26824 20.33554
#
# Velocity S-wave (km/s) = 3.18972 3.68828 3.44802
# Velocity P-wave (km/s) = 6.24966 6.65752 6.45681
#
# Compressibility (1/GPa) = 0.02293350
#
# Stress axis : x y z
#
# Youngs Moduli (GPa) = 63.69171 63.62970 66.73500
#
# Poissons Ratio (x) = 0.16055 0.35097
# Poissons Ratio (y) = 0.16071 0.26370
# Poissons Ratio (z) = 0.33497 0.25143
#
# Static dielectric constant tensor:
#      x y z
#    x 1.628640 0.000000 0.054880 
#    y 0.000000 1.546070 0.000000 
#    z 0.054880 0.000000 1.653130 
# 
# From -- ./inp_files/160346.got.cif
#   From: 2010.05.17/outbox.cif.g08.bks.cpg/sg12_81_cif.got.tgz:160346.got - 2010.06.03 13:09:07.
