data_PCOD9187718
_publ_section_title
;
Structure prediction by ZEFSAII (Michael W. Deem and Ramdas Pophale) SiO2 
 PCOD9187718
Probable space group: C 2/M
;
_chemical_formula_sum "Si O2"
_cell_formula_units_Z 58
_cell_length_a 20.938341
_cell_length_b 7.675177
_cell_length_c 24.486883
_cell_angle_alpha 90.000000
_cell_angle_beta 45.805974
_cell_angle_gamma 90.000000
_cell_volume 2821.455539
_symmetry_space_group_name_H-M "C 2/M"
_symmetry_group_IT_number 12
_symmetry_cell_setting 'monoclinic'
loop_
_space_group_symop_operation_xyz
x,y,z
-x,y,-z
-x,-y,-z
x,-y,z
1/2+x,1/2+y,z
1/2-x,1/2+y,-z
1/2-x,1/2-y,-z
1/2+x,1/2-y,z
loop_
_atom_site_type_symbol
_atom_site_label
_atom_site_fract_x
_atom_site_fract_y
_atom_site_fract_z
Si Si1 0.456937 0.206579 0.375775
Si Si2 0.099032 0.789269 0.204536
Si Si3 0.116114 0.800942 0.468595
Si Si4 0.458006 0.708879 0.197843
Si Si5 0.520885 0.296749 0.046705
Si Si6 0.220862 0.291689 0.955408
Si Si7 0.817392 0.292392 0.368449
Si Si8 0.000000 0.500000 0.500000
O O1 0.549812 0.231820 0.288929
O O2 0.444729 0.296548 0.440795
O O3 0.380146 0.274589 0.380050
O O4 0.445488 0.000000 0.393203
O O5 0.199204 0.732054 0.132034
O O6 0.035812 0.726874 0.192300
O O7 0.098436 0.000000 0.204329
O O8 0.214706 0.742659 0.429344
O O9 0.076457 0.654964 0.453295
O O10 0.120152 0.000000 0.445138
O O11 0.468623 0.500000 0.189029
O O12 0.470874 0.779652 0.129383
O O13 0.365983 0.747173 0.282956
O O14 0.493914 0.500000 0.059855
O O15 0.500000 0.218061 0.000000
O O16 0.625596 0.287020 0.997688
O O17 0.212769 0.500000 0.955659
O O18 0.250000 0.250000 0.000000
O O19 0.819851 0.500000 0.372994
#
# Coordination Sequence:
#
# PCOD9187718 Si02
#       8
#     8   8   8   8   8   8   8   2
#     4  10  19  35  60  94 127 153 193 250 313 369
#     4   9  18  33  53  84 118 153 194 246 311 366
#     4  11  23  42  64  90 123 164 208 256 301 355
#     4   9  17  32  55  82 115 154 194 244 302 362
#     4  10  21  38  57  81 117 158 200 248 305 360
#     4  11  21  35  58  84 115 154 203 252 303 365
#     4   9  20  35  59  93 123 152 193 248 313 366
#     4  12  26  44  64  86 120 172 224 238 286 382
#
# _framework density 20.556764000000001
#
# number of rings (size 3 to 8) (size 9 to 14) (size 15 to 20)
#    0.000    2.069    2.069    1.448    0.966    2.483 
#    0.000    1.379    3.034    3.310    0.000    0.000 
#    0.000    0.000    0.000    0.000    0.000    0.000 
#
# Total GULP energy -161600.581239 kJ/mol
# GULP energy per Si atom -5572.433836 kJ/mol
# Density = 2.050998 g / cm^3
# Si number density = 20.556764 Si / 1000 Ang^3
#
#
#
# Elastic Constant Matrix: (Units=GPa)
#
#
# Indices 1 2 3 4 5 6 
#
# 1 49.4843 0.9400 20.9552 0.0002 3.8179 -0.0002
# 2 0.9400 63.6439 -6.5726 0.0028 -3.7771 -0.0021
# 3 20.9552 -6.5726 91.1824 0.0002 3.1738 0.0000
# 4 0.0002 0.0028 0.0002 19.7516 0.0000 -8.0095
# 5 3.8179 -3.7771 3.1738 0.0000 17.8460 0.0000
# 6 -0.0002 -0.0021 0.0000 -8.0095 0.0000 16.8173
#
#
#
# Elastic Compliance Matrix: (Units=1/GPa)
#
#
# Indices 1 2 3 4 5 6 
#
# 1 0.022738 -0.001117 -0.005160 0.000000 -0.004183 0.000000
# 2 -0.001117 0.016065 0.001296 -0.000002 0.003409 0.000001
# 3 -0.005160 0.001296 0.012274 0.000000 -0.000805 0.000000
# 4 0.000000 -0.000002 0.000000 0.062747 -0.000001 0.029884
# 5 -0.004183 0.003409 -0.000805 -0.000001 0.057794 0.000000
# 6 0.000000 0.000001 0.000000 0.029884 0.000000 0.073695
#
#
# Mechanical properties :
#
#
# Convention : Reuss Voigt Hill
#
# Bulk Modulus (GPa) = 24.32236 26.10621 25.21429
# Shear Modulus (GPa) = 18.58863 23.48218 21.03541
#
# Velocity S-wave (km/s) = 3.01035 3.38347 3.20235
# Velocity P-wave (km/s) = 4.89290 5.29065 5.09566
#
# Compressibility (1/GPa) = 0.04111442
#
# Stress axis : x y z
#
# Youngs Moduli (GPa) = 43.97987 62.24694 81.47036
#
# Poissons Ratio (x) = 0.06953 0.42042
# Poissons Ratio (y) = 0.04913 -0.10559
# Poissons Ratio (z) = 0.22695 -0.08068
#
# Static dielectric constant tensor:
#      x y z
#    x 1.762820 0.000000 0.015440 
#    y 0.000000 1.762800 0.000000 
#    z 0.015440 0.000000 1.749480 
# 
# From -- ./inp_files/275475.got.cif
#   From: 2010.05.17/outbox.cif.g08.bks.cpg/sg12_138_cif.got.tgz:275475.got - 2010.06.03 13:09:07.
