data_PCOD9187045
_publ_section_title
;
Structure prediction by ZEFSAII (Michael W. Deem and Ramdas Pophale) SiO2 
 PCOD9187045
Probable space group: C 2/M
;
_chemical_formula_sum "Si O2"
_cell_formula_units_Z 56
_cell_length_a 30.646512
_cell_length_b 12.732209
_cell_length_c 8.593196
_cell_angle_alpha 90.000000
_cell_angle_beta 115.680792
_cell_angle_gamma 90.000000
_cell_volume 3021.840127
_symmetry_space_group_name_H-M "C 2/M"
_symmetry_group_IT_number 12
_symmetry_cell_setting 'monoclinic'
loop_
_space_group_symop_operation_xyz
x,y,z
-x,y,-z
-x,-y,-z
x,-y,z
1/2+x,1/2+y,z
1/2-x,1/2+y,-z
1/2-x,1/2-y,-z
1/2+x,1/2-y,z
loop_
_atom_site_type_symbol
_atom_site_label
_atom_site_fract_x
_atom_site_fract_y
_atom_site_fract_z
Si Si1 0.547767 0.879583 0.463261
Si Si2 0.105398 0.377526 0.084575
Si Si3 0.695125 0.622408 0.943351
Si Si4 0.514250 0.754974 0.866940
Si Si5 0.899027 0.757155 0.208333
Si Si6 0.810015 0.374876 0.566828
Si Si7 0.748290 0.269609 0.742806
O O1 0.500000 0.887700 0.500000
O O2 0.529398 0.808461 0.292875
O O3 0.586831 0.816411 0.625178
O O4 0.561762 0.000000 0.444236
O O5 0.110848 0.500000 0.069207
O O6 0.049233 0.345782 0.992530
O O7 0.136305 0.350213 0.284419
O O8 0.124194 0.317208 0.961039
O O9 0.699801 0.500000 0.979878
O O10 0.639819 0.654057 0.820872
O O11 0.726905 0.658571 0.845559
O O12 0.714785 0.687689 0.121045
O O13 0.550898 0.704034 0.797049
O O14 0.500000 0.691519 0.000000
O O15 0.806557 0.500000 0.530453
O O16 0.774139 0.340297 0.651889
O O17 0.793621 0.301845 0.399761
#
# Coordination Sequence:
#
# PCOD9187045 Si02
#       7
#     8   8   8   8   8   8   8
#     4   9  16  28  48  74 104 139 174 212 267 330
#     4   9  17  29  49  78 110 142 169 210 272 329
#     4  11  22  39  58  78 106 146 189 231 274 318
#     4   9  18  30  49  75 109 142 176 219 272 324
#     4   9  19  34  49  74 104 142 177 225 265 325
#     4  10  19  35  57  83 116 144 170 217 275 329
#     4  10  21  37  57  84 109 139 187 223 267 329
#
# _framework density 18.531756000000001
#
# number of rings (size 3 to 8) (size 9 to 14) (size 15 to 20)
#    0.857    1.571    1.429    1.714    0.000    2.286 
#    0.000    3.571    0.000    4.286    0.000    0.000 
#    0.000    0.000    0.000    0.000    0.000    0.000 
#
# Total GULP energy -155877.545008 kJ/mol
# GULP energy per Si atom -5567.055179 kJ/mol
# Density = 1.848958 g / cm^3
# Si number density = 18.531756 Si / 1000 Ang^3
#
#
#
# Elastic Constant Matrix: (Units=GPa)
#
#
# Indices 1 2 3 4 5 6 
#
# 1 38.8630 19.7761 8.0497 0.0000 8.8510 0.0000
# 2 19.7761 39.8283 3.5395 0.0000 13.2477 0.0000
# 3 8.0497 3.5395 69.3289 0.0000 20.6438 0.0000
# 4 0.0000 0.0000 0.0000 12.7422 0.0000 3.7759
# 5 8.8510 13.2477 20.6438 0.0000 25.7627 0.0000
# 6 0.0000 0.0000 0.0000 3.7759 0.0000 17.0896
#
#
#
# Elastic Compliance Matrix: (Units=1/GPa)
#
#
# Indices 1 2 3 4 5 6 
#
# 1 0.035144 -0.016826 -0.002893 0.000000 -0.001104 0.000000
# 2 -0.016826 0.039240 0.005565 0.000000 -0.018857 0.000000
# 3 -0.002893 0.005565 0.019743 0.000000 -0.017688 0.000000
# 4 0.000000 0.000000 0.000000 0.083978 0.000000 -0.018554
# 5 -0.001104 -0.018857 -0.017688 0.000000 0.063065 0.000000
# 6 0.000000 0.000000 0.000000 -0.018554 0.000000 0.062614
#
#
# Mechanical properties :
#
#
# Convention : Reuss Voigt Hill
#
# Bulk Modulus (GPa) = 15.19309 23.41676 19.30492
# Shear Modulus (GPa) = 14.12305 18.89590 16.50948
#
# Velocity S-wave (km/s) = 2.76361 3.19666 2.98799
# Velocity P-wave (km/s) = 4.28948 5.12721 4.72694
#
# Compressibility (1/GPa) = 0.06581939
#
# Stress axis : x y z
#
# Youngs Moduli (GPa) = 28.45420 25.48421 50.65198
#
# Poissons Ratio (x) = 0.42880 0.14653
# Poissons Ratio (y) = 0.47877 -0.28189
# Poissons Ratio (z) = 0.08231 -0.14182
#
# Static dielectric constant tensor:
#      x y z
#    x 1.731520 0.000000 -0.025910 
#    y 0.000000 1.585660 0.000000 
#    z -0.025910 0.000000 1.654290 
# 
# From -- ./inp_files/103288.got.cif
#   From: 2010.05.17/outbox.cif.g08.bks.cpg/sg12_52_cif.got.tgz:103288.got - 2010.06.03 13:09:07.
