data_PCOD9187302
_publ_section_title
;
Structure prediction by ZEFSAII (Michael W. Deem and Ramdas Pophale) SiO2 
 PCOD9187302
Probable space group: C 2/M
;
_chemical_formula_sum "Si O2"
_cell_formula_units_Z 58
_cell_length_a 22.808531
_cell_length_b 7.543438
_cell_length_c 17.828705
_cell_angle_alpha 90.000000
_cell_angle_beta 102.121274
_cell_angle_gamma 90.000000
_cell_volume 2999.124023
_symmetry_space_group_name_H-M "C 2/M"
_symmetry_group_IT_number 12
_symmetry_cell_setting 'monoclinic'
loop_
_space_group_symop_operation_xyz
x,y,z
-x,y,-z
-x,-y,-z
x,-y,z
1/2+x,1/2+y,z
1/2-x,1/2+y,-z
1/2-x,1/2-y,-z
1/2+x,1/2-y,z
loop_
_atom_site_type_symbol
_atom_site_label
_atom_site_fract_x
_atom_site_fract_y
_atom_site_fract_z
Si Si1 0.936027 0.285363 0.765503
Si Si2 0.348505 0.291701 0.036131
Si Si3 0.696997 0.287972 0.428303
Si Si4 0.500000 0.500000 0.500000
Si Si5 0.297861 0.706124 0.736244
Si Si6 0.059904 0.705734 0.406000
Si Si7 0.984215 0.295280 0.076710
Si Si8 0.741004 0.285049 0.115763
O O1 0.933588 0.500000 0.764921
O O2 0.869460 0.218187 0.765899
O O3 0.951780 0.238176 0.684039
O O4 0.981738 0.221046 0.841583
O O5 0.358737 0.500000 0.028148
O O6 0.412922 0.208664 0.066523
O O7 0.302781 0.265676 0.092492
O O8 0.312924 0.222993 0.953231
O O9 0.688747 0.500000 0.420584
O O10 0.750000 0.250000 0.500000
O O11 0.713675 0.218491 0.349543
O O12 0.632402 0.212422 0.433922
O O13 0.529540 0.343551 0.453561
O O14 0.279840 0.500000 0.728543
O O15 0.267076 0.782356 0.802077
O O16 0.040673 0.500000 0.410824
O O17 0.004600 0.500000 0.078465
O O18 0.000000 0.213583 0.000000
O O19 0.738064 0.500000 0.115531
#
# Coordination Sequence:
#
# PCOD9187302 Si02
#       8
#     8   8   8   2   8   8   8   8
#     4   9  19  34  54  81 112 146 184 231 286 330
#     4  10  20  32  49  75 104 139 181 225 273 317
#     4  10  19  35  58  87 118 150 190 240 301 357
#     4  12  22  40  64  90 118 152 206 242 292 378
#     4   9  18  32  55  80 103 139 181 226 276 332
#     4  10  21  39  62  90 120 156 199 248 298 357
#     4  10  20  34  53  78 109 147 188 226 274 331
#     4   9  18  34  52  72 102 140 180 221 272 329
#
# _framework density 19.338981
#
# number of rings (size 3 to 8) (size 9 to 14) (size 15 to 20)
#    0.000    2.345    0.690    1.862    0.966    2.483 
#    0.000    1.379    0.000    3.310    0.000    0.000 
#    0.000    0.000    0.000    0.000    0.000    0.000 
#
# Total GULP energy -161519.739974 kJ/mol
# GULP energy per Si atom -5569.646206 kJ/mol
# Density = 1.929496 g / cm^3
# Si number density = 19.338981 Si / 1000 Ang^3
#
#
#
# Elastic Constant Matrix: (Units=GPa)
#
#
# Indices 1 2 3 4 5 6 
#
# 1 68.2765 0.6892 89.3662 0.0000 4.6404 0.0000
# 2 0.6892 76.8116 20.5791 0.0000 -10.1438 0.0000
# 3 89.3662 20.5791 161.5530 0.0000 -6.2128 0.0000
# 4 0.0000 0.0000 0.0000 210.5146 0.0000 246.0547
# 5 4.6404 -10.1438 -6.2128 0.0000 34.5318 0.0000
# 6 0.0000 0.0000 0.0000 246.0547 0.0000 329.1136
#
#
#
# Elastic Compliance Matrix: (Units=1/GPa)
#
#
# Indices 1 2 3 4 5 6 
#
# 1 0.062763 0.007440 -0.036157 0.000000 -0.012754 0.000000
# 2 0.007440 0.014841 -0.005918 0.000000 0.002295 0.000000
# 3 -0.036157 -0.005918 0.027253 0.000000 0.008024 0.000000
# 4 0.000000 0.000000 0.000000 0.037655 0.000000 -0.028152
# 5 -0.012754 0.002295 0.008024 0.000000 0.032790 0.000000
# 6 0.000000 0.000000 0.000000 -0.028152 0.000000 0.024085
#
#
# Mechanical properties :
#
#
# Convention : Reuss Voigt Hill
#
# Bulk Modulus (GPa) = 28.09983 58.65671 43.37827
# Shear Modulus (GPa) = 17.82403 127.89911 72.86157
#
# Velocity S-wave (km/s) = 3.03918 8.14119 6.14474
# Velocity P-wave (km/s) = 5.18432 10.89810 8.53363
#
# Compressibility (1/GPa) = 0.03558741
#
# Stress axis : x y z
#
# Youngs Moduli (GPa) = 15.93284 67.38271 36.69288
#
# Poissons Ratio (x) = -0.50130 1.32670
# Poissons Ratio (y) = -0.11853 0.21713
# Poissons Ratio (z) = 0.57608 0.39874
#
# Static dielectric constant tensor:
#      x y z
#    x 1.623160 0.000000 -0.004780 
#    y 0.000000 1.724680 0.000000 
#    z -0.004780 0.000000 1.701340 
# 
# From -- ./inp_files/237745.got.cif
#   From: 2010.05.17/outbox.cif.g08.bks.cpg/sg12_119_cif.got.tgz:237745.got - 2010.06.03 13:09:07.
