data_PCOD9187538
_publ_section_title
;
Structure prediction by ZEFSAII (Michael W. Deem and Ramdas Pophale) SiO2 
 PCOD9187538
Probable space group: C 2/M
;
_chemical_formula_sum "Si O2"
_cell_formula_units_Z 58
_cell_length_a 21.219469
_cell_length_b 13.690734
_cell_length_c 8.124522
_cell_angle_alpha 90.000000
_cell_angle_beta 100.224049
_cell_angle_gamma 90.000000
_cell_volume 2322.777699
_symmetry_space_group_name_H-M "C 2/M"
_symmetry_group_IT_number 12
_symmetry_cell_setting 'monoclinic'
loop_
_space_group_symop_operation_xyz
x,y,z
-x,y,-z
-x,-y,-z
x,-y,z
1/2+x,1/2+y,z
1/2-x,1/2+y,-z
1/2-x,1/2-y,-z
1/2+x,1/2-y,z
loop_
_atom_site_type_symbol
_atom_site_label
_atom_site_fract_x
_atom_site_fract_y
_atom_site_fract_z
Si Si1 0.589634 0.111618 0.582255
Si Si2 0.806445 0.710232 0.176574
Si Si3 0.544373 0.391204 0.242100
Si Si4 0.809035 0.884695 0.744979
Si Si5 0.863946 0.613210 0.891091
Si Si6 0.000000 0.000000 0.500000
Si Si7 0.017335 0.683437 0.244484
Si Si8 0.734550 0.385309 0.642761
O O1 0.658812 0.143624 0.670002
O O2 0.562258 0.181095 0.428576
O O3 0.543359 0.123875 0.719424
O O4 0.587065 0.000000 0.522074
O O5 0.734146 0.670235 0.142918
O O6 0.803859 0.819073 0.245308
O O7 0.842678 0.682507 0.028550
O O8 0.519771 0.500000 0.176993
O O9 0.614823 0.369787 0.208106
O O10 0.545690 0.415131 0.437204
O O11 0.502174 0.295730 0.194071
O O12 0.785805 0.855671 0.550769
O O13 0.798138 0.000000 0.757438
O O14 0.859113 0.500000 0.940305
O O15 0.935765 0.636358 0.867124
O O16 0.810232 0.626575 0.722137
O O17 0.719942 0.500000 0.654514
#
# Coordination Sequence:
#
# PCOD9187538 Si02
#       8
#     8   8   8   8   8   2   8   8
#     4  11  23  38  60  88 114 152 201 251 300 352
#     4  12  23  39  59  86 120 160 199 249 299 365
#     4   9  19  33  58  90 122 152 194 245 292 358
#     4  10  19  35  59  89 119 152 197 246 303 351
#     4  11  23  39  60  85 120 160 200 249 302 359
#     4   8  16  32  52  88 126 142 196 236 300 322
#     4  11  21  39  60  88 119 159 197 248 307 351
#     4  10  22  38  58  87 116 154 197 246 304 358
#
# _framework density 24.970103000000002
#
# number of rings (size 3 to 8) (size 9 to 14) (size 15 to 20)
#    0.414    1.103    0.000    7.034    0.000    1.655 
#    0.000    3.448    0.000    0.000    0.000    1.931 
#    0.000    0.000    0.000    0.000    0.000    0.000 
#
# Total GULP energy -161960.880385 kJ/mol
# GULP energy per Si atom -5584.857944 kJ/mol
# Density = 2.491327 g / cm^3
# Si number density = 24.970103 Si / 1000 Ang^3
#
#
#
# Elastic Constant Matrix: (Units=GPa)
#
#
# Indices 1 2 3 4 5 6 
#
# 1 37.7955 24.5688 4.5695 0.0000 -22.9948 0.0000
# 2 24.5688 109.7810 13.1574 0.0000 -6.7844 0.0000
# 3 4.5695 13.1574 70.3676 0.0000 -19.7008 0.0000
# 4 0.0000 0.0000 0.0000 14.6282 0.0000 -4.1964
# 5 -22.9948 -6.7844 -19.7008 0.0000 48.9706 0.0000
# 6 0.0000 0.0000 0.0000 -4.1964 0.0000 15.2657
#
#
#
# Elastic Compliance Matrix: (Units=1/GPa)
#
#
# Indices 1 2 3 4 5 6 
#
# 1 0.045331 -0.009382 0.004965 0.000000 0.021984 0.000000
# 2 -0.009382 0.011279 -0.002587 0.000000 -0.003883 0.000000
# 3 0.004965 -0.002587 0.016819 0.000000 0.008739 0.000000
# 4 0.000000 0.000000 0.000000 0.074214 0.000000 0.020401
# 5 0.021984 -0.003883 0.008739 0.000000 0.033721 0.000000
# 6 0.000000 0.000000 0.000000 0.020401 0.000000 0.071114
#
#
# Mechanical properties :
#
#
# Convention : Reuss Voigt Hill
#
# Bulk Modulus (GPa) = 16.82866 33.61505 25.22185
# Shear Modulus (GPa) = 17.46470 27.48280 22.47375
#
# Velocity S-wave (km/s) = 2.64753 3.32117 3.00330
# Velocity P-wave (km/s) = 4.01249 5.31020 4.70629
#
# Compressibility (1/GPa) = 0.05942243
#
# Stress axis : x y z
#
# Youngs Moduli (GPa) = 22.05992 88.66291 59.45610
#
# Poissons Ratio (x) = 0.83179 -0.29521
# Poissons Ratio (y) = 0.20696 0.15381
# Poissons Ratio (z) = -0.10953 0.22936
#
# Static dielectric constant tensor:
#      x y z
#    x 1.998450 0.000000 0.069370 
#    y 0.000000 1.927500 0.000000 
#    z 0.069370 0.000000 2.086530 
# 
# From -- ./inp_files/96330.got.cif
#   From: 2010.05.17/outbox.cif.g08.bks.cpg/sg12_49_cif.got.tgz:96330.got - 2010.06.03 13:09:07.
