data_PCOD9187813
_publ_section_title
;
Structure prediction by ZEFSAII (Michael W. Deem and Ramdas Pophale) SiO2 
 PCOD9187813
Probable space group: C 2/M
;
_chemical_formula_sum "Si O2"
_cell_formula_units_Z 48
_cell_length_a 20.699672
_cell_length_b 18.541926
_cell_length_c 18.621941
_cell_angle_alpha 90.000000
_cell_angle_beta 158.821907
_cell_angle_gamma 90.000000
_cell_volume 2582.098664
_symmetry_space_group_name_H-M "C 2/M"
_symmetry_group_IT_number 12
_symmetry_cell_setting 'monoclinic'
loop_
_space_group_symop_operation_xyz
x,y,z
-x,y,-z
-x,-y,-z
x,-y,z
1/2+x,1/2+y,z
1/2-x,1/2+y,-z
1/2-x,1/2-y,-z
1/2+x,1/2-y,z
loop_
_atom_site_type_symbol
_atom_site_label
_atom_site_fract_x
_atom_site_fract_y
_atom_site_fract_z
Si Si1 0.195230 0.917259 0.166093
Si Si2 0.701828 0.829937 0.865905
Si Si3 0.489557 0.418587 0.575181
Si Si4 0.194000 0.666353 0.021096
Si Si5 0.124638 0.287831 0.565242
Si Si6 0.618464 0.845166 0.194406
O O1 0.210434 0.882514 0.102243
O O2 0.306542 0.862541 0.330528
O O3 0.258803 0.000000 0.230667
O O4 0.000000 0.916957 0.000000
O O5 0.802944 0.753396 0.972950
O O6 0.503886 0.807787 0.633545
O O7 0.696588 0.858411 0.941317
O O8 0.500000 0.415529 0.500000
O O9 0.530671 0.500000 0.641151
O O10 0.631707 0.364986 0.758323
O O11 0.285900 0.397409 0.379614
O O12 0.017431 0.645986 0.881225
O O13 0.285566 0.233398 0.714470
O O14 0.000000 0.254958 0.500000
O O15 0.500000 0.857880 0.000000
#
# Coordination Sequence:
#
# PCOD9187813 Si02
#       6
#     8   8   8   8   8   8
#     4  10  21  38  61  90 121 159 203 248 303 367
#     4  10  22  39  61  89 126 161 200 249 307 363
#     4  11  24  42  62  87 121 159 206 258 307 360
#     4  11  23  41  61  91 125 163 203 253 307 360
#     4  10  19  35  61  91 119 156 203 255 296 360
#     4  12  21  36  66  91 119 161 212 256 300 360
#
# _framework density 18.58953
#
# number of rings (size 3 to 8) (size 9 to 14) (size 15 to 20)
#    0.000    1.333    3.333    4.000    0.000    5.333 
#    3.000    0.000    0.000    0.000    0.000    0.000 
#    0.000    0.000    0.000    0.000    0.000    0.000 
#
# Total GULP energy -133966.640137 kJ/mol
# GULP energy per Si atom -5581.943339 kJ/mol
# Density = 1.854722 g / cm^3
# Si number density = 18.589530 Si / 1000 Ang^3
#
#
#
# Elastic Constant Matrix: (Units=GPa)
#
#
# Indices 1 2 3 4 5 6 
#
# 1 118.5346 23.6773 53.5859 0.0076 1.0221 0.0193
# 2 23.6773 73.0401 -0.9374 0.0032 0.7233 0.0197
# 3 53.5859 -0.9374 80.6111 0.0156 5.3521 0.0326
# 4 0.0076 0.0032 0.0156 18.5964 0.0031 8.8065
# 5 1.0221 0.7233 5.3521 0.0031 34.8319 -0.0037
# 6 0.0193 0.0197 0.0326 8.8065 -0.0037 -15.4194
#
#
#
# Elastic Compliance Matrix: (Units=1/GPa)
#
#
# Indices 1 2 3 4 5 6 
#
# 1 0.013405 -0.004472 -0.009035 0.000005 0.001088 -0.000005
# 2 -0.004472 0.015189 0.003194 -0.000010 -0.000675 0.000015
# 3 -0.009035 0.003194 0.018625 -0.000022 -0.002663 0.000020
# 4 0.000005 -0.000010 -0.000022 0.042326 0.000002 0.024174
# 5 0.001088 -0.000675 -0.002663 0.000002 0.029101 -0.000011
# 6 -0.000005 0.000015 0.000020 0.024174 -0.000011 -0.051047
#
#
# Mechanical properties :
#
#
# Convention : Reuss Voigt Hill
#
# Bulk Modulus (GPa) = 37.60426 47.20416 42.40421
# Shear Modulus (GPa) = 51.49974 20.65912 36.07943
#
# Velocity S-wave (km/s) = 5.26913 3.33728 4.41028
# Velocity P-wave (km/s) = 7.56908 6.34806 6.98530
#
# Compressibility (1/GPa) = 0.02659273
#
# Stress axis : x y z
#
# Youngs Moduli (GPa) = 74.60070 65.83922 53.69090
#
# Poissons Ratio (x) = 0.29444 0.48509
# Poissons Ratio (y) = 0.33362 -0.17150
# Poissons Ratio (z) = 0.67401 -0.21031
#
# Static dielectric constant tensor:
#      x y z
#    x 1.651400 0.000000 0.011790 
#    y 0.000000 1.657000 0.000000 
#    z 0.011790 0.000000 1.638810 
# 
# From -- ./inp_files/285418.got.cif
#   From: 2010.05.17/outbox.cif.g08.bks.cpg/sg12_143_cif.got.tgz:285418.got - 2010.06.03 13:09:07.
