data_PCOD9187583
_publ_section_title
;
Structure prediction by ZEFSAII (Michael W. Deem and Ramdas Pophale) SiO2 
 PCOD9187583
Probable space group: C 2/M
;
_chemical_formula_sum "Si O2"
_cell_formula_units_Z 48
_cell_length_a 24.806953
_cell_length_b 10.320267
_cell_length_c 12.389794
_cell_angle_alpha 90.000000
_cell_angle_beta 113.841227
_cell_angle_gamma 90.000000
_cell_volume 2901.298624
_symmetry_space_group_name_H-M "C 2/M"
_symmetry_group_IT_number 12
_symmetry_cell_setting 'monoclinic'
loop_
_space_group_symop_operation_xyz
x,y,z
-x,y,-z
-x,-y,-z
x,-y,z
1/2+x,1/2+y,z
1/2-x,1/2+y,-z
1/2-x,1/2-y,-z
1/2+x,1/2-y,z
loop_
_atom_site_type_symbol
_atom_site_label
_atom_site_fract_x
_atom_site_fract_y
_atom_site_fract_z
Si Si1 0.487217 0.500000 0.320339
Si Si2 0.328393 0.250119 0.450343
Si Si3 0.415087 0.655781 0.897949
Si Si4 0.600718 0.500000 0.549742
Si Si5 0.093132 0.500000 0.534710
Si Si6 0.524074 0.258366 0.843517
Si Si7 0.699299 0.345123 0.332920
Si Si8 0.974262 0.500000 0.296382
O O1 0.555739 0.500000 0.411653
O O2 0.443652 0.500000 0.386221
O O3 0.474713 0.373535 0.241107
O O4 0.358665 0.373901 0.420687
O O5 0.323246 0.282966 0.573429
O O6 0.262284 0.218076 0.358236
O O7 0.368890 0.126588 0.460953
O O8 0.427597 0.500000 0.910216
O O9 0.462074 0.724011 0.856535
O O10 0.350052 0.673573 0.798033
O O11 0.426968 0.715116 0.025193
O O12 0.036207 0.500000 0.410939
O O13 0.072757 0.500000 0.643446
O O14 0.529807 0.125186 0.783636
O O15 0.706974 0.500000 0.356186
#
# Coordination Sequence:
#
# PCOD9187583 Si02
#       8
#     4   8   8   4   4   8   8   4
#     4  11  20  35  57  81 107 149 185 226 266 317
#     4  11  21  36  56  82 111 144 182 224 273 325
#     4  10  19  35  60  83 107 142 185 228 273 324
#     4  11  22  33  55  83 113 139 187 232 266 313
#     4  11  22  39  53  79 111 157 175 212 278 335
#     4  11  20  36  56  84 109 143 180 228 276 323
#     4  10  20  35  58  83 110 144 179 225 277 327
#     4  11  24  35  55  79 119 143 179 220 274 337
#
# _framework density 16.544315999999998
#
# number of rings (size 3 to 8) (size 9 to 14) (size 15 to 20)
#    0.000    1.333    3.333    4.500    0.000    4.000 
#    0.000    2.500    0.000    6.000    0.000    0.000 
#    0.000    0.000    0.000    0.000    0.000    0.000 
#
# Total GULP energy -134003.962963 kJ/mol
# GULP energy per Si atom -5583.498457 kJ/mol
# Density = 1.650666 g / cm^3
# Si number density = 16.544316 Si / 1000 Ang^3
#
#
#
# Elastic Constant Matrix: (Units=GPa)
#
#
# Indices 1 2 3 4 5 6 
#
# 1 109.0320 68.6660 61.8662 0.0000 11.4331 0.0000
# 2 68.6660 163.7831 71.9067 0.0000 0.6260 0.0000
# 3 61.8662 71.9067 126.0988 0.0000 12.6476 0.0000
# 4 0.0000 0.0000 0.0000 20.2662 0.0000 -27.1518
# 5 11.4331 0.6260 12.6476 0.0000 26.6849 0.0000
# 6 0.0000 0.0000 0.0000 -27.1518 0.0000 95.9671
#
#
#
# Elastic Compliance Matrix: (Units=1/GPa)
#
#
# Indices 1 2 3 4 5 6 
#
# 1 0.014785 -0.004243 -0.004419 0.000000 -0.004141 0.000000
# 2 -0.004243 0.009477 -0.003656 0.000000 0.003328 0.000000
# 3 -0.004419 -0.003656 0.012583 0.000000 -0.003985 0.000000
# 4 0.000000 0.000000 0.000000 0.079465 0.000000 0.022483
# 5 -0.004141 0.003328 -0.003985 0.000000 0.041059 0.000000
# 6 0.000000 0.000000 0.000000 0.022483 0.000000 0.016781
#
#
# Mechanical properties :
#
#
# Convention : Reuss Voigt Hill
#
# Bulk Modulus (GPa) = 81.90928 89.31019 85.60974
# Shear Modulus (GPa) = 24.64787 41.68195 33.16491
#
# Velocity S-wave (km/s) = 3.86399 5.02482 4.48215
# Velocity P-wave (km/s) = 8.33809 9.36828 8.86816
#
# Compressibility (1/GPa) = 0.01220863
#
# Stress axis : x y z
#
# Youngs Moduli (GPa) = 67.63468 105.51878 79.47116
#
# Poissons Ratio (x) = 0.44768 0.35120
# Poissons Ratio (y) = 0.28695 0.29058
# Poissons Ratio (z) = 0.29890 0.38583
#
# Static dielectric constant tensor:
#      x y z
#    x 1.544370 0.000000 0.004220 
#    y 0.000000 1.548810 0.000000 
#    z 0.004220 0.000000 1.551420 
# 
# From -- ./inp_files/173139.got.cif
#   From: 2010.05.17/outbox.cif.g08.bks.cpg/sg12_87_cif.got.tgz:173139.got - 2010.06.03 13:09:07.
