data_PCOD9187820
_publ_section_title
;
Structure prediction by ZEFSAII (Michael W. Deem and Ramdas Pophale) SiO2 
 PCOD9187820
Probable space group: C 2/M
;
_chemical_formula_sum "Si O2"
_cell_formula_units_Z 56
_cell_length_a 18.608265
_cell_length_b 11.913178
_cell_length_c 16.747828
_cell_angle_alpha 90.000000
_cell_angle_beta 37.174293
_cell_angle_gamma 90.000000
_cell_volume 2243.379152
_symmetry_space_group_name_H-M "C 2/M"
_symmetry_group_IT_number 12
_symmetry_cell_setting 'monoclinic'
loop_
_space_group_symop_operation_xyz
x,y,z
-x,y,-z
-x,-y,-z
x,-y,z
1/2+x,1/2+y,z
1/2-x,1/2+y,-z
1/2-x,1/2-y,-z
1/2+x,1/2-y,z
loop_
_atom_site_type_symbol
_atom_site_label
_atom_site_fract_x
_atom_site_fract_y
_atom_site_fract_z
Si Si1 0.167689 0.879196 0.354868
Si Si2 0.631011 0.129707 0.994562
Si Si3 0.790056 0.621702 0.538517
Si Si4 0.130548 0.672078 0.709500
Si Si5 0.384978 0.373224 0.045572
Si Si6 0.502488 0.729925 0.385303
Si Si7 0.120110 0.876600 0.139847
O O1 0.295816 0.871142 0.279848
O O2 0.082613 0.868817 0.507633
O O3 0.114564 0.782785 0.344613
O O4 0.152284 0.000000 0.328851
O O5 0.505217 0.146576 0.150301
O O6 0.649992 0.238190 0.919457
O O7 0.741145 0.135277 0.959269
O O8 0.630762 0.000000 0.962885
O O9 0.760697 0.500000 0.593816
O O10 0.820411 0.622611 0.417319
O O11 0.679261 0.700800 0.657331
O O12 0.913182 0.666091 0.467826
O O13 0.325407 0.500000 0.113865
O O14 0.399715 0.375008 0.936588
O O15 0.500000 0.376949 0.000000
O O16 0.547281 0.711508 0.256638
O O17 0.082351 0.000000 0.201753
#
# Coordination Sequence:
#
# PCOD9187820 Si02
#       7
#     8   8   8   8   8   8   8
#     4  10  19  35  61  91 126 161 203 269 334 385
#     4  11  23  40  65  96 131 173 224 280 333 393
#     4  10  21  39  64  92 126 169 218 273 332 402
#     4  10  22  39  61  92 126 166 217 273 336 395
#     4  10  23  43  64  89 127 175 225 276 332 395
#     4  10  20  36  59  92 126 162 210 262 327 394
#     4  10  21  39  65  96 131 174 223 273 331 404
#
# _framework density 24.962343000000001
#
# number of rings (size 3 to 8) (size 9 to 14) (size 15 to 20)
#    0.000    1.857    0.000    4.286    0.000    2.000 
#    0.000   12.143    0.000    0.000    0.000    0.000 
#    0.000    0.000    0.000    2.429    0.000    0.000 
#
# Total GULP energy -156166.861292 kJ/mol
# GULP energy per Si atom -5577.387903 kJ/mol
# Density = 2.490553 g / cm^3
# Si number density = 24.962343 Si / 1000 Ang^3
#
#
#
# Elastic Constant Matrix: (Units=GPa)
#
#
# Indices 1 2 3 4 5 6 
#
# 1 128.5979 33.0916 41.8882 0.0000 15.7749 0.0000
# 2 33.0916 198.1637 17.2783 0.0000 -0.8453 0.0000
# 3 41.8882 17.2783 108.5633 0.0000 -19.6368 0.0000
# 4 0.0000 0.0000 0.0000 -10.2634 0.0000 -13.9017
# 5 15.7749 -0.8453 -19.6368 0.0000 36.5629 0.0000
# 6 0.0000 0.0000 0.0000 -13.9017 0.0000 11.6964
#
#
#
# Elastic Compliance Matrix: (Units=1/GPa)
#
#
# Indices 1 2 3 4 5 6 
#
# 1 0.010780 -0.001370 -0.005304 0.000000 -0.007531 0.000000
# 2 -0.001370 0.005296 -0.000205 0.000000 0.000603 0.000000
# 3 -0.005304 -0.000205 0.012962 0.000000 0.009245 0.000000
# 4 0.000000 0.000000 0.000000 -0.037333 0.000000 -0.044372
# 5 -0.007531 0.000603 0.009245 0.000000 0.035579 0.000000
# 6 0.000000 0.000000 0.000000 -0.044372 0.000000 0.032759
#
#
# Mechanical properties :
#
#
# Convention : Reuss Voigt Hill
#
# Bulk Modulus (GPa) = 65.44118 68.87123 67.15620
# Shear Modulus (GPa) = 63.37658 30.47031 46.92344
#
# Velocity S-wave (km/s) = 5.04420 3.49757 4.34033
# Velocity P-wave (km/s) = 7.75875 6.63028 7.21661
#
# Compressibility (1/GPa) = 0.01528090
#
# Stress axis : x y z
#
# Youngs Moduli (GPa) = 92.76422 188.83787 77.14594
#
# Poissons Ratio (x) = 0.25868 0.40915
# Poissons Ratio (y) = 0.12707 0.01583
# Poissons Ratio (z) = 0.49198 0.03874
#
# Static dielectric constant tensor:
#      x y z
#    x 2.015300 0.000000 0.024220 
#    y 0.000000 2.315500 0.000000 
#    z 0.024220 0.000000 1.961920 
# 
# From -- ./inp_files/282532.got.cif
#   From: 2010.05.17/outbox.cif.g08.bks.cpg/sg12_142_cif.got.tgz:282532.got - 2010.06.03 13:09:07.
