data_PCOD9187448
_publ_section_title
;
Structure prediction by ZEFSAII (Michael W. Deem and Ramdas Pophale) SiO2 
 PCOD9187448
Probable space group: C 2/M
;
_chemical_formula_sum "Si O2"
_cell_formula_units_Z 48
_cell_length_a 30.140675
_cell_length_b 8.811878
_cell_length_c 16.789734
_cell_angle_alpha 90.000000
_cell_angle_beta 37.396956
_cell_angle_gamma 90.000000
_cell_volume 2708.273985
_symmetry_space_group_name_H-M "C 2/M"
_symmetry_group_IT_number 12
_symmetry_cell_setting 'monoclinic'
loop_
_space_group_symop_operation_xyz
x,y,z
-x,y,-z
-x,-y,-z
x,-y,z
1/2+x,1/2+y,z
1/2-x,1/2+y,-z
1/2-x,1/2-y,-z
1/2+x,1/2-y,z
loop_
_atom_site_type_symbol
_atom_site_label
_atom_site_fract_x
_atom_site_fract_y
_atom_site_fract_z
Si Si1 0.030334 0.317712 0.371321
Si Si2 0.669528 0.319113 0.610389
Si Si3 0.450588 0.181582 0.322803
Si Si4 0.093631 0.181825 0.037566
Si Si5 0.172250 0.180938 0.088810
Si Si6 0.087348 0.680123 0.878368
O O1 0.040220 0.500000 0.359483
O O2 0.107058 0.244467 0.236838
O O3 0.000000 0.267664 0.500000
O O4 0.973226 0.285048 0.381500
O O5 0.672346 0.500000 0.602710
O O6 0.750000 0.250000 0.500000
O O7 0.624411 0.253711 0.599865
O O8 0.625637 0.265042 0.751144
O O9 0.515835 0.250685 0.176426
O O10 0.448766 0.000000 0.314232
O O11 0.148901 0.217013 0.031020
O O12 0.087860 0.000000 0.037669
O O13 0.114280 0.256576 0.924601
O O14 0.174755 0.000000 0.092727
O O15 0.250000 0.250000 0.000000
O O16 0.100353 0.500000 0.853171
O O17 0.000000 0.705334 0.000000
#
# Coordination Sequence:
#
# PCOD9187448 Si02
#       6
#     8   8   8   8   8   8
#     4   9  19  37  61  86 113 150 190 233 283 340
#     4  12  25  41  60  83 117 154 192 235 288 340
#     4  10  19  35  59  85 114 150 191 235 286 340
#     4  10  20  35  58  87 114 149 194 236 283 338
#     4  10  21  37  58  85 117 152 189 236 287 338
#     4  11  22  37  61  89 116 147 190 236 282 339
#
# _framework density 17.723464
#
# number of rings (size 3 to 8) (size 9 to 14) (size 15 to 20)
#    0.000    1.667    1.667    3.500    0.000    3.667 
#    3.000    0.000    0.000    0.000    0.000    0.000 
#    0.000    0.000    0.000    0.000    0.000    0.000 
#
# Total GULP energy -134074.945933 kJ/mol
# GULP energy per Si atom -5586.456081 kJ/mol
# Density = 1.768312 g / cm^3
# Si number density = 17.723464 Si / 1000 Ang^3
#
#
#
# Elastic Constant Matrix: (Units=GPa)
#
#
# Indices 1 2 3 4 5 6 
#
# 1 148.8532 68.2564 80.0588 0.0002 -13.8531 -0.0001
# 2 68.2564 85.2256 50.4172 -0.0021 -10.2510 0.0006
# 3 80.0588 50.4172 84.9291 0.0013 -1.5353 -0.0006
# 4 0.0002 -0.0021 0.0013 29.7125 0.0006 -1.9293
# 5 -13.8531 -10.2510 -1.5353 0.0006 35.7375 -0.0004
# 6 -0.0001 0.0006 -0.0006 -1.9293 -0.0004 33.1299
#
#
#
# Elastic Compliance Matrix: (Units=1/GPa)
#
#
# Indices 1 2 3 4 5 6 
#
# 1 0.015800 -0.005227 -0.011716 0.000000 0.004122 0.000000
# 2 -0.005227 0.020650 -0.007266 0.000002 0.003585 0.000000
# 3 -0.011716 -0.007266 0.027034 -0.000002 -0.005465 0.000000
# 4 0.000000 0.000002 -0.000002 0.033784 0.000000 0.001967
# 5 0.004122 0.003585 -0.005465 0.000000 0.030373 0.000000
# 6 0.000000 0.000000 0.000000 0.001967 0.000000 0.030299
#
#
# Mechanical properties :
#
#
# Convention : Reuss Voigt Hill
#
# Bulk Modulus (GPa) = 66.38395 79.60808 72.99602
# Shear Modulus (GPa) = 23.65408 27.73436 25.69422
#
# Velocity S-wave (km/s) = 3.65721 3.96010 3.81166
# Velocity P-wave (km/s) = 7.44112 8.11937 7.78763
#
# Compressibility (1/GPa) = 0.01506388
#
# Stress axis : x y z
#
# Youngs Moduli (GPa) = 63.29058 48.42702 36.99072
#
# Poissons Ratio (x) = 0.25314 0.43340
# Poissons Ratio (y) = 0.33084 0.26878
# Poissons Ratio (z) = 0.74154 0.35188
#
# Static dielectric constant tensor:
#      x y z
#    x 1.614310 0.000000 0.012620 
#    y 0.000000 1.589190 0.000000 
#    z 0.012620 0.000000 1.573610 
# 
# From -- ./inp_files/244738.got.cif
#   From: 2010.05.17/outbox.cif.g08.bks.cpg/sg12_123_cif.got.tgz:244738.got - 2010.06.03 13:09:07.
