data_PCOD9187697
_publ_section_title
;
Structure prediction by ZEFSAII (Michael W. Deem and Ramdas Pophale) SiO2 
 PCOD9187697
Probable space group: C 2/M
;
_chemical_formula_sum "Si O2"
_cell_formula_units_Z 56
_cell_length_a 28.581666
_cell_length_b 8.986210
_cell_length_c 18.915914
_cell_angle_alpha 90.000000
_cell_angle_beta 143.705193
_cell_angle_gamma 90.000000
_cell_volume 2875.869789
_symmetry_space_group_name_H-M "C 2/M"
_symmetry_group_IT_number 12
_symmetry_cell_setting 'monoclinic'
loop_
_space_group_symop_operation_xyz
x,y,z
-x,y,-z
-x,-y,-z
x,-y,z
1/2+x,1/2+y,z
1/2-x,1/2+y,-z
1/2-x,1/2-y,-z
1/2+x,1/2-y,z
loop_
_atom_site_type_symbol
_atom_site_label
_atom_site_fract_x
_atom_site_fract_y
_atom_site_fract_z
Si Si1 0.999786 0.321746 0.799816
Si Si2 0.007327 0.176280 0.664262
Si Si3 0.316424 0.172396 0.955583
Si Si4 0.067733 0.821518 0.140928
Si Si5 0.780948 0.674378 0.744887
Si Si6 0.659801 0.172010 0.796711
Si Si7 0.879671 0.673770 0.418220
O O1 0.990408 0.500000 0.789411
O O2 0.957624 0.248952 0.815608
O O3 0.973373 0.252739 0.693481
O O4 0.093440 0.287378 0.919645
O O5 0.097058 0.230410 0.762452
O O6 0.955668 0.236193 0.536092
O O7 0.003348 0.000000 0.664417
O O8 0.304643 0.183573 0.856616
O O9 0.249556 0.271852 0.910326
O O10 0.303561 0.000000 0.959789
O O11 0.149941 0.752179 0.214842
O O12 0.073418 0.000000 0.153067
O O13 0.000000 0.786533 0.000000
O O14 0.773533 0.500000 0.717705
O O15 0.697399 0.757723 0.637867
O O16 0.635717 0.184541 0.684478
O O17 0.652586 0.000000 0.809205
O O18 0.889877 0.500000 0.447830
#
# Coordination Sequence:
#
# PCOD9187697 Si02
#       7
#     8   8   8   8   8   8   8
#     4  11  23  40  60  84 118 157 196 240 291 346
#     4  12  25  40  58  83 117 157 197 240 291 347
#     4   9  19  35  57  86 117 150 191 239 289 342
#     4  11  22  36  59  90 122 154 192 236 286 344
#     4  10  19  35  60  90 119 150 193 241 289 339
#     4  10  21  37  61  88 115 151 195 241 289 342
#     4  10  21  39  62  88 117 151 195 243 290 342
#
# _framework density 19.472370000000002
#
# number of rings (size 3 to 8) (size 9 to 14) (size 15 to 20)
#    0.000    1.571    1.429    3.857    0.000    6.286 
#    0.000    0.714    0.000    0.000    0.000    0.000 
#    0.000    0.000    0.000    0.000    0.000    0.000 
#
# Total GULP energy -156572.185802 kJ/mol
# GULP energy per Si atom -5591.863779 kJ/mol
# Density = 1.942805 g / cm^3
# Si number density = 19.472370 Si / 1000 Ang^3
#
#
#
# Elastic Constant Matrix: (Units=GPa)
#
#
# Indices 1 2 3 4 5 6 
#
# 1 103.0427 61.1303 18.4855 0.0000 12.0609 0.0000
# 2 61.1303 93.3329 13.9144 0.0000 7.9769 0.0000
# 3 18.4855 13.9144 24.1315 0.0000 10.0835 0.0000
# 4 0.0000 0.0000 0.0000 28.5811 0.0000 6.9793
# 5 12.0609 7.9769 10.0835 0.0000 26.7845 0.0000
# 6 0.0000 0.0000 0.0000 6.9793 0.0000 32.4678
#
#
#
# Elastic Compliance Matrix: (Units=1/GPa)
#
#
# Indices 1 2 3 4 5 6 
#
# 1 0.017063 -0.010036 -0.006316 0.000000 -0.002317 0.000000
# 2 -0.010036 0.017654 -0.002590 0.000000 0.000237 0.000000
# 3 -0.006316 -0.002590 0.054896 0.000000 -0.017051 0.000000
# 4 0.000000 0.000000 0.000000 0.036927 0.000000 -0.007938
# 5 -0.002317 0.000237 -0.017051 0.000000 0.044727 0.000000
# 6 0.000000 0.000000 0.000000 -0.007938 0.000000 0.032506
#
#
# Mechanical properties :
#
#
# Convention : Reuss Voigt Hill
#
# Bulk Modulus (GPa) = 19.33161 45.28526 32.30843
# Shear Modulus (GPa) = 19.31254 26.03181 22.67217
#
# Velocity S-wave (km/s) = 3.15269 3.66027 3.41592
# Velocity P-wave (km/s) = 4.81683 6.41640 5.67327
#
# Compressibility (1/GPa) = 0.05172874
#
# Stress axis : x y z
#
# Youngs Moduli (GPa) = 58.60692 56.64575 18.21616
#
# Poissons Ratio (x) = 0.56850 0.11505
# Poissons Ratio (y) = 0.58818 0.04718
# Poissons Ratio (z) = 0.37015 0.14672
#
# Static dielectric constant tensor:
#      x y z
#    x 1.663070 0.000000 -0.020670 
#    y 0.000000 1.644390 0.000000 
#    z -0.020670 0.000000 1.686280 
# 
# From -- ./inp_files/280868.got.cif
#   From: 2010.05.17/outbox.cif.g08.bks.cpg/sg12_141_cif.got.tgz:280868.got - 2010.06.03 13:09:07.
