data_PCOD9187467
_publ_section_title
;
Structure prediction by ZEFSAII (Michael W. Deem and Ramdas Pophale) SiO2 
 PCOD9187467
Probable space group: C 2/M
;
_chemical_formula_sum "Si O2"
_cell_formula_units_Z 56
_cell_length_a 19.908430
_cell_length_b 18.895833
_cell_length_c 17.020600
_cell_angle_alpha 90.000000
_cell_angle_beta 152.386341
_cell_angle_gamma 90.000000
_cell_volume 2967.799021
_symmetry_space_group_name_H-M "C 2/M"
_symmetry_group_IT_number 12
_symmetry_cell_setting 'monoclinic'
loop_
_space_group_symop_operation_xyz
x,y,z
-x,y,-z
-x,-y,-z
x,-y,z
1/2+x,1/2+y,z
1/2-x,1/2+y,-z
1/2-x,1/2-y,-z
1/2+x,1/2-y,z
loop_
_atom_site_type_symbol
_atom_site_label
_atom_site_fract_x
_atom_site_fract_y
_atom_site_fract_z
Si Si1 0.451866 0.765830 0.866121
Si Si2 0.250917 0.916462 0.958873
Si Si3 0.652633 0.416797 0.685282
Si Si4 0.616300 0.078883 0.214639
Si Si5 0.899675 0.209706 0.138343
Si Si6 0.833060 0.729510 0.505756
Si Si7 0.913807 0.419808 0.642665
O O1 0.476831 0.850487 0.890604
O O2 0.533638 0.732281 0.876334
O O3 0.279419 0.753541 0.676613
O O4 0.500000 0.737642 0.000000
O O5 0.218194 0.890961 0.835730
O O6 0.142301 0.872198 0.900265
O O7 0.225979 0.000000 0.938263
O O8 0.418178 0.906049 0.158518
O O9 0.500000 0.383974 0.500000
O O10 0.625171 0.500000 0.672544
O O11 0.762548 0.415515 0.726216
O O12 0.670402 0.082227 0.360777
O O13 0.544881 0.000000 0.134167
O O14 0.014579 0.231328 0.324906
O O15 0.750000 0.250000 0.000000
O O16 0.750000 0.750000 0.500000
O O17 0.860745 0.645239 0.535555
O O18 0.902520 0.500000 0.599690
#
# Coordination Sequence:
#
# PCOD9187467 Si02
#       7
#     8   8   8   8   8   8   8
#     4  11  25  40  57  85 125 161 199 246 296 357
#     4  10  21  36  57  85 115 154 203 248 297 354
#     4   9  20  32  45  76 121 155 185 227 283 352
#     4  10  20  33  54  82 117 158 192 228 285 356
#     4  11  21  39  61  85 117 159 195 251 293 346
#     4  10  20  38  56  84 118 157 198 244 289 349
#     4  10  19  35  59  86 111 152 204 246 294 357
#
# _framework density 18.869202000000001
#
# number of rings (size 3 to 8) (size 9 to 14) (size 15 to 20)
#    0.000    1.857    4.286    0.000    6.000    0.286 
#    0.000    3.571    0.000    1.714    0.000    2.000 
#    0.000    0.000    0.000    0.000    0.000    0.000 
#
# Total GULP energy -156124.324660 kJ/mol
# GULP energy per Si atom -5575.868738 kJ/mol
# Density = 1.882625 g / cm^3
# Si number density = 18.869202 Si / 1000 Ang^3
#
#
#
# Elastic Constant Matrix: (Units=GPa)
#
#
# Indices 1 2 3 4 5 6 
#
# 1 63.0130 30.0717 35.4700 -0.0001 -0.6290 0.0000
# 2 30.0717 103.2273 42.7818 -0.0001 2.2445 0.0000
# 3 35.4700 42.7818 121.1478 -0.0004 -4.5536 -0.0001
# 4 -0.0001 -0.0001 -0.0004 18.9269 -0.0001 11.1056
# 5 -0.6290 2.2445 -4.5536 -0.0001 24.8147 0.0000
# 6 0.0000 0.0000 -0.0001 11.1056 0.0000 25.7456
#
#
#
# Elastic Compliance Matrix: (Units=1/GPa)
#
#
# Indices 1 2 3 4 5 6 
#
# 1 0.020352 -0.004055 -0.004525 0.000000 0.000052 0.000000
# 2 -0.004055 0.012234 -0.003201 0.000000 -0.001797 0.000000
# 3 -0.004525 -0.003201 0.010791 0.000000 0.002155 0.000000
# 4 0.000000 0.000000 0.000000 0.070739 0.000000 -0.030514
# 5 0.000052 -0.001797 0.002155 0.000000 0.040858 0.000000
# 6 0.000000 0.000000 0.000000 -0.030514 0.000000 0.052004
#
#
# Mechanical properties :
#
#
# Convention : Reuss Voigt Hill
#
# Bulk Modulus (GPa) = 50.46384 56.00390 53.23387
# Shear Modulus (GPa) = 21.08421 25.83509 23.45965
#
# Velocity S-wave (km/s) = 3.34636 3.70424 3.52984
# Velocity P-wave (km/s) = 6.46010 6.93107 6.69972
#
# Compressibility (1/GPa) = 0.01981617
#
# Stress axis : x y z
#
# Youngs Moduli (GPa) = 49.13423 81.73845 92.67404
#
# Poissons Ratio (x) = 0.33143 0.41935
# Poissons Ratio (y) = 0.19923 0.29662
# Poissons Ratio (z) = 0.22233 0.26162
#
# Static dielectric constant tensor:
#      x y z
#    x 1.652570 0.000000 0.000130 
#    y 0.000000 1.700120 0.000000 
#    z 0.000130 0.000000 1.714470 
# 
# From -- ./inp_files/326041.got.cif
#   From: 2010.05.17/outbox.cif.g08.bks.cpg/sg12_164_cif.got.tgz:326041.got - 2010.06.03 13:09:07.
