data_PCOD9187216
_publ_section_title
;
Structure prediction by ZEFSAII (Michael W. Deem and Ramdas Pophale) SiO2 
 PCOD9187216
Probable space group: C 2/M
;
_chemical_formula_sum "Si O2"
_cell_formula_units_Z 48
_cell_length_a 18.505372
_cell_length_b 13.047369
_cell_length_c 9.428146
_cell_angle_alpha 90.000000
_cell_angle_beta 107.957086
_cell_angle_gamma 90.000000
_cell_volume 2165.503778
_symmetry_space_group_name_H-M "C 2/M"
_symmetry_group_IT_number 12
_symmetry_cell_setting 'monoclinic'
loop_
_space_group_symop_operation_xyz
x,y,z
-x,y,-z
-x,-y,-z
x,-y,z
1/2+x,1/2+y,z
1/2-x,1/2+y,-z
1/2-x,1/2-y,-z
1/2+x,1/2-y,z
loop_
_atom_site_type_symbol
_atom_site_label
_atom_site_fract_x
_atom_site_fract_y
_atom_site_fract_z
Si Si1 0.371695 0.204485 0.655938
Si Si2 0.224071 0.888330 0.471554
Si Si3 0.579177 0.289412 0.012462
Si Si4 0.035786 0.620837 0.754917
Si Si5 0.695716 0.829328 0.768695
Si Si6 0.790596 0.885718 0.091773
O O1 0.301679 0.126016 0.606679
O O2 0.337837 0.299381 0.544752
O O3 0.384436 0.247689 0.821558
O O4 0.452282 0.158428 0.657834
O O5 0.254864 0.874512 0.328453
O O6 0.190896 0.000000 0.471130
O O7 0.500000 0.343818 0.000000
O O8 0.556633 0.191464 0.902828
O O9 0.635685 0.360830 0.959772
O O10 0.032823 0.500000 0.783627
O O11 0.107349 0.643208 0.695910
O O12 0.709751 0.708008 0.798635
O O13 0.722181 0.874660 0.937060
O O14 0.792112 0.000000 0.151759
#
# Coordination Sequence:
#
# PCOD9187216 Si02
#       6
#     8   8   8   8   8   8
#     4  10  22  37  54  85 118 149 196 230 277 357
#     4  11  22  39  61  82 116 159 195 238 285 335
#     4   9  19  34  55  86 119 146 190 242 282 346
#     4  10  20  36  58  86 118 149 186 246 302 332
#     4  10  21  36  57  87 115 145 199 239 281 350
#     4  10  19  35  58  83 117 153 188 239 292 339
#
# _framework density 22.165742999999999
#
# number of rings (size 3 to 8) (size 9 to 14) (size 15 to 20)
#    0.000    2.000    1.667    2.000    0.000    4.667 
#    0.000   12.500    0.000    0.000    0.000   15.167 
#    0.000    0.000    0.000    0.000    0.000    0.000 
#
# Total GULP energy -134125.185067 kJ/mol
# GULP energy per Si atom -5588.549378 kJ/mol
# Density = 2.211529 g / cm^3
# Si number density = 22.165743 Si / 1000 Ang^3
#
#
#
# Elastic Constant Matrix: (Units=GPa)
#
#
# Indices 1 2 3 4 5 6 
#
# 1 122.1915 20.9696 11.5507 0.0000 31.9898 0.0000
# 2 20.9696 147.7096 2.0353 0.0000 21.3860 0.0000
# 3 11.5507 2.0353 94.4886 0.0000 17.2395 0.0000
# 4 0.0000 0.0000 0.0000 8.1050 0.0000 2.4531
# 5 31.9898 21.3860 17.2395 0.0000 35.2268 0.0000
# 6 0.0000 0.0000 0.0000 2.4531 0.0000 11.3512
#
#
#
# Elastic Compliance Matrix: (Units=1/GPa)
#
#
# Indices 1 2 3 4 5 6 
#
# 1 0.010760 -0.000092 0.000504 0.000000 -0.009962 0.000000
# 2 -0.000092 0.007469 0.000727 0.000000 -0.004807 0.000000
# 3 0.000504 0.000727 0.011716 0.000000 -0.006633 0.000000
# 4 0.000000 0.000000 0.000000 0.132017 0.000000 -0.028530
# 5 -0.009962 -0.004807 -0.006633 0.000000 0.043598 0.000000
# 6 0.000000 0.000000 0.000000 -0.028530 0.000000 0.094262
#
#
# Mechanical properties :
#
#
# Convention : Reuss Voigt Hill
#
# Bulk Modulus (GPa) = 31.03253 48.16676 39.59965
# Shear Modulus (GPa) = 16.21877 32.92554 24.57215
#
# Velocity S-wave (km/s) = 2.70794 3.85830 3.33312
# Velocity P-wave (km/s) = 4.87933 6.45183 5.71988
#
# Compressibility (1/GPa) = 0.03222425
#
# Stress axis : x y z
#
# Youngs Moduli (GPa) = 92.93572 133.88620 85.35175
#
# Poissons Ratio (x) = 0.01234 -0.04304
# Poissons Ratio (y) = 0.00856 -0.06208
# Poissons Ratio (z) = -0.04686 -0.09738
#
# Static dielectric constant tensor:
#      x y z
#    x 1.862910 0.000000 -0.019710 
#    y 0.000000 1.785630 0.000000 
#    z -0.019710 0.000000 1.852280 
# 
# From -- ./inp_files/165164.got.cif
#   From: 2010.05.17/outbox.cif.g08.bks.cpg/sg12_83_cif.got.tgz:165164.got - 2010.06.03 13:09:07.
