data_PCOD9187034
_publ_section_title
;
Structure prediction by ZEFSAII (Michael W. Deem and Ramdas Pophale) SiO2 
 PCOD9187034
Probable space group: C 2/M
;
_chemical_formula_sum "Si O2"
_cell_formula_units_Z 56
_cell_length_a 21.189368
_cell_length_b 7.866769
_cell_length_c 28.866718
_cell_angle_alpha 90.000000
_cell_angle_beta 34.586662
_cell_angle_gamma 90.000000
_cell_volume 2731.455109
_symmetry_space_group_name_H-M "C 2/M"
_symmetry_group_IT_number 12
_symmetry_cell_setting 'monoclinic'
loop_
_space_group_symop_operation_xyz
x,y,z
-x,y,-z
-x,-y,-z
x,-y,z
1/2+x,1/2+y,z
1/2-x,1/2+y,-z
1/2-x,1/2-y,-z
1/2+x,1/2-y,z
loop_
_atom_site_type_symbol
_atom_site_label
_atom_site_fract_x
_atom_site_fract_y
_atom_site_fract_z
Si Si1 0.815915 0.205068 0.506899
Si Si2 0.557001 0.708230 0.331428
Si Si3 0.770047 0.796600 0.041093
Si Si4 0.051879 0.799854 0.228247
Si Si5 0.675680 0.200836 0.678531
Si Si6 0.499723 0.705077 0.947128
Si Si7 0.716298 0.205073 0.757373
O O1 0.750000 0.250000 0.500000
O O2 0.751483 0.271717 0.591034
O O3 0.943200 0.262693 0.424938
O O4 0.817464 0.000000 0.508595
O O5 0.558558 0.500000 0.330154
O O6 0.553681 0.764977 0.279921
O O7 0.668849 0.765997 0.289194
O O8 0.669824 0.728162 0.132830
O O9 0.768846 0.000000 0.045723
O O10 0.750000 0.750000 0.000000
O O11 0.889386 0.733634 0.987227
O O12 0.952242 0.720506 0.258981
O O13 0.028360 0.000000 0.244353
O O14 0.698438 0.271349 0.715931
O O15 0.699872 0.000000 0.666327
O O16 0.494517 0.500000 0.951532
O O17 0.611087 0.752170 0.852747
O O18 0.500000 0.766804 0.000000
O O19 0.722444 0.000000 0.751583
#
# Coordination Sequence:
#
# PCOD9187034 Si02
#       7
#     8   8   8   8   8   8   8
#     4  10  19  35  57  83 113 146 186 230 276 326
#     4   9  19  35  56  82 111 144 185 229 274 325
#     4  11  23  38  57  82 112 145 184 231 279 331
#     4  11  21  35  57  82 110 146 186 230 277 329
#     4  10  21  35  56  84 114 148 186 231 279 330
#     4  10  22  40  59  80 109 146 186 228 277 330
#     4  10  21  37  56  82 113 145 184 228 278 332
#
# _framework density 20.501892999999999
#
# number of rings (size 3 to 8) (size 9 to 14) (size 15 to 20)
#    0.000    1.857    1.429    2.571    0.000    4.857 
#    0.000    4.286    0.000    0.000    0.000    3.000 
#    0.000    0.000    0.000    0.000    0.000    0.000 
#
# Total GULP energy -156470.867319 kJ/mol
# GULP energy per Si atom -5588.245261 kJ/mol
# Density = 2.045523 g / cm^3
# Si number density = 20.501893 Si / 1000 Ang^3
#
#
#
# Elastic Constant Matrix: (Units=GPa)
#
#
# Indices 1 2 3 4 5 6 
#
# 1 181.5074 3.0547 88.8302 -0.0100 -6.7894 0.0208
# 2 3.0547 18.3489 -5.5949 -0.0005 9.6416 0.0072
# 3 88.8302 -5.5949 173.2560 0.0018 -8.6078 0.0056
# 4 -0.0100 -0.0005 0.0018 17.5079 -0.0023 -0.7698
# 5 -6.7894 9.6416 -8.6078 -0.0023 32.8287 -0.0095
# 6 0.0208 0.0072 0.0056 -0.7698 -0.0095 20.2990
#
#
#
# Elastic Compliance Matrix: (Units=1/GPa)
#
#
# Indices 1 2 3 4 5 6 
#
# 1 0.007521 -0.003215 -0.003886 0.000005 0.001481 -0.000005
# 2 -0.003215 0.066048 0.002821 -0.000004 -0.019323 -0.000030
# 3 -0.003886 0.002821 0.007877 -0.000003 0.000433 0.000001
# 4 0.000005 -0.000004 -0.000003 0.057212 0.000006 0.002170
# 5 0.001481 -0.019323 0.000433 0.000006 0.036556 0.000023
# 6 -0.000005 -0.000030 0.000001 0.002170 0.000023 0.049346
#
#
# Mechanical properties :
#
#
# Convention : Reuss Voigt Hill
#
# Bulk Modulus (GPa) = 13.72007 60.63248 37.17627
# Shear Modulus (GPa) = 19.42382 33.24861 26.33621
#
# Velocity S-wave (km/s) = 3.08135 4.03144 3.58798
# Velocity P-wave (km/s) = 4.40071 7.16298 5.94452
#
# Compressibility (1/GPa) = 0.07288593
#
# Stress axis : x y z
#
# Youngs Moduli (GPa) = 132.96317 15.14043 126.95230
#
# Poissons Ratio (x) = 0.04868 0.49337
# Poissons Ratio (y) = 0.42749 -0.35817
# Poissons Ratio (z) = 0.51673 -0.04272
#
# Static dielectric constant tensor:
#      x y z
#    x 1.708510 0.000000 0.007750 
#    y 0.000000 1.760170 0.000000 
#    z 0.007750 0.000000 1.692380 
# 
# From -- ./inp_files/380576.got.cif
#   From: 2010.05.17/outbox.cif.g08.bks.cpg/sg12_191_cif.got.tgz:380576.got - 2010.06.03 13:09:07.
