data_PCOD9187046
_publ_section_title
;
Structure prediction by ZEFSAII (Michael W. Deem and Ramdas Pophale) SiO2 
 PCOD9187046
Probable space group: C 2/M
;
_chemical_formula_sum "Si O2"
_cell_formula_units_Z 40
_cell_length_a 12.459593
_cell_length_b 18.835941
_cell_length_c 12.081091
_cell_angle_alpha 90.000000
_cell_angle_beta 47.968813
_cell_angle_gamma 90.000000
_cell_volume 2105.997373
_symmetry_space_group_name_H-M "C 2/M"
_symmetry_group_IT_number 12
_symmetry_cell_setting 'monoclinic'
loop_
_space_group_symop_operation_xyz
x,y,z
-x,y,-z
-x,-y,-z
x,-y,z
1/2+x,1/2+y,z
1/2-x,1/2+y,-z
1/2-x,1/2-y,-z
1/2+x,1/2-y,z
loop_
_atom_site_type_symbol
_atom_site_label
_atom_site_fract_x
_atom_site_fract_y
_atom_site_fract_z
Si Si1 0.708639 0.580446 0.553538
Si Si2 0.680951 0.822253 0.722462
Si Si3 0.166590 0.330323 0.346916
Si Si4 0.062641 0.147723 0.332387
Si Si5 0.386828 0.216859 0.845228
O O1 0.753312 0.500000 0.500806
O O2 0.780115 0.635486 0.416863
O O3 0.755970 0.607025 0.640914
O O4 0.536429 0.588631 0.654610
O O5 0.751380 0.743235 0.678222
O O6 0.766865 0.861739 0.762399
O O7 0.509203 0.813572 0.840930
O O8 0.165137 0.336161 0.215168
O O9 0.000000 0.327481 0.500000
O O10 0.041968 0.218496 0.274489
O O11 0.000000 0.156370 0.500000
O O12 0.250000 0.250000 0.000000
#
# Coordination Sequence:
#
# PCOD9187046 Si02
#       5
#     8   8   8   8   8
#     4  11  21  35  59  88 119 151 189 236 297 353
#     4  10  19  35  57  83 116 144 191 247 286 329
#     4  11  20  35  60  84 114 145 190 253 291 339
#     4   9  20  34  56  82 112 145 189 238 288 332
#     4  11  21  34  57  85 114 151 193 241 290 342
#
# _framework density 18.993376000000001
#
# number of rings (size 3 to 8) (size 9 to 14) (size 15 to 20)
#    0.000    1.600    4.000    5.400    0.000    7.200 
#    0.000    0.000    0.000    3.600    0.000   14.000 
#    0.000    0.000    0.000    0.000    0.000    0.000 
#
# Total GULP energy -111459.686516 kJ/mol
# GULP energy per Si atom -5572.984326 kJ/mol
# Density = 1.895015 g / cm^3
# Si number density = 18.993376 Si / 1000 Ang^3
#
#
#
# Elastic Constant Matrix: (Units=GPa)
#
#
# Indices 1 2 3 4 5 6 
#
# 1 158.4582 21.9744 45.0963 0.0000 -27.5605 0.0000
# 2 21.9744 42.9547 0.1120 0.0000 -9.0290 0.0000
# 3 45.0963 0.1120 52.9241 0.0000 -15.5221 0.0000
# 4 0.0000 0.0000 0.0000 6.0641 0.0000 -2.2062
# 5 -27.5605 -9.0290 -15.5221 0.0000 21.7721 0.0000
# 6 0.0000 0.0000 0.0000 -2.2062 0.0000 11.3490
#
#
#
# Elastic Compliance Matrix: (Units=1/GPa)
#
#
# Indices 1 2 3 4 5 6 
#
# 1 0.009738 -0.003663 -0.006474 0.000000 0.006193 0.000000
# 2 -0.003663 0.027519 0.006385 0.000000 0.011327 0.000000
# 3 -0.006474 0.006385 0.028791 0.000000 0.014979 0.000000
# 4 0.000000 0.000000 0.000000 0.177455 0.000000 0.034497
# 5 0.006193 0.011327 0.014979 0.000000 0.069146 0.000000
# 6 0.000000 0.000000 0.000000 0.034497 0.000000 0.094820
#
#
# Mechanical properties :
#
#
# Convention : Reuss Voigt Hill
#
# Bulk Modulus (GPa) = 17.08109 43.18915 30.13512
# Shear Modulus (GPa) = 11.50781 20.31400 15.91090
#
# Velocity S-wave (km/s) = 2.46414 3.27392 2.89746
# Velocity P-wave (km/s) = 4.13627 6.08932 5.20521
#
# Compressibility (1/GPa) = 0.05854428
#
# Stress axis : x y z
#
# Youngs Moduli (GPa) = 102.68654 36.33896 34.73300
#
# Poissons Ratio (x) = 0.13312 0.22486
# Poissons Ratio (y) = 0.37617 -0.22178
# Poissons Ratio (z) = 0.66479 -0.23204
#
# Static dielectric constant tensor:
#      x y z
#    x 1.746800 0.000000 -0.016670 
#    y 0.000000 1.637150 0.000000 
#    z -0.016670 0.000000 1.681710 
# 
# From -- ./inp_files/134333.got.cif
#   From: 2010.05.17/outbox.cif.g08.bks.cpg/sg12_68_cif.got.tgz:134333.got - 2010.06.03 13:09:07.
