data_PCOD9187058
_publ_section_title
;
Structure prediction by ZEFSAII (Michael W. Deem and Ramdas Pophale) SiO2 
 PCOD9187058
Probable space group: C 2/M
;
_chemical_formula_sum "Si O2"
_cell_formula_units_Z 44
_cell_length_a 15.702436
_cell_length_b 11.763489
_cell_length_c 13.733558
_cell_angle_alpha 90.000000
_cell_angle_beta 52.861478
_cell_angle_gamma 90.000000
_cell_volume 2022.281725
_symmetry_space_group_name_H-M "C 2/M"
_symmetry_group_IT_number 12
_symmetry_cell_setting 'monoclinic'
loop_
_space_group_symop_operation_xyz
x,y,z
-x,y,-z
-x,-y,-z
x,-y,z
1/2+x,1/2+y,z
1/2-x,1/2+y,-z
1/2-x,1/2-y,-z
1/2+x,1/2-y,z
loop_
_atom_site_type_symbol
_atom_site_label
_atom_site_fract_x
_atom_site_fract_y
_atom_site_fract_z
Si Si1 0.859014 0.000000 0.573312
Si Si2 0.991175 0.775398 0.230191
Si Si3 0.393594 0.235474 0.034182
Si Si4 0.644046 0.748907 0.507689
Si Si5 0.402453 0.500000 0.762065
Si Si6 0.676813 0.000000 0.843768
Si Si7 0.779403 0.863965 0.260059
O O1 0.874637 0.882577 0.507129
O O2 0.921412 0.000000 0.632610
O O3 0.735327 0.000000 0.698797
O O4 0.951283 0.711879 0.355352
O O5 0.881782 0.813650 0.249767
O O6 0.049032 0.889892 0.223396
O O7 0.075756 0.717194 0.099078
O O8 0.384361 0.115715 0.095771
O O9 0.294574 0.309175 0.142030
O O10 0.500000 0.298561 0.000000
O O11 0.750000 0.750000 0.500000
O O12 0.675212 0.818066 0.389296
O O13 0.274286 0.500000 0.853922
O O14 0.782943 0.000000 0.256785
#
# Coordination Sequence:
#
# PCOD9187058 Si02
#       7
#     4   8   8   8   4   4   8
#     4  10  21  39  60  84 114 149 194 227 296 343
#     4  10  21  34  54  90 113 149 195 240 284 336
#     4  10  21  37  59  85 116 152 191 248 295 338
#     4  10  21  36  56  86 117 146 185 241 289 342
#     4  10  21  37  61  84 115 157 191 246 270 346
#     4  10  21  40  57  84 112 157 192 228 297 346
#     4  10  19  35  57  83 121 149 187 238 300 344
#
# _framework density 21.757601999999999
#
# number of rings (size 3 to 8) (size 9 to 14) (size 15 to 20)
#    0.545    1.455    2.727    0.818    5.091    3.273 
#    1.636    0.000    0.000    0.000    0.000    2.545 
#    0.000    0.000    0.000    0.000    0.000    0.000 
#
# Total GULP energy -122594.040438 kJ/mol
# GULP energy per Si atom -5572.456384 kJ/mol
# Density = 2.170808 g / cm^3
# Si number density = 21.757602 Si / 1000 Ang^3
#
#
#
# Elastic Constant Matrix: (Units=GPa)
#
#
# Indices 1 2 3 4 5 6 
#
# 1 35.7559 -5.9797 -10.7658 0.0000 -0.3523 0.0000
# 2 -5.9797 94.1158 50.1967 0.0000 4.0544 0.0000
# 3 -10.7658 50.1967 215.7832 0.0000 2.0967 0.0000
# 4 0.0000 0.0000 0.0000 -14.2088 0.0000 29.6849
# 5 -0.3523 4.0544 2.0967 0.0000 16.4991 0.0000
# 6 0.0000 0.0000 0.0000 29.6849 0.0000 -17.2718
#
#
#
# Elastic Compliance Matrix: (Units=1/GPa)
#
#
# Indices 1 2 3 4 5 6 
#
# 1 0.028513 0.001195 0.001143 0.000000 0.000170 0.000000
# 2 0.001195 0.012295 -0.002775 0.000000 -0.002643 0.000000
# 3 0.001143 -0.002775 0.005337 0.000000 0.000028 0.000000
# 4 0.000000 0.000000 0.000000 0.027166 0.000000 0.046690
# 5 0.000170 -0.002643 0.000028 0.000000 0.061259 0.000000
# 6 0.000000 0.000000 0.000000 0.046690 0.000000 0.022348
#
#
# Mechanical properties :
#
#
# Convention : Reuss Voigt Hill
#
# Bulk Modulus (GPa) = 22.08960 45.83970 33.96465
# Shear Modulus (GPa) = 28.92139 17.81728 23.36934
#
# Velocity S-wave (km/s) = 3.64985 2.86475 3.28087
# Velocity P-wave (km/s) = 5.28550 5.66184 5.47690
#
# Compressibility (1/GPa) = 0.04527017
#
# Stress axis : x y z
#
# Youngs Moduli (GPa) = 35.07165 81.33434 187.38755
#
# Poissons Ratio (x) = -0.09716 -0.21419
# Poissons Ratio (y) = -0.04190 0.51997
# Poissons Ratio (z) = -0.04009 0.22569
#
# Static dielectric constant tensor:
#      x y z
#    x 1.954340 0.000000 -0.039880 
#    y 0.000000 1.766830 0.000000 
#    z -0.039880 0.000000 1.959200 
# 
# From -- ./inp_files/222998.got.cif
#   From: 2010.05.17/outbox.cif.g08.bks.cpg/sg12_112_cif.got.tgz:222998.got - 2010.06.03 13:09:07.
