data_PCOD9187460
_publ_section_title
;
Structure prediction by ZEFSAII (Michael W. Deem and Ramdas Pophale) SiO2 
 PCOD9187460
Probable space group: C 2/M
;
_chemical_formula_sum "Si O2"
_cell_formula_units_Z 64
_cell_length_a 29.691476
_cell_length_b 12.790099
_cell_length_c 17.195568
_cell_angle_alpha 90.000000
_cell_angle_beta 27.674364
_cell_angle_gamma 90.000000
_cell_volume 3032.894487
_symmetry_space_group_name_H-M "C 2/M"
_symmetry_group_IT_number 12
_symmetry_cell_setting 'monoclinic'
loop_
_space_group_symop_operation_xyz
x,y,z
-x,y,-z
-x,-y,-z
x,-y,z
1/2+x,1/2+y,z
1/2-x,1/2+y,-z
1/2-x,1/2-y,-z
1/2+x,1/2-y,z
loop_
_atom_site_type_symbol
_atom_site_label
_atom_site_fract_x
_atom_site_fract_y
_atom_site_fract_z
Si Si1 0.408549 0.114562 0.989475
Si Si2 0.714032 0.381411 0.637012
Si Si3 0.745238 0.289920 0.133982
Si Si4 0.581554 0.834511 0.615663
Si Si5 0.936799 0.180964 0.023637
Si Si6 0.959578 0.727445 0.481315
Si Si7 0.407991 0.619277 0.325673
Si Si8 0.358605 0.625483 0.855103
O O1 0.488341 0.121257 0.800463
O O2 0.396537 0.000000 0.040304
O O3 0.312821 0.154611 0.093435
O O4 0.446231 0.196836 0.994357
O O5 0.679701 0.500000 0.689563
O O6 0.827610 0.377336 0.475443
O O7 0.671311 0.334290 0.781728
O O8 0.666884 0.342405 0.628177
O O9 0.643842 0.271530 0.332820
O O10 0.715794 0.358565 0.103526
O O11 0.805749 0.189459 0.006734
O O12 0.566354 0.851639 0.548118
O O13 0.592017 0.708253 0.609706
O O14 0.000000 0.145489 0.000000
O O15 0.984588 0.124760 0.877188
O O16 0.000000 0.680515 0.500000
O O17 0.042343 0.810729 0.322697
O O18 0.386026 0.500000 0.382176
O O19 0.374803 0.500000 0.843925
#
# Coordination Sequence:
#
# PCOD9187460 Si02
#       8
#     8   8   8   8   8   8   8   8
#     4  11  22  37  57  82 116 162 198 239 305 368
#     4  10  19  35  59  85 116 155 196 244 305 365
#     4  10  21  40  63  88 123 157 201 254 313 365
#     4  11  21  37  56  85 119 158 200 252 296 367
#     4   9  19  36  57  83 114 149 195 250 294 353
#     4  10  22  40  63  87 124 159 205 259 312 361
#     4   9  19  35  58  86 116 152 195 247 306 358
#     4  10  21  40  66  92 120 158 206 259 312 368
#
# _framework density 21.101955
#
# number of rings (size 3 to 8) (size 9 to 14) (size 15 to 20)
#    0.000    2.000    1.250    2.250    0.000    5.000 
#    0.000    5.000    0.000    3.375    0.000    0.000 
#    0.000    0.000    0.000    0.000    0.000    0.000 
#
# Total GULP energy -178233.621252 kJ/mol
# GULP energy per Si atom -5569.800664 kJ/mol
# Density = 2.105393 g / cm^3
# Si number density = 21.101955 Si / 1000 Ang^3
#
#
#
# Elastic Constant Matrix: (Units=GPa)
#
#
# Indices 1 2 3 4 5 6 
#
# 1 69.2380 4.0120 13.5975 0.0000 -11.3719 0.0000
# 2 4.0120 78.3437 0.8706 0.0000 6.2534 0.0000
# 3 13.5975 0.8706 76.6490 0.0000 -13.5864 0.0000
# 4 0.0000 0.0000 0.0000 -13.5688 0.0000 -18.7424
# 5 -11.3719 6.2534 -13.5864 0.0000 24.0357 0.0000
# 6 0.0000 0.0000 0.0000 -18.7424 0.0000 5.4977
#
#
#
# Elastic Compliance Matrix: (Units=1/GPa)
#
#
# Indices 1 2 3 4 5 6 
#
# 1 0.015985 -0.001362 -0.001575 0.000000 0.007027 0.000000
# 2 -0.001362 0.013199 -0.000701 0.000000 -0.004475 0.000000
# 3 -0.001575 -0.000701 0.014708 0.000000 0.007751 0.000000
# 4 0.000000 0.000000 0.000000 -0.012909 0.000000 -0.044009
# 5 0.007027 -0.004475 0.007751 0.000000 0.050475 0.000000
# 6 0.000000 0.000000 0.000000 -0.044009 0.000000 0.031861
#
#
# Mechanical properties :
#
#
# Convention : Reuss Voigt Hill
#
# Bulk Modulus (GPa) = 27.31079 29.02122 28.16600
# Shear Modulus (GPa) = 37.65044 16.90963 27.28003
#
# Velocity S-wave (km/s) = 4.22858 2.83385 3.59942
# Velocity P-wave (km/s) = 6.06726 4.94877 5.53633
#
# Compressibility (1/GPa) = 0.03661557
#
# Stress axis : x y z
#
# Youngs Moduli (GPa) = 62.55748 75.76335 67.99147
#
# Poissons Ratio (x) = 0.10319 0.10707
# Poissons Ratio (y) = 0.08521 0.04769
# Poissons Ratio (z) = 0.09851 0.05315
#
# Static dielectric constant tensor:
#      x y z
#    x 1.808940 0.000000 0.018090 
#    y 0.000000 1.784350 0.000000 
#    z 0.018090 0.000000 1.814250 
# 
# From -- ./inp_files/296453.got.cif
#   From: 2010.05.17/outbox.cif.g08.bks.cpg/sg12_149_cif.got.tgz:296453.got - 2010.06.03 13:09:07.
