data_PCOD9187964
_publ_section_title
;
Structure prediction by ZEFSAII (Michael W. Deem and Ramdas Pophale) SiO2 
 PCOD9187964
Probable space group: C 2/M
;
_chemical_formula_sum "Si O2"
_cell_formula_units_Z 40
_cell_length_a 10.293751
_cell_length_b 15.241792
_cell_length_c 14.308399
_cell_angle_alpha 90.000000
_cell_angle_beta 111.296910
_cell_angle_gamma 90.000000
_cell_volume 2091.615584
_symmetry_space_group_name_H-M "C 2/M"
_symmetry_group_IT_number 12
_symmetry_cell_setting 'monoclinic'
loop_
_space_group_symop_operation_xyz
x,y,z
-x,y,-z
-x,-y,-z
x,-y,z
1/2+x,1/2+y,z
1/2-x,1/2+y,-z
1/2-x,1/2-y,-z
1/2+x,1/2-y,z
loop_
_atom_site_type_symbol
_atom_site_label
_atom_site_fract_x
_atom_site_fract_y
_atom_site_fract_z
Si Si1 0.411163 0.254011 0.070392
Si Si2 0.597417 0.142521 0.439065
Si Si3 0.883793 0.900085 0.217131
Si Si4 0.924320 0.398977 0.782729
Si Si5 0.088303 0.144970 0.433269
O O1 0.420067 0.334357 0.144106
O O2 0.471500 0.167976 0.138842
O O3 0.500000 0.266540 0.000000
O O4 0.250000 0.250000 0.000000
O O5 0.500000 0.115824 0.500000
O O6 0.564168 0.108218 0.326730
O O7 0.753544 0.117437 0.509264
O O8 0.588315 0.248677 0.427769
O O9 0.735462 0.876512 0.227991
O O10 0.008180 0.892197 0.323852
O O11 0.870514 0.000000 0.180960
O O12 0.950572 0.500000 0.816904
O O13 0.000000 0.118597 0.500000
#
# Coordination Sequence:
#
# PCOD9187964 Si02
#       5
#     8   8   8   8   8
#     4  12  26  46  72  95 129 171 219 284 340 384
#     4  10  21  35  62  97 137 175 212 260 320 387
#     4  11  24  42  69 101 132 171 224 271 324 397
#     4  11  24  43  69  99 133 175 220 265 331 403
#     4  10  19  35  63  95 130 176 216 256 314 392
#
# _framework density 19.123972999999999
#
# number of rings (size 3 to 8) (size 9 to 14) (size 15 to 20)
#    0.000    1.200    6.000    0.000    0.000    4.800 
#    0.000    2.000    0.000    0.000    0.000    0.000 
#    0.000    0.000    0.000    0.000    0.000    0.000 
#
# Total GULP energy -111757.228345 kJ/mol
# GULP energy per Si atom -5587.861417 kJ/mol
# Density = 1.908045 g / cm^3
# Si number density = 19.123973 Si / 1000 Ang^3
#
#
#
# Elastic Constant Matrix: (Units=GPa)
#
#
# Indices 1 2 3 4 5 6 
#
# 1 165.1930 55.4195 80.4339 0.0000 -4.5982 0.0000
# 2 55.4195 98.0766 67.8173 0.0000 -4.7621 0.0000
# 3 80.4339 67.8173 152.3381 0.0000 -6.8927 0.0000
# 4 0.0000 0.0000 0.0000 -29.4036 0.0000 -9.2202
# 5 -4.5982 -4.7621 -6.8927 0.0000 42.5206 0.0000
# 6 0.0000 0.0000 0.0000 -9.2202 0.0000 4.0110
#
#
#
# Elastic Compliance Matrix: (Units=1/GPa)
#
#
# Indices 1 2 3 4 5 6 
#
# 1 0.008543 -0.002466 -0.003409 0.000000 0.000095 0.000000
# 2 -0.002466 0.015457 -0.005554 0.000000 0.000564 0.000000
# 3 -0.003409 -0.005554 0.010871 0.000000 0.000772 0.000000
# 4 0.000000 0.000000 0.000000 -0.019763 0.000000 -0.045431
# 5 0.000095 0.000564 0.000772 0.000000 0.023717 0.000000
# 6 0.000000 0.000000 0.000000 -0.045431 0.000000 0.144881
#
#
# Mechanical properties :
#
#
# Convention : Reuss Voigt Hill
#
# Bulk Modulus (GPa) = 83.22740 91.43878 87.33309
# Shear Modulus (GPa) = 23.74538 17.55474 20.65006
#
# Velocity S-wave (km/s) = 3.52754 3.03305 3.28960
# Velocity P-wave (km/s) = 7.75924 7.75779 7.75851
#
# Compressibility (1/GPa) = 0.01201527
#
# Stress axis : x y z
#
# Youngs Moduli (GPa) = 117.05309 64.69550 91.98424
#
# Poissons Ratio (x) = 0.15952 0.31355
# Poissons Ratio (y) = 0.28862 0.51085
# Poissons Ratio (z) = 0.39900 0.35930
#
# Static dielectric constant tensor:
#      x y z
#    x 1.467970 0.000000 0.011950 
#    y 0.000000 1.688630 0.000000 
#    z 0.011950 0.000000 1.616930 
# 
# From -- ./inp_files/194421.got.cif
#   From: 2010.05.17/outbox.cif.g08.bks.cpg/sg12_98_cif.got.tgz:194421.got - 2010.06.03 13:09:07.
