data_PCOD9187768
_publ_section_title
;
Structure prediction by ZEFSAII (Michael W. Deem and Ramdas Pophale) SiO2 
 PCOD9187768
Probable space group: C 2/M
;
_chemical_formula_sum "Si O2"
_cell_formula_units_Z 48
_cell_length_a 13.334385
_cell_length_b 14.469689
_cell_length_c 14.658919
_cell_angle_alpha 90.000000
_cell_angle_beta 119.524734
_cell_angle_gamma 90.000000
_cell_volume 2461.074628
_symmetry_space_group_name_H-M "C 2/M"
_symmetry_group_IT_number 12
_symmetry_cell_setting 'monoclinic'
loop_
_space_group_symop_operation_xyz
x,y,z
-x,y,-z
-x,-y,-z
x,-y,z
1/2+x,1/2+y,z
1/2-x,1/2+y,-z
1/2-x,1/2-y,-z
1/2+x,1/2-y,z
loop_
_atom_site_type_symbol
_atom_site_label
_atom_site_fract_x
_atom_site_fract_y
_atom_site_fract_z
Si Si1 0.672060 0.780828 0.881524
Si Si2 0.461804 0.703126 0.323261
Si Si3 0.775681 0.747067 0.742310
Si Si4 0.022635 0.392863 0.117994
Si Si5 0.314457 0.606260 0.601291
Si Si6 0.057186 0.602748 0.424350
O O1 0.588369 0.699674 0.802876
O O2 0.749903 0.798247 0.827172
O O3 0.592061 0.863268 0.879838
O O4 0.750000 0.750000 0.000000
O O5 0.347103 0.697388 0.333129
O O6 0.565841 0.635655 0.391801
O O7 0.506101 0.808543 0.352283
O O8 0.874396 0.672484 0.802238
O O9 0.803364 0.821397 0.678618
O O10 0.050680 0.500000 0.143685
O O11 0.000000 0.377146 0.000000
O O12 0.320248 0.500000 0.634341
O O13 0.195191 0.614478 0.492292
O O14 0.032306 0.500000 0.375164
O O15 0.000000 0.604072 0.500000
#
# Coordination Sequence:
#
# PCOD9187768 Si02
#       6
#     8   8   8   8   8   8
#     4  10  20  36  59  82 115 149 190 239 281 336
#     4  10  21  35  60  84 115 153 188 237 295 341
#     4  10  20  37  58  82 110 154 191 236 286 346
#     4  11  21  36  59  84 114 154 193 235 292 346
#     4  11  22  38  59  86 117 153 193 243 297 346
#     4  10  19  35  61  88 116 151 197 241 287 346
#
# _framework density 19.503674
#
# number of rings (size 3 to 8) (size 9 to 14) (size 15 to 20)
#    1.000    0.667    5.000    0.500    0.000    2.000 
#    0.000    0.833    0.000    2.000    0.000    0.000 
#    0.000    0.000    0.000    0.000    0.000    0.000 
#
# Total GULP energy -133767.331129 kJ/mol
# GULP energy per Si atom -5573.638797 kJ/mol
# Density = 1.945928 g / cm^3
# Si number density = 19.503674 Si / 1000 Ang^3
#
#
#
# Elastic Constant Matrix: (Units=GPa)
#
#
# Indices 1 2 3 4 5 6 
#
# 1 78.0236 39.2294 22.3119 0.0000 21.7887 0.0000
# 2 39.2294 83.6391 38.0727 0.0000 26.6933 0.0000
# 3 22.3119 38.0727 67.3065 0.0000 26.9159 0.0000
# 4 0.0000 0.0000 0.0000 23.7236 0.0000 -2.1590
# 5 21.7887 26.6933 26.9159 0.0000 34.2701 0.0000
# 6 0.0000 0.0000 0.0000 -2.1590 0.0000 17.1820
#
#
#
# Elastic Compliance Matrix: (Units=1/GPa)
#
#
# Indices 1 2 3 4 5 6 
#
# 1 0.017772 -0.006394 0.000368 0.000000 -0.006608 0.000000
# 2 -0.006394 0.019997 -0.006690 0.000000 -0.006256 0.000000
# 3 0.000368 -0.006690 0.024098 0.000000 -0.013950 0.000000
# 4 0.000000 0.000000 0.000000 0.042640 0.000000 0.005358
# 5 -0.006608 -0.006256 -0.013950 0.000000 0.049210 0.000000
# 6 0.000000 0.000000 0.000000 0.005358 0.000000 0.058874
#
#
# Mechanical properties :
#
#
# Convention : Reuss Voigt Hill
#
# Bulk Modulus (GPa) = 27.44638 47.57745 37.51192
# Shear Modulus (GPa) = 19.98655 23.65882 21.82269
#
# Velocity S-wave (km/s) = 3.20466 3.48666 3.34863
# Velocity P-wave (km/s) = 5.27220 6.37621 5.85031
#
# Compressibility (1/GPa) = 0.03643467
#
# Stress axis : x y z
#
# Youngs Moduli (GPa) = 56.26986 50.00695 41.49662
#
# Poissons Ratio (x) = 0.31975 -0.01528
# Poissons Ratio (y) = 0.35980 0.27762
# Poissons Ratio (z) = -0.02072 0.33456
#
# Static dielectric constant tensor:
#      x y z
#    x 1.734570 0.000000 0.006250 
#    y 0.000000 1.637680 0.000000 
#    z 0.006250 0.000000 1.726720 
# 
# From -- ./inp_files/309537.got.cif
#   From: 2010.05.17/outbox.cif.g08.bks.cpg/sg12_155_cif.got.tgz:309537.got - 2010.06.03 13:09:07.
