data_PCOD9187377
_publ_section_title
;
Structure prediction by ZEFSAII (Michael W. Deem and Ramdas Pophale) SiO2 
 PCOD9187377
Probable space group: C 2/M
;
_chemical_formula_sum "Si O2"
_cell_formula_units_Z 56
_cell_length_a 25.475144
_cell_length_b 15.128024
_cell_length_c 15.718612
_cell_angle_alpha 90.000000
_cell_angle_beta 157.942152
_cell_angle_gamma 90.000000
_cell_volume 2274.951620
_symmetry_space_group_name_H-M "C 2/M"
_symmetry_group_IT_number 12
_symmetry_cell_setting 'monoclinic'
loop_
_space_group_symop_operation_xyz
x,y,z
-x,y,-z
-x,-y,-z
x,-y,z
1/2+x,1/2+y,z
1/2-x,1/2+y,-z
1/2-x,1/2-y,-z
1/2+x,1/2-y,z
loop_
_atom_site_type_symbol
_atom_site_label
_atom_site_fract_x
_atom_site_fract_y
_atom_site_fract_z
Si Si1 0.624552 0.098241 0.432069
Si Si2 0.950457 0.218925 0.677320
Si Si3 0.235787 0.763949 0.879289
Si Si4 0.518624 0.601711 0.929835
Si Si5 0.130125 0.893982 0.595431
Si Si6 0.571358 0.899146 0.026974
Si Si7 0.166376 0.403475 0.672705
O O1 0.664193 0.202689 0.493350
O O2 0.529382 0.095963 0.205316
O O3 0.562801 0.096306 0.436086
O O4 0.698198 0.000000 0.538683
O O5 0.932796 0.159152 0.733946
O O6 0.965097 0.157982 0.614991
O O7 0.104560 0.262617 0.914593
O O8 0.152970 0.850489 0.722345
O O9 0.158417 0.679511 0.721443
O O10 0.250000 0.750000 0.000000
O O11 0.475009 0.500000 0.855634
O O12 0.500000 0.627231 0.000000
O O13 0.680829 0.604691 0.143578
O O14 0.109534 0.000000 0.567684
O O15 0.277741 0.867719 0.772963
O O16 0.602974 0.000000 0.101488
O O17 0.500000 0.852959 0.000000
O O18 0.160343 0.500000 0.705852
#
# Coordination Sequence:
#
# PCOD9187377 Si02
#       7
#     8   8   8   8   8   8   8
#     4  10  19  35  59  82 116 163 202 244 296 357
#     4  11  22  39  62  90 124 159 207 255 306 366
#     4  11  24  42  64  89 119 156 203 258 318 378
#     4   9  19  36  58  86 122 160 197 244 304 367
#     4  11  23  42  65  93 129 166 203 256 316 370
#     4   9  19  36  59  89 127 166 205 246 298 363
#     4   9  19  38  60  83 116 154 199 248 300 360
#
# _framework density 24.615908000000001
#
# number of rings (size 3 to 8) (size 9 to 14) (size 15 to 20)
#    0.000    2.000    2.857    0.429    0.000    3.429 
#    0.000    6.429    0.000    1.714    0.000    0.000 
#    0.000    0.000    0.000    0.000    0.000    0.000 
#
# Total GULP energy -156062.304152 kJ/mol
# GULP energy per Si atom -5573.653720 kJ/mol
# Density = 2.455988 g / cm^3
# Si number density = 24.615908 Si / 1000 Ang^3
#
#
#
# Elastic Constant Matrix: (Units=GPa)
#
#
# Indices 1 2 3 4 5 6 
#
# 1 86.0742 36.3012 25.7477 0.0000 -16.7859 0.0000
# 2 36.3012 199.7736 61.9077 0.0000 -36.8639 0.0000
# 3 25.7477 61.9077 70.6680 0.0000 -22.7058 0.0000
# 4 0.0000 0.0000 0.0000 60.2116 0.0000 -29.1669
# 5 -16.7859 -36.8639 -22.7058 0.0000 41.9604 0.0000
# 6 0.0000 0.0000 0.0000 -29.1669 0.0000 23.0823
#
#
#
# Elastic Compliance Matrix: (Units=1/GPa)
#
#
# Indices 1 2 3 4 5 6 
#
# 1 0.013526 -0.000944 -0.003182 0.000000 0.002859 0.000000
# 2 -0.000944 0.007353 -0.005015 0.000000 0.003368 0.000000
# 3 -0.003182 -0.005015 0.021642 0.000000 0.006032 0.000000
# 4 0.000000 0.000000 0.000000 0.042815 0.000000 0.054102
# 5 0.002859 0.003368 0.006032 0.000000 0.031199 0.000000
# 6 0.000000 0.000000 0.000000 0.054102 0.000000 0.111686
#
#
# Mechanical properties :
#
#
# Convention : Reuss Voigt Hill
#
# Bulk Modulus (GPa) = 41.25898 67.15879 54.20888
# Shear Modulus (GPa) = 19.63997 40.55481 30.09739
#
# Velocity S-wave (km/s) = 2.82770 4.06335 3.50048
# Velocity P-wave (km/s) = 5.24010 7.02540 6.19738
#
# Compressibility (1/GPa) = 0.02423715
#
# Stress axis : x y z
#
# Youngs Moduli (GPa) = 73.93401 136.00054 46.20712
#
# Poissons Ratio (x) = 0.12838 0.14705
# Poissons Ratio (y) = 0.06979 0.23174
# Poissons Ratio (z) = 0.23528 0.68207
#
# Static dielectric constant tensor:
#      x y z
#    x 2.076380 0.000000 0.046550 
#    y 0.000000 2.016460 0.000000 
#    z 0.046550 0.000000 2.027420 
# 
# From -- ./inp_files/246606.got.cif
#   From: 2010.05.17/outbox.cif.g08.bks.cpg/sg12_124_cif.got.tgz:246606.got - 2010.06.03 13:09:07.
