data_PCOD9187018
_publ_section_title
;
Structure prediction by ZEFSAII (Michael W. Deem and Ramdas Pophale) SiO2 
 PCOD9187018
Probable space group: C 2/M
;
_chemical_formula_sum "Si O2"
_cell_formula_units_Z 48
_cell_length_a 16.745248
_cell_length_b 7.547101
_cell_length_c 15.858157
_cell_angle_alpha 90.000000
_cell_angle_beta 83.597941
_cell_angle_gamma 90.000000
_cell_volume 1991.625513
_symmetry_space_group_name_H-M "C 2/M"
_symmetry_group_IT_number 12
_symmetry_cell_setting 'monoclinic'
loop_
_space_group_symop_operation_xyz
x,y,z
-x,y,-z
-x,-y,-z
x,-y,z
1/2+x,1/2+y,z
1/2-x,1/2+y,-z
1/2-x,1/2-y,-z
1/2+x,1/2-y,z
loop_
_atom_site_type_symbol
_atom_site_label
_atom_site_fract_x
_atom_site_fract_y
_atom_site_fract_z
Si Si1 0.841248 0.715281 0.806514
Si Si2 0.019462 0.000000 0.637421
Si Si3 0.865733 0.000000 0.534159
Si Si4 0.562172 0.202701 0.056983
Si Si5 0.598082 0.795967 0.731169
Si Si6 0.725309 0.210493 0.364670
Si Si7 0.171107 0.788390 0.900173
O O1 0.843286 0.500000 0.811245
O O2 0.913641 0.781328 0.856236
O O3 0.830781 0.756191 0.710026
O O4 0.758205 0.774107 0.859734
O O5 0.034288 0.829485 0.693666
O O6 0.091911 0.000000 0.560649
O O7 0.938855 0.000000 0.592671
O O8 0.810324 0.170573 0.557164
O O9 0.534636 0.000000 0.074550
O O10 0.500000 0.291888 0.000000
O O11 0.641745 0.201568 0.989551
O O12 0.684756 0.760093 0.676058
O O13 0.612405 0.753526 0.828135
O O14 0.576212 0.000000 0.724113
O O15 0.721587 0.000000 0.380238
O O16 0.173030 0.000000 0.910704
#
# Coordination Sequence:
#
# PCOD9187018 Si02
#       7
#     8   4   4   8   8   8   8
#     4   8  17  34  56  80 116 156 197 255 306 355
#     4  11  26  46  62  97 138 162 207 259 314 398
#     4  11  26  44  66  95 134 172 199 253 330 386
#     4  10  20  33  49  79 118 158 207 251 300 367
#     4  11  21  41  69  95 124 166 214 265 320 371
#     4  10  20  41  67  96 127 163 218 267 309 377
#     4  10  19  35  57  82 117 155 204 262 306 362
#
# _framework density 24.100916999999999
#
# number of rings (size 3 to 8) (size 9 to 14) (size 15 to 20)
#    0.000    2.000    2.500    2.000    0.000    3.667 
#    1.500    3.333    0.000    0.000    0.000    0.000 
#    0.000    0.000    0.000    0.000    0.000    0.000 
#
# Total GULP energy -134336.983185 kJ/mol
# GULP energy per Si atom -5597.374299 kJ/mol
# Density = 2.404606 g / cm^3
# Si number density = 24.100917 Si / 1000 Ang^3
#
#
#
# Elastic Constant Matrix: (Units=GPa)
#
#
# Indices 1 2 3 4 5 6 
#
# 1 68.8940 16.3529 44.6963 0.0000 18.0439 0.0000
# 2 16.3529 132.8772 37.1297 0.0000 2.2114 0.0000
# 3 44.6963 37.1297 98.0095 0.0000 3.0682 0.0000
# 4 0.0000 0.0000 0.0000 13.3249 0.0000 -7.3788
# 5 18.0439 2.2114 3.0682 0.0000 61.9697 0.0000
# 6 0.0000 0.0000 0.0000 -7.3788 0.0000 10.8893
#
#
#
# Elastic Compliance Matrix: (Units=1/GPa)
#
#
# Indices 1 2 3 4 5 6 
#
# 1 0.022713 0.000165 -0.010229 0.000000 -0.006113 0.000000
# 2 0.000165 0.008419 -0.003259 0.000000 -0.000187 0.000000
# 3 -0.010229 -0.003259 0.016031 0.000000 0.002301 0.000000
# 4 0.000000 0.000000 0.000000 0.120121 0.000000 0.081397
# 5 -0.006113 -0.000187 0.002301 0.000000 0.017810 0.000000
# 6 0.000000 0.000000 0.000000 0.081397 0.000000 0.146989
#
#
# Mechanical properties :
#
#
# Convention : Reuss Voigt Hill
#
# Bulk Modulus (GPa) = 48.74103 55.12648 51.93375
# Shear Modulus (GPa) = 13.67732 30.67691 22.17711
#
# Velocity S-wave (km/s) = 2.38481 3.57158 3.03673
# Velocity P-wave (km/s) = 5.27738 6.31910 5.82159
#
# Compressibility (1/GPa) = 0.02051660
#
# Stress axis : x y z
#
# Youngs Moduli (GPa) = 44.02681 118.77644 62.38075
#
# Poissons Ratio (x) = -0.01958 0.63811
# Poissons Ratio (y) = -0.00726 0.20329
# Poissons Ratio (z) = 0.45036 0.38707
#
# Static dielectric constant tensor:
#      x y z
#    x 1.977800 0.000000 0.018280 
#    y 0.000000 1.842510 0.000000 
#    z 0.018280 0.000000 1.893600 
# 
# From -- ./inp_files/221743.got.cif
#   From: 2010.05.17/outbox.cif.g08.bks.cpg/sg12_111_cif.got.tgz:221743.got - 2010.06.03 13:09:07.
