data_PCOD9187008
_publ_section_title
;
Structure prediction by ZEFSAII (Michael W. Deem and Ramdas Pophale) SiO2 
 PCOD9187008
Probable space group: C 2/M
;
_chemical_formula_sum "Si O2"
_cell_formula_units_Z 64
_cell_length_a 24.876651
_cell_length_b 22.367891
_cell_length_c 12.686314
_cell_angle_alpha 90.000000
_cell_angle_beta 28.096055
_cell_angle_gamma 90.000000
_cell_volume 3324.514739
_symmetry_space_group_name_H-M "C 2/M"
_symmetry_group_IT_number 12
_symmetry_cell_setting 'monoclinic'
loop_
_space_group_symop_operation_xyz
x,y,z
-x,y,-z
-x,-y,-z
x,-y,z
1/2+x,1/2+y,z
1/2-x,1/2+y,-z
1/2-x,1/2-y,-z
1/2+x,1/2-y,z
loop_
_atom_site_type_symbol
_atom_site_label
_atom_site_fract_x
_atom_site_fract_y
_atom_site_fract_z
Si Si1 0.176365 0.180126 0.254373
Si Si2 0.620301 0.430892 0.002593
Si Si3 0.205236 0.567604 0.876963
Si Si4 0.255175 0.643518 0.390418
Si Si5 0.146346 0.932453 0.594100
Si Si6 0.992421 0.630214 0.894415
Si Si7 0.650883 0.752004 0.896043
Si Si8 0.926598 0.174677 0.780962
O O1 0.248200 0.118811 0.127052
O O2 0.244911 0.224057 0.212546
O O3 0.146934 0.201586 0.187678
O O4 0.054508 0.167719 0.518697
O O5 0.645540 0.500000 0.977705
O O6 0.489051 0.426426 0.188764
O O7 0.623414 0.389482 0.099993
O O8 0.702053 0.401693 0.774385
O O9 0.209918 0.500000 0.908885
O O10 0.286456 0.571279 0.632532
O O11 0.079533 0.585851 0.054786
O O12 0.307351 0.617888 0.408089
O O13 0.304292 0.707988 0.272035
O O14 0.118962 0.643191 0.634656
O O15 0.167094 0.000000 0.601197
O O16 0.919294 0.691544 0.024340
O O17 0.000000 0.605596 0.000000
O O18 0.576545 0.714123 0.108154
#
# Coordination Sequence:
#
# PCOD9187008 Si02
#       8
#     8   8   8   8   8   8   8   8
#     4  10  20  37  57  82 108 143 190 235 286 331
#     4  10  21  36  56  87 118 145 182 231 281 334
#     4  10  21  37  57  81 115 148 180 231 282 328
#     4  11  22  37  58  82 113 155 190 223 275 332
#     4  10  19  35  57  82 114 149 183 223 277 332
#     4  11  23  39  55  84 114 150 194 228 269 331
#     4  10  23  38  55  80 114 149 184 237 281 329
#     4  10  20  35  59  82 108 144 187 236 284 333
#
# _framework density 19.25093
#
# number of rings (size 3 to 8) (size 9 to 14) (size 15 to 20)
#    0.000    1.750    2.500    1.875    0.000    5.250 
#    0.000    1.250    0.000    6.750    0.000    7.000 
#    0.000    0.000    0.000    0.000    0.000    0.000 
#
# Total GULP energy -178714.738515 kJ/mol
# GULP energy per Si atom -5584.835579 kJ/mol
# Density = 1.920711 g / cm^3
# Si number density = 19.250930 Si / 1000 Ang^3
#
#
#
# Elastic Constant Matrix: (Units=GPa)
#
#
# Indices 1 2 3 4 5 6 
#
# 1 42.9543 -8.0637 -4.7538 0.0001 -12.8391 -0.0001
# 2 -8.0637 54.7936 -13.6849 0.0000 -5.5901 0.0000
# 3 -4.7538 -13.6849 69.4017 0.0003 -7.8526 -0.0001
# 4 0.0001 0.0000 0.0003 16.5973 -0.0003 1.6797
# 5 -12.8391 -5.5901 -7.8526 -0.0003 16.7042 0.0002
# 6 -0.0001 0.0000 -0.0001 1.6797 0.0002 19.2103
#
#
#
# Elastic Compliance Matrix: (Units=1/GPa)
#
#
# Indices 1 2 3 4 5 6 
#
# 1 0.037472 0.011531 0.009015 0.000000 0.036899 0.000000
# 2 0.011531 0.024009 0.007854 0.000000 0.020589 0.000000
# 3 0.009015 0.007854 0.018648 0.000000 0.018324 0.000000
# 4 0.000000 0.000000 0.000000 0.060789 0.000001 -0.005315
# 5 0.036899 0.020589 0.018324 0.000001 0.103731 -0.000001
# 6 0.000000 0.000000 0.000000 -0.005315 -0.000001 0.052520
#
#
# Mechanical properties :
#
#
# Convention : Reuss Voigt Hill
#
# Bulk Modulus (GPa) = 7.30306 12.68275 9.99291
# Shear Modulus (GPa) = 17.48172 23.41248 20.44710
#
# Velocity S-wave (km/s) = 3.01673 3.49115 3.26258
# Velocity P-wave (km/s) = 3.99200 4.78051 4.40394
#
# Compressibility (1/GPa) = 0.13692886
#
# Stress axis : x y z
#
# Youngs Moduli (GPa) = 26.68660 41.65059 53.62409
#
# Poissons Ratio (x) = -0.48026 -0.48344
# Poissons Ratio (y) = -0.30771 -0.42115
# Poissons Ratio (z) = -0.24059 -0.32711
#
# Static dielectric constant tensor:
#      x y z
#    x 1.657930 0.000000 0.005240 
#    y 0.000000 1.689760 0.000000 
#    z 0.005240 0.000000 1.647120 
# 
# From -- ./inp_files/178397.got.cif
#   From: 2010.05.17/outbox.cif.g08.bks.cpg/sg12_90_cif.got.tgz:178397.got - 2010.06.03 13:09:07.
