data_PCOD9187739
_publ_section_title
;
Structure prediction by ZEFSAII (Michael W. Deem and Ramdas Pophale) SiO2 
 PCOD9187739
Probable space group: C 2/M
;
_chemical_formula_sum "Si O2"
_cell_formula_units_Z 56
_cell_length_a 19.517736
_cell_length_b 7.518429
_cell_length_c 19.158935
_cell_angle_alpha 90.000000
_cell_angle_beta 120.978297
_cell_angle_gamma 90.000000
_cell_volume 2410.417680
_symmetry_space_group_name_H-M "C 2/M"
_symmetry_group_IT_number 12
_symmetry_cell_setting 'monoclinic'
loop_
_space_group_symop_operation_xyz
x,y,z
-x,y,-z
-x,-y,-z
x,-y,z
1/2+x,1/2+y,z
1/2-x,1/2+y,-z
1/2-x,1/2-y,-z
1/2+x,1/2-y,z
loop_
_atom_site_type_symbol
_atom_site_label
_atom_site_fract_x
_atom_site_fract_y
_atom_site_fract_z
Si Si1 0.758504 0.287413 0.586388
Si Si2 0.836313 0.790061 0.334256
Si Si3 0.933211 0.718419 0.682349
Si Si4 0.507984 0.201437 0.428584
Si Si5 0.581637 0.288555 0.007755
Si Si6 0.589704 0.785669 0.847901
Si Si7 0.247966 0.714110 0.848718
O O1 0.757040 0.500000 0.592485
O O2 0.750000 0.250000 0.500000
O O3 0.691157 0.221575 0.604337
O O4 0.845230 0.226674 0.659469
O O5 0.917537 0.697547 0.352986
O O6 0.770175 0.759870 0.240886
O O7 0.852865 0.000000 0.346599
O O8 0.935369 0.500000 0.682024
O O9 0.941206 0.782544 0.606502
O O10 0.009527 0.777832 0.766371
O O11 0.500000 0.288858 0.500000
O O12 0.537134 0.000000 0.454768
O O13 0.582052 0.500000 0.021946
O O14 0.665655 0.217510 0.081871
O O15 0.500000 0.217246 0.000000
O O16 0.583417 0.261811 0.925676
O O17 0.672204 0.721322 0.855328
O O18 0.590193 0.000000 0.842929
O O19 0.248639 0.500000 0.855813
#
# Coordination Sequence:
#
# PCOD9187739 Si02
#       7
#     8   8   8   8   8   8   8
#     4  10  22  39  57  81 114 152 193 239 286 335
#     4  11  23  36  56  87 120 149 186 241 292 335
#     4   9  18  35  57  82 112 146 192 237 272 326
#     4  10  19  35  61  85 110 152 197 233 276 336
#     4  10  23  40  59  88 122 149 180 231 289 344
#     4  10  20  37  62  86 111 150 195 236 275 331
#     4  10  21  40  62  83 114 154 193 230 277 344
#
# _framework density 23.232489000000001
#
# number of rings (size 3 to 8) (size 9 to 14) (size 15 to 20)
#    0.000    2.000    1.429    1.714    2.000    4.000 
#    0.000    1.429    0.000    0.000    0.000    0.000 
#    0.000    0.000    0.000    0.000    0.000    0.000 
#
# Total GULP energy -156472.172662 kJ/mol
# GULP energy per Si atom -5588.291881 kJ/mol
# Density = 2.317961 g / cm^3
# Si number density = 23.232489 Si / 1000 Ang^3
#
#
#
# Elastic Constant Matrix: (Units=GPa)
#
#
# Indices 1 2 3 4 5 6 
#
# 1 132.1434 15.1591 31.1904 0.0000 5.9286 0.0000
# 2 15.1591 67.5250 -4.2106 0.0000 7.9462 0.0000
# 3 31.1904 -4.2106 109.6943 0.0000 7.1265 0.0000
# 4 0.0000 0.0000 0.0000 22.9456 0.0000 -1.1717
# 5 5.9286 7.9462 7.1265 0.0000 43.3692 0.0000
# 6 0.0000 0.0000 0.0000 -1.1717 0.0000 -0.2919
#
#
#
# Elastic Compliance Matrix: (Units=1/GPa)
#
#
# Indices 1 2 3 4 5 6 
#
# 1 0.008388 -0.001990 -0.002437 0.000000 -0.000382 0.000000
# 2 -0.001990 0.015672 0.001351 0.000000 -0.002821 0.000001
# 3 -0.002437 0.001351 0.009962 0.000000 -0.001551 0.000000
# 4 0.000000 0.000000 0.000000 0.036168 0.000000 -0.145177
# 5 -0.000382 -0.002821 -0.001551 0.000000 0.023882 0.000000
# 6 0.000000 0.000001 0.000000 -0.145177 0.000000 -2.843079
#
#
# Mechanical properties :
#
#
# Convention : Reuss Voigt Hill
#
# Bulk Modulus (GPa) = 35.88079 43.73786 39.80933
# Shear Modulus (GPa) = -1.82911 31.01949 14.59519
#
# Velocity S-wave (km/s) = -0.88827 3.65797 2.50916
# Velocity P-wave (km/s) = 3.79812 6.05872 5.05637
#
# Compressibility (1/GPa) = 0.02787006
#
# Stress axis : x y z
#
# Youngs Moduli (GPa) = 119.21657 63.80666 100.38433
#
# Poissons Ratio (x) = 0.12698 0.24460
# Poissons Ratio (y) = 0.23726 -0.13559
# Poissons Ratio (z) = 0.29049 -0.08619
#
# Static dielectric constant tensor:
#      x y z
#    x 1.874940 0.000000 0.019010 
#    y 0.000000 1.879000 0.000000 
#    z 0.019010 0.000000 1.858910 
# 
# From -- ./inp_files/275153.got.cif
#   From: 2010.05.17/outbox.cif.g08.bks.cpg/sg12_138_cif.got.tgz:275153.got - 2010.06.03 13:09:07.
