data_PCOD9187821
_publ_section_title
;
Structure prediction by ZEFSAII (Michael W. Deem and Ramdas Pophale) SiO2 
 PCOD9187821
Probable space group: C 2/M
;
_chemical_formula_sum "Si O2"
_cell_formula_units_Z 58
_cell_length_a 13.505960
_cell_length_b 31.084109
_cell_length_c 7.420428
_cell_angle_alpha 90.000000
_cell_angle_beta 80.810712
_cell_angle_gamma 90.000000
_cell_volume 3075.268842
_symmetry_space_group_name_H-M "C 2/M"
_symmetry_group_IT_number 12
_symmetry_cell_setting 'monoclinic'
loop_
_space_group_symop_operation_xyz
x,y,z
-x,y,-z
-x,-y,-z
x,-y,z
1/2+x,1/2+y,z
1/2-x,1/2+y,-z
1/2-x,1/2-y,-z
1/2+x,1/2-y,z
loop_
_atom_site_type_symbol
_atom_site_label
_atom_site_fract_x
_atom_site_fract_y
_atom_site_fract_z
Si Si1 0.122057 0.548322 0.099636
Si Si2 0.605112 0.116091 0.403145
Si Si3 0.000000 0.000000 0.000000
Si Si4 0.890550 0.834294 0.941924
Si Si5 0.749693 0.304191 0.704029
Si Si6 0.327275 0.950794 0.314660
Si Si7 0.887384 0.777053 0.590753
Si Si8 0.164797 0.933809 0.087803
O O1 0.092104 0.500000 0.163399
O O2 0.085119 0.586721 0.233785
O O3 0.893511 0.553274 0.111444
O O4 0.244435 0.551755 0.071926
O O5 0.500000 0.135436 0.500000
O O6 0.686191 0.152660 0.344885
O O7 0.643261 0.082961 0.544065
O O8 0.069623 0.962608 0.076262
O O9 0.892680 0.811864 0.747743
O O10 0.857234 0.883768 0.931864
O O11 0.812651 0.809928 0.094988
O O12 0.000000 0.832506 0.000000
O O13 0.825540 0.264051 0.679421
O O14 0.672517 0.296170 0.562579
O O15 0.215780 0.942371 0.267916
O O16 0.335422 0.000000 0.375704
O O17 0.000000 0.765120 0.500000
#
# Coordination Sequence:
#
# PCOD9187821 Si02
#       8
#     8   8   2   8   8   8   8   8
#     4   9  19  38  57  83 126 166 197 259 318 358
#     4  12  24  38  63  91 121 166 219 262 321 376
#     4  12  16  32  68  94 118 172 218 248 328 374
#     4  12  22  39  67  96 123 170 213 253 315 393
#     4  11  24  44  64  90 134 161 201 273 315 377
#     4   9  19  38  57  85 125 164 207 258 315 366
#     4  11  24  43  68  96 123 163 210 253 328 385
#     4  10  19  35  61  91 126 167 202 262 314 370
#
# _framework density 18.860140000000001
#
# number of rings (size 3 to 8) (size 9 to 14) (size 15 to 20)
#    0.828    0.552    4.828    2.069    0.000    1.655 
#    0.000    1.379    0.000    0.828    0.000    0.000 
#    0.000    0.000    0.000    0.000    0.000    0.000 
#
# Total GULP energy -161608.771243 kJ/mol
# GULP energy per Si atom -5572.716250 kJ/mol
# Density = 1.881721 g / cm^3
# Si number density = 18.860140 Si / 1000 Ang^3
#
#
#
# Elastic Constant Matrix: (Units=GPa)
#
#
# Indices 1 2 3 4 5 6 
#
# 1 101.0286 29.6124 16.1936 0.0000 2.9959 0.0000
# 2 29.6124 97.2409 22.5036 0.0000 -0.1587 0.0000
# 3 16.1936 22.5036 42.0911 0.0000 -3.7781 0.0000
# 4 0.0000 0.0000 0.0000 7.2938 0.0000 6.6610
# 5 2.9959 -0.1587 -3.7781 0.0000 25.8447 0.0000
# 6 0.0000 0.0000 0.0000 6.6610 0.0000 23.9898
#
#
#
# Elastic Compliance Matrix: (Units=1/GPa)
#
#
# Indices 1 2 3 4 5 6 
#
# 1 0.011233 -0.002724 -0.003024 0.000000 -0.001761 0.000000
# 2 -0.002724 0.012415 -0.005628 0.000000 -0.000431 0.000000
# 3 -0.003024 -0.005628 0.028330 0.000000 0.004457 0.000000
# 4 0.000000 0.000000 0.000000 0.183679 0.000000 -0.051000
# 5 -0.001761 -0.000431 0.004457 0.000000 0.039546 0.000000
# 6 0.000000 0.000000 0.000000 -0.051000 0.000000 0.055845
#
#
# Mechanical properties :
#
#
# Convention : Reuss Voigt Hill
#
# Bulk Modulus (GPa) = 34.21451 41.88665 38.05058
# Shear Modulus (GPa) = 13.75353 22.89570 18.32462
#
# Velocity S-wave (km/s) = 2.70337 3.48799 3.12044
# Velocity P-wave (km/s) = 5.28440 6.20312 5.76210
#
# Compressibility (1/GPa) = 0.02922736
#
# Stress axis : x y z
#
# Youngs Moduli (GPa) = 89.01959 80.54718 35.29773
#
# Poissons Ratio (x) = 0.21942 0.10672
# Poissons Ratio (y) = 0.24249 0.19866
# Poissons Ratio (z) = 0.26915 0.45334
#
# Static dielectric constant tensor:
#      x y z
#    x 1.680850 0.000000 -0.018920 
#    y 0.000000 1.608000 0.000000 
#    z -0.018920 0.000000 1.642600 
# 
# From -- ./inp_files/54239.got.cif
#   From: 2010.05.17/outbox.cif.g08.bks.cpg/sg12_28_cif.got.tgz:54239.got - 2010.06.03 13:09:07.
