data_PCOD9187865
_publ_section_title
;
Structure prediction by ZEFSAII (Michael W. Deem and Ramdas Pophale) SiO2 
 PCOD9187865
Probable space group: C 2/M
;
_chemical_formula_sum "Si O2"
_cell_formula_units_Z 48
_cell_length_a 21.970870
_cell_length_b 19.626695
_cell_length_c 10.816884
_cell_angle_alpha 90.000000
_cell_angle_beta 146.703141
_cell_angle_gamma 90.000000
_cell_volume 2560.653105
_symmetry_space_group_name_H-M "C 2/M"
_symmetry_group_IT_number 12
_symmetry_cell_setting 'monoclinic'
loop_
_space_group_symop_operation_xyz
x,y,z
-x,y,-z
-x,-y,-z
x,-y,z
1/2+x,1/2+y,z
1/2-x,1/2+y,-z
1/2-x,1/2-y,-z
1/2+x,1/2-y,z
loop_
_atom_site_type_symbol
_atom_site_label
_atom_site_fract_x
_atom_site_fract_y
_atom_site_fract_z
Si Si1 0.676848 0.919593 0.543525
Si Si2 0.521308 0.828988 0.892639
Si Si3 0.749954 0.791444 0.314686
Si Si4 0.869295 0.163111 0.750094
Si Si5 0.434316 0.257841 0.264625
Si Si6 0.717485 0.819746 0.828169
O O1 0.570472 0.884958 0.296779
O O2 0.790303 0.896910 0.667205
O O3 0.684546 0.883552 0.690429
O O4 0.666063 0.000000 0.530929
O O5 0.510911 0.770388 0.768970
O O6 0.500000 0.810429 0.000000
O O7 0.652793 0.844136 0.114302
O O8 0.838479 0.825655 0.554411
O O9 0.684791 0.729891 0.275511
O O10 0.795755 0.749361 0.276932
O O11 0.000000 0.155247 0.000000
O O12 0.500000 0.277154 0.500000
O O13 0.361243 0.193323 0.189838
O O14 0.346770 0.316582 0.081717
#
# Coordination Sequence:
#
# PCOD9187865 Si02
#       6
#     8   8   8   8   8   8
#     4  11  23  38  57  84 125 168 204 239 292 364
#     4  11  20  36  58  86 124 155 193 252 300 352
#     4   9  19  32  55  85 118 141 196 252 306 351
#     4  10  20  32  54  83 114 159 196 245 299 350
#     4  10  19  35  62  87 120 144 194 251 308 360
#     4   9  20  35  55  88 115 153 191 250 299 350
#
# _framework density 18.745218000000001
#
# number of rings (size 3 to 8) (size 9 to 14) (size 15 to 20)
#    0.000    2.000    3.333    0.500    4.667    2.000 
#    0.000    1.667    0.000    0.500    0.000    0.000 
#    0.000    0.000    0.000    0.000    0.000    0.000 
#
# Total GULP energy -133633.649690 kJ/mol
# GULP energy per Si atom -5568.068737 kJ/mol
# Density = 1.870255 g / cm^3
# Si number density = 18.745218 Si / 1000 Ang^3
#
#
#
# Elastic Constant Matrix: (Units=GPa)
#
#
# Indices 1 2 3 4 5 6 
#
# 1 87.3047 32.8369 42.1426 0.0000 -12.5041 0.0000
# 2 32.8369 76.9423 41.5907 0.0000 3.7009 0.0000
# 3 42.1426 41.5907 170.0265 0.0000 -8.4715 0.0000
# 4 0.0000 0.0000 0.0000 10.9388 0.0000 2.4019
# 5 -12.5041 3.7009 -8.4715 0.0000 37.0962 0.0000
# 6 0.0000 0.0000 0.0000 2.4019 0.0000 13.4610
#
#
#
# Elastic Compliance Matrix: (Units=1/GPa)
#
#
# Indices 1 2 3 4 5 6 
#
# 1 0.015375 -0.005642 -0.002169 0.000000 0.005250 0.000000
# 2 -0.005642 0.017254 -0.003037 0.000000 -0.004317 0.000000
# 3 -0.002169 -0.003037 0.007223 0.000000 0.001221 0.000000
# 4 0.000000 0.000000 0.000000 0.095145 0.000000 -0.016977
# 5 0.005250 -0.004317 0.001221 0.000000 0.029436 0.000000
# 6 0.000000 0.000000 0.000000 -0.016977 0.000000 0.077318
#
#
# Mechanical properties :
#
#
# Convention : Reuss Voigt Hill
#
# Bulk Modulus (GPa) = 55.07955 63.04599 59.06277
# Shear Modulus (GPa) = 18.55293 26.81276 22.68284
#
# Velocity S-wave (km/s) = 3.14943 3.78614 3.48237
# Velocity P-wave (km/s) = 6.53240 7.26768 6.90983
#
# Compressibility (1/GPa) = 0.01815556
#
# Stress axis : x y z
#
# Youngs Moduli (GPa) = 65.04031 57.95817 138.44834
#
# Poissons Ratio (x) = 0.32698 0.30033
# Poissons Ratio (y) = 0.36693 0.42050
# Poissons Ratio (z) = 0.14109 0.17603
#
# Static dielectric constant tensor:
#      x y z
#    x 1.778420 0.000000 0.029510 
#    y 0.000000 1.598160 0.000000 
#    z 0.029510 0.000000 1.775830 
# 
# From -- ./inp_files/177802.got.cif
#   From: 2010.05.17/outbox.cif.g08.bks.cpg/sg12_89_cif.got.tgz:177802.got - 2010.06.03 13:09:07.
