data_PCOD9187262
_publ_section_title
;
Structure prediction by ZEFSAII (Michael W. Deem and Ramdas Pophale) SiO2 
 PCOD9187262
Probable space group: C 2/M
;
_chemical_formula_sum "Si O2"
_cell_formula_units_Z 58
_cell_length_a 20.098870
_cell_length_b 7.391880
_cell_length_c 17.326799
_cell_angle_alpha 90.000000
_cell_angle_beta 105.447020
_cell_angle_gamma 90.000000
_cell_volume 2481.227417
_symmetry_space_group_name_H-M "C 2/M"
_symmetry_group_IT_number 12
_symmetry_cell_setting 'monoclinic'
loop_
_space_group_symop_operation_xyz
x,y,z
-x,y,-z
-x,-y,-z
x,-y,z
1/2+x,1/2+y,z
1/2-x,1/2+y,-z
1/2-x,1/2-y,-z
1/2+x,1/2-y,z
loop_
_atom_site_type_symbol
_atom_site_label
_atom_site_fract_x
_atom_site_fract_y
_atom_site_fract_z
Si Si1 0.851788 0.783322 0.321283
Si Si2 0.532714 0.780813 0.887520
Si Si3 0.875266 0.219867 0.495723
Si Si4 0.899391 0.290283 0.939553
Si Si5 0.986608 0.206028 0.290350
Si Si6 0.500000 0.000000 0.500000
Si Si7 0.857117 0.780143 0.657517
Si Si8 0.213107 0.791383 0.209438
O O1 0.834542 0.736111 0.404135
O O2 0.927827 0.708545 0.325385
O O3 0.794779 0.722734 0.243035
O O4 0.854689 0.000000 0.316398
O O5 0.457923 0.720738 0.898331
O O6 0.542191 0.706195 0.805351
O O7 0.533780 0.000000 0.879106
O O8 0.587028 0.720361 0.970035
O O9 0.944444 0.339497 0.511379
O O10 0.836897 0.265599 0.563800
O O11 0.888792 0.000000 0.499354
O O12 0.917466 0.500000 0.952286
O O13 0.825030 0.281129 0.877639
O O14 0.063246 0.282782 0.310844
O O15 0.995831 0.000000 0.320552
O O16 0.816496 0.710785 0.719606
O O17 0.854897 0.000000 0.661380
O O18 0.193668 0.000000 0.202005
#
# Coordination Sequence:
#
# PCOD9187262 Si02
#       8
#     8   8   8   8   8   2   8   8
#     4  10  23  41  60  81 118 169 198 237 308 365
#     4   9  18  33  56  86 117 148 188 242 298 352
#     4  10  22  42  61  86 128 168 202 257 310 354
#     4   9  18  35  56  83 118 153 189 235 299 365
#     4  10  19  35  58  85 115 148 194 242 297 355
#     4  12  22  36  64  98 120 152 216 248 308 366
#     4   9  19  38  61  86 117 155 198 250 303 354
#     4  11  22  37  60  88 119 153 200 250 297 356
#
# _framework density 23.375527999999999
#
# number of rings (size 3 to 8) (size 9 to 14) (size 15 to 20)
#    0.000    2.207    1.379    2.276    0.966    3.862 
#    6.207    2.069    0.000    0.000    0.000    0.000 
#    0.000    0.000    0.000    0.000    0.000    0.000 
#
# Total GULP energy -161627.614025 kJ/mol
# GULP energy per Si atom -5573.366001 kJ/mol
# Density = 2.332232 g / cm^3
# Si number density = 23.375528 Si / 1000 Ang^3
#
#
#
# Elastic Constant Matrix: (Units=GPa)
#
#
# Indices 1 2 3 4 5 6 
#
# 1 30.3289 -15.0740 1.1131 0.0000 9.3196 0.0000
# 2 -15.0740 94.2678 -16.9607 0.0000 -0.7228 0.0000
# 3 1.1131 -16.9607 104.6932 0.0000 5.9875 0.0000
# 4 0.0000 0.0000 0.0000 38.9425 0.0000 -1.8744
# 5 9.3196 -0.7228 5.9875 0.0000 33.9115 0.0000
# 6 0.0000 0.0000 0.0000 -1.8744 0.0000 6.4407
#
#
#
# Elastic Compliance Matrix: (Units=1/GPa)
#
#
# Indices 1 2 3 4 5 6 
#
# 1 0.039496 0.006457 0.001252 0.000000 -0.010938 0.000000
# 2 0.006457 0.011982 0.001979 0.000000 -0.001869 0.000000
# 3 0.001252 0.001979 0.009977 0.000000 -0.002063 0.000000
# 4 0.000000 0.000000 0.000000 0.026044 0.000000 0.007580
# 5 -0.010938 -0.001869 -0.002063 0.000000 0.032819 0.000000
# 6 0.000000 0.000000 0.000000 0.007580 0.000000 0.157468
#
#
# Mechanical properties :
#
#
# Convention : Reuss Voigt Hill
#
# Bulk Modulus (GPa) = 12.37134 18.60517 15.48825
# Shear Modulus (GPa) = 17.52208 33.20637 25.36423
#
# Velocity S-wave (km/s) = 2.74084 3.77312 3.29762
# Velocity P-wave (km/s) = 3.91410 5.19215 4.59775
#
# Compressibility (1/GPa) = 0.08083201
#
# Stress axis : x y z
#
# Youngs Moduli (GPa) = 25.31887 83.45572 100.22956
#
# Poissons Ratio (x) = -0.53888 -0.12546
# Poissons Ratio (y) = -0.16348 -0.19840
# Poissons Ratio (z) = -0.03169 -0.16519
#
# Static dielectric constant tensor:
#      x y z
#    x 1.860400 0.000000 -0.003860 
#    y 0.000000 1.916980 0.000000 
#    z -0.003860 0.000000 1.916100 
# 
# From -- ./inp_files/282242.got.cif
#   From: 2010.05.17/outbox.cif.g08.bks.cpg/sg12_142_cif.got.tgz:282242.got - 2010.06.03 13:09:07.
