data_PCOD9187123
_publ_section_title
;
Structure prediction by ZEFSAII (Michael W. Deem and Ramdas Pophale) SiO2 
 PCOD9187123
Probable space group: C 2/M
;
_chemical_formula_sum "Si O2"
_cell_formula_units_Z 64
_cell_length_a 26.689111
_cell_length_b 7.405793
_cell_length_c 14.280873
_cell_angle_alpha 90.000000
_cell_angle_beta 68.260525
_cell_angle_gamma 90.000000
_cell_volume 2621.916925
_symmetry_space_group_name_H-M "C 2/M"
_symmetry_group_IT_number 12
_symmetry_cell_setting 'monoclinic'
loop_
_space_group_symop_operation_xyz
x,y,z
-x,y,-z
-x,-y,-z
x,-y,z
1/2+x,1/2+y,z
1/2-x,1/2+y,-z
1/2-x,1/2-y,-z
1/2+x,1/2-y,z
loop_
_atom_site_type_symbol
_atom_site_label
_atom_site_fract_x
_atom_site_fract_y
_atom_site_fract_z
Si Si1 0.576626 0.713358 0.768940
Si Si2 0.172714 0.715670 0.826411
Si Si3 0.733545 0.708125 0.359983
Si Si4 0.642496 0.287907 0.549476
Si Si5 0.970246 0.707935 0.930168
Si Si6 0.939881 0.717638 0.561216
Si Si7 0.153216 0.719028 0.246611
Si Si8 0.851576 0.279184 0.958143
O O1 0.570789 0.500000 0.759014
O O2 0.611604 0.747491 0.837797
O O3 0.613593 0.790508 0.660294
O O4 0.516897 0.789623 0.819657
O O5 0.180584 0.500000 0.821989
O O6 0.211933 0.791853 0.718917
O O7 0.181073 0.779920 0.926924
O O8 0.744552 0.500000 0.376985
O O9 0.698271 0.788980 0.468975
O O10 0.694351 0.711576 0.296301
O O11 0.652283 0.500000 0.560212
O O12 0.598872 0.271601 0.497069
O O13 0.958453 0.500000 0.963794
O O14 0.913553 0.780147 0.933060
O O15 0.000000 0.792843 0.000000
O O16 0.942560 0.500000 0.561278
O O17 0.907084 0.771794 0.677265
O O18 0.000000 0.785828 0.500000
O O19 0.156032 0.500000 0.247725
O O20 0.165791 0.779951 0.132870
O O21 0.850488 0.500000 0.957193
#
# Coordination Sequence:
#
# PCOD9187123 Si02
#       8
#     8   8   8   8   8   8   8   8
#     4  11  23  36  52  79 112 140 174 220 268 316
#     4  10  20  37  58  78 101 138 184 221 261 315
#     4   9  19  37  58  76 102 139 180 222 260 314
#     4   9  20  37  52  73 107 143 173 211 268 318
#     4  10  19  35  58  78 104 143 181 215 258 313
#     4   9  18  31  50  77 103 132 177 222 255 302
#     4   9  18  33  52  76 108 138 167 216 271 311
#     4   9  18  33  54  80 106 136 174 215 260 314
#
# _framework density 24.409621000000001
#
# number of rings (size 3 to 8) (size 9 to 14) (size 15 to 20)
#    0.000    2.500    1.250    0.375    1.750    3.000 
#    0.000    1.250    0.000    0.000    0.000    0.000 
#    0.000    0.000    0.000    0.000    0.000    0.000 
#
# Total GULP energy -178738.005500 kJ/mol
# GULP energy per Si atom -5585.562672 kJ/mol
# Density = 2.435406 g / cm^3
# Si number density = 24.409621 Si / 1000 Ang^3
#
#
#
# Elastic Constant Matrix: (Units=GPa)
#
#
# Indices 1 2 3 4 5 6 
#
# 1 51.4664 -8.9576 0.6221 0.0000 -20.0742 0.0000
# 2 -8.9576 88.7029 -2.0040 0.0000 -4.7943 0.0000
# 3 0.6221 -2.0040 100.5870 0.0000 -12.9042 0.0000
# 4 0.0000 0.0000 0.0000 -19.0313 0.0000 17.4196
# 5 -20.0742 -4.7943 -12.9042 0.0000 39.9208 0.0000
# 6 0.0000 0.0000 0.0000 17.4196 0.0000 1.4934
#
#
#
# Elastic Compliance Matrix: (Units=1/GPa)
#
#
# Indices 1 2 3 4 5 6 
#
# 1 0.025323 0.003334 0.001664 0.000000 0.013672 0.000000
# 2 0.003334 0.011803 0.000638 0.000000 0.003300 0.000000
# 3 0.001664 0.000638 0.010496 0.000000 0.004306 0.000000
# 4 0.000000 0.000000 0.000000 -0.004500 0.000000 0.052490
# 5 0.013672 0.003300 0.004306 0.000000 0.033713 0.000000
# 6 0.000000 0.000000 0.000000 0.052490 0.000000 0.057347
#
#
# Mechanical properties :
#
#
# Convention : Reuss Voigt Hill
#
# Bulk Modulus (GPa) = 16.97992 24.45305 20.71649
# Shear Modulus (GPa) = 35.07728 21.21628 28.14678
#
# Velocity S-wave (km/s) = 3.79493 2.95138 3.39942
# Velocity P-wave (km/s) = 5.11598 4.65336 4.89014
#
# Compressibility (1/GPa) = 0.05889308
#
# Stress axis : x y z
#
# Youngs Moduli (GPa) = 39.49000 84.72416 95.26990
#
# Poissons Ratio (x) = -0.28245 -0.15850
# Poissons Ratio (y) = -0.13165 -0.06077
# Poissons Ratio (z) = -0.06570 -0.05404
#
# Static dielectric constant tensor:
#      x y z
#    x 1.897950 0.000000 -0.027250 
#    y 0.000000 2.055590 0.000000 
#    z -0.027250 0.000000 2.004130 
# 
# From -- ./inp_files/249074.got.cif
#   From: 2010.05.17/outbox.cif.g08.bks.cpg/sg12_125_cif.got.tgz:249074.got - 2010.06.03 13:09:07.
