data_PCOD9187378
_publ_section_title
;
Structure prediction by ZEFSAII (Michael W. Deem and Ramdas Pophale) SiO2 
 PCOD9187378
Probable space group: C 2/M
;
_chemical_formula_sum "Si O2"
_cell_formula_units_Z 56
_cell_length_a 15.387067
_cell_length_b 24.509707
_cell_length_c 8.432500
_cell_angle_alpha 90.000000
_cell_angle_beta 120.957612
_cell_angle_gamma 90.000000
_cell_volume 2727.148591
_symmetry_space_group_name_H-M "C 2/M"
_symmetry_group_IT_number 12
_symmetry_cell_setting 'monoclinic'
loop_
_space_group_symop_operation_xyz
x,y,z
-x,y,-z
-x,-y,-z
x,-y,z
1/2+x,1/2+y,z
1/2-x,1/2+y,-z
1/2-x,1/2-y,-z
1/2+x,1/2-y,z
loop_
_atom_site_type_symbol
_atom_site_label
_atom_site_fract_x
_atom_site_fract_y
_atom_site_fract_z
Si Si1 0.618280 0.728214 0.255028
Si Si2 0.114085 0.343531 0.630701
Si Si3 0.684490 0.349747 0.033449
Si Si4 0.040589 0.938261 0.792759
Si Si5 0.159989 0.936982 0.569853
Si Si6 0.778910 0.332750 0.605691
Si Si7 0.930390 0.779138 0.294542
O O1 0.653790 0.689807 0.147691
O O2 0.682810 0.704830 0.465644
O O3 0.648717 0.789842 0.238846
O O4 0.504414 0.726353 0.211978
O O5 0.199399 0.367551 0.829140
O O6 0.163056 0.345176 0.503448
O O7 0.101970 0.280581 0.677137
O O8 0.000000 0.365576 0.500000
O O9 0.603731 0.398349 0.960980
O O10 0.662036 0.316329 0.850420
O O11 0.101608 0.937364 0.682775
O O12 0.925513 0.922542 0.642310
O O13 0.040331 0.000000 0.851023
O O14 0.243270 0.889765 0.644334
O O15 0.193535 0.000000 0.573623
O O16 0.000000 0.804154 0.500000
#
# Coordination Sequence:
#
# PCOD9187378 Si02
#       7
#     8   8   8   8   8   8   8
#     4  10  21  35  53  88 124 158 196 243 305 361
#     4  10  21  40  56  81 120 165 201 247 298 357
#     4  11  23  34  60  92 118 159 206 245 303 371
#     4   9  20  39  59  89 125 156 198 251 303 366
#     4   9  19  36  63  91 119 163 204 240 303 369
#     4  10  19  35  59  82 122 159 196 252 300 351
#     4  11  21  36  56  84 124 162 194 240 300 368
#
# _framework density 20.534268000000001
#
# number of rings (size 3 to 8) (size 9 to 14) (size 15 to 20)
#    0.000    2.000    2.857    2.571    4.000    2.286 
#    0.000    2.857    0.000   10.286    0.000    2.000 
#    0.000    0.000    0.000    0.000    0.000    0.000 
#
# Total GULP energy -156328.962296 kJ/mol
# GULP energy per Si atom -5583.177225 kJ/mol
# Density = 2.048753 g / cm^3
# Si number density = 20.534268 Si / 1000 Ang^3
#
#
#
# Elastic Constant Matrix: (Units=GPa)
#
#
# Indices 1 2 3 4 5 6 
#
# 1 87.3789 20.9217 11.5233 0.0000 10.2608 0.0000
# 2 20.9217 94.0166 24.0668 0.0000 11.7038 0.0000
# 3 11.5233 24.0668 83.6705 0.0000 18.2958 0.0000
# 4 0.0000 0.0000 0.0000 14.3125 0.0000 23.1655
# 5 10.2608 11.7038 18.2958 0.0000 24.0243 0.0000
# 6 0.0000 0.0000 0.0000 23.1655 0.0000 0.6496
#
#
#
# Elastic Compliance Matrix: (Units=1/GPa)
#
#
# Indices 1 2 3 4 5 6 
#
# 1 0.012483 -0.002219 -0.000182 0.000000 -0.004112 0.000000
# 2 -0.002219 0.012156 -0.002523 0.000000 -0.003052 0.000000
# 3 -0.000182 -0.002523 0.014898 0.000000 -0.010038 0.000000
# 4 0.000000 0.000000 0.000000 -0.001232 0.000000 0.043929
# 5 -0.004112 -0.003052 -0.010038 0.000000 0.052512 0.000000
# 6 0.000000 0.000000 0.000000 0.043929 0.000000 -0.027141
#
#
# Mechanical properties :
#
#
# Convention : Reuss Voigt Hill
#
# Bulk Modulus (GPa) = 33.68443 42.00997 37.84720
# Shear Modulus (GPa) = 59.93691 21.70089 40.81890
#
# Velocity S-wave (km/s) = 5.40852 3.25439 4.46336
# Velocity P-wave (km/s) = 7.44597 5.88424 6.71069
#
# Compressibility (1/GPa) = 0.02968730
#
# Stress axis : x y z
#
# Youngs Moduli (GPa) = 80.11145 82.26208 67.12514
#
# Poissons Ratio (x) = 0.18257 0.01219
# Poissons Ratio (y) = 0.17780 0.16939
# Poissons Ratio (z) = 0.01455 0.20759
#
# Static dielectric constant tensor:
#      x y z
#    x 1.768830 0.000000 0.007710 
#    y 0.000000 1.726390 0.000000 
#    z 0.007710 0.000000 1.830520 
# 
# From -- ./inp_files/65958.got.cif
#   From: 2010.05.17/outbox.cif.g08.bks.cpg/sg12_33_cif.got.tgz:65958.got - 2010.06.03 13:09:07.
