data_PCOD9187403
_publ_section_title
;
Structure prediction by ZEFSAII (Michael W. Deem and Ramdas Pophale) SiO2 
 PCOD9187403
Probable space group: C 2/M
;
_chemical_formula_sum "Si O2"
_cell_formula_units_Z 64
_cell_length_a 25.827391
_cell_length_b 7.838881
_cell_length_c 30.883739
_cell_angle_alpha 90.000000
_cell_angle_beta 151.576112
_cell_angle_gamma 90.000000
_cell_volume 2976.207082
_symmetry_space_group_name_H-M "C 2/M"
_symmetry_group_IT_number 12
_symmetry_cell_setting 'monoclinic'
loop_
_space_group_symop_operation_xyz
x,y,z
-x,y,-z
-x,-y,-z
x,-y,z
1/2+x,1/2+y,z
1/2-x,1/2+y,-z
1/2-x,1/2-y,-z
1/2+x,1/2-y,z
loop_
_atom_site_type_symbol
_atom_site_label
_atom_site_fract_x
_atom_site_fract_y
_atom_site_fract_z
Si Si1 0.648786 0.704986 0.896115
Si Si2 0.450474 0.291531 0.327014
Si Si3 0.134526 0.795109 0.395032
Si Si4 0.818220 0.300364 0.759081
Si Si5 0.408358 0.292878 0.734223
Si Si6 0.235175 0.203453 0.869031
Si Si7 0.926583 0.790751 0.405641
Si Si8 0.979197 0.799087 0.032694
O O1 0.640556 0.500000 0.887256
O O2 0.534142 0.763424 0.830805
O O3 0.674390 0.771597 0.866929
O O4 0.750000 0.750000 0.000000
O O5 0.453670 0.500000 0.329963
O O6 0.539436 0.233513 0.357329
O O7 0.331238 0.237578 0.222026
O O8 0.470315 0.236527 0.390768
O O9 0.250000 0.750000 0.500000
O O10 0.126686 0.735715 0.339573
O O11 0.122530 0.000000 0.384271
O O12 0.816239 0.500000 0.767720
O O13 0.840816 0.274866 0.724854
O O14 0.698464 0.232091 0.682069
O O15 0.919067 0.229425 0.860868
O O16 0.403119 0.500000 0.732216
O O17 0.222345 0.000000 0.860344
O O18 0.362950 0.236618 0.964271
O O19 0.000000 0.734539 0.500000
O O20 0.926129 0.000000 0.406232
O O21 0.965397 0.000000 0.017856
O O22 0.000000 0.724335 0.000000
#
# Coordination Sequence:
#
# PCOD9187403 Si02
#       8
#     8   8   8   8   8   8   8   8
#     4  10  20  34  53  79 109 146 189 230 281 340
#     4   9  17  34  59  83 113 150 187 238 296 341
#     4  10  21  37  60  87 116 155 196 237 293 351
#     4  11  23  38  60  91 118 151 198 244 290 343
#     4  10  21  39  58  82 122 161 191 232 295 356
#     4  10  19  35  59  84 109 144 194 243 283 335
#     4   9  19  34  55  86 116 143 185 242 294 334
#     4  11  24  40  58  83 118 159 194 234 294 353
#
# _framework density 21.503879000000001
#
# number of rings (size 3 to 8) (size 9 to 14) (size 15 to 20)
#    0.000    2.000    1.250    2.250    1.750    5.500 
#    0.000    0.625    0.000    3.000    0.000    0.000 
#    0.000    0.000    0.000    0.000    0.000    0.000 
#
# Total GULP energy -178735.982664 kJ/mol
# GULP energy per Si atom -5585.499458 kJ/mol
# Density = 2.145494 g / cm^3
# Si number density = 21.503879 Si / 1000 Ang^3
#
#
#
# Elastic Constant Matrix: (Units=GPa)
#
#
# Indices 1 2 3 4 5 6 
#
# 1 111.6247 -9.2184 32.1379 0.0013 -11.2660 0.0005
# 2 -9.2184 12.8173 -15.1921 0.0020 -0.2999 -0.0023
# 3 32.1379 -15.1921 112.1423 0.0009 -11.6620 0.0009
# 4 0.0013 0.0020 0.0009 12.6149 0.0000 1.2508
# 5 -11.2660 -0.2999 -11.6620 0.0000 39.7352 -0.0001
# 6 0.0005 -0.0023 0.0009 1.2508 -0.0001 10.2054
#
#
#
# Elastic Compliance Matrix: (Units=1/GPa)
#
#
# Indices 1 2 3 4 5 6 
#
# 1 0.010183 0.005013 -0.001996 -0.000002 0.002339 0.000001
# 2 0.005013 0.096210 0.012193 -0.000019 0.005726 0.000023
# 3 -0.001996 0.012193 0.011441 -0.000003 0.002884 0.000002
# 4 -0.000002 -0.000019 -0.000003 0.080247 -0.000002 -0.009835
# 5 0.002339 0.005726 0.002884 -0.000002 0.026720 0.000001
# 6 0.000001 0.000023 0.000002 -0.009835 0.000001 0.099192
#
#
# Mechanical properties :
#
#
# Convention : Reuss Voigt Hill
#
# Bulk Modulus (GPa) = 6.74520 28.00437 17.37478
# Shear Modulus (GPa) = 14.57760 27.76822 21.17291
#
# Velocity S-wave (km/s) = 2.60649 3.59738 3.14125
# Velocity P-wave (km/s) = 3.49312 5.50510 4.61021
#
# Compressibility (1/GPa) = 0.14825363
#
# Stress axis : x y z
#
# Youngs Moduli (GPa) = 98.19968 10.39389 87.40563
#
# Poissons Ratio (x) = -0.05210 0.17446
# Poissons Ratio (y) = -0.49227 -1.06570
# Poissons Ratio (z) = 0.19600 -0.12673
#
# Static dielectric constant tensor:
#      x y z
#    x 1.802160 0.000000 -0.007060 
#    y 0.000000 1.784950 0.000000 
#    z -0.007060 0.000000 1.757290 
# 
# From -- ./inp_files/382534.got.cif
#   From: 2010.05.17/outbox.cif.g08.bks.cpg/sg12_192_cif.got.tgz:382534.got - 2010.06.03 13:09:07.
