data_PCOD9187440
_publ_section_title
;
Structure prediction by ZEFSAII (Michael W. Deem and Ramdas Pophale) SiO2 
 PCOD9187440
Probable space group: C 2/M
;
_chemical_formula_sum "Si O2"
_cell_formula_units_Z 48
_cell_length_a 20.558512
_cell_length_b 8.819689
_cell_length_c 32.144540
_cell_angle_alpha 90.000000
_cell_angle_beta 27.980215
_cell_angle_gamma 90.000000
_cell_volume 2734.508574
_symmetry_space_group_name_H-M "C 2/M"
_symmetry_group_IT_number 12
_symmetry_cell_setting 'monoclinic'
loop_
_space_group_symop_operation_xyz
x,y,z
-x,y,-z
-x,-y,-z
x,-y,z
1/2+x,1/2+y,z
1/2-x,1/2+y,-z
1/2-x,1/2-y,-z
1/2+x,1/2-y,z
loop_
_atom_site_type_symbol
_atom_site_label
_atom_site_fract_x
_atom_site_fract_y
_atom_site_fract_z
Si Si1 0.185541 0.318890 0.264496
Si Si2 0.644284 0.680014 0.442778
Si Si3 0.447750 0.182574 0.074598
Si Si4 0.398934 0.182409 0.926993
Si Si5 0.338375 0.681163 0.264918
Si Si6 0.376379 0.817976 0.454220
O O1 0.192329 0.500000 0.254784
O O2 0.294991 0.242007 0.172029
O O3 0.239325 0.287187 0.281011
O O4 0.026302 0.269490 0.351418
O O5 0.500000 0.705773 0.500000
O O6 0.662533 0.500000 0.437980
O O7 0.767233 0.747017 0.345278
O O8 0.634790 0.760774 0.492352
O O9 0.547844 0.227206 0.056627
O O10 0.444193 0.000000 0.076088
O O11 0.500000 0.235602 0.000000
O O12 0.514629 0.246363 0.830118
O O13 0.395396 0.000000 0.927046
O O14 0.250000 0.250000 0.000000
O O15 0.350821 0.500000 0.262228
O O16 0.250000 0.750000 0.500000
O O17 0.372188 0.000000 0.455746
#
# Coordination Sequence:
#
# PCOD9187440 Si02
#       6
#     8   8   8   8   8   8
#     4   9  19  35  57  82 110 145 186 230 278 334
#     4  11  22  36  59  88 115 146 190 236 281 340
#     4   9  19  36  58  82 107 140 186 231 274 330
#     4  10  20  36  57  82 114 147 183 231 286 339
#     4  10  19  35  59  85 112 146 190 234 283 337
#     4  11  23  40  58  82 117 154 191 234 287 339
#
# _framework density 17.553428
#
# number of rings (size 3 to 8) (size 9 to 14) (size 15 to 20)
#    0.000    2.000    1.667    2.000    0.000    3.667 
#    3.000    0.000    0.000    0.000    0.000    0.000 
#    0.000    0.000    0.000    0.000    0.000    0.000 
#
# Total GULP energy -133987.926856 kJ/mol
# GULP energy per Si atom -5582.830286 kJ/mol
# Density = 1.751348 g / cm^3
# Si number density = 17.553428 Si / 1000 Ang^3
#
#
#
# Elastic Constant Matrix: (Units=GPa)
#
#
# Indices 1 2 3 4 5 6 
#
# 1 88.3821 48.0230 91.1737 0.0003 -1.3982 -0.0014
# 2 48.0230 53.3315 58.5423 0.0000 -5.7083 -0.0010
# 3 91.1737 58.5423 188.8380 -0.0006 -4.1845 -0.0003
# 4 0.0003 0.0000 -0.0006 35.0192 -0.0001 0.2600
# 5 -1.3982 -5.7083 -4.1845 -0.0001 37.1781 0.0002
# 6 -0.0014 -0.0010 -0.0003 0.2600 0.0002 27.5620
#
#
#
# Elastic Compliance Matrix: (Units=1/GPa)
#
#
# Indices 1 2 3 4 5 6 
#
# 1 0.030300 -0.017338 -0.009311 0.000000 -0.002571 0.000001
# 2 -0.017338 0.038775 -0.003541 0.000000 0.004903 0.000000
# 3 -0.009311 -0.003541 0.010896 0.000000 0.000333 0.000000
# 4 0.000000 0.000000 0.000000 0.028558 0.000000 -0.000269
# 5 -0.002571 0.004903 0.000333 0.000000 0.027591 0.000000
# 6 0.000001 0.000000 0.000000 -0.000269 0.000000 0.036284
#
#
# Mechanical properties :
#
#
# Convention : Reuss Voigt Hill
#
# Bulk Modulus (GPa) = 51.04557 80.66997 65.85777
# Shear Modulus (GPa) = 20.89300 28.80601 24.84951
#
# Velocity S-wave (km/s) = 3.45375 4.05538 3.76659
# Velocity P-wave (km/s) = 6.71176 8.24528 7.51773
#
# Compressibility (1/GPa) = 0.01959034
#
# Stress axis : x y z
#
# Youngs Moduli (GPa) = 33.00341 25.79003 91.77531
#
# Poissons Ratio (x) = 0.44715 0.85453
# Poissons Ratio (y) = 0.57222 0.32497
# Poissons Ratio (z) = 0.30730 0.09132
#
# Static dielectric constant tensor:
#      x y z
#    x 1.588500 0.000000 0.000510 
#    y 0.000000 1.584690 0.000000 
#    z 0.000510 0.000000 1.578770 
# 
# From -- ./inp_files/229825.got.cif
#   From: 2010.05.17/outbox.cif.g08.bks.cpg/sg12_115_cif.got.tgz:229825.got - 2010.06.03 13:09:07.
