data_PCOD9187426
_publ_section_title
;
Structure prediction by ZEFSAII (Michael W. Deem and Ramdas Pophale) SiO2 
 PCOD9187426
Probable space group: C 2/M
;
_chemical_formula_sum "Si O2"
_cell_formula_units_Z 48
_cell_length_a 18.672996
_cell_length_b 14.906409
_cell_length_c 9.372518
_cell_angle_alpha 90.000000
_cell_angle_beta 56.002481
_cell_angle_gamma 90.000000
_cell_volume 2162.869010
_symmetry_space_group_name_H-M "C 2/M"
_symmetry_group_IT_number 12
_symmetry_cell_setting 'monoclinic'
loop_
_space_group_symop_operation_xyz
x,y,z
-x,y,-z
-x,-y,-z
x,-y,z
1/2+x,1/2+y,z
1/2-x,1/2+y,-z
1/2-x,1/2-y,-z
1/2+x,1/2-y,z
loop_
_atom_site_type_symbol
_atom_site_label
_atom_site_fract_x
_atom_site_fract_y
_atom_site_fract_z
Si Si1 0.597890 0.891040 0.865226
Si Si2 0.728708 0.892995 0.500564
Si Si3 0.391935 0.604872 0.516062
Si Si4 0.818344 0.667877 0.937667
Si Si5 0.688607 0.600744 0.876376
Si Si6 0.565304 0.686575 0.233667
O O1 0.640709 0.858753 0.669514
O O2 0.596950 0.000000 0.862690
O O3 0.500000 0.859644 0.000000
O O4 0.657880 0.863106 0.931191
O O5 0.801262 0.883427 0.540696
O O6 0.769573 0.854625 0.310518
O O7 0.716687 0.000000 0.486024
O O8 0.416101 0.500000 0.477541
O O9 0.465446 0.663421 0.357530
O O10 0.392093 0.632321 0.681449
O O11 0.768410 0.596755 0.898238
O O12 0.906677 0.710450 0.778195
O O13 0.750000 0.750000 0.000000
O O14 0.658284 0.500000 0.876336
O O15 0.609641 0.652699 0.038389
#
# Coordination Sequence:
#
# PCOD9187426 Si02
#       6
#     8   8   8   8   8   8
#     4  10  21  42  67  86 111 157 210 250 288 353
#     4   9  19  35  58  88 111 141 193 245 289 337
#     4  10  19  36  61  84 115 157 200 234 277 355
#     4  10  21  38  56  85 120 154 194 240 299 357
#     4  10  19  35  59  84 115 152 193 242 292 343
#     4  10  20  35  53  85 120 152 193 237 291 351
#
# _framework density 22.192744999999999
#
# number of rings (size 3 to 8) (size 9 to 14) (size 15 to 20)
#    0.000    2.167    0.000    4.500    0.000    2.000 
#   12.000    6.667    0.000    4.000    0.000    0.000 
#    0.000    0.000    0.000    0.000    0.000    0.000 
#
# Total GULP energy -133938.839388 kJ/mol
# GULP energy per Si atom -5580.784975 kJ/mol
# Density = 2.214223 g / cm^3
# Si number density = 22.192745 Si / 1000 Ang^3
#
#
#
# Elastic Constant Matrix: (Units=GPa)
#
#
# Indices 1 2 3 4 5 6 
#
# 1 46.0357 -6.3164 35.8220 0.0000 -1.0989 0.0000
# 2 -6.3164 40.9416 4.9083 0.0000 -10.3452 0.0000
# 3 35.8220 4.9083 161.3312 0.0000 -17.4849 0.0000
# 4 0.0000 0.0000 0.0000 15.2404 0.0000 -24.9366
# 5 -1.0989 -10.3452 -17.4849 0.0000 27.9947 0.0000
# 6 0.0000 0.0000 0.0000 -24.9366 0.0000 -62.4323
#
#
#
# Elastic Compliance Matrix: (Units=1/GPa)
#
#
# Indices 1 2 3 4 5 6 
#
# 1 0.027252 0.004671 -0.006318 0.000000 -0.001150 0.000000
# 2 0.004671 0.027753 -0.000805 0.000000 0.009937 0.000000
# 3 -0.006318 -0.000805 0.008116 0.000000 0.004524 0.000000
# 4 0.000000 0.000000 0.000000 0.039682 0.000000 -0.015850
# 5 -0.001150 0.009937 0.004524 0.000000 0.042173 0.000000
# 6 0.000000 0.000000 0.000000 -0.015850 0.000000 -0.009687
#
#
# Mechanical properties :
#
#
# Convention : Reuss Voigt Hill
#
# Bulk Modulus (GPa) = 17.17671 35.23736 26.20703
# Shear Modulus (GPa) = 31.32879 10.42019 20.87449
#
# Velocity S-wave (km/s) = 3.76129 2.16922 3.07025
# Velocity P-wave (km/s) = 5.15943 4.71024 4.93994
#
# Compressibility (1/GPa) = 0.05821838
#
# Stress axis : x y z
#
# Youngs Moduli (GPa) = 36.69485 36.03216 123.21377
#
# Poissons Ratio (x) = -0.16831 0.77843
# Poissons Ratio (y) = -0.17141 0.09914
# Poissons Ratio (z) = 0.23183 0.02899
#
# Static dielectric constant tensor:
#      x y z
#    x 1.814280 0.000000 -0.011500 
#    y 0.000000 1.850090 0.000000 
#    z -0.011500 0.000000 1.854600 
# 
# From -- ./inp_files/75047.got.cif
#   From: 2010.05.17/outbox.cif.g08.bks.cpg/sg12_38_cif.got.tgz:75047.got - 2010.06.03 13:09:07.
