data_PCOD9187299
_publ_section_title
;
Structure prediction by ZEFSAII (Michael W. Deem and Ramdas Pophale) SiO2 
 PCOD9187299
Probable space group: C 2/M
;
_chemical_formula_sum "Si O2"
_cell_formula_units_Z 64
_cell_length_a 14.295808
_cell_length_b 14.609817
_cell_length_c 17.989970
_cell_angle_alpha 90.000000
_cell_angle_beta 114.445670
_cell_angle_gamma 90.000000
_cell_volume 3420.536817
_symmetry_space_group_name_H-M "C 2/M"
_symmetry_group_IT_number 12
_symmetry_cell_setting 'monoclinic'
loop_
_space_group_symop_operation_xyz
x,y,z
-x,y,-z
-x,-y,-z
x,-y,z
1/2+x,1/2+y,z
1/2-x,1/2+y,-z
1/2-x,1/2-y,-z
1/2+x,1/2-y,z
loop_
_atom_site_type_symbol
_atom_site_label
_atom_site_fract_x
_atom_site_fract_y
_atom_site_fract_z
Si Si1 0.467179 0.317067 0.656382
Si Si2 0.479525 0.744730 0.168075
Si Si3 0.723949 0.316313 0.923478
Si Si4 0.165474 0.106509 0.651657
Si Si5 0.714841 0.746051 0.215628
Si Si6 0.922496 0.396578 0.037883
Si Si7 0.751902 0.391586 0.352794
Si Si8 0.147351 0.749602 0.515322
O O1 0.505900 0.257121 0.738506
O O2 0.559564 0.383887 0.663432
O O3 0.361127 0.365359 0.649139
O O4 0.442415 0.258496 0.574415
O O5 0.397747 0.665853 0.118803
O O6 0.592852 0.734000 0.173119
O O7 0.434222 0.835526 0.115125
O O8 0.744820 0.264674 0.853027
O O9 0.750000 0.250000 0.000000
O O10 0.808979 0.393390 0.964439
O O11 0.251283 0.165455 0.724067
O O12 0.148766 0.161450 0.569122
O O13 0.191129 0.000000 0.649905
O O14 0.756297 0.658570 0.274344
O O15 0.952467 0.500000 0.064424
O O16 0.000000 0.359853 0.000000
O O17 0.762362 0.500000 0.353495
O O18 0.838712 0.340713 0.430465
O O19 0.250000 0.750000 0.500000
#
# Coordination Sequence:
#
# PCOD9187299 Si02
#       8
#     8   8   8   8   8   8   8   8
#     4  10  19  35  58  87 117 149 193 243 294 351
#     4  10  20  37  57  82 118 158 190 229 300 352
#     4  10  20  36  59  81 110 157 193 231 293 354
#     4  11  22  35  59  91 120 149 191 249 300 346
#     4  10  20  37  56  88 121 154 195 243 293 349
#     4  10  20  35  59  89 118 149 190 245 299 353
#     4   9  19  36  58  81 116 162 199 235 287 345
#     4   9  20  36  54  80 115 156 192 234 286 347
#
# _framework density 18.710512999999999
#
# number of rings (size 3 to 8) (size 9 to 14) (size 15 to 20)
#    0.000    2.125    2.500    1.500    0.000    4.000 
#    0.000    3.750    0.000    6.000    0.000    7.000 
#    0.000    0.000    0.000    0.000    0.000    0.000 
#
# Total GULP energy -178230.209411 kJ/mol
# GULP energy per Si atom -5569.694044 kJ/mol
# Density = 1.866793 g / cm^3
# Si number density = 18.710513 Si / 1000 Ang^3
#
#
#
# Elastic Constant Matrix: (Units=GPa)
#
#
# Indices 1 2 3 4 5 6 
#
# 1 54.3027 17.0737 17.8844 0.0000 7.2226 0.0000
# 2 17.0737 125.0874 61.0715 0.0000 -7.0883 0.0000
# 3 17.8844 61.0715 130.9660 0.0000 -1.0618 0.0000
# 4 0.0000 0.0000 0.0000 8.2575 0.0000 0.9216
# 5 7.2226 -7.0883 -1.0618 0.0000 39.1306 0.0000
# 6 0.0000 0.0000 0.0000 0.9216 0.0000 9.2141
#
#
#
# Elastic Compliance Matrix: (Units=1/GPa)
#
#
# Indices 1 2 3 4 5 6 
#
# 1 0.020230 -0.002113 -0.001811 0.000000 -0.004166 0.000000
# 2 -0.002113 0.010692 -0.004680 0.000000 0.002200 0.000000
# 3 -0.001811 -0.004680 0.010063 0.000000 -0.000240 0.000000
# 4 0.000000 0.000000 0.000000 0.122468 0.000000 -0.012249
# 5 -0.004166 0.002200 -0.000240 0.000000 0.026716 0.000000
# 6 0.000000 0.000000 0.000000 -0.012249 0.000000 0.109754
#
#
# Mechanical properties :
#
#
# Convention : Reuss Voigt Hill
#
# Bulk Modulus (GPa) = 42.05548 55.82392 48.93970
# Shear Modulus (GPa) = 15.38189 25.60889 20.49539
#
# Velocity S-wave (km/s) = 2.87034 3.70359 3.31326
# Velocity P-wave (km/s) = 5.78885 6.94184 6.39140
#
# Compressibility (1/GPa) = 0.02377812
#
# Stress axis : x y z
#
# Youngs Moduli (GPa) = 49.43093 93.52604 99.37337
#
# Poissons Ratio (x) = 0.19764 0.17996
# Poissons Ratio (y) = 0.10446 0.46502
# Poissons Ratio (z) = 0.08952 0.43766
#
# Static dielectric constant tensor:
#      x y z
#    x 1.723400 0.000000 0.017710 
#    y 0.000000 1.620480 0.000000 
#    z 0.017710 0.000000 1.667840 
# 
# From -- ./inp_files/270322.got.cif
#   From: 2010.05.17/outbox.cif.g08.bks.cpg/sg12_136_cif.got.tgz:270322.got - 2010.06.03 13:09:07.
