data_PCOD9187537
_publ_section_title
;
Structure prediction by ZEFSAII (Michael W. Deem and Ramdas Pophale) SiO2 
 PCOD9187537
Probable space group: C 2/M
;
_chemical_formula_sum "Si O2"
_cell_formula_units_Z 32
_cell_length_a 8.722882
_cell_length_b 18.049300
_cell_length_c 12.076669
_cell_angle_alpha 90.000000
_cell_angle_beta 113.333663
_cell_angle_gamma 90.000000
_cell_volume 1745.867791
_symmetry_space_group_name_H-M "C 2/M"
_symmetry_group_IT_number 12
_symmetry_cell_setting 'monoclinic'
loop_
_space_group_symop_operation_xyz
x,y,z
-x,y,-z
-x,-y,-z
x,-y,z
1/2+x,1/2+y,z
1/2-x,1/2+y,-z
1/2-x,1/2-y,-z
1/2+x,1/2-y,z
loop_
_atom_site_type_symbol
_atom_site_label
_atom_site_fract_x
_atom_site_fract_y
_atom_site_fract_z
Si Si1 0.717348 0.915790 0.434238
Si Si2 0.569173 0.311184 0.142639
Si Si3 0.023228 0.134113 0.664997
Si Si4 0.454083 0.201627 0.283572
O O1 0.844054 0.890566 0.567059
O O2 0.565902 0.859729 0.373475
O O3 0.834329 0.909813 0.358019
O O4 0.663558 0.000000 0.435866
O O5 0.478928 0.367064 0.202668
O O6 0.533883 0.231295 0.190778
O O7 0.766573 0.323399 0.206254
O O8 0.500000 0.314190 0.000000
O O9 0.048386 0.221829 0.647015
#
# Coordination Sequence:
#
# PCOD9187537 Si02
#       4
#     8   8   8   8
#     4  11  21  37  59  86 120 150 181 231 292 344
#     4  10  20  35  61  84 110 146 197 242 271 322
#     4   9  19  35  57  86 112 148 190 229 277 334
#     4  10  19  35  59  89 112 143 195 235 278 333
#
# _framework density 18.328994000000002
#
# number of rings (size 3 to 8) (size 9 to 14) (size 15 to 20)
#    1.500    0.500    2.500    3.000    0.000    1.000 
#    0.000    3.750    0.000   12.000    0.000    0.000 
#    0.000    0.000    0.000    0.000    0.000    0.000 
#
# Total GULP energy -89125.073267 kJ/mol
# GULP energy per Si atom -5570.317079 kJ/mol
# Density = 1.828728 g / cm^3
# Si number density = 18.328994 Si / 1000 Ang^3
#
#
#
# Elastic Constant Matrix: (Units=GPa)
#
#
# Indices 1 2 3 4 5 6 
#
# 1 37.4025 2.4063 4.0239 0.0000 11.9644 0.0000
# 2 2.4063 69.3549 18.9175 0.0000 3.0948 0.0000
# 3 4.0239 18.9175 54.2784 0.0000 -19.9332 0.0000
# 4 0.0000 0.0000 0.0000 -6.7567 0.0000 -5.3046
# 5 11.9644 3.0948 -19.9332 0.0000 24.3283 0.0000
# 6 0.0000 0.0000 0.0000 -5.3046 0.0000 13.2924
#
#
#
# Elastic Compliance Matrix: (Units=1/GPa)
#
#
# Indices 1 2 3 4 5 6 
#
# 1 0.039010 0.004759 -0.016905 0.000000 -0.033640 0.000000
# 2 0.004759 0.018176 -0.012010 0.000000 -0.014493 0.000000
# 3 -0.016905 -0.012010 0.039303 0.000000 0.042043 0.000000
# 4 0.000000 0.000000 0.000000 -0.112693 0.000000 -0.044973
# 5 -0.033640 -0.014493 0.042043 0.000000 0.093940 0.000000
# 6 0.000000 0.000000 0.000000 -0.044973 0.000000 0.057284
#
#
# Mechanical properties :
#
#
# Convention : Reuss Voigt Hill
#
# Bulk Modulus (GPa) = 20.75698 23.52569 22.14133
# Shear Modulus (GPa) = 25.07663 15.21867 20.14765
#
# Velocity S-wave (km/s) = 3.70285 2.88463 3.31905
# Velocity P-wave (km/s) = 5.44341 4.89468 5.17632
#
# Compressibility (1/GPa) = 0.04817658
#
# Stress axis : x y z
#
# Youngs Moduli (GPa) = 25.63467 55.01755 25.44365
#
# Poissons Ratio (x) = -0.26181 0.43011
# Poissons Ratio (y) = -0.12198 0.30557
# Poissons Ratio (z) = 0.43334 0.66075
#
# Static dielectric constant tensor:
#      x y z
#    x 1.670460 0.000000 -0.035940 
#    y 0.000000 1.624010 0.000000 
#    z -0.035940 0.000000 1.598840 
# 
# From -- ./inp_files/46019.got.cif
#   From: 2010.05.17/outbox.cif.g08.bks.cpg/sg12_24_cif.got.tgz:46019.got - 2010.06.03 13:09:07.
