data_PCOD9187555
_publ_section_title
;
Structure prediction by ZEFSAII (Michael W. Deem and Ramdas Pophale) SiO2 
 PCOD9187555
Probable space group: C 2/M
;
_chemical_formula_sum "Si O2"
_cell_formula_units_Z 40
_cell_length_a 14.789451
_cell_length_b 26.800645
_cell_length_c 8.040436
_cell_angle_alpha 90.000000
_cell_angle_beta 141.491074
_cell_angle_gamma 90.000000
_cell_volume 1984.319085
_symmetry_space_group_name_H-M "C 2/M"
_symmetry_group_IT_number 12
_symmetry_cell_setting 'monoclinic'
loop_
_space_group_symop_operation_xyz
x,y,z
-x,y,-z
-x,-y,-z
x,-y,z
1/2+x,1/2+y,z
1/2-x,1/2+y,-z
1/2-x,1/2-y,-z
1/2+x,1/2-y,z
loop_
_atom_site_type_symbol
_atom_site_label
_atom_site_fract_x
_atom_site_fract_y
_atom_site_fract_z
Si Si1 0.333112 0.000000 0.315291
Si Si2 0.169868 0.204065 0.682477
Si Si3 0.668667 0.186784 0.739575
Si Si4 0.334634 0.000000 0.710518
Si Si5 0.829357 0.100633 0.423841
Si Si6 0.151934 0.095212 0.950970
O O1 0.500000 0.000000 0.500000
O O2 0.324391 0.000000 0.499262
O O3 0.247087 0.047667 0.127318
O O4 0.180760 0.262393 0.650830
O O5 0.206134 0.159829 0.604655
O O6 0.000000 0.197942 0.500000
O O7 0.278666 0.198915 0.996049
O O8 0.500000 0.171124 0.500000
O O9 0.775184 0.141616 0.849129
O O10 0.267047 0.052494 0.674875
O O11 0.500000 0.000000 0.000000
O O12 0.841410 0.100988 0.239875
O O13 0.981222 0.090870 0.735625
#
# Coordination Sequence:
#
# PCOD9187555 Si02
#       6
#     4   8   8   4   8   8
#     4  12  25  40  59  83 115 145 199 256 307 359
#     4   9  15  30  50  84 121 158 197 237 281 343
#     4   9  16  25  50  86 124 155 201 240 277 324
#     4  12  27  42  59  83 113 157 197 250 314 362
#     4  10  19  37  60  85 120 158 195 237 294 358
#     4  10  19  35  59  90 121 159 198 238 287 352
#
# _framework density 20.158048999999998
#
# number of rings (size 3 to 8) (size 9 to 14) (size 15 to 20)
#    0.000    2.000    4.000    3.000    0.000    4.800 
#    0.000    0.000    0.000    1.200    0.000    0.000 
#    0.000    0.000    0.000    0.000    0.000    0.000 
#
# Total GULP energy -111373.219564 kJ/mol
# GULP energy per Si atom -5568.660978 kJ/mol
# Density = 2.011217 g / cm^3
# Si number density = 20.158049 Si / 1000 Ang^3
#
#
#
# Elastic Constant Matrix: (Units=GPa)
#
#
# Indices 1 2 3 4 5 6 
#
# 1 18.7486 32.7797 13.7474 0.0000 5.3603 0.0000
# 2 32.7797 214.6354 75.2805 0.0000 30.7946 0.0000
# 3 13.7474 75.2805 159.7869 0.0000 26.2811 0.0000
# 4 0.0000 0.0000 0.0000 46.8426 0.0000 2.3867
# 5 5.3603 30.7946 26.2811 0.0000 25.3729 0.0000
# 6 0.0000 0.0000 0.0000 2.3867 0.0000 -32.7316
#
#
#
# Elastic Compliance Matrix: (Units=1/GPa)
#
#
# Indices 1 2 3 4 5 6 
#
# 1 0.073013 -0.010563 -0.001057 0.000000 -0.001510 0.000000
# 2 -0.010563 0.007661 -0.001854 0.000000 -0.005146 0.000000
# 3 -0.001057 -0.001854 0.008216 0.000000 -0.006036 0.000000
# 4 0.000000 0.000000 0.000000 0.021269 0.000000 0.001551
# 5 -0.001510 -0.005146 -0.006036 0.000000 0.052229 0.000000
# 6 0.000000 0.000000 0.000000 0.001551 0.000000 -0.030438
#
#
# Mechanical properties :
#
#
# Convention : Reuss Voigt Hill
#
# Bulk Modulus (GPa) = 16.14447 70.75401 43.44924
# Shear Modulus (GPa) = 27.84837 25.98768 26.91802
#
# Velocity S-wave (km/s) = 3.72089 3.59443 3.65821
# Velocity P-wave (km/s) = 5.14649 7.23895 6.28048
#
# Compressibility (1/GPa) = 0.06194070
#
# Stress axis : x y z
#
# Youngs Moduli (GPa) = 13.69626 130.53233 121.72009
#
# Poissons Ratio (x) = 1.37888 0.12861
# Poissons Ratio (y) = 0.14468 0.22568
# Poissons Ratio (z) = 0.01447 0.24202
#
# Static dielectric constant tensor:
#      x y z
#    x 1.724500 0.000000 0.009120 
#    y 0.000000 1.862210 0.000000 
#    z 0.009120 0.000000 1.666640 
# 
# From -- ./inp_files/68792.got.cif
#   From: 2010.05.17/outbox.cif.g08.bks.cpg/sg12_35_cif.got.tgz:68792.got - 2010.06.03 13:09:07.
