data_PCOD9187834
_publ_section_title
;
Structure prediction by ZEFSAII (Michael W. Deem and Ramdas Pophale) SiO2 
 PCOD9187834
Probable space group: C 2/M
;
_chemical_formula_sum "Si O2"
_cell_formula_units_Z 64
_cell_length_a 15.474500
_cell_length_b 14.087362
_cell_length_c 18.954905
_cell_angle_alpha 90.000000
_cell_angle_beta 50.978822
_cell_angle_gamma 90.000000
_cell_volume 3210.261909
_symmetry_space_group_name_H-M "C 2/M"
_symmetry_group_IT_number 12
_symmetry_cell_setting 'monoclinic'
loop_
_space_group_symop_operation_xyz
x,y,z
-x,y,-z
-x,-y,-z
x,-y,z
1/2+x,1/2+y,z
1/2-x,1/2+y,-z
1/2-x,1/2-y,-z
1/2+x,1/2-y,z
loop_
_atom_site_type_symbol
_atom_site_label
_atom_site_fract_x
_atom_site_fract_y
_atom_site_fract_z
Si Si1 0.548230 0.885407 0.253401
Si Si2 0.527430 0.609833 0.903584
Si Si3 0.729212 0.114084 0.274221
Si Si4 0.703801 0.115061 0.582924
Si Si5 0.361076 0.735365 0.897876
Si Si6 0.684470 0.615184 0.620751
Si Si7 0.889912 0.115490 0.596822
Si Si8 0.923016 0.113789 0.741275
O O1 0.625854 0.856580 0.279595
O O2 0.422374 0.857457 0.336894
O O3 0.592176 0.831792 0.161370
O O4 0.554061 0.000000 0.241722
O O5 0.510593 0.500000 0.887035
O O6 0.656117 0.633879 0.825352
O O7 0.450766 0.682061 0.900619
O O8 0.500000 0.612413 0.000000
O O9 0.749704 0.147725 0.343490
O O10 0.718612 0.000000 0.284662
O O11 0.755915 0.146172 0.481714
O O12 0.783341 0.143145 0.606257
O O13 0.704449 0.000000 0.580010
O O14 0.348023 0.665890 0.837304
O O15 0.250000 0.750000 0.000000
O O16 0.686334 0.500000 0.620097
O O17 0.553165 0.638927 0.688624
O O18 0.892022 0.141454 0.677514
O O19 0.000000 0.150138 0.500000
O O20 0.894606 0.000000 0.593333
O O21 0.913510 0.000000 0.752315
#
# Coordination Sequence:
#
# PCOD9187834 Si02
#       8
#     8   8   8   8   8   8   8   8
#     4  10  23  42  60  84 126 171 206 242 300 375
#     4  10  20  38  67  96 118 148 199 263 321 362
#     4   9  17  33  59  87 116 156 204 256 304 348
#     4   9  17  32  56  87 122 166 205 236 295 372
#     4  12  25  41  61  90 121 156 205 259 316 366
#     4   9  15  28  58  91 118 152 201 257 306 354
#     4   9  15  28  57  91 123 163 201 239 296 368
#     4  10  19  35  61  93 125 154 200 260 312 363
#
# _framework density 19.936067999999999
#
# number of rings (size 3 to 8) (size 9 to 14) (size 15 to 20)
#    0.000    2.250    2.500    1.125    0.000    2.500 
#    4.500    3.125    2.750    0.375    0.000    0.000 
#    0.000    0.000    0.000    0.000    0.000    0.000 
#
# Total GULP energy -178745.125480 kJ/mol
# GULP energy per Si atom -5585.785171 kJ/mol
# Density = 1.989069 g / cm^3
# Si number density = 19.936068 Si / 1000 Ang^3
#
#
#
# Elastic Constant Matrix: (Units=GPa)
#
#
# Indices 1 2 3 4 5 6 
#
# 1 184.3017 29.4086 94.6567 0.0000 -1.0729 0.0000
# 2 29.4086 89.5931 48.4699 0.0000 0.9129 0.0000
# 3 94.6567 48.4699 174.3879 0.0000 1.7363 0.0000
# 4 0.0000 0.0000 0.0000 -1.9303 0.0000 4.9174
# 5 -1.0729 0.9129 1.7363 0.0000 33.6324 0.0000
# 6 0.0000 0.0000 0.0000 4.9174 0.0000 1.2023
#
#
#
# Elastic Compliance Matrix: (Units=1/GPa)
#
#
# Indices 1 2 3 4 5 6 
#
# 1 0.007537 -0.000309 -0.004010 0.000000 0.000456 0.000000
# 2 -0.000309 0.013151 -0.003485 0.000000 -0.000187 0.000000
# 3 -0.004010 -0.003485 0.008884 0.000000 -0.000492 0.000000
# 4 0.000000 0.000000 0.000000 -0.045368 0.000000 0.185549
# 5 0.000456 -0.000187 -0.000492 0.000000 0.029778 0.000000
# 6 0.000000 0.000000 0.000000 0.185549 0.000000 0.072837
#
#
# Mechanical properties :
#
#
# Convention : Reuss Voigt Hill
#
# Bulk Modulus (GPa) = 71.61602 88.15035 79.88319
# Shear Modulus (GPa) = 46.69251 24.96405 35.82828
#
# Velocity S-wave (km/s) = 4.84479 3.54249 4.24389
# Velocity P-wave (km/s) = 8.20346 7.81312 8.01067
#
# Compressibility (1/GPa) = 0.01396336
#
# Stress axis : x y z
#
# Youngs Moduli (GPa) = 132.67352 76.04213 112.55685
#
# Poissons Ratio (x) = 0.02353 0.45132
# Poissons Ratio (y) = 0.04106 0.39229
# Poissons Ratio (z) = 0.53198 0.26503
#
# Static dielectric constant tensor:
#      x y z
#    x 1.683310 0.000000 0.011760 
#    y 0.000000 1.751040 0.000000 
#    z 0.011760 0.000000 1.667190 
# 
# From -- ./inp_files/270627.got.cif
#   From: 2010.05.17/outbox.cif.g08.bks.cpg/sg12_136_cif.got.tgz:270627.got - 2010.06.03 13:09:07.
