data_PCOD9187545
_publ_section_title
;
Structure prediction by ZEFSAII (Michael W. Deem and Ramdas Pophale) SiO2 
 PCOD9187545
Probable space group: C 2/M
;
_chemical_formula_sum "Si O2"
_cell_formula_units_Z 64
_cell_length_a 30.316197
_cell_length_b 9.062518
_cell_length_c 24.124817
_cell_angle_alpha 90.000000
_cell_angle_beta 29.032061
_cell_angle_gamma 90.000000
_cell_volume 3216.599475
_symmetry_space_group_name_H-M "C 2/M"
_symmetry_group_IT_number 12
_symmetry_cell_setting 'monoclinic'
loop_
_space_group_symop_operation_xyz
x,y,z
-x,y,-z
-x,-y,-z
x,-y,z
1/2+x,1/2+y,z
1/2-x,1/2+y,-z
1/2-x,1/2-y,-z
1/2+x,1/2-y,z
loop_
_atom_site_type_symbol
_atom_site_label
_atom_site_fract_x
_atom_site_fract_y
_atom_site_fract_z
Si Si1 0.664298 0.176021 0.745000
Si Si2 0.478971 0.832344 0.464810
Si Si3 0.647932 0.821337 0.496365
Si Si4 0.188690 0.662673 0.212366
Si Si5 0.832474 0.173203 0.140493
Si Si6 0.319768 0.672298 0.883711
Si Si7 0.492080 0.676312 0.877276
Si Si8 0.008881 0.822817 0.728826
O O1 0.752575 0.254263 0.621430
O O2 0.655758 0.229459 0.818175
O O3 0.575360 0.233353 0.811071
O O4 0.672691 0.000000 0.732848
O O5 0.500000 0.753041 0.500000
O O6 0.411527 0.773039 0.492457
O O7 0.580483 0.845093 0.330247
O O8 0.444741 0.000000 0.515141
O O9 0.595638 0.759903 0.607760
O O10 0.650382 0.000000 0.494986
O O11 0.224860 0.500000 0.155555
O O12 0.232371 0.691626 0.223994
O O13 0.210935 0.786253 0.143989
O O14 0.843792 0.000000 0.143383
O O15 0.903301 0.205867 0.012844
O O16 0.317394 0.500000 0.895464
O O17 0.421675 0.720986 0.787680
O O18 0.250000 0.750000 0.000000
O O19 0.509434 0.500000 0.863055
O O20 0.485831 0.709253 0.818504
O O21 0.022676 0.000000 0.708943
#
# Coordination Sequence:
#
# PCOD9187545 Si02
#       8
#     8   8   8   8   8   8   8   8
#     4  12  26  42  62  90 124 161 204 263 323 369
#     4   9  17  31  55  86 118 153 195 239 284 346
#     4  11  22  39  64  91 123 165 209 254 306 369
#     4  10  19  35  59  89 122 156 197 239 291 355
#     4  10  21  40  67  94 124 162 206 254 307 375
#     4  11  22  36  57  86 124 163 202 245 296 355
#     4  10  22  42  66  90 118 161 211 257 312 375
#     4  10  22  41  63  90 126 163 204 258 311 363
#
# _framework density 19.896789999999999
#
# number of rings (size 3 to 8) (size 9 to 14) (size 15 to 20)
#    0.000    1.625    1.250    3.750    0.000    8.000 
#    0.000    1.250    0.000    1.875    0.000    0.000 
#    0.000    0.000    0.000    0.000    0.000    0.000 
#
# Total GULP energy -178603.945744 kJ/mol
# GULP energy per Si atom -5581.373304 kJ/mol
# Density = 1.985150 g / cm^3
# Si number density = 19.896790 Si / 1000 Ang^3
#
#
#
# Elastic Constant Matrix: (Units=GPa)
#
#
# Indices 1 2 3 4 5 6 
#
# 1 76.7500 36.8909 13.6889 -0.0008 1.4557 0.0011
# 2 36.8909 58.2233 39.4186 0.0009 5.1237 0.0000
# 3 13.6889 39.4186 78.5567 -0.0007 5.9283 0.0001
# 4 -0.0008 0.0009 -0.0007 29.2522 -0.0012 5.0641
# 5 1.4557 5.1237 5.9283 -0.0012 35.8376 -0.0001
# 6 0.0011 0.0000 0.0001 5.0641 -0.0001 28.0490
#
#
#
# Elastic Compliance Matrix: (Units=1/GPa)
#
#
# Indices 1 2 3 4 5 6 
#
# 1 0.019656 -0.015389 0.004244 0.000001 0.000700 -0.000001
# 2 -0.015389 0.038149 -0.016300 -0.000002 -0.002133 0.000001
# 3 0.004244 -0.016300 0.020259 0.000001 -0.001193 0.000000
# 4 0.000001 -0.000002 0.000001 0.035288 0.000001 -0.006371
# 5 0.000700 -0.002133 -0.001193 0.000001 0.028378 0.000000
# 6 -0.000001 0.000001 0.000000 -0.006371 0.000000 0.036802
#
#
# Mechanical properties :
#
#
# Convention : Reuss Voigt Hill
#
# Bulk Modulus (GPa) = 43.15149 43.72519 43.43834
# Shear Modulus (GPa) = 20.73413 26.86321 23.79867
#
# Velocity S-wave (km/s) = 3.23164 3.67839 3.46223
# Velocity P-wave (km/s) = 5.97155 6.32965 6.15321
#
# Compressibility (1/GPa) = 0.02317417
#
# Stress axis : x y z
#
# Youngs Moduli (GPa) = 50.87470 26.21277 49.35992
#
# Poissons Ratio (x) = 0.40340 -0.20949
# Poissons Ratio (y) = 0.78292 0.80458
# Poissons Ratio (z) = -0.21592 0.42727
#
# Static dielectric constant tensor:
#      x y z
#    x 1.703540 0.000000 0.007310 
#    y 0.000000 1.672980 0.000000 
#    z 0.007310 0.000000 1.720400 
# 
# From -- ./inp_files/249684.got.cif
#   From: 2010.05.17/outbox.cif.g08.bks.cpg/sg12_125_cif.got.tgz:249684.got - 2010.06.03 13:09:07.
