data_PCOD9187577
_publ_section_title
;
Structure prediction by ZEFSAII (Michael W. Deem and Ramdas Pophale) SiO2 
 PCOD9187577
Probable space group: C 2/M
;
_chemical_formula_sum "Si O2"
_cell_formula_units_Z 56
_cell_length_a 9.629937
_cell_length_b 16.683658
_cell_length_c 22.374686
_cell_angle_alpha 90.000000
_cell_angle_beta 124.541372
_cell_angle_gamma 90.000000
_cell_volume 2961.076958
_symmetry_space_group_name_H-M "C 2/M"
_symmetry_group_IT_number 12
_symmetry_cell_setting 'monoclinic'
loop_
_space_group_symop_operation_xyz
x,y,z
-x,y,-z
-x,-y,-z
x,-y,z
1/2+x,1/2+y,z
1/2-x,1/2+y,-z
1/2-x,1/2-y,-z
1/2+x,1/2-y,z
loop_
_atom_site_type_symbol
_atom_site_label
_atom_site_fract_x
_atom_site_fract_y
_atom_site_fract_z
Si Si1 0.120268 0.097370 0.082238
Si Si2 0.275707 0.903286 0.559699
Si Si3 0.505729 0.596245 0.597808
Si Si4 0.157147 0.178454 0.749349
Si Si5 0.096812 0.361614 0.701157
Si Si6 0.964524 0.907183 0.803014
Si Si7 0.000979 0.407483 0.807828
O O1 0.316226 0.120322 0.124024
O O2 0.054665 0.118047 0.132386
O O3 0.121461 0.000000 0.081282
O O4 0.000000 0.126313 0.000000
O O5 0.171589 0.879235 0.475354
O O6 0.457283 0.865378 0.615682
O O7 0.152547 0.883771 0.585586
O O8 0.294268 0.000000 0.563162
O O9 0.505159 0.500000 0.603277
O O10 0.550408 0.634441 0.671493
O O11 0.136576 0.271842 0.731813
O O12 0.083623 0.150228 0.794442
O O13 0.348385 0.148553 0.789576
O O14 0.275305 0.401520 0.730212
O O15 0.018914 0.405353 0.740222
O O16 0.020912 0.000000 0.813872
O O17 0.969303 0.500000 0.818061
#
# Coordination Sequence:
#
# PCOD9187577 Si02
#       7
#     8   8   8   8   8   8   8
#     4   8  16  34  60  86 108 137 182 225 259 311
#     4   9  17  33  56  77  98 140 195 230 261 320
#     4   9  18  32  54  78 103 138 185 234 270 316
#     4  12  22  33  52  83 117 139 174 232 282 313
#     4  11  21  34  54  78 109 144 185 225 267 323
#     4  10  21  35  54  80 111 143 174 221 276 321
#     4  10  19  35  60  80 102 146 189 216 256 330
#
# _framework density 18.912039
#
# number of rings (size 3 to 8) (size 9 to 14) (size 15 to 20)
#    0.000    2.143    1.429    5.143    0.000    0.571 
#    0.000    1.429    0.000   19.714    0.000    0.000 
#    0.000    0.000    0.000    0.000    0.000    0.143 
#
# Total GULP energy -156294.235466 kJ/mol
# GULP energy per Si atom -5581.936981 kJ/mol
# Density = 1.886899 g / cm^3
# Si number density = 18.912039 Si / 1000 Ang^3
#
#
#
# Elastic Constant Matrix: (Units=GPa)
#
#
# Indices 1 2 3 4 5 6 
#
# 1 73.8750 22.3239 34.9675 0.0000 9.8270 0.0000
# 2 22.3239 62.7014 23.0192 0.0000 2.2233 0.0000
# 3 34.9675 23.0192 134.3289 0.0000 13.5695 0.0000
# 4 0.0000 0.0000 0.0000 19.8735 0.0000 -2.5312
# 5 9.8270 2.2233 13.5695 0.0000 19.0272 0.0000
# 6 0.0000 0.0000 0.0000 -2.5312 0.0000 7.3388
#
#
#
# Elastic Compliance Matrix: (Units=1/GPa)
#
#
# Indices 1 2 3 4 5 6 
#
# 1 0.017251 -0.004806 -0.003043 0.000000 -0.006178 0.000000
# 2 -0.004806 0.018358 -0.002079 0.000000 0.001819 0.000000
# 3 -0.003043 -0.002079 0.009062 0.000000 -0.004648 0.000000
# 4 0.000000 0.000000 0.000000 0.052630 0.000000 0.018153
# 5 -0.006178 0.001819 -0.004648 0.000000 0.058849 0.000000
# 6 0.000000 0.000000 0.000000 0.018153 0.000000 0.142524
#
#
# Mechanical properties :
#
#
# Convention : Reuss Voigt Hill
#
# Bulk Modulus (GPa) = 40.29583 47.94738 44.12160
# Shear Modulus (GPa) = 15.29981 21.95422 18.62701
#
# Velocity S-wave (km/s) = 2.84738 3.41084 3.14176
# Velocity P-wave (km/s) = 5.67127 6.39684 6.04495
#
# Compressibility (1/GPa) = 0.02481647
#
# Stress axis : x y z
#
# Youngs Moduli (GPa) = 57.96870 54.47141 110.34677
#
# Poissons Ratio (x) = 0.26177 0.33578
# Poissons Ratio (y) = 0.27858 0.22939
# Poissons Ratio (z) = 0.17640 0.11323
#
# Static dielectric constant tensor:
#      x y z
#    x 1.638110 0.000000 0.013090 
#    y 0.000000 1.653840 0.000000 
#    z 0.013090 0.000000 1.670260 
# 
# From -- ./inp_files/333372.got.cif
#   From: 2010.05.17/outbox.cif.g08.bks.cpg/sg12_167_cif.got.tgz:333372.got - 2010.06.03 13:09:07.
