data_PCOD9187368
_publ_section_title
;
Structure prediction by ZEFSAII (Michael W. Deem and Ramdas Pophale) SiO2 
 PCOD9187368
Probable space group: C 2/M
;
_chemical_formula_sum "Si O2"
_cell_formula_units_Z 56
_cell_length_a 16.748624
_cell_length_b 7.733702
_cell_length_c 20.363977
_cell_angle_alpha 90.000000
_cell_angle_beta 101.518416
_cell_angle_gamma 90.000000
_cell_volume 2584.600640
_symmetry_space_group_name_H-M "C 2/M"
_symmetry_group_IT_number 12
_symmetry_cell_setting 'monoclinic'
loop_
_space_group_symop_operation_xyz
x,y,z
-x,y,-z
-x,-y,-z
x,-y,z
1/2+x,1/2+y,z
1/2-x,1/2+y,-z
1/2-x,1/2-y,-z
1/2+x,1/2-y,z
loop_
_atom_site_type_symbol
_atom_site_label
_atom_site_fract_x
_atom_site_fract_y
_atom_site_fract_z
Si Si1 0.051120 0.707146 0.348304
Si Si2 0.766393 0.794431 0.214203
Si Si3 0.982478 0.288154 0.071212
Si Si4 0.197843 0.294711 0.927523
Si Si5 0.230050 0.291988 0.421844
Si Si6 0.373216 0.291919 0.347335
Si Si7 0.587074 0.788365 0.211610
O O1 0.057404 0.500000 0.347960
O O2 0.138716 0.772077 0.389063
O O3 0.043477 0.767912 0.271295
O O4 0.967703 0.746155 0.372742
O O5 0.769440 0.764446 0.137225
O O6 0.841272 0.728509 0.270465
O O7 0.680565 0.729756 0.228081
O O8 0.765620 0.000000 0.223370
O O9 0.983638 0.500000 0.070726
O O10 0.893295 0.227655 0.077274
O O11 0.045420 0.231533 0.137272
O O12 0.000000 0.231663 0.000000
O O13 0.193336 0.500000 0.923428
O O14 0.250000 0.250000 0.000000
O O15 0.227949 0.500000 0.413312
O O16 0.250000 0.250000 0.500000
O O17 0.304571 0.229669 0.387756
O O18 0.371236 0.500000 0.348566
O O19 0.586237 0.000000 0.210585
#
# Coordination Sequence:
#
# PCOD9187368 Si02
#       7
#     8   8   8   8   8   8   8
#     4  10  20  37  61  87 115 155 205 245 284 351
#     4  10  19  35  59  82 109 147 186 233 292 350
#     4   9  17  29  48  75 101 132 182 231 272 327
#     4  11  22  35  52  78 109 144 189 240 291 348
#     4  10  22  41  62  87 121 159 200 245 297 357
#     4  10  21  38  60  89 122 155 193 242 302 357
#     4   9  16  31  56  80 106 144 188 235 281 337
#
# _framework density 21.666789999999999
#
# number of rings (size 3 to 8) (size 9 to 14) (size 15 to 20)
#    0.000    2.143    1.429    2.143    0.000    5.714 
#    0.000    3.571    0.000    9.429    0.000    0.000 
#    0.000    0.000    0.000    0.000    0.000    0.000 
#
# Total GULP energy -156306.875881 kJ/mol
# GULP energy per Si atom -5582.388424 kJ/mol
# Density = 2.161748 g / cm^3
# Si number density = 21.666790 Si / 1000 Ang^3
#
#
#
# Elastic Constant Matrix: (Units=GPa)
#
#
# Indices 1 2 3 4 5 6 
#
# 1 174.2493 8.9606 71.1996 0.0000 -1.4446 0.0000
# 2 8.9606 29.2810 0.1797 0.0000 1.1524 0.0000
# 3 71.1996 0.1797 131.6361 0.0000 4.4740 0.0000
# 4 0.0000 0.0000 0.0000 20.0411 0.0000 -1.9358
# 5 -1.4446 1.1524 4.4740 0.0000 31.2712 0.0000
# 6 0.0000 0.0000 0.0000 -1.9358 0.0000 19.0681
#
#
#
# Elastic Compliance Matrix: (Units=1/GPa)
#
#
# Indices 1 2 3 4 5 6 
#
# 1 0.007548 -0.002325 -0.004114 0.000000 0.001023 0.000000
# 2 -0.002325 0.034917 0.001263 0.000000 -0.001575 0.000000
# 3 -0.004114 0.001263 0.009876 0.000000 -0.001650 0.000000
# 4 0.000000 0.000000 0.000000 0.050392 0.000000 0.005116
# 5 0.001023 -0.001575 -0.001650 0.000000 0.032320 0.000000
# 6 0.000000 0.000000 0.000000 0.005116 0.000000 0.052963
#
#
# Mechanical properties :
#
#
# Convention : Reuss Voigt Hill
#
# Bulk Modulus (GPa) = 23.81496 55.09403 39.45449
# Shear Modulus (GPa) = 23.54445 31.06452 27.30449
#
# Velocity S-wave (km/s) = 3.30003 3.79058 3.55378
# Velocity P-wave (km/s) = 5.05327 6.68140 5.92354
#
# Compressibility (1/GPa) = 0.04199042
#
# Stress axis : x y z
#
# Youngs Moduli (GPa) = 132.48494 28.63894 101.25221
#
# Poissons Ratio (x) = 0.06658 0.41657
# Poissons Ratio (y) = 0.30801 -0.12792
# Poissons Ratio (z) = 0.54507 -0.03618
#
# Static dielectric constant tensor:
#      x y z
#    x 1.798210 0.000000 -0.000840 
#    y 0.000000 1.809060 0.000000 
#    z -0.000840 0.000000 1.770940 
# 
# From -- ./inp_files/309022.got.cif
#   From: 2010.05.17/outbox.cif.g08.bks.cpg/sg12_155_cif.got.tgz:309022.got - 2010.06.03 13:09:07.
