data_PCOD9187255
_publ_section_title
;
Structure prediction by ZEFSAII (Michael W. Deem and Ramdas Pophale) SiO2 
 PCOD9187255
Probable space group: C 2/M
;
_chemical_formula_sum "Si O2"
_cell_formula_units_Z 56
_cell_length_a 18.619763
_cell_length_b 14.878256
_cell_length_c 11.588916
_cell_angle_alpha 90.000000
_cell_angle_beta 58.706689
_cell_angle_gamma 90.000000
_cell_volume 2743.411508
_symmetry_space_group_name_H-M "C 2/M"
_symmetry_group_IT_number 12
_symmetry_cell_setting 'monoclinic'
loop_
_space_group_symop_operation_xyz
x,y,z
-x,y,-z
-x,-y,-z
x,-y,z
1/2+x,1/2+y,z
1/2-x,1/2+y,-z
1/2-x,1/2-y,-z
1/2+x,1/2-y,z
loop_
_atom_site_type_symbol
_atom_site_label
_atom_site_fract_x
_atom_site_fract_y
_atom_site_fract_z
Si Si1 0.609740 0.603184 0.333612
Si Si2 0.838069 0.824393 0.478758
Si Si3 0.078503 0.179453 0.007465
Si Si4 0.855114 0.391860 0.758222
Si Si5 0.991999 0.258626 0.703106
Si Si6 0.221903 0.104305 0.045143
Si Si7 0.719216 0.694720 0.706286
O O1 0.590744 0.500000 0.317829
O O2 0.624666 0.609912 0.456385
O O3 0.543362 0.673626 0.340037
O O4 0.693654 0.634894 0.194340
O O5 0.758431 0.780042 0.608308
O O6 0.817344 0.862922 0.370446
O O7 0.908617 0.747855 0.395715
O O8 0.145030 0.217024 0.858131
O O9 0.036446 0.243298 0.140057
O O10 0.140108 0.115981 0.031571
O O11 0.000000 0.140299 0.000000
O O12 0.860087 0.500000 0.752166
O O13 0.945072 0.344725 0.690268
O O14 0.795389 0.356440 0.705931
O O15 0.802598 0.355934 0.914676
O O16 0.241282 0.000000 0.039327
#
# Coordination Sequence:
#
# PCOD9187255 Si02
#       7
#     8   8   8   8   8   8   8
#     4  10  21  36  58  88 121 155 193 238 299 362
#     4  11  22  37  57  87 123 156 197 242 298 358
#     4  10  19  35  58  85 110 155 199 241 303 357
#     4  10  21  39  63  90 119 157 207 254 297 347
#     4  11  22  37  62  89 120 155 202 252 295 356
#     4   8  18  34  55  88 119 147 196 248 294 355
#     4  10  22  38  58  85 118 159 197 247 295 357
#
# _framework density 20.41254
#
# number of rings (size 3 to 8) (size 9 to 14) (size 15 to 20)
#    0.000    2.000    2.857    0.429    2.000    3.714 
#    0.000    1.429    0.000    1.286    0.000    0.000 
#    0.000    0.000    0.000    0.000    0.000    0.000 
#
# Total GULP energy -155986.271452 kJ/mol
# GULP energy per Si atom -5570.938266 kJ/mol
# Density = 2.036608 g / cm^3
# Si number density = 20.412540 Si / 1000 Ang^3
#
#
#
# Elastic Constant Matrix: (Units=GPa)
#
#
# Indices 1 2 3 4 5 6 
#
# 1 81.3675 10.4550 34.2767 0.0000 8.4365 0.0000
# 2 10.4550 41.9722 12.6814 0.0000 0.5014 0.0000
# 3 34.2767 12.6814 124.3177 0.0000 11.3560 0.0000
# 4 0.0000 0.0000 0.0000 17.2472 0.0000 3.6943
# 5 8.4365 0.5014 11.3560 0.0000 38.3630 0.0000
# 6 0.0000 0.0000 0.0000 3.6943 0.0000 1.8529
#
#
#
# Elastic Compliance Matrix: (Units=1/GPa)
#
#
# Indices 1 2 3 4 5 6 
#
# 1 0.014298 -0.002479 -0.003500 0.000000 -0.002076 0.000000
# 2 -0.002479 0.025020 -0.001941 0.000000 0.000793 0.000000
# 3 -0.003500 -0.001941 0.009388 0.000000 -0.001984 0.000000
# 4 0.000000 0.000000 0.000000 0.101200 0.000000 -0.201775
# 5 -0.002076 0.000793 -0.001984 0.000000 0.027100 0.000000
# 6 0.000000 0.000000 0.000000 -0.201775 0.000000 0.941999
#
#
# Mechanical properties :
#
#
# Convention : Reuss Voigt Hill
#
# Bulk Modulus (GPa) = 30.42676 40.27595 35.35136
# Shear Modulus (GPa) = 4.36376 24.17559 14.26968
#
# Velocity S-wave (km/s) = 1.46370 3.44517 2.64685
# Velocity P-wave (km/s) = 4.21839 5.96653 5.16693
#
# Compressibility (1/GPa) = 0.03286580
#
# Stress axis : x y z
#
# Youngs Moduli (GPa) = 69.93990 39.96823 106.51823
#
# Poissons Ratio (x) = 0.09910 0.37278
# Poissons Ratio (y) = 0.17341 0.20676
# Poissons Ratio (z) = 0.24477 0.07758
#
# Static dielectric constant tensor:
#      x y z
#    x 1.771620 0.000000 0.005860 
#    y 0.000000 1.704630 0.000000 
#    z 0.005860 0.000000 1.817280 
# 
# From -- ./inp_files/156548.got.cif
#   From: 2010.05.17/outbox.cif.g08.bks.cpg/sg12_79_cif.got.tgz:156548.got - 2010.06.03 13:09:07.
