data_PCOD9187928
_publ_section_title
;
Structure prediction by ZEFSAII (Michael W. Deem and Ramdas Pophale) SiO2 
 PCOD9187928
Probable space group: C 2/M
;
_chemical_formula_sum "Si O2"
_cell_formula_units_Z 64
_cell_length_a 15.311560
_cell_length_b 13.968985
_cell_length_c 16.227152
_cell_angle_alpha 90.000000
_cell_angle_beta 124.846434
_cell_angle_gamma 90.000000
_cell_volume 2848.418790
_symmetry_space_group_name_H-M "C 2/M"
_symmetry_group_IT_number 12
_symmetry_cell_setting 'monoclinic'
loop_
_space_group_symop_operation_xyz
x,y,z
-x,y,-z
-x,-y,-z
x,-y,z
1/2+x,1/2+y,z
1/2-x,1/2+y,-z
1/2-x,1/2-y,-z
1/2+x,1/2-y,z
loop_
_atom_site_type_symbol
_atom_site_label
_atom_site_fract_x
_atom_site_fract_y
_atom_site_fract_z
Si Si1 0.844820 0.109758 0.250365
Si Si2 0.732897 0.885742 0.673620
Si Si3 0.580654 0.384550 0.968937
Si Si4 0.708825 0.192940 0.845791
Si Si5 0.756429 0.891879 0.387255
Si Si6 0.958132 0.886026 0.738081
Si Si7 0.085896 0.741140 0.486308
Si Si8 0.015086 0.387169 0.296072
O O1 0.791442 0.193239 0.168708
O O2 0.804927 0.117419 0.321958
O O3 0.971110 0.128758 0.304853
O O4 0.825540 0.000000 0.212080
O O5 0.731751 0.852586 0.767590
O O6 0.637676 0.840023 0.572397
O O7 0.840357 0.848307 0.687461
O O8 0.727583 0.000000 0.668587
O O9 0.591689 0.500000 0.975879
O O10 0.527383 0.355498 0.854293
O O11 0.500000 0.359392 0.000000
O O12 0.695727 0.339320 0.044773
O O13 0.591596 0.152295 0.804832
O O14 0.819763 0.817278 0.478088
O O15 0.629109 0.880342 0.312249
O O16 0.775291 0.000000 0.428649
O O17 0.946428 0.000000 0.738993
O O18 0.000000 0.789829 0.500000
O O19 0.035303 0.681975 0.384643
O O20 0.999033 0.500000 0.308203
#
# Coordination Sequence:
#
# PCOD9187928 Si02
#       8
#     8   8   8   8   8   8   8   8
#     4  10  22  42  63  86 121 166 216 256 293 353
#     4  11  21  36  61  94 127 159 197 250 320 377
#     4  10  19  35  62  99 133 156 193 254 318 377
#     4  12  22  36  65  95 125 165 201 250 314 379
#     4  10  23  44  63  83 121 169 216 259 294 353
#     4   9  20  38  64  93 124 161 201 254 308 363
#     4  12  23  39  62  92 121 162 204 257 314 370
#     4  11  24  41  62  92 129 164 199 253 316 373
#
# _framework density 22.468606000000001
#
# number of rings (size 3 to 8) (size 9 to 14) (size 15 to 20)
#    0.000    1.375    3.750    1.875    1.750    1.250 
#    2.250    0.625    0.000    0.375    0.000    0.000 
#    0.000    0.000    0.000    0.000    0.000    0.000 
#
# Total GULP energy -178962.838235 kJ/mol
# GULP energy per Si atom -5592.588695 kJ/mol
# Density = 2.241747 g / cm^3
# Si number density = 22.468606 Si / 1000 Ang^3
#
#
#
# Elastic Constant Matrix: (Units=GPa)
#
#
# Indices 1 2 3 4 5 6 
#
# 1 139.2244 26.6159 35.5564 0.0000 19.7365 0.0000
# 2 26.6159 139.9240 21.2713 0.0000 9.9733 0.0000
# 3 35.5564 21.2713 61.0284 0.0000 25.0870 0.0000
# 4 0.0000 0.0000 0.0000 29.7273 0.0000 6.4539
# 5 19.7365 9.9733 25.0870 0.0000 35.3314 0.0000
# 6 0.0000 0.0000 0.0000 6.4539 0.0000 23.7009
#
#
#
# Elastic Compliance Matrix: (Units=1/GPa)
#
#
# Indices 1 2 3 4 5 6 
#
# 1 0.008622 -0.000909 -0.003999 0.000000 -0.001720 0.000000
# 2 -0.000909 0.007646 -0.002057 0.000000 -0.000190 0.000000
# 3 -0.003999 -0.002057 0.025809 0.000000 -0.015511 0.000000
# 4 0.000000 0.000000 0.000000 0.035753 0.000000 -0.009736
# 5 -0.001720 -0.000190 -0.015511 0.000000 0.040331 0.000000
# 6 0.000000 0.000000 0.000000 -0.009736 0.000000 0.044844
#
#
# Mechanical properties :
#
#
# Convention : Reuss Voigt Hill
#
# Bulk Modulus (GPa) = 35.53047 56.34046 45.93547
# Shear Modulus (GPa) = 26.83592 34.86746 30.85169
#
# Velocity S-wave (km/s) = 3.45972 3.94360 3.70956
# Velocity P-wave (km/s) = 5.63979 6.77242 6.23189
#
# Compressibility (1/GPa) = 0.02814486
#
# Stress axis : x y z
#
# Youngs Moduli (GPa) = 115.98685 130.78772 38.74623
#
# Poissons Ratio (x) = 0.11894 0.15495
# Poissons Ratio (y) = 0.10548 0.07971
# Poissons Ratio (z) = 0.46386 0.26906
#
# Static dielectric constant tensor:
#      x y z
#    x 1.895550 0.000000 -0.007860 
#    y 0.000000 1.835150 0.000000 
#    z -0.007860 0.000000 1.794340 
# 
# From -- ./inp_files/270714.got.cif
#   From: 2010.05.17/outbox.cif.g08.bks.cpg/sg12_136_cif.got.tgz:270714.got - 2010.06.03 13:09:07.
