data_PCOD9187956
_publ_section_title
;
Structure prediction by ZEFSAII (Michael W. Deem and Ramdas Pophale) SiO2 
 PCOD9187956
Probable space group: C 2/M
;
_chemical_formula_sum "Si O2"
_cell_formula_units_Z 40
_cell_length_a 14.077898
_cell_length_b 19.967292
_cell_length_c 9.168193
_cell_angle_alpha 90.000000
_cell_angle_beta 49.619631
_cell_angle_gamma 90.000000
_cell_volume 1963.175294
_symmetry_space_group_name_H-M "C 2/M"
_symmetry_group_IT_number 12
_symmetry_cell_setting 'monoclinic'
loop_
_space_group_symop_operation_xyz
x,y,z
-x,y,-z
-x,-y,-z
x,-y,z
1/2+x,1/2+y,z
1/2-x,1/2+y,-z
1/2-x,1/2-y,-z
1/2+x,1/2-y,z
loop_
_atom_site_type_symbol
_atom_site_label
_atom_site_fract_x
_atom_site_fract_y
_atom_site_fract_z
Si Si1 0.945302 0.076606 0.904144
Si Si2 0.159136 0.925246 0.447473
Si Si3 0.657496 0.675738 0.189232
Si Si4 0.549026 0.926137 0.783893
Si Si5 0.561174 0.785409 0.098529
O O1 0.058490 0.077682 0.675688
O O2 0.836561 0.121252 0.946684
O O3 0.905753 0.000000 0.965948
O O4 0.000000 0.103395 0.000000
O O5 0.134253 0.867708 0.355879
O O6 0.301054 0.919560 0.362391
O O7 0.149392 0.000000 0.387969
O O8 0.791516 0.708535 0.078414
O O9 0.556117 0.728259 0.228021
O O10 0.490202 0.856340 0.789614
O O11 0.517857 0.000000 0.750571
O O12 0.500000 0.928601 0.000000
O O13 0.500000 0.772015 0.000000
#
# Coordination Sequence:
#
# PCOD9187956 Si02
#       5
#     8   8   8   8   8
#     4  10  22  39  60  88 122 158 195 245 306 353
#     4  10  19  35  63  94 118 150 201 249 291 351
#     4  11  20  33  60  87 121 157 194 248 289 355
#     4   9  16  31  57  87 117 149 192 243 294 344
#     4  10  20  35  55  85 125 160 198 237 298 353
#
# _framework density 20.375153000000001
#
# number of rings (size 3 to 8) (size 9 to 14) (size 15 to 20)
#    0.000    2.000    4.000    1.800    0.000    2.400 
#    0.000    1.000    8.800    0.000    0.000    5.600 
#    0.000    0.000    0.000    0.000    0.000    0.200 
#
# Total GULP energy -111478.749472 kJ/mol
# GULP energy per Si atom -5573.937474 kJ/mol
# Density = 2.032878 g / cm^3
# Si number density = 20.375153 Si / 1000 Ang^3
#
#
#
# Elastic Constant Matrix: (Units=GPa)
#
#
# Indices 1 2 3 4 5 6 
#
# 1 97.0203 39.7378 16.6690 0.0000 6.8177 0.0000
# 2 39.7378 149.8326 18.3751 0.0000 15.8625 0.0000
# 3 16.6690 18.3751 30.2375 0.0000 10.1099 0.0000
# 4 0.0000 0.0000 0.0000 40.6934 0.0000 33.7206
# 5 6.8177 15.8625 10.1099 0.0000 28.7689 0.0000
# 6 0.0000 0.0000 0.0000 33.7206 0.0000 31.6380
#
#
#
# Elastic Compliance Matrix: (Units=1/GPa)
#
#
# Indices 1 2 3 4 5 6 
#
# 1 0.012273 -0.002649 -0.005294 0.000000 0.000413 0.000000
# 2 -0.002649 0.007982 -0.002412 0.000000 -0.002926 0.000000
# 3 -0.005294 -0.002412 0.041463 0.000000 -0.011986 0.000000
# 4 0.000000 0.000000 0.000000 0.210383 0.000000 -0.224232
# 5 0.000413 -0.002926 -0.011986 0.000000 0.040487 0.000000
# 6 0.000000 0.000000 0.000000 -0.224232 0.000000 0.270599
#
#
# Mechanical properties :
#
#
# Convention : Reuss Voigt Hill
#
# Bulk Modulus (GPa) = 24.38532 47.40601 35.89567
# Shear Modulus (GPa) = 8.09629 33.70730 20.90179
#
# Velocity S-wave (km/s) = 1.99555 4.07176 3.20636
# Velocity P-wave (km/s) = 4.15978 6.73964 5.60029
#
# Compressibility (1/GPa) = 0.04100828
#
# Stress axis : x y z
#
# Youngs Moduli (GPa) = 81.48134 125.27665 24.11782
#
# Poissons Ratio (x) = 0.33191 0.12767
# Poissons Ratio (y) = 0.21588 0.05817
# Poissons Ratio (z) = 0.43132 0.30217
#
# Static dielectric constant tensor:
#      x y z
#    x 1.743490 0.000000 -0.000300 
#    y 0.000000 1.816700 0.000000 
#    z -0.000300 0.000000 1.718650 
# 
# From -- ./inp_files/62599.got.cif
#   From: 2010.05.17/outbox.cif.g08.bks.cpg/sg12_32_cif.got.tgz:62599.got - 2010.06.03 13:09:07.
