data_PCOD9187236
_publ_section_title
;
Structure prediction by ZEFSAII (Michael W. Deem and Ramdas Pophale) SiO2 
 PCOD9187236
Probable space group: C 2/M
;
_chemical_formula_sum "Si O2"
_cell_formula_units_Z 44
_cell_length_a 12.801638
_cell_length_b 13.943357
_cell_length_c 21.503573
_cell_angle_alpha 90.000000
_cell_angle_beta 41.035794
_cell_angle_gamma 90.000000
_cell_volume 2519.987275
_symmetry_space_group_name_H-M "C 2/M"
_symmetry_group_IT_number 12
_symmetry_cell_setting 'monoclinic'
loop_
_space_group_symop_operation_xyz
x,y,z
-x,y,-z
-x,-y,-z
x,-y,z
1/2+x,1/2+y,z
1/2-x,1/2+y,-z
1/2-x,1/2-y,-z
1/2+x,1/2-y,z
loop_
_atom_site_type_symbol
_atom_site_label
_atom_site_fract_x
_atom_site_fract_y
_atom_site_fract_z
Si Si1 0.287218 0.110169 0.379696
Si Si2 0.926257 0.387317 0.651324
Si Si3 0.210464 0.831374 0.967731
Si Si4 0.443410 0.104872 0.173328
Si Si5 0.000000 0.744381 0.500000
Si Si6 0.362903 0.697714 0.141206
O O1 0.426815 0.125151 0.366993
O O2 0.361881 0.118895 0.277158
O O3 0.147591 0.186501 0.449978
O O4 0.229538 0.000000 0.412405
O O5 0.915297 0.500000 0.640596
O O6 0.767652 0.352980 0.757773
O O7 0.954854 0.322560 0.578258
O O8 0.366045 0.896512 0.902222
O O9 0.197963 0.795979 0.902251
O O10 0.250000 0.750000 0.000000
O O11 0.029759 0.861037 0.065183
O O12 0.397678 0.195354 0.151327
O O13 0.393879 0.000000 0.170882
#
# Coordination Sequence:
#
# PCOD9187236 Si02
#       6
#     8   8   8   8   4   8
#     4  10  21  37  59  86 110 145 191 233 280 338
#     4  11  23  38  58  84 115 150 190 234 283 336
#     4   9  19  34  57  83 113 149 185 225 275 335
#     4  10  19  35  58  84 113 147 187 230 277 333
#     4  12  22  40  60  82 114 150 190 238 286 330
#     4  10  19  36  57  84 115 150 186 227 281 338
#
# _framework density 17.460405999999999
#
# number of rings (size 3 to 8) (size 9 to 14) (size 15 to 20)
#    0.000    1.818    3.636    1.091    0.000    0.727 
#    0.000    9.091    0.000    6.545    0.000    0.000 
#    0.000    0.000    0.000    0.000    0.000    0.000 
#
# Total GULP energy -122641.298516 kJ/mol
# GULP energy per Si atom -5574.604478 kJ/mol
# Density = 1.742066 g / cm^3
# Si number density = 17.460406 Si / 1000 Ang^3
#
#
#
# Elastic Constant Matrix: (Units=GPa)
#
#
# Indices 1 2 3 4 5 6 
#
# 1 62.0475 51.8001 46.9093 0.0000 -7.5572 0.0000
# 2 51.8001 117.9935 69.0934 0.0000 -10.0126 0.0000
# 3 46.9093 69.0934 140.1344 -0.0001 -4.8338 0.0000
# 4 0.0000 0.0000 -0.0001 -18.7994 0.0000 -21.5662
# 5 -7.5572 -10.0126 -4.8338 0.0000 27.0520 0.0000
# 6 0.0000 0.0000 0.0000 -21.5662 0.0000 16.9088
#
#
#
# Elastic Compliance Matrix: (Units=1/GPa)
#
#
# Indices 1 2 3 4 5 6 
#
# 1 0.027681 -0.009136 -0.004640 0.000000 0.003522 0.000000
# 2 -0.009136 0.015246 -0.004379 0.000000 0.002308 0.000000
# 3 -0.004640 -0.004379 0.010814 0.000000 -0.000985 0.000000
# 4 0.000000 0.000000 0.000000 -0.021596 0.000000 -0.027544
# 5 0.003522 0.002308 -0.000985 0.000000 0.038628 0.000000
# 6 0.000000 0.000000 0.000000 -0.027544 0.000000 0.024010
#
#
# Mechanical properties :
#
#
# Convention : Reuss Voigt Hill
#
# Bulk Modulus (GPa) = 57.36996 72.86455 65.11726
# Shear Modulus (GPa) = 36.52162 15.19045 25.85604
#
# Velocity S-wave (km/s) = 4.57845 2.95277 3.85234
# Velocity P-wave (km/s) = 7.80244 7.31075 7.56059
#
# Compressibility (1/GPa) = 0.01743073
#
# Stress axis : x y z
#
# Youngs Moduli (GPa) = 36.12593 65.59050 92.46939
#
# Poissons Ratio (x) = 0.59925 0.42905
# Poissons Ratio (y) = 0.33006 0.40494
# Poissons Ratio (z) = 0.16762 0.28723
#
# Static dielectric constant tensor:
#      x y z
#    x 1.569620 0.000000 -0.021070 
#    y 0.000000 1.589790 0.000000 
#    z -0.021070 0.000000 1.590640 
# 
# From -- ./inp_files/214054.got.cif
#   From: 2010.05.17/outbox.cif.g08.bks.cpg/sg12_108_cif.got.tgz:214054.got - 2010.06.03 13:09:07.
