data_PCOD9187949
_publ_section_title
;
Structure prediction by ZEFSAII (Michael W. Deem and Ramdas Pophale) SiO2 
 PCOD9187949
Probable space group: C 2/M
;
_chemical_formula_sum "Si O2"
_cell_formula_units_Z 64
_cell_length_a 17.539347
_cell_length_b 14.312448
_cell_length_c 23.296067
_cell_angle_alpha 90.000000
_cell_angle_beta 146.767219
_cell_angle_gamma 90.000000
_cell_volume 3204.967973
_symmetry_space_group_name_H-M "C 2/M"
_symmetry_group_IT_number 12
_symmetry_cell_setting 'monoclinic'
loop_
_space_group_symop_operation_xyz
x,y,z
-x,y,-z
-x,-y,-z
x,-y,z
1/2+x,1/2+y,z
1/2-x,1/2+y,-z
1/2-x,1/2-y,-z
1/2+x,1/2-y,z
loop_
_atom_site_type_symbol
_atom_site_label
_atom_site_fract_x
_atom_site_fract_y
_atom_site_fract_z
Si Si1 0.060204 0.111019 0.102589
Si Si2 0.753184 0.108874 0.403903
Si Si3 0.631169 0.611094 0.800125
Si Si4 0.183428 0.113240 0.963963
Si Si5 0.194031 0.108830 0.426661
Si Si6 0.328901 0.775601 0.247605
Si Si7 0.072825 0.277530 0.492561
Si Si8 0.432424 0.112427 0.201257
O O1 0.199453 0.171239 0.193988
O O2 0.944551 0.141918 0.075873
O O3 0.088646 0.000000 0.128779
O O4 0.000000 0.121135 0.000000
O O5 0.773975 0.121393 0.485771
O O6 0.860129 0.180509 0.443488
O O7 0.593284 0.132610 0.289820
O O8 0.778350 0.000000 0.406210
O O9 0.653428 0.500000 0.806583
O O10 0.668931 0.639540 0.888658
O O11 0.466746 0.630510 0.687258
O O12 0.709840 0.675687 0.804171
O O13 0.179738 0.000000 0.962189
O O14 0.327791 0.140635 0.084683
O O15 0.300179 0.167828 0.456136
O O16 0.214988 0.000000 0.426536
O O17 0.454467 0.762900 0.370763
O O18 0.383499 0.838073 0.228664
O O19 0.000000 0.327825 0.500000
O O20 0.578575 0.000000 0.797379
#
# Coordination Sequence:
#
# PCOD9187949 Si02
#       8
#     8   8   8   8   8   8   8   8
#     4  10  20  37  59  87 124 155 189 238 297 360
#     4  10  20  39  65  86 110 152 205 249 290 345
#     4  10  22  39  60  85 116 157 202 246 287 342
#     4   9  19  37  60  90 122 150 190 246 298 347
#     4  10  20  38  61  83 112 154 199 243 298 352
#     4  12  22  36  59  86 117 162 196 235 298 361
#     4  12  26  39  54  87 126 155 191 248 301 357
#     4  10  19  35  63  93 116 145 194 249 298 345
#
# _framework density 19.968997999999999
#
# number of rings (size 3 to 8) (size 9 to 14) (size 15 to 20)
#    0.000    1.625    3.750    1.500    1.750    1.500 
#    0.000    0.000    0.000    0.375    0.000    0.000 
#    0.000    0.000    0.000    0.000    0.000    0.000 
#
# Total GULP energy -178850.372801 kJ/mol
# GULP energy per Si atom -5589.074150 kJ/mol
# Density = 1.992355 g / cm^3
# Si number density = 19.968998 Si / 1000 Ang^3
#
#
#
# Elastic Constant Matrix: (Units=GPa)
#
#
# Indices 1 2 3 4 5 6 
#
# 1 28.8785 18.9319 27.8319 -0.0001 -3.2280 0.0000
# 2 18.9319 65.4248 35.4203 -0.0003 11.2273 -0.0001
# 3 27.8319 35.4203 131.0730 -0.0004 5.8376 -0.0001
# 4 -0.0001 -0.0003 -0.0004 15.8624 -0.0002 12.7634
# 5 -3.2280 11.2273 5.8376 -0.0002 26.7565 -0.0001
# 6 0.0000 -0.0001 -0.0001 12.7634 -0.0001 11.5938
#
#
#
# Elastic Compliance Matrix: (Units=1/GPa)
#
#
# Indices 1 2 3 4 5 6 
#
# 1 0.052721 -0.013133 -0.008255 0.000001 0.013672 -0.000001
# 2 -0.013133 0.022378 -0.002797 0.000001 -0.010364 -0.000001
# 3 -0.008255 -0.002797 0.010229 0.000001 -0.002054 -0.000001
# 4 0.000001 0.000001 0.000001 0.552032 0.000002 -0.607720
# 5 0.013672 -0.010364 -0.002054 0.000002 0.043821 -0.000002
# 6 -0.000001 -0.000001 -0.000001 -0.607720 -0.000002 0.755279
#
#
# Mechanical properties :
#
#
# Convention : Reuss Voigt Hill
#
# Bulk Modulus (GPa) = 27.05699 43.30494 35.18097
# Shear Modulus (GPa) = 3.33968 20.38868 11.86418
#
# Velocity S-wave (km/s) = 1.29463 3.19880 2.44012
# Velocity P-wave (km/s) = 3.97664 5.94780 5.05915
#
# Compressibility (1/GPa) = 0.03695902
#
# Stress axis : x y z
#
# Youngs Moduli (GPa) = 18.96761 44.68691 97.75703
#
# Poissons Ratio (x) = 0.58688 0.80695
# Poissons Ratio (y) = 0.24911 0.27342
# Poissons Ratio (z) = 0.15657 0.12499
#
# Static dielectric constant tensor:
#      x y z
#    x 1.668180 0.000000 -0.008390 
#    y 0.000000 1.746330 0.000000 
#    z -0.008390 0.000000 1.689670 
# 
# From -- ./inp_files/183788.got.cif
#   From: 2010.05.17/outbox.cif.g08.bks.cpg/sg12_92_cif.got.tgz:183788.got - 2010.06.03 13:09:07.
