data_PCOD9187994
_publ_section_title
;
Structure prediction by ZEFSAII (Michael W. Deem and Ramdas Pophale) SiO2 
 PCOD9187994
Probable space group: C 2/M
;
_chemical_formula_sum "Si O2"
_cell_formula_units_Z 40
_cell_length_a 20.936852
_cell_length_b 13.659992
_cell_length_c 18.410942
_cell_angle_alpha 90.000000
_cell_angle_beta 21.555784
_cell_angle_gamma 90.000000
_cell_volume 1934.573217
_symmetry_space_group_name_H-M "C 2/M"
_symmetry_group_IT_number 12
_symmetry_cell_setting 'monoclinic'
loop_
_space_group_symop_operation_xyz
x,y,z
-x,y,-z
-x,-y,-z
x,-y,z
1/2+x,1/2+y,z
1/2-x,1/2+y,-z
1/2-x,1/2-y,-z
1/2+x,1/2-y,z
loop_
_atom_site_type_symbol
_atom_site_label
_atom_site_fract_x
_atom_site_fract_y
_atom_site_fract_z
Si Si1 0.304130 0.386274 0.410236
Si Si2 0.891610 0.386978 0.816622
Si Si3 0.212354 0.808431 0.150647
Si Si4 0.542719 0.744321 0.878864
Si Si5 0.349494 0.385662 0.531682
O O1 0.348351 0.500000 0.354260
O O2 0.404926 0.324509 0.243619
O O3 0.351115 0.359561 0.443273
O O4 0.096214 0.376226 0.619329
O O5 0.861711 0.500000 0.826185
O O6 0.840066 0.303525 0.813807
O O7 0.779775 0.362013 0.006395
O O8 0.040050 0.862013 0.359628
O O9 0.374233 0.804597 0.032700
O O10 0.702904 0.817713 0.720384
O O11 0.500000 0.692194 0.000000
O O12 0.307854 0.500000 0.581519
#
# Coordination Sequence:
#
# PCOD9187994 Si02
#       5
#     8   8   8   8   8
#     4  10  20  40  68  94 123 157 202 256 307 358
#     4  10  19  35  65  98 122 151 201 261 308 354
#     4  11  22  37  64  91 124 158 203 252 307 360
#     4  12  26  42  60  89 130 167 203 245 303 370
#     4  11  23  42  67  93 120 156 209 260 305 355
#
# _framework density 20.676394999999999
#
# number of rings (size 3 to 8) (size 9 to 14) (size 15 to 20)
#    0.000    1.200    4.000    3.600    0.000    4.800 
#    0.000    1.000    0.000    2.400    0.000    0.000 
#    0.000    0.000    0.000    0.000    0.000    0.000 
#
# Total GULP energy -111867.667691 kJ/mol
# GULP energy per Si atom -5593.383385 kJ/mol
# Density = 2.062933 g / cm^3
# Si number density = 20.676395 Si / 1000 Ang^3
#
#
#
# Elastic Constant Matrix: (Units=GPa)
#
#
# Indices 1 2 3 4 5 6 
#
# 1 -17.0675 -11.5574 44.5915 0.0014 14.7665 -0.0004
# 2 -11.5574 91.9584 26.1183 0.0039 22.2901 -0.0022
# 3 44.5915 26.1183 103.5064 0.0051 -18.1596 -0.0027
# 4 0.0014 0.0039 0.0051 15.3248 -0.0035 -8.2391
# 5 14.7665 22.2901 -18.1596 -0.0035 24.0483 0.0017
# 6 -0.0004 -0.0022 -0.0027 -8.2391 0.0017 13.9271
#
#
#
# Elastic Compliance Matrix: (Units=1/GPa)
#
#
# Indices 1 2 3 4 5 6 
#
# 1 -0.008785 -0.008985 0.009752 0.000005 0.021086 0.000000
# 2 -0.008985 0.010514 0.000549 -0.000003 -0.003814 0.000000
# 3 0.009752 0.000549 0.004821 -0.000003 -0.002856 0.000000
# 4 0.000005 -0.000003 -0.000003 0.095687 0.000007 0.056607
# 5 0.021086 -0.003814 -0.002856 0.000007 0.030013 0.000000
# 6 0.000000 0.000000 0.000000 0.056607 0.000000 0.105290
#
#
# Mechanical properties :
#
#
# Convention : Reuss Voigt Hill
#
# Bulk Modulus (GPa) = 108.93845 32.96689 70.95267
# Shear Modulus (GPa) = 21.01118 18.60974 19.81046
#
# Velocity S-wave (km/s) = 3.19123 3.00333 3.09871
# Velocity P-wave (km/s) = 8.14741 5.29202 6.86971
#
# Compressibility (1/GPa) = 0.00917950
#
# Stress axis : x y z
#
# Youngs Moduli (GPa) = -113.82434 95.11372 207.44474
#
# Poissons Ratio (x) = 0.85460 -2.02292
# Poissons Ratio (y) = -1.02272 -0.11384
# Poissons Ratio (z) = 1.10997 -0.05220
#
# Static dielectric constant tensor:
#      x y z
#    x 1.743460 0.000000 -0.010810 
#    y 0.000000 1.726780 0.000000 
#    z -0.010810 0.000000 1.728410 
# 
# From -- ./inp_files/103869.got.cif
#   From: 2010.05.17/outbox.cif.g08.bks.cpg/sg12_52_cif.got.tgz:103869.got - 2010.06.03 13:09:07.
