data_PCOD9187089
_publ_section_title
;
Structure prediction by ZEFSAII (Michael W. Deem and Ramdas Pophale) SiO2 
 PCOD9187089
Probable space group: C 2/M
;
_chemical_formula_sum "Si O2"
_cell_formula_units_Z 64
_cell_length_a 31.303815
_cell_length_b 8.909268
_cell_length_c 15.183817
_cell_angle_alpha 90.000000
_cell_angle_beta 128.528087
_cell_angle_gamma 90.000000
_cell_volume 3312.799807
_symmetry_space_group_name_H-M "C 2/M"
_symmetry_group_IT_number 12
_symmetry_cell_setting 'monoclinic'
loop_
_space_group_symop_operation_xyz
x,y,z
-x,y,-z
-x,-y,-z
x,-y,z
1/2+x,1/2+y,z
1/2-x,1/2+y,-z
1/2-x,1/2-y,-z
1/2+x,1/2-y,z
loop_
_atom_site_type_symbol
_atom_site_label
_atom_site_fract_x
_atom_site_fract_y
_atom_site_fract_z
Si Si1 0.545111 0.664068 0.632000
Si Si2 0.835252 0.182288 0.779580
Si Si3 0.193722 0.333538 0.932808
Si Si4 0.883955 0.318235 0.668369
Si Si5 0.109833 0.317767 0.975112
Si Si6 0.499269 0.682261 0.236219
Si Si7 0.855564 0.667053 0.322509
Si Si8 0.708930 0.817774 0.592765
O O1 0.500000 0.649008 0.500000
O O2 0.567625 0.500000 0.685195
O O3 0.519544 0.726853 0.688805
O O4 0.590843 0.753012 0.640162
O O5 0.871833 0.246052 0.747461
O O6 0.772363 0.228798 0.676600
O O7 0.837694 0.000000 0.787515
O O8 0.857511 0.253296 0.898980
O O9 0.204241 0.500000 0.981540
O O10 0.145436 0.274058 0.933642
O O11 0.176713 0.342288 0.809742
O O12 0.250000 0.250000 0.000000
O O13 0.886613 0.500000 0.675932
O O14 0.832093 0.276086 0.539111
O O15 0.941568 0.253343 0.707542
O O16 0.105067 0.500000 0.972886
O O17 0.049572 0.245474 0.887962
O O18 0.502661 0.500000 0.235155
O O19 0.870184 0.500000 0.372275
O O20 0.820176 0.736587 0.354940
O O21 0.711071 0.000000 0.596128
#
# Coordination Sequence:
#
# PCOD9187089 Si02
#       8
#     8   8   8   8   8   8   8   8
#     4  10  21  36  55  84 121 157 196 243 293 348
#     4  11  23  42  66  91 121 161 206 257 316 374
#     4  10  21  35  56  85 120 158 199 242 291 350
#     4  11  23  41  64  92 123 159 205 259 314 369
#     4  11  23  41  62  90 125 163 208 259 308 362
#     4  11  23  40  62  89 124 166 209 254 308 369
#     4  10  19  35  57  85 117 155 197 234 283 350
#     4   9  20  38  63  93 126 161 202 252 307 370
#
# _framework density 19.319006000000002
#
# number of rings (size 3 to 8) (size 9 to 14) (size 15 to 20)
#    0.000    1.625    1.250    3.375    0.000    3.750 
#    0.000    6.250    0.000    0.000    0.000    0.000 
#    0.000    0.000    0.000    0.000    0.000    0.000 
#
# Total GULP energy -178408.632972 kJ/mol
# GULP energy per Si atom -5575.269780 kJ/mol
# Density = 1.927503 g / cm^3
# Si number density = 19.319006 Si / 1000 Ang^3
#
#
#
# Elastic Constant Matrix: (Units=GPa)
#
#
# Indices 1 2 3 4 5 6 
#
# 1 106.4069 21.9778 25.2638 0.0000 3.8715 0.0000
# 2 21.9778 51.8603 22.1422 0.0000 10.7155 0.0000
# 3 25.2638 22.1422 93.1825 0.0000 7.9941 0.0000
# 4 0.0000 0.0000 0.0000 19.0220 0.0000 4.9370
# 5 3.8715 10.7155 7.9941 0.0000 42.5697 0.0000
# 6 0.0000 0.0000 0.0000 4.9370 0.0000 30.6119
#
#
#
# Elastic Compliance Matrix: (Units=1/GPa)
#
#
# Indices 1 2 3 4 5 6 
#
# 1 0.010634 -0.003711 -0.002031 0.000000 0.000349 0.000000
# 2 -0.003711 0.023645 -0.004198 0.000000 -0.004826 0.000000
# 3 -0.002031 -0.004198 0.012373 0.000000 -0.001082 0.000000
# 4 0.000000 0.000000 0.000000 0.054867 0.000000 -0.008849
# 5 0.000349 -0.004826 -0.001082 0.000000 0.024877 0.000000
# 6 0.000000 0.000000 0.000000 -0.008849 0.000000 0.034094
#
#
# Mechanical properties :
#
#
# Convention : Reuss Voigt Hill
#
# Bulk Modulus (GPa) = 37.35498 43.35746 40.35622
# Shear Modulus (GPa) = 26.41373 30.57844 28.49609
#
# Velocity S-wave (km/s) = 3.70163 3.98278 3.84478
# Velocity P-wave (km/s) = 6.13574 6.60618 6.37530
#
# Compressibility (1/GPa) = 0.02677019
#
# Stress axis : x y z
#
# Youngs Moduli (GPa) = 94.03787 42.29210 80.82281
#
# Poissons Ratio (x) = 0.15696 0.16416
# Poissons Ratio (y) = 0.34901 0.33932
# Poissons Ratio (z) = 0.19100 0.17756
#
# Static dielectric constant tensor:
#      x y z
#    x 1.662630 0.000000 -0.022700 
#    y 0.000000 1.928540 0.000000 
#    z -0.022700 0.000000 1.653030 
# 
# From -- ./inp_files/249859.got.cif
#   From: 2010.05.17/outbox.cif.g08.bks.cpg/sg12_125_cif.got.tgz:249859.got - 2010.06.03 13:09:07.
