data_PCOD9187727
_publ_section_title
;
Structure prediction by ZEFSAII (Michael W. Deem and Ramdas Pophale) SiO2 
 PCOD9187727
Probable space group: C 2/M
;
_chemical_formula_sum "Si O2"
_cell_formula_units_Z 48
_cell_length_a 26.807800
_cell_length_b 25.431082
_cell_length_c 11.389106
_cell_angle_alpha 90.000000
_cell_angle_beta 21.822812
_cell_angle_gamma 90.000000
_cell_volume 2886.369959
_symmetry_space_group_name_H-M "C 2/M"
_symmetry_group_IT_number 12
_symmetry_cell_setting 'monoclinic'
loop_
_space_group_symop_operation_xyz
x,y,z
-x,y,-z
-x,-y,-z
x,-y,z
1/2+x,1/2+y,z
1/2-x,1/2+y,-z
1/2-x,1/2-y,-z
1/2+x,1/2-y,z
loop_
_atom_site_type_symbol
_atom_site_label
_atom_site_fract_x
_atom_site_fract_y
_atom_site_fract_z
Si Si1 0.644982 0.562048 0.130287
Si Si2 0.915826 0.655805 0.899838
Si Si3 0.355829 0.059602 0.878075
Si Si4 0.859441 0.757013 0.863013
Si Si5 0.275438 0.150368 0.698853
Si Si6 0.153472 0.300152 0.698372
O O1 0.500000 0.575808 0.500000
O O2 0.645128 0.500000 0.098488
O O3 0.747739 0.569829 0.013236
O O4 0.694774 0.598767 0.915622
O O5 0.854225 0.602876 0.982006
O O6 0.887546 0.702738 0.870029
O O7 0.075686 0.648996 0.569425
O O8 0.855213 0.671308 0.157657
O O9 0.500000 0.062915 0.500000
O O10 0.337712 0.000000 0.961575
O O11 0.000000 0.774706 0.500000
O O12 0.750000 0.750000 0.000000
O O13 0.802572 0.799940 0.076678
O O14 0.295343 0.161825 0.517606
O O15 0.250000 0.250000 0.500000
O O16 0.000000 0.284229 0.000000
#
# Coordination Sequence:
#
# PCOD9187727 Si02
#       6
#     8   8   8   8   8   8
#     4  10  21  38  59  86 117 146 180 230 286 336
#     4  11  21  37  56  81 115 142 189 236 268 333
#     4  10  19  35  61  83 110 149 180 223 286 333
#     4  12  22  32  52  79 110 143 176 230 284 326
#     4  11  21  37  57  81 111 147 190 227 280 329
#     4  10  22  40  57  76 110 156 189 230 278 324
#
# _framework density 16.629885000000002
#
# number of rings (size 3 to 8) (size 9 to 14) (size 15 to 20)
#    0.000    1.333    5.000    2.000    0.000    0.000 
#    3.000    0.833    0.000    3.000    0.000    3.500 
#    0.000    0.000    0.000    0.000    0.000    0.000 
#
# Total GULP energy -133996.042669 kJ/mol
# GULP energy per Si atom -5583.168445 kJ/mol
# Density = 1.659203 g / cm^3
# Si number density = 16.629885 Si / 1000 Ang^3
#
#
#
# Elastic Constant Matrix: (Units=GPa)
#
#
# Indices 1 2 3 4 5 6 
#
# 1 80.6967 49.3163 47.1577 0.0011 11.9318 -0.0006
# 2 49.3163 99.8851 44.7739 0.0000 14.3381 -0.0010
# 3 47.1577 44.7739 117.1083 -0.0020 5.4812 0.0037
# 4 0.0011 0.0000 -0.0020 85.8378 -0.0027 -25.0523
# 5 11.9318 14.3381 5.4812 -0.0027 27.1122 0.0010
# 6 -0.0006 -0.0010 0.0037 -25.0523 0.0010 22.4041
#
#
#
# Elastic Compliance Matrix: (Units=1/GPa)
#
#
# Indices 1 2 3 4 5 6 
#
# 1 0.020474 -0.007123 -0.005326 0.000000 -0.004167 0.000001
# 2 -0.007123 0.015434 -0.002824 0.000000 -0.004456 0.000002
# 3 -0.005326 -0.002824 0.011695 0.000000 0.001473 -0.000003
# 4 0.000000 0.000000 0.000000 0.017294 0.000001 0.019338
# 5 -0.004167 -0.004456 0.001473 0.000001 0.040776 -0.000001
# 6 0.000001 0.000002 -0.000003 0.019338 -0.000001 0.066259
#
#
# Mechanical properties :
#
#
# Convention : Reuss Voigt Hill
#
# Bulk Modulus (GPa) = 58.62989 64.46511 61.54750
# Shear Modulus (GPa) = 24.01971 37.50029 30.76000
#
# Velocity S-wave (km/s) = 3.80461 4.75383 4.30546
# Velocity P-wave (km/s) = 7.39137 8.30546 7.86171
#
# Compressibility (1/GPa) = 0.01705615
#
# Stress axis : x y z
#
# Youngs Moduli (GPa) = 48.84315 64.79257 85.50975
#
# Poissons Ratio (x) = 0.46151 0.45544
# Poissons Ratio (y) = 0.34791 0.24147
# Poissons Ratio (z) = 0.26014 0.18297
#
# Static dielectric constant tensor:
#      x y z
#    x 1.542050 0.000000 -0.011420 
#    y 0.000000 1.558650 0.000000 
#    z -0.011420 0.000000 1.564640 
# 
# From -- ./inp_files/121886.got.cif
#   From: 2010.05.17/outbox.cif.g08.bks.cpg/sg12_61_cif.got.tgz:121886.got - 2010.06.03 13:09:07.
