data_PCOD9187633
_publ_section_title
;
Structure prediction by ZEFSAII (Michael W. Deem and Ramdas Pophale) SiO2 
 PCOD9187633
Probable space group: C 2/M
;
_chemical_formula_sum "Si O2"
_cell_formula_units_Z 48
_cell_length_a 13.596607
_cell_length_b 18.329688
_cell_length_c 12.406669
_cell_angle_alpha 90.000000
_cell_angle_beta 50.095928
_cell_angle_gamma 90.000000
_cell_volume 2371.940939
_symmetry_space_group_name_H-M "C 2/M"
_symmetry_group_IT_number 12
_symmetry_cell_setting 'monoclinic'
loop_
_space_group_symop_operation_xyz
x,y,z
-x,y,-z
-x,-y,-z
x,-y,z
1/2+x,1/2+y,z
1/2-x,1/2+y,-z
1/2-x,1/2-y,-z
1/2+x,1/2-y,z
loop_
_atom_site_type_symbol
_atom_site_label
_atom_site_fract_x
_atom_site_fract_y
_atom_site_fract_z
Si Si1 0.015782 0.873817 0.113188
Si Si2 0.197325 0.134436 0.566487
Si Si3 0.357515 0.416559 0.618551
Si Si4 0.942927 0.279721 0.423772
Si Si5 0.606132 0.218103 0.102259
Si Si6 0.766535 0.413873 0.076441
O O1 0.024155 0.784730 0.110149
O O2 0.896779 0.895162 0.274525
O O3 0.145932 0.903132 0.078836
O O4 0.000000 0.896823 0.000000
O O5 0.208909 0.087189 0.450128
O O6 0.129732 0.208287 0.569750
O O7 0.337117 0.156964 0.506887
O O8 0.500000 0.387172 0.500000
O O9 0.375727 0.500000 0.640086
O O10 0.283348 0.384279 0.772121
O O11 0.000000 0.268101 0.500000
O O12 0.052492 0.294793 0.259338
O O13 0.618260 0.139688 0.037507
O O14 0.750000 0.250000 0.000000
O O15 0.799886 0.500000 0.056717
#
# Coordination Sequence:
#
# PCOD9187633 Si02
#       6
#     8   8   8   8   8   8
#     4  10  21  35  57  90 122 152 193 244 301 356
#     4  10  21  35  58  89 116 150 190 245 292 348
#     4  10  19  35  60  86 116 148 191 245 292 345
#     4  10  22  36  59  85 117 155 193 239 295 350
#     4   9  21  37  55  83 115 157 193 242 289 351
#     4  10  21  37  61  87 116 159 199 244 299 346
#
# _framework density 20.236591000000001
#
# number of rings (size 3 to 8) (size 9 to 14) (size 15 to 20)
#    0.000    2.167    1.667    0.500    9.333    3.000 
#    0.000    0.833    0.000    3.500    0.000    0.000 
#    0.000    0.000    0.000    0.000    0.000    0.000 
#
# Total GULP energy -133814.404108 kJ/mol
# GULP energy per Si atom -5575.600171 kJ/mol
# Density = 2.019053 g / cm^3
# Si number density = 20.236591 Si / 1000 Ang^3
#
#
#
# Elastic Constant Matrix: (Units=GPa)
#
#
# Indices 1 2 3 4 5 6 
#
# 1 58.9749 -5.2879 31.5918 0.0000 17.8920 0.0000
# 2 -5.2879 66.2846 20.2985 0.0000 -0.7681 0.0000
# 3 31.5918 20.2985 134.6523 0.0000 23.8732 0.0000
# 4 0.0000 0.0000 0.0000 -9.3059 0.0000 20.0944
# 5 17.8920 -0.7681 23.8732 0.0000 33.0709 0.0000
# 6 0.0000 0.0000 0.0000 20.0944 0.0000 9.6287
#
#
#
# Elastic Compliance Matrix: (Units=1/GPa)
#
#
# Indices 1 2 3 4 5 6 
#
# 1 0.022098 0.002893 -0.004029 0.000000 -0.008980 0.000000
# 2 0.002893 0.016362 -0.003366 0.000000 0.001245 0.000000
# 3 -0.004029 -0.003366 0.009755 0.000000 -0.004941 0.000000
# 4 0.000000 0.000000 0.000000 -0.019516 0.000000 0.040727
# 5 -0.008980 0.001245 -0.004941 0.000000 0.038692 0.000000
# 6 0.000000 0.000000 0.000000 0.040727 0.000000 0.018861
#
#
# Mechanical properties :
#
#
# Convention : Reuss Voigt Hill
#
# Bulk Modulus (GPa) = 25.50256 39.23518 32.36887
# Shear Modulus (GPa) = 46.15621 20.89937 33.52779
#
# Velocity S-wave (km/s) = 4.78098 3.21713 4.07478
# Velocity P-wave (km/s) = 6.56556 5.76457 6.17806
#
# Compressibility (1/GPa) = 0.03921174
#
# Stress axis : x y z
#
# Youngs Moduli (GPa) = 45.25259 61.11570 102.51097
#
# Poissons Ratio (x) = -0.17678 0.41297
# Poissons Ratio (y) = -0.13089 0.34505
# Poissons Ratio (z) = 0.18230 0.20571
#
# Static dielectric constant tensor:
#      x y z
#    x 1.940220 0.000000 0.059000 
#    y 0.000000 1.768950 0.000000 
#    z 0.059000 0.000000 1.744820 
# 
# From -- ./inp_files/146922.got.cif
#   From: 2010.05.17/outbox.cif.g08.bks.cpg/sg12_74_cif.got.tgz:146922.got - 2010.06.03 13:09:07.
