data_PCOD9187670
_publ_section_title
;
Structure prediction by ZEFSAII (Michael W. Deem and Ramdas Pophale) SiO2 
 PCOD9187670
Probable space group: C 2/M
;
_chemical_formula_sum "Si O2"
_cell_formula_units_Z 64
_cell_length_a 15.751653
_cell_length_b 17.525785
_cell_length_c 11.999554
_cell_angle_alpha 90.000000
_cell_angle_beta 85.825512
_cell_angle_gamma 90.000000
_cell_volume 3303.809525
_symmetry_space_group_name_H-M "C 2/M"
_symmetry_group_IT_number 12
_symmetry_cell_setting 'monoclinic'
loop_
_space_group_symop_operation_xyz
x,y,z
-x,y,-z
-x,-y,-z
x,-y,z
1/2+x,1/2+y,z
1/2-x,1/2+y,-z
1/2-x,1/2-y,-z
1/2+x,1/2-y,z
loop_
_atom_site_type_symbol
_atom_site_label
_atom_site_fract_x
_atom_site_fract_y
_atom_site_fract_z
Si Si1 0.688376 0.410182 0.541861
Si Si2 0.876257 0.591774 0.560676
Si Si3 0.916414 0.909468 0.085761
Si Si4 0.232796 0.907260 0.065610
Si Si5 0.077284 0.592186 0.914642
Si Si6 0.860563 0.090148 0.699330
Si Si7 0.034897 0.649322 0.672506
Si Si8 0.541537 0.330442 0.687894
O O1 0.674694 0.500000 0.567362
O O2 0.778095 0.386015 0.585570
O O3 0.693293 0.402214 0.408058
O O4 0.608847 0.363810 0.594219
O O5 0.881358 0.500000 0.560656
O O6 0.908707 0.619996 0.436851
O O7 0.939579 0.623866 0.647701
O O8 0.929029 0.860181 0.194265
O O9 0.909761 0.000000 0.114690
O O10 0.832323 0.885693 0.025739
O O11 0.000000 0.901681 0.000000
O O12 0.330249 0.880857 0.051114
O O13 0.191107 0.884349 0.187308
O O14 0.234370 0.000000 0.065117
O O15 0.077466 0.500000 0.919060
O O16 0.063131 0.615363 0.787939
O O17 0.000000 0.619861 0.000000
O O18 0.948111 0.135081 0.677901
O O19 0.881159 0.000000 0.711724
O O20 0.039342 0.740026 0.679370
#
# Coordination Sequence:
#
# PCOD9187670 Si02
#       8
#     8   8   8   8   8   8   8   8
#     4  10  22  38  62  92 121 155 204 255 300 351
#     4  10  22  44  69  88 111 159 217 258 291 355
#     4  10  19  36  59  83 116 162 210 247 284 354
#     4   9  18  35  63  91 110 149 207 249 294 348
#     4  10  21  40  65  89 115 150 204 267 303 342
#     4  10  19  35  60  88 121 160 199 241 295 365
#     4  11  24  40  60  89 122 161 199 242 311 373
#     4  12  24  36  55  89 131 162 191 244 312 368
#
# _framework density 19.371576999999998
#
# number of rings (size 3 to 8) (size 9 to 14) (size 15 to 20)
#    0.000    1.750    1.250    3.750    3.500    5.000 
#    2.250    3.125    0.000    0.000    0.000    0.000 
#    0.000    0.000    0.000    0.000    0.000    0.000 
#
# Total GULP energy -178791.505262 kJ/mol
# GULP energy per Si atom -5587.234539 kJ/mol
# Density = 1.932749 g / cm^3
# Si number density = 19.371577 Si / 1000 Ang^3
#
#
#
# Elastic Constant Matrix: (Units=GPa)
#
#
# Indices 1 2 3 4 5 6 
#
# 1 142.9037 32.7411 24.1741 0.0000 16.3831 0.0000
# 2 32.7411 50.0961 20.6017 0.0000 3.5963 0.0000
# 3 24.1741 20.6017 54.1839 0.0000 18.1591 0.0000
# 4 0.0000 0.0000 0.0000 -7.2041 0.0000 5.5595
# 5 16.3831 3.5963 18.1591 0.0000 24.3000 0.0000
# 6 0.0000 0.0000 0.0000 5.5595 0.0000 -19.2784
#
#
#
# Elastic Compliance Matrix: (Units=1/GPa)
#
#
# Indices 1 2 3 4 5 6 
#
# 1 0.008827 -0.005308 -0.000252 0.000000 -0.004978 0.000000
# 2 -0.005308 0.027195 -0.010436 0.000000 0.007353 0.000000
# 3 -0.000252 -0.010436 0.029299 0.000000 -0.020181 0.000000
# 4 0.000000 0.000000 0.000000 -0.178545 0.000000 -0.051489
# 5 -0.004978 0.007353 -0.020181 0.000000 0.058501 0.000000
# 6 0.000000 0.000000 0.000000 -0.051489 0.000000 -0.066720
#
#
# Mechanical properties :
#
#
# Convention : Reuss Voigt Hill
#
# Bulk Modulus (GPa) = 30.00348 44.69084 37.34716
# Shear Modulus (GPa) = -63.82267 10.87462 -26.47403
#
# Velocity S-wave (km/s) = -5.74614 2.37190 -3.70082
# Velocity P-wave (km/s) = 5.33873 5.53368 1.02944
#
# Compressibility (1/GPa) = 0.03332946
#
# Stress axis : x y z
#
# Youngs Moduli (GPa) = 113.28687 36.77181 34.13056
#
# Poissons Ratio (x) = 0.19519 0.00859
# Poissons Ratio (y) = 0.60136 0.35618
# Poissons Ratio (z) = 0.02852 0.38374
#
# Static dielectric constant tensor:
#      x y z
#    x 1.682930 0.000000 0.005230 
#    y 0.000000 1.646880 0.000000 
#    z 0.005230 0.000000 1.663340 
# 
# From -- ./inp_files/146137.got.cif
#   From: 2010.05.17/outbox.cif.g08.bks.cpg/sg12_74_cif.got.tgz:146137.got - 2010.06.03 13:09:07.
