data_PCOD9187839
_publ_section_title
;
Structure prediction by ZEFSAII (Michael W. Deem and Ramdas Pophale) SiO2 
 PCOD9187839
Probable space group: C 2/M
;
_chemical_formula_sum "Si O2"
_cell_formula_units_Z 40
_cell_length_a 9.169336
_cell_length_b 19.491074
_cell_length_c 10.021760
_cell_angle_alpha 90.000000
_cell_angle_beta 78.462940
_cell_angle_gamma 90.000000
_cell_volume 1754.902998
_symmetry_space_group_name_H-M "C 2/M"
_symmetry_group_IT_number 12
_symmetry_cell_setting 'monoclinic'
loop_
_space_group_symop_operation_xyz
x,y,z
-x,y,-z
-x,-y,-z
x,-y,z
1/2+x,1/2+y,z
1/2-x,1/2+y,-z
1/2-x,1/2-y,-z
1/2+x,1/2-y,z
loop_
_atom_site_type_symbol
_atom_site_label
_atom_site_fract_x
_atom_site_fract_y
_atom_site_fract_z
Si Si1 0.181086 0.578010 0.572526
Si Si2 0.235789 0.286287 0.862053
Si Si3 0.457985 0.184207 0.748564
Si Si4 0.617476 0.578469 0.215112
Si Si5 0.226547 0.921721 0.753688
O O1 0.117824 0.500000 0.606722
O O2 0.326850 0.581609 0.640670
O O3 0.224449 0.582906 0.410735
O O4 0.069404 0.639640 0.633297
O O5 0.348916 0.248393 0.736310
O O6 0.281665 0.364883 0.870254
O O7 0.070525 0.285320 0.835539
O O8 0.250000 0.250000 0.000000
O O9 0.337165 0.127274 0.811865
O O10 0.640630 0.500000 0.167474
O O11 0.447003 0.596736 0.216858
O O12 0.240257 0.000000 0.795276
#
# Coordination Sequence:
#
# PCOD9187839 Si02
#       5
#     8   8   8   8   8
#     4   9  18  35  60  91 128 164 193 232 290 355
#     4  11  24  43  62  82 115 156 201 258 313 348
#     4  11  22  37  59  85 115 156 201 243 297 362
#     4   9  19  38  64  92 120 156 203 243 285 354
#     4  10  19  35  61  93 129 161 191 235 292 356
#
# _framework density 22.793282000000001
#
# number of rings (size 3 to 8) (size 9 to 14) (size 15 to 20)
#    0.000    2.000    0.000    3.600    0.000    4.800 
#    0.000   20.000    0.000   13.200    0.000    0.000 
#    0.000    0.000    0.000    0.000    0.000    0.000 
#
# Total GULP energy -111626.704533 kJ/mol
# GULP energy per Si atom -5581.335227 kJ/mol
# Density = 2.274140 g / cm^3
# Si number density = 22.793282 Si / 1000 Ang^3
#
#
#
# Elastic Constant Matrix: (Units=GPa)
#
#
# Indices 1 2 3 4 5 6 
#
# 1 165.9187 49.8849 2.3148 0.0000 18.8974 0.0000
# 2 49.8849 75.2383 14.7203 0.0000 6.1058 0.0000
# 3 2.3148 14.7203 40.4542 0.0000 4.2652 0.0000
# 4 0.0000 0.0000 0.0000 15.7571 0.0000 2.2531
# 5 18.8974 6.1058 4.2652 0.0000 20.7754 0.0000
# 6 0.0000 0.0000 0.0000 2.2531 0.0000 50.5966
#
#
#
# Elastic Compliance Matrix: (Units=1/GPa)
#
#
# Indices 1 2 3 4 5 6 
#
# 1 0.008372 -0.005455 0.002187 0.000000 -0.006462 0.000000
# 2 -0.005455 0.018076 -0.006366 0.000000 0.000956 0.000000
# 3 0.002187 -0.006366 0.027519 0.000000 -0.005768 0.000000
# 4 0.000000 0.000000 0.000000 0.063870 0.000000 -0.002844
# 5 -0.006462 0.000956 -0.005768 0.000000 0.054915 0.000000
# 6 0.000000 0.000000 0.000000 -0.002844 0.000000 0.019891
#
#
# Mechanical properties :
#
#
# Convention : Reuss Voigt Hill
#
# Bulk Modulus (GPa) = 28.81885 46.16126 37.49005
# Shear Modulus (GPa) = 22.37377 31.73857 27.05617
#
# Velocity S-wave (km/s) = 3.13644 3.73561 3.44906
# Velocity P-wave (km/s) = 5.07813 6.23718 5.68726
#
# Compressibility (1/GPa) = 0.03469951
#
# Stress axis : x y z
#
# Youngs Moduli (GPa) = 119.43919 55.32329 36.33892
#
# Poissons Ratio (x) = 0.30177 -0.07947
# Poissons Ratio (y) = 0.65150 0.23133
# Poissons Ratio (z) = -0.26121 0.35219
#
# Static dielectric constant tensor:
#      x y z
#    x 1.839440 0.000000 0.015310 
#    y 0.000000 1.881650 0.000000 
#    z 0.015310 0.000000 1.889880 
# 
# From -- ./inp_files/118919.got.cif
#   From: 2010.05.17/outbox.cif.g08.bks.cpg/sg12_60_cif.got.tgz:118919.got - 2010.06.03 13:09:07.
