data_PCOD9187890
_publ_section_title
;
Structure prediction by ZEFSAII (Michael W. Deem and Ramdas Pophale) SiO2 
 PCOD9187890
Probable space group: C 2/M
;
_chemical_formula_sum "Si O2"
_cell_formula_units_Z 40
_cell_length_a 17.594122
_cell_length_b 25.812708
_cell_length_c 8.289300
_cell_angle_alpha 90.000000
_cell_angle_beta 147.836177
_cell_angle_gamma 90.000000
_cell_volume 2004.055095
_symmetry_space_group_name_H-M "C 2/M"
_symmetry_group_IT_number 12
_symmetry_cell_setting 'monoclinic'
loop_
_space_group_symop_operation_xyz
x,y,z
-x,y,-z
-x,-y,-z
x,-y,z
1/2+x,1/2+y,z
1/2-x,1/2+y,-z
1/2-x,1/2-y,-z
1/2+x,1/2-y,z
loop_
_atom_site_type_symbol
_atom_site_label
_atom_site_fract_x
_atom_site_fract_y
_atom_site_fract_z
Si Si1 0.455942 0.112978 0.234268
Si Si2 0.062258 0.500000 0.928847
Si Si3 0.672120 0.500000 0.825247
Si Si4 0.834425 0.112969 0.152190
Si Si5 0.567314 0.218019 0.295195
Si Si6 0.316951 0.279202 0.966620
O O1 0.500000 0.118622 0.500000
O O2 0.532338 0.158293 0.274557
O O3 0.488666 0.054831 0.235871
O O4 0.283953 0.122534 0.921109
O O5 0.231310 0.500000 0.167179
O O6 0.000000 0.500000 0.000000
O O7 0.500000 0.500000 0.500000
O O8 0.704354 0.554286 0.970856
O O9 0.000000 0.113199 0.500000
O O10 0.816847 0.159601 0.997763
O O11 0.726955 0.229339 0.641251
O O12 0.500000 0.226777 0.000000
O O13 0.473386 0.256066 0.236336
O O14 0.250000 0.250000 0.000000
#
# Coordination Sequence:
#
# PCOD9187890 Si02
#       6
#     8   4   4   8   8   8
#     4  11  20  39  61  90 121 164 210 252 303 382
#     4  10  21  35  60  97 130 161 200 267 328 367
#     4   8  18  35  60  93 122 161 214 256 307 380
#     4  10  19  35  62  91 113 154 212 257 293 362
#     4  12  25  40  58  89 127 159 199 264 325 367
#     4  12  22  40  62  87 117 162 214 248 305 382
#
# _framework density 19.959530999999998
#
# number of rings (size 3 to 8) (size 9 to 14) (size 15 to 20)
#    0.000    1.200    4.000    3.300    0.000    0.000 
#    0.000    0.000    0.000    0.000    0.000   13.300 
#    0.000    0.000    0.000    0.000    0.000    0.000 
#
# Total GULP energy -111359.966578 kJ/mol
# GULP energy per Si atom -5567.998329 kJ/mol
# Density = 1.991410 g / cm^3
# Si number density = 19.959531 Si / 1000 Ang^3
#
#
#
# Elastic Constant Matrix: (Units=GPa)
#
#
# Indices 1 2 3 4 5 6 
#
# 1 62.6846 19.7783 25.7744 0.0000 -5.3162 0.0000
# 2 19.7783 109.3558 17.8878 0.0000 7.0657 0.0000
# 3 25.7744 17.8878 100.0488 0.0000 8.0463 0.0000
# 4 0.0000 0.0000 0.0000 28.8982 0.0000 -1.5714
# 5 -5.3162 7.0657 8.0463 0.0000 32.3988 0.0000
# 6 0.0000 0.0000 0.0000 -1.5714 0.0000 26.6965
#
#
#
# Elastic Compliance Matrix: (Units=1/GPa)
#
#
# Indices 1 2 3 4 5 6 
#
# 1 0.019326 -0.003029 -0.004842 0.000000 0.005034 0.000000
# 2 -0.003029 0.009984 -0.000806 0.000000 -0.002474 0.000000
# 3 -0.004842 -0.000806 0.011669 0.000000 -0.003517 0.000000
# 4 0.000000 0.000000 0.000000 0.034715 0.000000 0.002043
# 5 0.005034 -0.002474 -0.003517 0.000000 0.033104 0.000000
# 6 0.000000 0.000000 0.000000 0.002043 0.000000 0.037578
#
#
# Mechanical properties :
#
#
# Convention : Reuss Voigt Hill
#
# Bulk Modulus (GPa) = 42.32541 44.33003 43.32772
# Shear Modulus (GPa) = 29.13636 31.50861 30.32249
#
# Velocity S-wave (km/s) = 3.82484 3.97750 3.90192
# Velocity P-wave (km/s) = 6.38416 6.58424 6.48497
#
# Compressibility (1/GPa) = 0.02362647
#
# Stress axis : x y z
#
# Youngs Moduli (GPa) = 51.74259 100.16127 85.69360
#
# Poissons Ratio (x) = 0.30335 0.41495
# Poissons Ratio (y) = 0.15671 0.06905
# Poissons Ratio (z) = 0.25055 0.08071
#
# Static dielectric constant tensor:
#      x y z
#    x 1.717520 0.000000 0.003160 
#    y 0.000000 1.717890 0.000000 
#    z 0.003160 0.000000 1.646490 
# 
# From -- ./inp_files/79963.got.cif
#   From: 2010.05.17/outbox.cif.g08.bks.cpg/sg12_40_cif.got.tgz:79963.got - 2010.06.03 13:09:07.
