data_PCOD9187470
_publ_section_title
;
Structure prediction by ZEFSAII (Michael W. Deem and Ramdas Pophale) SiO2 
 PCOD9187470
Probable space group: C 2/M
;
_chemical_formula_sum "Si O2"
_cell_formula_units_Z 42
_cell_length_a 16.004734
_cell_length_b 12.750842
_cell_length_c 12.416858
_cell_angle_alpha 90.000000
_cell_angle_beta 49.648365
_cell_angle_gamma 90.000000
_cell_volume 1931.090060
_symmetry_space_group_name_H-M "C 2/M"
_symmetry_group_IT_number 12
_symmetry_cell_setting 'monoclinic'
loop_
_space_group_symop_operation_xyz
x,y,z
-x,y,-z
-x,-y,-z
x,-y,z
1/2+x,1/2+y,z
1/2-x,1/2+y,-z
1/2-x,1/2-y,-z
1/2+x,1/2-y,z
loop_
_atom_site_type_symbol
_atom_site_label
_atom_site_fract_x
_atom_site_fract_y
_atom_site_fract_z
Si Si1 0.324050 0.383765 0.482001
Si Si2 0.350106 0.177225 0.550880
Si Si3 0.099076 0.287531 0.054405
Si Si4 0.118214 0.616906 0.810329
Si Si5 0.500000 0.000000 0.500000
Si Si6 0.268870 0.126153 0.854517
O O1 0.373556 0.500000 0.434101
O O2 0.394332 0.285402 0.463328
O O3 0.254959 0.357967 0.432434
O O4 0.229832 0.382915 0.652220
O O5 0.443563 0.090595 0.471476
O O6 0.307649 0.175984 0.709309
O O7 0.150870 0.335293 0.118180
O O8 0.968311 0.298578 0.161744
O O9 0.134875 0.357530 0.921441
O O10 0.150831 0.173686 0.986817
O O11 0.070494 0.500000 0.836497
O O12 0.272885 0.000000 0.838543
#
# Coordination Sequence:
#
# PCOD9187470 Si02
#       6
#     8   8   8   8   2   8
#     4  10  21  40  64  89 122 164 199 255 313 372
#     4  11  23  38  61  95 122 155 211 252 314 364
#     4  10  21  34  54  84 115 156 193 240 293 348
#     4  10  19  35  59  86 112 150 200 243 284 354
#     4  12  24  40  66  96 116 162 208 262 302 368
#     4  11  21  37  56  82 123 154 195 250 300 357
#
# _framework density 21.749374
#
# number of rings (size 3 to 8) (size 9 to 14) (size 15 to 20)
#    0.000    1.524    3.810    2.286    2.667    0.000 
#    0.000    2.381    2.095    0.000    0.000    0.000 
#    0.000    0.000    0.000    0.000    0.000    0.000 
#
# Total GULP energy -117027.226482 kJ/mol
# GULP energy per Si atom -5572.725071 kJ/mol
# Density = 2.169987 g / cm^3
# Si number density = 21.749374 Si / 1000 Ang^3
#
#
#
# Elastic Constant Matrix: (Units=GPa)
#
#
# Indices 1 2 3 4 5 6 
#
# 1 74.4660 58.0499 21.9029 0.0000 34.3400 0.0000
# 2 58.0499 161.4874 7.1352 0.0000 23.3963 0.0000
# 3 21.9029 7.1352 58.5570 0.0000 28.5636 0.0000
# 4 0.0000 0.0000 0.0000 10.6423 0.0000 3.1223
# 5 34.3400 23.3963 28.5636 0.0000 32.1435 0.0000
# 6 0.0000 0.0000 0.0000 3.1223 0.0000 34.2869
#
#
#
# Elastic Compliance Matrix: (Units=1/GPa)
#
#
# Indices 1 2 3 4 5 6 
#
# 1 0.034163 -0.007261 0.005880 0.000000 -0.036438 0.000000
# 2 -0.007261 0.008746 0.001715 0.000000 -0.000132 0.000000
# 3 0.005880 0.001715 0.032376 0.000000 -0.036301 0.000000
# 4 0.000000 0.000000 0.000000 0.096544 0.000000 -0.008792
# 5 -0.036438 -0.000132 -0.036301 0.000000 0.102393 0.000000
# 6 0.000000 0.000000 0.000000 -0.008792 0.000000 0.029966
#
#
# Mechanical properties :
#
#
# Convention : Reuss Voigt Hill
#
# Bulk Modulus (GPa) = 13.16594 52.07625 32.62109
# Shear Modulus (GPa) = 15.20503 29.24270 22.22387
#
# Velocity S-wave (km/s) = 2.64692 3.67076 3.20005
# Velocity P-wave (km/s) = 3.92533 6.47779 5.35584
#
# Compressibility (1/GPa) = 0.07595357
#
# Stress axis : x y z
#
# Youngs Moduli (GPa) = 29.27112 114.33690 30.88695
#
# Poissons Ratio (x) = 0.83024 -0.18163
# Poissons Ratio (y) = 0.21255 -0.05297
# Poissons Ratio (z) = -0.17213 -0.19608
#
# Static dielectric constant tensor:
#      x y z
#    x 1.772020 0.000000 -0.034070 
#    y 0.000000 1.864300 0.000000 
#    z -0.034070 0.000000 1.851060 
# 
# From -- ./inp_files/142611.got.cif
#   From: 2010.05.17/outbox.cif.g08.bks.cpg/sg12_72_cif.got.tgz:142611.got - 2010.06.03 13:09:07.
