data_PCOD9187185
_publ_section_title
;
Structure prediction by ZEFSAII (Michael W. Deem and Ramdas Pophale) SiO2 
 PCOD9187185
Probable space group: C 2/M
;
_chemical_formula_sum "Si O2"
_cell_formula_units_Z 48
_cell_length_a 22.294018
_cell_length_b 14.006644
_cell_length_c 12.247016
_cell_angle_alpha 90.000000
_cell_angle_beta 141.484078
_cell_angle_gamma 90.000000
_cell_volume 2381.518563
_symmetry_space_group_name_H-M "C 2/M"
_symmetry_group_IT_number 12
_symmetry_cell_setting 'monoclinic'
loop_
_space_group_symop_operation_xyz
x,y,z
-x,y,-z
-x,-y,-z
x,-y,z
1/2+x,1/2+y,z
1/2-x,1/2+y,-z
1/2-x,1/2-y,-z
1/2+x,1/2-y,z
loop_
_atom_site_type_symbol
_atom_site_label
_atom_site_fract_x
_atom_site_fract_y
_atom_site_fract_z
Si Si1 0.900770 0.195552 0.788560
Si Si2 0.354991 0.610434 0.141772
Si Si3 0.561649 0.388665 0.393716
Si Si4 0.768699 0.107231 0.778613
Si Si5 0.383759 0.107663 0.837925
Si Si6 0.231670 0.185278 0.776771
O O1 0.919482 0.159868 0.694809
O O2 0.831671 0.127263 0.760572
O O3 0.858999 0.303764 0.723772
O O4 0.000000 0.198781 0.000000
O O5 0.349963 0.500000 0.170325
O O6 0.463338 0.648408 0.308018
O O7 0.282837 0.667042 0.116573
O O8 0.331701 0.611280 0.979855
O O9 0.544300 0.500000 0.347858
O O10 0.652070 0.375893 0.600304
O O11 0.710237 0.205408 0.711318
O O12 0.725951 0.000000 0.712843
O O13 0.335265 0.147882 0.880494
O O14 0.347726 0.000000 0.764002
O O15 0.500000 0.101504 0.000000
#
# Coordination Sequence:
#
# PCOD9187185 Si02
#       6
#     8   8   8   8   8   8
#     4  10  19  35  58  82 112 147 187 234 284 333
#     4  10  20  36  60  87 114 146 186 232 283 336
#     4  11  22  35  59  90 116 144 183 236 291 336
#     4  10  21  36  57  84 112 150 193 230 275 335
#     4   9  19  35  55  79 112 152 190 226 269 332
#     4  11  22  37  57  85 117 149 184 236 286 332
#
# _framework density 20.155207999999998
#
# number of rings (size 3 to 8) (size 9 to 14) (size 15 to 20)
#    0.000    1.833    1.667    3.000    0.000    4.667 
#    0.000    2.500    0.000    2.000    0.000    0.000 
#    0.000    0.000    0.000    0.000    0.000    0.000 
#
# Total GULP energy -133771.135258 kJ/mol
# GULP energy per Si atom -5573.797302 kJ/mol
# Density = 2.010933 g / cm^3
# Si number density = 20.155208 Si / 1000 Ang^3
#
#
#
# Elastic Constant Matrix: (Units=GPa)
#
#
# Indices 1 2 3 4 5 6 
#
# 1 121.2913 41.8284 14.0457 0.0000 6.3042 0.0000
# 2 41.8284 121.4294 -9.3828 0.0000 -2.6198 0.0000
# 3 14.0457 -9.3828 26.5291 0.0000 -5.2313 0.0000
# 4 0.0000 0.0000 0.0000 8.2736 0.0000 -7.1437
# 5 6.3042 -2.6198 -5.2313 0.0000 20.0769 0.0000
# 6 0.0000 0.0000 0.0000 -7.1437 0.0000 25.2848
#
#
#
# Elastic Compliance Matrix: (Units=1/GPa)
#
#
# Indices 1 2 3 4 5 6 
#
# 1 0.011225 -0.004692 -0.008874 0.000000 -0.006449 0.000000
# 2 -0.004692 0.010503 0.007126 0.000000 0.004700 0.000000
# 3 -0.008874 0.007126 0.048118 0.000000 0.016254 0.000000
# 4 0.000000 0.000000 0.000000 0.159865 0.000000 0.045167
# 5 -0.006449 0.004700 0.016254 0.000000 0.056682 0.000000
# 6 0.000000 0.000000 0.000000 0.045167 0.000000 0.052310
#
#
# Mechanical properties :
#
#
# Convention : Reuss Voigt Hill
#
# Bulk Modulus (GPa) = 17.55418 40.24804 28.90111
# Shear Modulus (GPa) = 13.49260 25.57763 19.53512
#
# Velocity S-wave (km/s) = 2.59015 3.56621 3.11663
# Velocity P-wave (km/s) = 4.20400 6.08026 5.22701
#
# Compressibility (1/GPa) = 0.05696648
#
# Stress axis : x y z
#
# Youngs Moduli (GPa) = 89.08348 95.20766 20.78211
#
# Poissons Ratio (x) = 0.44668 0.18443
# Poissons Ratio (y) = 0.41795 -0.14809
# Poissons Ratio (z) = 0.79055 -0.67842
#
# Static dielectric constant tensor:
#      x y z
#    x 1.721590 0.000000 0.025880 
#    y 0.000000 1.755690 0.000000 
#    z 0.025880 0.000000 1.721070 
# 
# From -- ./inp_files/167537.got.cif
#   From: 2010.05.17/outbox.cif.g08.bks.cpg/sg12_84_cif.got.tgz:167537.got - 2010.06.03 13:09:07.
