data_PCOD9187532
_publ_section_title
;
Structure prediction by ZEFSAII (Michael W. Deem and Ramdas Pophale) SiO2 
 PCOD9187532
Probable space group: C 2/M
;
_chemical_formula_sum "Si O2"
_cell_formula_units_Z 48
_cell_length_a 8.975764
_cell_length_b 23.087597
_cell_length_c 11.901715
_cell_angle_alpha 90.000000
_cell_angle_beta 109.587726
_cell_angle_gamma 90.000000
_cell_volume 2323.647317
_symmetry_space_group_name_H-M "C 2/M"
_symmetry_group_IT_number 12
_symmetry_cell_setting 'monoclinic'
loop_
_space_group_symop_operation_xyz
x,y,z
-x,y,-z
-x,-y,-z
x,-y,z
1/2+x,1/2+y,z
1/2-x,1/2+y,-z
1/2-x,1/2-y,-z
1/2+x,1/2-y,z
loop_
_atom_site_type_symbol
_atom_site_label
_atom_site_fract_x
_atom_site_fract_y
_atom_site_fract_z
Si Si1 0.828568 0.934708 0.495621
Si Si2 0.308215 0.936654 0.786973
Si Si3 0.252562 0.321125 0.562629
Si Si4 0.438549 0.161445 0.101447
Si Si5 0.168848 0.067571 0.983824
Si Si6 0.012672 0.272577 0.338274
O O1 0.738849 0.936270 0.354537
O O2 0.758916 0.890035 0.566623
O O3 0.000000 0.913512 0.500000
O O4 0.841569 0.000000 0.543122
O O5 0.430905 0.886527 0.837174
O O6 0.379648 0.000000 0.828880
O O7 0.171973 0.929745 0.847505
O O8 0.171706 0.306191 0.421563
O O9 0.423693 0.292477 0.626751
O O10 0.129290 0.293014 0.617729
O O11 0.281985 0.121157 0.050356
O O12 0.452213 0.209702 0.200845
O O13 0.500000 0.187536 0.000000
O O14 0.219451 0.000000 0.023334
O O15 0.000000 0.074938 0.000000
#
# Coordination Sequence:
#
# PCOD9187532 Si02
#       6
#     8   8   8   8   8   8
#     4  10  21  36  59  92 126 162 206 259 316 366
#     4   9  17  32  53  80 119 162 204 249 300 367
#     4  10  22  40  63  86 123 162 213 255 305 378
#     4  10  19  35  59  88 121 155 205 253 307 369
#     4   9  18  32  54  85 122 167 208 248 307 371
#     4  10  22  39  62  93 115 165 207 255 311 365
#
# _framework density 20.65718
#
# number of rings (size 3 to 8) (size 9 to 14) (size 15 to 20)
#    0.000    2.333    1.667    0.500    4.667    3.333 
#    0.000    7.500    0.000    0.000    0.000    0.000 
#    0.000    0.667    0.000    0.000    0.000    0.167 
#
# Total GULP energy -133631.145392 kJ/mol
# GULP energy per Si atom -5567.964391 kJ/mol
# Density = 2.061016 g / cm^3
# Si number density = 20.657180 Si / 1000 Ang^3
#
#
#
# Elastic Constant Matrix: (Units=GPa)
#
#
# Indices 1 2 3 4 5 6 
#
# 1 90.3264 35.2097 30.4891 0.0000 -13.0257 0.0000
# 2 35.2097 82.4243 39.6482 0.0000 -12.8531 0.0000
# 3 30.4891 39.6482 80.4700 0.0000 -8.0603 0.0000
# 4 0.0000 0.0000 0.0000 26.2370 0.0000 1.1296
# 5 -13.0257 -12.8531 -8.0603 0.0000 14.2222 0.0000
# 6 0.0000 0.0000 0.0000 1.1296 0.0000 21.3295
#
#
#
# Elastic Compliance Matrix: (Units=1/GPa)
#
#
# Indices 1 2 3 4 5 6 
#
# 1 0.014679 -0.003498 -0.002977 0.000000 0.008596 0.000000
# 2 -0.003498 0.018375 -0.006770 0.000000 0.009565 0.000000
# 3 -0.002977 -0.006770 0.016968 0.000000 0.000771 0.000000
# 4 0.000000 0.000000 0.000000 0.038201 0.000000 -0.002023
# 5 0.008596 0.009565 0.000771 0.000000 0.087266 0.000000
# 6 0.000000 0.000000 0.000000 -0.002023 0.000000 0.046991
#
#
# Mechanical properties :
#
#
# Convention : Reuss Voigt Hill
#
# Bulk Modulus (GPa) = 42.49661 51.54606 47.02133
# Shear Modulus (GPa) = 19.46935 22.21599 20.84267
#
# Velocity S-wave (km/s) = 3.07334 3.28298 3.17989
# Velocity P-wave (km/s) = 5.76289 6.27518 6.02448
#
# Compressibility (1/GPa) = 0.02353129
#
# Stress axis : x y z
#
# Youngs Moduli (GPa) = 68.12458 54.42271 58.93499
#
# Poissons Ratio (x) = 0.19037 0.17546
# Poissons Ratio (y) = 0.23830 0.39898
# Poissons Ratio (z) = 0.20282 0.36843
#
# Static dielectric constant tensor:
#      x y z
#    x 1.737260 0.000000 -0.020860 
#    y 0.000000 1.767500 0.000000 
#    z -0.020860 0.000000 1.938880 
# 
# From -- ./inp_files/122016.got.cif
#   From: 2010.05.17/outbox.cif.g08.bks.cpg/sg12_62_cif.got.tgz:122016.got - 2010.06.03 13:09:07.
