data_PCOD9187870
_publ_section_title
;
Structure prediction by ZEFSAII (Michael W. Deem and Ramdas Pophale) SiO2 
 PCOD9187870
Probable space group: C 2/M
;
_chemical_formula_sum "Si O2"
_cell_formula_units_Z 48
_cell_length_a 14.565279
_cell_length_b 13.882857
_cell_length_c 11.880333
_cell_angle_alpha 90.000000
_cell_angle_beta 113.585065
_cell_angle_gamma 90.000000
_cell_volume 2201.623894
_symmetry_space_group_name_H-M "C 2/M"
_symmetry_group_IT_number 12
_symmetry_cell_setting 'monoclinic'
loop_
_space_group_symop_operation_xyz
x,y,z
-x,y,-z
-x,-y,-z
x,-y,z
1/2+x,1/2+y,z
1/2-x,1/2+y,-z
1/2-x,1/2-y,-z
1/2+x,1/2-y,z
loop_
_atom_site_type_symbol
_atom_site_label
_atom_site_fract_x
_atom_site_fract_y
_atom_site_fract_z
Si Si1 0.696501 0.389326 0.884150
Si Si2 0.108619 0.676475 0.366295
Si Si3 0.736835 0.167734 0.621639
Si Si4 0.360576 0.394324 0.881444
Si Si5 0.096879 0.679974 0.111163
Si Si6 0.434131 0.296326 0.365707
O O1 0.716463 0.500000 0.865503
O O2 0.798845 0.333423 0.903578
O O3 0.603559 0.354988 0.761049
O O4 0.672584 0.384561 0.005024
O O5 0.165965 0.780012 0.382358
O O6 0.172849 0.620264 0.490746
O O7 0.106295 0.635881 0.240017
O O8 0.999608 0.705008 0.356776
O O9 0.769856 0.109487 0.746980
O O10 0.666898 0.254564 0.630562
O O11 0.408686 0.500000 0.889366
O O12 0.418675 0.295768 0.881854
O O13 0.000000 0.641192 0.000000
O O14 0.500000 0.342361 0.500000
#
# Coordination Sequence:
#
# PCOD9187870 Si02
#       6
#     8   8   8   8   8   8
#     4  11  23  39  58  87 124 158 200 244 292 359
#     4   9  18  33  59  89 114 152 199 241 287 359
#     4   9  18  35  58  84 119 155 192 240 294 347
#     4  10  21  37  60  86 117 155 198 244 295 354
#     4  11  22  37  63  88 119 159 197 244 303 350
#     4  10  19  35  62  88 116 157 195 244 299 356
#
# _framework density 21.802088999999999
#
# number of rings (size 3 to 8) (size 9 to 14) (size 15 to 20)
#    0.000    2.000    3.333    1.500    2.333    1.000 
#    0.000    5.833    0.000    4.500    0.000    0.000 
#    0.000    0.000    0.000    0.000    0.000    0.000 
#
# Total GULP energy -133773.651530 kJ/mol
# GULP energy per Si atom -5573.902147 kJ/mol
# Density = 2.175247 g / cm^3
# Si number density = 21.802089 Si / 1000 Ang^3
#
#
#
# Elastic Constant Matrix: (Units=GPa)
#
#
# Indices 1 2 3 4 5 6 
#
# 1 43.2956 -6.3506 23.3917 0.0000 7.1830 0.0000
# 2 -6.3506 53.5395 25.3353 0.0000 9.9048 0.0000
# 3 23.3917 25.3353 216.8700 0.0000 21.2607 0.0000
# 4 0.0000 0.0000 0.0000 -4.9725 0.0000 0.2610
# 5 7.1830 9.9048 21.2607 0.0000 39.8643 0.0000
# 6 0.0000 0.0000 0.0000 0.2610 0.0000 -0.7432
#
#
#
# Elastic Compliance Matrix: (Units=1/GPa)
#
#
# Indices 1 2 3 4 5 6 
#
# 1 0.026256 0.005369 -0.003023 0.000000 -0.004453 0.000000
# 2 0.005369 0.021455 -0.002604 0.000000 -0.004909 0.000000
# 3 -0.003023 -0.002604 0.005407 0.000000 -0.001692 0.000000
# 4 0.000000 0.000000 0.000000 -0.204884 0.000000 -0.071956
# 5 -0.004453 -0.004909 -0.001692 0.000000 0.028010 0.000000
# 6 0.000000 0.000000 0.000000 -0.071956 0.000000 -1.370879
#
#
# Mechanical properties :
#
#
# Convention : Reuss Voigt Hill
#
# Bulk Modulus (GPa) = 19.01069 44.27309 31.64189
# Shear Modulus (GPa) = -3.38619 24.91832 10.76606
#
# Velocity S-wave (km/s) = -1.24761 3.38440 2.22459
# Velocity P-wave (km/s) = 2.58132 5.96851 4.59817
#
# Compressibility (1/GPa) = 0.05260198
#
# Stress axis : x y z
#
# Youngs Moduli (GPa) = 38.08605 46.60887 184.93868
#
# Poissons Ratio (x) = -0.25022 0.55900
# Poissons Ratio (y) = -0.20447 0.48162
# Poissons Ratio (z) = 0.11512 0.12138
#
# Static dielectric constant tensor:
#      x y z
#    x 1.751840 0.000000 0.021690 
#    y 0.000000 1.785100 0.000000 
#    z 0.021690 0.000000 1.889120 
# 
# From -- ./inp_files/143193.got.cif
#   From: 2010.05.17/outbox.cif.g08.bks.cpg/sg12_72_cif.got.tgz:143193.got - 2010.06.03 13:09:07.
