data_PCOD9187009
_publ_section_title
;
Structure prediction by ZEFSAII (Michael W. Deem and Ramdas Pophale) SiO2 
 PCOD9187009
Probable space group: C 2/M
;
_chemical_formula_sum "Si O2"
_cell_formula_units_Z 64
_cell_length_a 31.117650
_cell_length_b 7.585245
_cell_length_c 24.194616
_cell_angle_alpha 90.000000
_cell_angle_beta 149.744969
_cell_angle_gamma 90.000000
_cell_volume 2877.373579
_symmetry_space_group_name_H-M "C 2/M"
_symmetry_group_IT_number 12
_symmetry_cell_setting 'monoclinic'
loop_
_space_group_symop_operation_xyz
x,y,z
-x,y,-z
-x,-y,-z
x,-y,z
1/2+x,1/2+y,z
1/2-x,1/2+y,-z
1/2-x,1/2-y,-z
1/2+x,1/2-y,z
loop_
_atom_site_type_symbol
_atom_site_label
_atom_site_fract_x
_atom_site_fract_y
_atom_site_fract_z
Si Si1 0.216631 0.701915 0.719397
Si Si2 0.688258 0.792067 0.278513
Si Si3 0.035714 0.201406 0.482485
Si Si4 0.334721 0.283500 0.943966
Si Si5 0.342151 0.711196 0.077516
Si Si6 0.806381 0.788459 0.508423
Si Si7 0.489668 0.283533 0.670802
Si Si8 0.498916 0.287883 0.936089
O O1 0.189872 0.500000 0.697626
O O2 0.293267 0.706210 0.760184
O O3 0.137355 0.798974 0.604026
O O4 0.252959 0.773495 0.817312
O O5 0.753850 0.722769 0.396884
O O6 0.591919 0.760830 0.190242
O O7 0.701529 0.000000 0.286273
O O8 0.015864 0.276140 0.399604
O O9 0.000000 0.282646 0.500000
O O10 0.002828 0.000000 0.444635
O O11 0.332477 0.500000 0.940604
O O12 0.339742 0.222817 0.012096
O O13 0.419984 0.225279 0.007537
O O14 0.352203 0.500000 0.086042
O O15 0.422998 0.775289 0.202882
O O16 0.250000 0.750000 0.000000
O O17 0.750000 0.750000 0.500000
O O18 0.904551 0.728320 0.610234
O O19 0.809455 0.000000 0.508321
O O20 0.488770 0.500000 0.668690
O O21 0.503390 0.500000 0.942748
O O22 0.500000 0.220392 0.000000
#
# Coordination Sequence:
#
# PCOD9187009 Si02
#       8
#     8   8   8   8   8   8   8   8
#     4  11  21  37  59  85 117 152 193 239 291 351
#     4  11  22  37  56  83 121 154 189 242 296 344
#     4  10  21  38  61  87 116 149 188 239 298 357
#     4   9  20  37  57  83 116 153 192 238 287 345
#     4  10  22  41  63  84 112 153 198 244 293 343
#     4  10  22  39  59  84 117 154 195 241 288 350
#     4   9  19  39  61  84 116 153 192 234 290 353
#     4  10  19  35  57  82 114 152 194 232 279 350
#
# _framework density 22.242507
#
# number of rings (size 3 to 8) (size 9 to 14) (size 15 to 20)
#    0.000    2.000    2.500    0.750    3.500    1.500 
#    0.000    2.500    0.000    0.000    0.000    0.000 
#    0.000    0.000    0.000    0.000    0.000    0.000 
#
# Total GULP energy -178722.775646 kJ/mol
# GULP energy per Si atom -5585.086739 kJ/mol
# Density = 2.219188 g / cm^3
# Si number density = 22.242507 Si / 1000 Ang^3
#
#
#
# Elastic Constant Matrix: (Units=GPa)
#
#
# Indices 1 2 3 4 5 6 
#
# 1 165.8429 3.1329 80.7092 0.0000 -18.0002 0.0000
# 2 3.1329 52.8725 3.1116 0.0000 -4.8287 0.0000
# 3 80.7092 3.1116 180.1796 0.0000 -20.8923 0.0000
# 4 0.0000 0.0000 0.0000 13.6945 0.0000 10.4101
# 5 -18.0002 -4.8287 -20.8923 0.0000 31.5246 0.0000
# 6 0.0000 0.0000 0.0000 10.4101 0.0000 11.2929
#
#
#
# Elastic Compliance Matrix: (Units=1/GPa)
#
#
# Indices 1 2 3 4 5 6 
#
# 1 0.007867 -0.000062 -0.003253 0.000000 0.002326 0.000000
# 2 -0.000062 0.019182 0.000036 0.000000 0.002926 0.000000
# 3 -0.003253 0.000036 0.007357 0.000000 0.003024 0.000000
# 4 0.000000 0.000000 0.000000 0.244011 0.000000 -0.224937
# 5 0.002326 0.002926 0.003024 0.000000 0.035502 0.000000
# 6 0.000000 0.000000 0.000000 -0.224937 0.000000 0.295905
#
#
# Mechanical properties :
#
#
# Convention : Reuss Voigt Hill
#
# Bulk Modulus (GPa) = 35.90978 63.64472 49.77725
# Shear Modulus (GPa) = 7.99150 32.09848 20.04499
#
# Velocity S-wave (km/s) = 1.89755 3.80296 3.00526
# Velocity P-wave (km/s) = 4.58046 6.92527 5.87112
#
# Compressibility (1/GPa) = 0.02784757
#
# Stress axis : x y z
#
# Youngs Moduli (GPa) = 127.12088 52.13145 135.92279
#
# Poissons Ratio (x) = 0.00324 0.44214
# Poissons Ratio (y) = 0.00791 -0.00488
# Poissons Ratio (z) = 0.41351 -0.00187
#
# Static dielectric constant tensor:
#      x y z
#    x 1.821060 0.000000 0.004110 
#    y 0.000000 1.863190 0.000000 
#    z 0.004110 0.000000 1.809210 
# 
# From -- ./inp_files/353564.got.cif
#   From: 2010.05.17/outbox.cif.g08.bks.cpg/sg12_177_cif.got.tgz:353564.got - 2010.06.03 13:09:07.
