data_PCOD9187386
_publ_section_title
;
Structure prediction by ZEFSAII (Michael W. Deem and Ramdas Pophale) SiO2 
 PCOD9187386
Probable space group: C 2/M
;
_chemical_formula_sum "Si O2"
_cell_formula_units_Z 56
_cell_length_a 19.513334
_cell_length_b 8.333939
_cell_length_c 21.760499
_cell_angle_alpha 90.000000
_cell_angle_beta 58.000952
_cell_angle_gamma 90.000000
_cell_volume 3001.066633
_symmetry_space_group_name_H-M "C 2/M"
_symmetry_group_IT_number 12
_symmetry_cell_setting 'monoclinic'
loop_
_space_group_symop_operation_xyz
x,y,z
-x,y,-z
-x,-y,-z
x,-y,z
1/2+x,1/2+y,z
1/2-x,1/2+y,-z
1/2-x,1/2-y,-z
1/2+x,1/2-y,z
loop_
_atom_site_type_symbol
_atom_site_label
_atom_site_fract_x
_atom_site_fract_y
_atom_site_fract_z
Si Si1 0.524425 0.679962 0.175862
Si Si2 0.538130 0.808796 0.918348
Si Si3 0.214572 0.194862 0.795277
Si Si4 0.502890 0.808228 0.569393
Si Si5 0.338436 0.694081 0.440596
Si Si6 0.894329 0.693517 0.738008
Si Si7 0.838954 0.818686 0.304798
O O1 0.556475 0.500000 0.152595
O O2 0.519617 0.765464 0.112059
O O3 0.565834 0.755008 0.216348
O O4 0.429643 0.670258 0.237214
O O5 0.630016 0.746513 0.865708
O O6 0.543499 0.000000 0.918417
O O7 0.500000 0.747277 0.000000
O O8 0.300274 0.244900 0.782277
O O9 0.211889 0.256248 0.725888
O O10 0.213027 0.000000 0.793960
O O11 0.500000 0.746642 0.500000
O O12 0.592135 0.769532 0.551194
O O13 0.442157 0.749085 0.653262
O O14 0.489780 0.000000 0.572347
O O15 0.347030 0.500000 0.438524
O O16 0.250000 0.750000 0.500000
O O17 0.346671 0.757412 0.367149
O O18 0.896467 0.500000 0.734729
O O19 0.806650 0.000000 0.329945
#
# Coordination Sequence:
#
# PCOD9187386 Si02
#       7
#     8   8   8   8   8   8   8
#     4  10  19  35  59  83 109 146 186 224 273 332
#     4  10  21  38  60  87 117 145 180 229 277 327
#     4   9  19  35  57  84 112 146 185 226 276 332
#     4  10  22  38  57  80 110 151 192 234 287 339
#     4  11  22  36  54  77 109 144 187 238 285 334
#     4  10  20  35  57  84 114 147 188 234 278 331
#     4   8  16  32  53  74 101 138 181 229 273 320
#
# _framework density 18.660031
#
# number of rings (size 3 to 8) (size 9 to 14) (size 15 to 20)
#    0.000    2.286    1.429    2.143    2.000    2.000 
#    0.000    1.429    0.000    0.000    0.000    0.000 
#    0.000    0.000    0.000    0.000    0.000    0.000 
#
# Total GULP energy -155869.433326 kJ/mol
# GULP energy per Si atom -5566.765476 kJ/mol
# Density = 1.861756 g / cm^3
# Si number density = 18.660031 Si / 1000 Ang^3
#
#
#
# Elastic Constant Matrix: (Units=GPa)
#
#
# Indices 1 2 3 4 5 6 
#
# 1 138.8547 13.2171 68.1249 0.0000 14.3942 0.0004
# 2 13.2171 17.3843 11.6151 0.0001 3.9805 0.0009
# 3 68.1249 11.6151 122.7548 0.0000 25.4052 0.0000
# 4 0.0000 0.0001 0.0000 10.5508 -0.0001 -1.1856
# 5 14.3942 3.9805 25.4052 -0.0001 26.3198 0.0000
# 6 0.0004 0.0009 0.0000 -1.1856 0.0000 24.8300
#
#
#
# Elastic Compliance Matrix: (Units=1/GPa)
#
#
# Indices 1 2 3 4 5 6 
#
# 1 0.010181 -0.004250 -0.005284 0.000000 0.000175 0.000000
# 2 -0.004250 0.063628 -0.002689 -0.000001 -0.004703 -0.000002
# 3 -0.005284 -0.002689 0.013310 0.000000 -0.009551 0.000000
# 4 0.000000 -0.000001 0.000000 0.095291 0.000000 0.004550
# 5 0.000175 -0.004703 -0.009551 0.000000 0.047829 0.000000
# 6 0.000000 -0.000002 0.000000 0.004550 0.000000 0.040491
#
#
# Mechanical properties :
#
#
# Convention : Reuss Voigt Hill
#
# Bulk Modulus (GPa) = 15.95583 51.65644 33.80614
# Shear Modulus (GPa) = 15.81957 24.74257 20.28107
#
# Velocity S-wave (km/s) = 2.91482 3.64533 3.30035
# Velocity P-wave (km/s) = 4.46067 6.74247 5.71658
#
# Compressibility (1/GPa) = 0.06267301
#
# Stress axis : x y z
#
# Youngs Moduli (GPa) = 98.22604 15.71647 75.13227
#
# Poissons Ratio (x) = 0.06679 0.39701
# Poissons Ratio (y) = 0.41745 0.20199
# Poissons Ratio (z) = 0.51904 0.04225
#
# Static dielectric constant tensor:
#      x y z
#    x 1.635020 0.000000 0.033490 
#    y 0.000000 1.674690 0.000000 
#    z 0.033490 0.000000 1.663750 
# 
# From -- ./inp_files/275646.got.cif
#   From: 2010.05.17/outbox.cif.g08.bks.cpg/sg12_138_cif.got.tgz:275646.got - 2010.06.03 13:09:07.
