data_PCOD9187970
_publ_section_title
;
Structure prediction by ZEFSAII (Michael W. Deem and Ramdas Pophale) SiO2 
 PCOD9187970
Probable space group: C 2/M
;
_chemical_formula_sum "Si O2"
_cell_formula_units_Z 32
_cell_length_a 19.898169
_cell_length_b 16.001511
_cell_length_c 5.137059
_cell_angle_alpha 90.000000
_cell_angle_beta 74.120273
_cell_angle_gamma 90.000000
_cell_volume 1573.224415
_symmetry_space_group_name_H-M "C 2/M"
_symmetry_group_IT_number 12
_symmetry_cell_setting 'monoclinic'
loop_
_space_group_symop_operation_xyz
x,y,z
-x,y,-z
-x,-y,-z
x,-y,z
1/2+x,1/2+y,z
1/2-x,1/2+y,-z
1/2-x,1/2-y,-z
1/2+x,1/2-y,z
loop_
_atom_site_type_symbol
_atom_site_label
_atom_site_fract_x
_atom_site_fract_y
_atom_site_fract_z
Si Si1 0.450646 0.500000 0.298840
Si Si2 0.826344 0.750544 0.797069
Si Si3 0.500000 0.798900 0.000000
Si Si4 0.390088 0.321882 0.251981
Si Si5 0.077252 0.402643 0.284252
O O1 0.500000 0.500000 0.500000
O O2 0.406295 0.416283 0.309746
O O3 0.500000 0.500000 0.000000
O O4 0.830347 0.794214 0.513876
O O5 0.860720 0.659523 0.702336
O O6 0.750000 0.750000 0.000000
O O7 0.871969 0.800509 0.969889
O O8 0.459610 0.734614 0.232772
O O9 0.559707 0.863513 0.022435
O O10 0.095158 0.500000 0.270941
O O11 0.000000 0.393368 0.500000
#
# Coordination Sequence:
#
# PCOD9187970 Si02
#       5
#     4   8   4   8   8
#     4  12  24  38  64 102 134 162 219 278 324 383
#     4  11  24  44  65  89 131 171 213 259 330 395
#     4  10  19  35  64  88 126 150 212 255 329 368
#     4  11  23  40  65  92 125 172 210 263 322 387
#     4  10  20  36  61  92 119 157 208 264 312 370
#
# _framework density 20.340391
#
# number of rings (size 3 to 8) (size 9 to 14) (size 15 to 20)
#    0.000    1.250    3.750    2.625    3.500    0.000 
#    4.500    0.000    0.000    0.000    0.000    0.000 
#    0.000    0.000    0.000    0.000    0.000    0.000 
#
# Total GULP energy -89074.818596 kJ/mol
# GULP energy per Si atom -5567.176162 kJ/mol
# Density = 2.029410 g / cm^3
# Si number density = 20.340391 Si / 1000 Ang^3
#
#
#
# Elastic Constant Matrix: (Units=GPa)
#
#
# Indices 1 2 3 4 5 6 
#
# 1 50.9086 36.9045 8.9924 0.0000 -16.5065 0.0000
# 2 36.9045 184.9142 28.2425 0.0000 -14.6234 0.0000
# 3 8.9924 28.2425 93.2607 0.0000 -19.1837 0.0000
# 4 0.0000 0.0000 0.0000 21.9647 0.0000 -0.8926
# 5 -16.5065 -14.6234 -19.1837 0.0000 47.3844 0.0000
# 6 0.0000 0.0000 0.0000 -0.8926 0.0000 13.9591
#
#
#
# Elastic Compliance Matrix: (Units=1/GPa)
#
#
# Indices 1 2 3 4 5 6 
#
# 1 0.025305 -0.004524 0.000497 0.000000 0.007620 0.000000
# 2 -0.004524 0.006537 -0.001585 0.000000 -0.000200 0.000000
# 3 0.000497 -0.001585 0.012097 0.000000 0.004582 0.000000
# 4 0.000000 0.000000 0.000000 0.045646 0.000000 0.002919
# 5 0.007620 -0.000200 0.004582 0.000000 0.025552 0.000000
# 6 0.000000 0.000000 0.000000 0.002919 0.000000 0.071824
#
#
# Mechanical properties :
#
#
# Convention : Reuss Voigt Hill
#
# Bulk Modulus (GPa) = 30.56450 53.04026 41.80238
# Shear Modulus (GPa) = 23.91326 33.65792 28.78559
#
# Velocity S-wave (km/s) = 3.43250 4.07225 3.76599
# Velocity P-wave (km/s) = 5.54694 6.94579 6.28540
#
# Compressibility (1/GPa) = 0.03271770
#
# Stress axis : x y z
#
# Youngs Moduli (GPa) = 39.51739 152.97701 82.66514
#
# Poissons Ratio (x) = 0.69202 -0.04112
# Poissons Ratio (y) = 0.17876 0.13099
# Poissons Ratio (z) = -0.01966 0.24240
#
# Static dielectric constant tensor:
#      x y z
#    x 1.830520 0.000000 0.071690 
#    y 0.000000 1.701260 0.000000 
#    z 0.071690 0.000000 1.800050 
# 
# From -- ./inp_files/14340.got.cif
#   From: 2010.05.17/outbox.cif.g08.bks.cpg/sg12_8_cif.got.tgz:14340.got - 2010.06.03 13:09:07.
