data_PCOD9187423
_publ_section_title
;
Structure prediction by ZEFSAII (Michael W. Deem and Ramdas Pophale) SiO2 
 PCOD9187423
Probable space group: C 2/M
;
_chemical_formula_sum "Si O2"
_cell_formula_units_Z 48
_cell_length_a 25.433505
_cell_length_b 9.089143
_cell_length_c 14.716579
_cell_angle_alpha 90.000000
_cell_angle_beta 54.769883
_cell_angle_gamma 90.000000
_cell_volume 2778.906693
_symmetry_space_group_name_H-M "C 2/M"
_symmetry_group_IT_number 12
_symmetry_cell_setting 'monoclinic'
loop_
_space_group_symop_operation_xyz
x,y,z
-x,y,-z
-x,-y,-z
x,-y,z
1/2+x,1/2+y,z
1/2-x,1/2+y,-z
1/2-x,1/2-y,-z
1/2+x,1/2-y,z
loop_
_atom_site_type_symbol
_atom_site_label
_atom_site_fract_x
_atom_site_fract_y
_atom_site_fract_z
Si Si1 0.933465 0.323442 0.617734
Si Si2 0.128936 0.675775 0.615274
Si Si3 0.821471 0.176007 0.614759
Si Si4 0.562176 0.324004 0.999390
Si Si5 0.674046 0.823643 0.774086
Si Si6 0.523190 0.175943 0.224492
O O1 0.925562 0.500000 0.616431
O O2 0.874101 0.243768 0.629694
O O3 0.942340 0.287959 0.714954
O O4 0.000000 0.284991 0.500000
O O5 0.136103 0.500000 0.593746
O O6 0.163987 0.760554 0.499701
O O7 0.156106 0.712403 0.687547
O O8 0.052776 0.709579 0.689656
O O9 0.748560 0.214053 0.715324
O O10 0.826871 0.000000 0.607352
O O11 0.566062 0.500000 0.998640
O O12 0.625015 0.257592 0.889195
O O13 0.500000 0.282996 0.000000
O O14 0.551402 0.259322 0.110128
O O15 0.665984 0.000000 0.792378
O O16 0.528237 0.000000 0.204826
#
# Coordination Sequence:
#
# PCOD9187423 Si02
#       6
#     8   8   8   8   8   8
#     4  10  20  38  60  83 111 149 196 232 271 337
#     4  10  19  35  59  84 114 152 188 229 278 337
#     4  11  23  36  55  87 120 150 186 234 286 334
#     4  11  23  37  57  87 118 146 184 236 287 334
#     4  10  22  39  58  82 115 155 194 226 276 345
#     4  10  20  36  61  86 110 148 193 232 274 333
#
# _framework density 17.272981000000001
#
# number of rings (size 3 to 8) (size 9 to 14) (size 15 to 20)
#    0.000    1.667    3.333    1.500    0.000    4.333 
#    0.000    0.833    0.000    0.000    0.000    0.000 
#    0.000    0.000    0.000    0.000    0.000    0.000 
#
# Total GULP energy -134079.670329 kJ/mol
# GULP energy per Si atom -5586.652930 kJ/mol
# Density = 1.723367 g / cm^3
# Si number density = 17.272981 Si / 1000 Ang^3
#
#
#
# Elastic Constant Matrix: (Units=GPa)
#
#
# Indices 1 2 3 4 5 6 
#
# 1 89.5930 47.6995 80.8112 0.0000 -5.9852 0.0000
# 2 47.6995 42.2667 70.3971 0.0000 -2.4905 0.0000
# 3 80.8112 70.3971 164.9233 0.0000 -2.8555 0.0000
# 4 0.0000 0.0000 0.0000 27.6374 0.0000 2.0769
# 5 -5.9852 -2.4905 -2.8555 0.0000 28.9742 0.0000
# 6 0.0000 0.0000 0.0000 2.0769 0.0000 24.7282
#
#
#
# Elastic Compliance Matrix: (Units=1/GPa)
#
#
# Indices 1 2 3 4 5 6 
#
# 1 0.028277 -0.030234 -0.000895 0.000000 0.003154 0.000000
# 2 -0.030234 0.114550 -0.034077 0.000000 0.000243 0.000000
# 3 -0.000895 -0.034077 0.021030 0.000000 -0.001042 0.000000
# 4 0.000000 0.000000 0.000000 0.036413 0.000000 -0.003058
# 5 0.003154 0.000243 -0.001042 0.000000 0.035083 0.000000
# 6 0.000000 0.000000 0.000000 -0.003058 0.000000 0.040697
#
#
# Mechanical properties :
#
#
# Convention : Reuss Voigt Hill
#
# Bulk Modulus (GPa) = 29.90057 77.17763 53.53910
# Shear Modulus (GPa) = 11.97290 22.79297 17.38293
#
# Velocity S-wave (km/s) = 2.63564 3.63653 3.17577
# Velocity P-wave (km/s) = 5.15852 7.90004 6.67162
#
# Compressibility (1/GPa) = 0.03344418
#
# Stress axis : x y z
#
# Youngs Moduli (GPa) = 35.36505 8.72978 47.55150
#
# Poissons Ratio (x) = 0.26394 0.04258
# Poissons Ratio (y) = 1.06922 1.62041
# Poissons Ratio (z) = 0.03167 0.29748
#
# Static dielectric constant tensor:
#      x y z
#    x 1.575210 0.000000 -0.001790 
#    y 0.000000 1.572790 0.000000 
#    z -0.001790 0.000000 1.550980 
# 
# From -- ./inp_files/244744.got.cif
#   From: 2010.05.17/outbox.cif.g08.bks.cpg/sg12_123_cif.got.tgz:244744.got - 2010.06.03 13:09:07.
