data_PCOD9187511
_publ_section_title
;
Structure prediction by ZEFSAII (Michael W. Deem and Ramdas Pophale) SiO2 
 PCOD9187511
Probable space group: C 2/M
;
_chemical_formula_sum "Si O2"
_cell_formula_units_Z 64
_cell_length_a 26.598848
_cell_length_b 14.805580
_cell_length_c 15.100325
_cell_angle_alpha 90.000000
_cell_angle_beta 31.515375
_cell_angle_gamma 90.000000
_cell_volume 3108.492106
_symmetry_space_group_name_H-M "C 2/M"
_symmetry_group_IT_number 12
_symmetry_cell_setting 'monoclinic'
loop_
_space_group_symop_operation_xyz
x,y,z
-x,y,-z
-x,-y,-z
x,-y,z
1/2+x,1/2+y,z
1/2-x,1/2+y,-z
1/2-x,1/2-y,-z
1/2+x,1/2-y,z
loop_
_atom_site_type_symbol
_atom_site_label
_atom_site_fract_x
_atom_site_fract_y
_atom_site_fract_z
Si Si1 0.299724 0.174095 0.620647
Si Si2 0.535893 0.713937 0.717686
Si Si3 0.162388 0.210739 0.686970
Si Si4 0.473292 0.608329 0.641135
Si Si5 0.250034 0.890709 0.016063
Si Si6 0.607201 0.895120 0.348803
Si Si7 0.333615 0.808335 0.067763
Si Si8 0.388115 0.095884 0.152927
O O1 0.388523 0.209503 0.427824
O O2 0.212246 0.146824 0.685957
O O3 0.348571 0.110651 0.619844
O O4 0.248089 0.251312 0.757914
O O5 0.584020 0.673847 0.735324
O O6 0.528819 0.651486 0.641003
O O7 0.430976 0.751791 0.901426
O O8 0.250000 0.250000 0.500000
O O9 0.128997 0.304547 0.781522
O O10 0.500000 0.636238 0.500000
O O11 0.485860 0.500000 0.625507
O O12 0.361848 0.631510 0.825001
O O13 0.292007 0.847113 0.040506
O O14 0.254521 0.000000 0.015106
O O15 0.314795 0.857587 0.836992
O O16 0.500000 0.854395 0.500000
O O17 0.597249 0.000000 0.339261
O O18 0.361715 0.890173 0.090459
O O19 0.342615 0.000000 0.253907
O O20 0.500000 0.086030 0.000000
#
# Coordination Sequence:
#
# PCOD9187511 Si02
#       8
#     8   8   8   8   8   8   8   8
#     4  10  22  36  56  82 112 148 188 236 284 345
#     4  11  21  37  58  82 113 147 189 235 287 348
#     4   9  20  39  55  82 119 150 189 240 288 342
#     4  10  22  39  58  81 112 149 189 239 292 342
#     4  10  21  36  53  80 113 142 181 231 283 342
#     4  10  21  38  56  78 112 150 187 233 288 345
#     4  11  21  34  58  86 113 151 186 236 294 347
#     4  10  19  35  59  87 117 151 192 238 295 352
#
# _framework density 20.588761999999999
#
# number of rings (size 3 to 8) (size 9 to 14) (size 15 to 20)
#    0.000    1.875    1.250    2.625    0.000    4.500 
#    0.000   10.625    0.000    0.000    0.000    5.250 
#    0.000    0.000    0.000    0.000    0.000    0.000 
#
# Total GULP energy -178253.809675 kJ/mol
# GULP energy per Si atom -5570.431552 kJ/mol
# Density = 2.054190 g / cm^3
# Si number density = 20.588762 Si / 1000 Ang^3
#
#
#
# Elastic Constant Matrix: (Units=GPa)
#
#
# Indices 1 2 3 4 5 6 
#
# 1 153.4994 14.6381 7.3896 0.0000 -12.6854 0.0000
# 2 14.6381 29.8763 9.0469 0.0000 -8.3975 0.0000
# 3 7.3896 9.0469 82.2534 0.0000 -3.7357 0.0000
# 4 0.0000 0.0000 0.0000 -1.8828 0.0000 -3.6025
# 5 -12.6854 -8.3975 -3.7357 0.0000 29.4569 0.0000
# 6 0.0000 0.0000 0.0000 -3.6025 0.0000 29.6939
#
#
#
# Elastic Compliance Matrix: (Units=1/GPa)
#
#
# Indices 1 2 3 4 5 6 
#
# 1 0.006967 -0.002728 -0.000226 0.000000 0.002194 0.000000
# 2 -0.002728 0.038517 -0.003567 0.000000 0.009353 0.000000
# 3 -0.000226 -0.003567 0.012592 0.000000 0.000483 0.000000
# 4 0.000000 0.000000 0.000000 -0.431060 0.000000 -0.052297
# 5 0.002194 0.009353 0.000483 0.000000 0.037620 0.000000
# 6 0.000000 0.000000 0.000000 -0.052297 0.000000 0.027332
#
#
# Mechanical properties :
#
#
# Convention : Reuss Voigt Hill
#
# Bulk Modulus (GPa) = 22.20547 36.41982 29.31265
# Shear Modulus (GPa) = -17.85858 27.09057 4.61599
#
# Velocity S-wave (km/s) = -2.94835 3.63132 1.49895
# Velocity P-wave (km/s) = 0.88415 5.94219 4.15499
#
# Compressibility (1/GPa) = 0.04503395
#
# Stress axis : x y z
#
# Youngs Moduli (GPa) = 143.53247 25.96246 79.41503
#
# Poissons Ratio (x) = 0.07084 0.01796
# Poissons Ratio (y) = 0.39162 0.28324
# Poissons Ratio (z) = 0.03246 0.09260
#
# Static dielectric constant tensor:
#      x y z
#    x 1.770420 0.000000 -0.003730 
#    y 0.000000 1.655100 0.000000 
#    z -0.003730 0.000000 1.739370 
# 
# From -- ./inp_files/241468.got.cif
#   From: 2010.05.17/outbox.cif.g08.bks.cpg/sg12_121_cif.got.tgz:241468.got - 2010.06.03 13:09:07.
