data_PCOD9187916
_publ_section_title
;
Structure prediction by ZEFSAII (Michael W. Deem and Ramdas Pophale) SiO2 
 PCOD9187916
Probable space group: C 2/M
;
_chemical_formula_sum "Si O2"
_cell_formula_units_Z 58
_cell_length_a 13.576390
_cell_length_b 15.724321
_cell_length_c 12.897857
_cell_angle_alpha 90.000000
_cell_angle_beta 102.868836
_cell_angle_gamma 90.000000
_cell_volume 2684.268957
_symmetry_space_group_name_H-M "C 2/M"
_symmetry_group_IT_number 12
_symmetry_cell_setting 'monoclinic'
loop_
_space_group_symop_operation_xyz
x,y,z
-x,y,-z
-x,-y,-z
x,-y,z
1/2+x,1/2+y,z
1/2-x,1/2+y,-z
1/2-x,1/2-y,-z
1/2+x,1/2-y,z
loop_
_atom_site_type_symbol
_atom_site_label
_atom_site_fract_x
_atom_site_fract_y
_atom_site_fract_z
Si Si1 0.297857 0.099629 0.840591
Si Si2 0.110551 0.603485 0.351438
Si Si3 0.616128 0.897951 0.755630
Si Si4 0.726947 0.896038 0.579080
Si Si5 0.064958 0.861961 0.843576
Si Si6 0.643287 0.797998 0.963607
Si Si7 0.458623 0.396432 0.603261
Si Si8 0.500000 0.500000 0.000000
O O1 0.315462 0.125451 0.725887
O O2 0.182059 0.111672 0.848917
O O3 0.323287 0.000000 0.855858
O O4 0.370687 0.154052 0.931619
O O5 0.108356 0.500000 0.356797
O O6 0.152647 0.633966 0.470848
O O7 0.997353 0.630802 0.298126
O O8 0.689755 0.866604 0.682304
O O9 0.651509 0.867144 0.875107
O O10 0.616078 0.000000 0.754812
O O11 0.841280 0.872745 0.582412
O O12 0.723240 0.000000 0.578936
O O13 0.067003 0.771529 0.901579
O O14 0.013236 0.861580 0.718704
O O15 0.014983 0.926922 0.912238
O O16 0.750000 0.750000 0.000000
O O17 0.500000 0.370743 0.500000
O O18 0.467963 0.500000 0.611350
#
# Coordination Sequence:
#
# PCOD9187916 Si02
#       8
#     8   8   8   8   8   8   8   2
#     4  10  19  38  64  90 121 166 212 263 309 383
#     4   9  18  33  61  90 117 155 207 259 318 367
#     4  10  20  38  62  90 123 163 211 259 317 387
#     4   9  18  33  57  94 124 157 201 265 314 375
#     4  11  23  41  60  92 128 164 212 256 323 379
#     4  10  24  41  60  88 127 169 209 269 319 373
#     4  10  19  35  62  93 124 161 212 262 316 385
#     4  12  24  40  66  92 122 178 208 258 312 386
#
# _framework density 21.607371000000001
#
# number of rings (size 3 to 8) (size 9 to 14) (size 15 to 20)
#    0.000    2.069    1.379    1.655    0.000    7.724 
#    4.966    4.828    0.000    4.966    0.000    0.000 
#    0.000    0.000    0.000    0.000    0.000    0.000 
#
# Total GULP energy -161769.200744 kJ/mol
# GULP energy per Si atom -5578.248302 kJ/mol
# Density = 2.155819 g / cm^3
# Si number density = 21.607371 Si / 1000 Ang^3
#
#
#
# Elastic Constant Matrix: (Units=GPa)
#
#
# Indices 1 2 3 4 5 6 
#
# 1 59.9024 9.3268 25.8558 0.0000 4.1951 0.0000
# 2 9.3268 33.0660 12.1988 0.0000 2.5453 0.0000
# 3 25.8558 12.1988 108.3966 0.0000 7.5089 0.0000
# 4 0.0000 0.0000 0.0000 -0.7031 0.0000 12.0738
# 5 4.1951 2.5453 7.5089 0.0000 35.3651 0.0000
# 6 0.0000 0.0000 0.0000 12.0738 0.0000 7.5582
#
#
#
# Elastic Compliance Matrix: (Units=1/GPa)
#
#
# Indices 1 2 3 4 5 6 
#
# 1 0.019115 -0.003810 -0.004052 0.000000 -0.001133 0.000000
# 2 -0.003810 0.032395 -0.002646 0.000000 -0.001318 0.000000
# 3 -0.004052 -0.002646 0.010599 0.000000 -0.001579 0.000000
# 4 0.000000 0.000000 0.000000 -0.050024 0.000000 0.079911
# 5 -0.001133 -0.001318 -0.001579 0.000000 0.028841 0.000000
# 6 0.000000 0.000000 0.000000 0.079911 0.000000 0.004654
#
#
# Mechanical properties :
#
#
# Convention : Reuss Voigt Hill
#
# Bulk Modulus (GPa) = 24.33452 32.90308 28.61880
# Shear Modulus (GPa) = 62.27170 18.70959 40.49065
#
# Velocity S-wave (km/s) = 5.37422 2.94579 4.33358
# Velocity P-wave (km/s) = 7.05664 5.17987 6.18980
#
# Compressibility (1/GPa) = 0.04109389
#
# Stress axis : x y z
#
# Youngs Moduli (GPa) = 52.31364 30.86937 94.34735
#
# Poissons Ratio (x) = 0.11760 0.38233
# Poissons Ratio (y) = 0.19929 0.24961
# Poissons Ratio (z) = 0.21200 0.08167
#
# Static dielectric constant tensor:
#      x y z
#    x 1.790390 0.000000 -0.000990 
#    y 0.000000 1.811870 0.000000 
#    z -0.000990 0.000000 1.739120 
# 
# From -- ./inp_files/145611.got.cif
#   From: 2010.05.17/outbox.cif.g08.bks.cpg/sg12_73_cif.got.tgz:145611.got - 2010.06.03 13:09:07.
