data_PCOD9187937
_publ_section_title
;
Structure prediction by ZEFSAII (Michael W. Deem and Ramdas Pophale) SiO2 
 PCOD9187937
Probable space group: C 2/M
;
_chemical_formula_sum "Si O2"
_cell_formula_units_Z 40
_cell_length_a 10.148525
_cell_length_b 15.195090
_cell_length_c 31.349332
_cell_angle_alpha 90.000000
_cell_angle_beta 25.585110
_cell_angle_gamma 90.000000
_cell_volume 2087.703368
_symmetry_space_group_name_H-M "C 2/M"
_symmetry_group_IT_number 12
_symmetry_cell_setting 'monoclinic'
loop_
_space_group_symop_operation_xyz
x,y,z
-x,y,-z
-x,-y,-z
x,-y,z
1/2+x,1/2+y,z
1/2-x,1/2+y,-z
1/2-x,1/2-y,-z
1/2+x,1/2-y,z
loop_
_atom_site_type_symbol
_atom_site_label
_atom_site_fract_x
_atom_site_fract_y
_atom_site_fract_z
Si Si1 0.163147 0.101306 0.578987
Si Si2 0.349889 0.000000 0.910508
Si Si3 0.209733 0.323813 0.780282
Si Si4 0.541371 0.671213 0.772314
Si Si5 0.281216 0.107054 0.448690
Si Si6 0.155719 0.500000 0.908851
O O1 0.500000 0.100298 0.500000
O O2 0.188763 0.134996 0.523399
O O3 0.952847 0.153735 0.672513
O O4 0.052057 0.000000 0.609679
O O5 0.515874 0.912128 0.844977
O O6 0.400342 0.000000 0.946555
O O7 0.000000 0.000000 0.000000
O O8 0.382362 0.301248 0.774046
O O9 0.020642 0.244388 0.815089
O O10 0.367252 0.584521 0.839026
O O11 0.895360 0.647166 0.659637
O O12 0.000000 0.129557 0.500000
O O13 0.316939 0.000000 0.438697
O O14 0.000000 0.500000 0.000000
#
# Coordination Sequence:
#
# PCOD9187937 Si02
#       6
#     8   4   8   8   8   4
#     4  10  19  35  63  89 125 174 214 245 301 372
#     4  10  24  48  70  93 124 158 210 265 319 378
#     4  11  24  41  65  97 127 167 209 257 310 374
#     4  11  24  42  65  94 131 164 211 257 310 375
#     4  10  21  37  59  92 132 171 211 255 302 363
#     4  10  24  48  72  90 122 166 204 262 329 374
#
# _framework density 19.15981
#
# number of rings (size 3 to 8) (size 9 to 14) (size 15 to 20)
#    0.000    1.600    4.000    0.000    2.800    4.000 
#    0.000    4.000    0.000    0.000    0.000    0.000 
#    0.000    0.000    0.000    0.000    0.000    0.000 
#
# Total GULP energy -111750.537469 kJ/mol
# GULP energy per Si atom -5587.526873 kJ/mol
# Density = 1.911620 g / cm^3
# Si number density = 19.159810 Si / 1000 Ang^3
#
#
#
# Elastic Constant Matrix: (Units=GPa)
#
#
# Indices 1 2 3 4 5 6 
#
# 1 190.3377 77.8101 77.3615 -0.0214 6.0221 0.0084
# 2 77.8101 97.6744 28.3088 -0.0213 -1.8847 -0.0021
# 3 77.3615 28.3088 83.4740 0.0379 1.1840 0.0408
# 4 -0.0214 -0.0213 0.0379 -6.7123 -0.0117 0.0755
# 5 6.0221 -1.8847 1.1840 -0.0117 37.3799 -0.0156
# 6 0.0084 -0.0021 0.0408 0.0755 -0.0156 46.1217
#
#
#
# Elastic Compliance Matrix: (Units=1/GPa)
#
#
# Indices 1 2 3 4 5 6 
#
# 1 0.011443 -0.006751 -0.008288 -0.000058 -0.001921 0.000004
# 2 -0.006751 0.015355 0.001023 -0.000025 0.001829 0.000002
# 3 -0.008288 0.001023 0.019303 0.000131 0.000775 -0.000015
# 4 -0.000058 -0.000025 0.000131 -0.148976 -0.000043 0.000244
# 5 -0.001921 0.001829 0.000775 -0.000043 0.027130 0.000009
# 6 0.000004 0.000002 -0.000015 0.000244 0.000009 0.021681
#
#
# Mechanical properties :
#
#
# Convention : Reuss Voigt Hill
#
# Bulk Modulus (GPa) = 55.34348 82.04967 68.69657
# Shear Modulus (GPa) = -249.88827 27.89157 -110.99835
#
# Velocity S-wave (km/s) = -11.43268 3.81955 -7.61962
# Velocity P-wave (km/s) = 12.05517 7.89739 6.44044
#
# Compressibility (1/GPa) = 0.01806898
#
# Stress axis : x y z
#
# Youngs Moduli (GPa) = 87.38881 65.12678 51.80465
#
# Poissons Ratio (x) = 0.43965 0.42938
# Poissons Ratio (y) = 0.58994 -0.05301
# Poissons Ratio (z) = 0.72432 -0.06664
#
# Static dielectric constant tensor:
#      x y z
#    x 1.649990 0.000000 0.000340 
#    y 0.000000 1.719860 -0.000020 
#    z 0.000340 -0.000020 1.616460 
# 
# From -- ./inp_files/194485.got.cif
#   From: 2010.05.17/outbox.cif.g08.bks.cpg/sg12_98_cif.got.tgz:194485.got - 2010.06.03 13:09:07.
