data_PCOD9187548
_publ_section_title
;
Structure prediction by ZEFSAII (Michael W. Deem and Ramdas Pophale) SiO2 
 PCOD9187548
Probable space group: C 2/M
;
_chemical_formula_sum "Si O2"
_cell_formula_units_Z 48
_cell_length_a 28.286311
_cell_length_b 8.935684
_cell_length_c 17.485298
_cell_angle_alpha 90.000000
_cell_angle_beta 144.476735
_cell_angle_gamma 90.000000
_cell_volume 2567.901200
_symmetry_space_group_name_H-M "C 2/M"
_symmetry_group_IT_number 12
_symmetry_cell_setting 'monoclinic'
loop_
_space_group_symop_operation_xyz
x,y,z
-x,y,-z
-x,-y,-z
x,-y,z
1/2+x,1/2+y,z
1/2-x,1/2+y,-z
1/2-x,1/2-y,-z
1/2+x,1/2-y,z
loop_
_atom_site_type_symbol
_atom_site_label
_atom_site_fract_x
_atom_site_fract_y
_atom_site_fract_z
Si Si1 0.045280 0.173133 0.978784
Si Si2 0.785433 0.676538 0.775878
Si Si3 0.875326 0.178290 0.156940
Si Si4 0.725349 0.177489 0.845712
Si Si5 0.283854 0.822105 0.466786
Si Si6 0.456870 0.321867 0.704905
O O1 0.122610 0.279873 0.080753
O O2 0.073663 0.000000 0.005735
O O3 0.000000 0.183558 0.000000
O O4 0.985008 0.204906 0.829364
O O5 0.775968 0.500000 0.754508
O O6 0.729779 0.737769 0.771420
O O7 0.764429 0.758885 0.669456
O O8 0.846307 0.266104 0.193413
O O9 0.965007 0.214045 0.244553
O O10 0.871162 0.000000 0.166098
O O11 0.808878 0.209699 0.002926
O O12 0.720763 0.000000 0.827545
O O13 0.250000 0.750000 0.500000
O O14 0.377410 0.771841 0.581525
O O15 0.275845 0.000000 0.459983
O O16 0.439516 0.500000 0.674439
#
# Coordination Sequence:
#
# PCOD9187548 Si02
#       6
#     8   8   8   8   8   8
#     4  10  20  36  60  88 119 155 195 246 303 358
#     4  12  24  39  61  89 121 158 203 249 299 357
#     4   9  18  34  58  89 124 160 196 241 301 361
#     4  10  19  35  59  89 123 159 199 245 301 356
#     4  12  26  44  64  87 120 161 205 249 302 361
#     4  10  20  38  61  89 124 160 199 245 303 362
#
# _framework density 18.692307
#
# number of rings (size 3 to 8) (size 9 to 14) (size 15 to 20)
#    0.000    1.500    1.667    4.500    0.000    3.667 
#    0.000    0.833    0.000    5.000    0.000    0.000 
#    0.000    0.000    0.000    0.000    0.000    0.000 
#
# Total GULP energy -134170.331934 kJ/mol
# GULP energy per Si atom -5590.430497 kJ/mol
# Density = 1.864976 g / cm^3
# Si number density = 18.692307 Si / 1000 Ang^3
#
#
#
# Elastic Constant Matrix: (Units=GPa)
#
#
# Indices 1 2 3 4 5 6 
#
# 1 62.7261 30.7765 -8.9933 0.0000 -6.2590 0.0000
# 2 30.7765 90.6559 19.2351 0.0000 -6.5334 0.0000
# 3 -8.9933 19.2351 19.9419 0.0000 -3.5277 0.0000
# 4 0.0000 0.0000 0.0000 29.9922 0.0000 4.3168
# 5 -6.2590 -6.5334 -3.5277 0.0000 28.2942 0.0000
# 6 0.0000 0.0000 0.0000 4.3168 0.0000 32.7593
#
#
#
# Elastic Compliance Matrix: (Units=1/GPa)
#
#
# Indices 1 2 3 4 5 6 
#
# 1 0.027998 -0.015048 0.028245 0.000000 0.006240 0.000000
# 2 -0.015048 0.022026 -0.028346 0.000000 -0.001777 0.000000
# 3 0.028245 -0.028346 0.092206 0.000000 0.011199 0.000000
# 4 0.000000 0.000000 0.000000 0.033987 0.000000 -0.004479
# 5 0.006240 -0.001777 0.011199 0.000000 0.037709 0.000000
# 6 0.000000 0.000000 0.000000 -0.004479 0.000000 0.031116
#
#
# Mechanical properties :
#
#
# Convention : Reuss Voigt Hill
#
# Bulk Modulus (GPa) = 8.93399 28.37339 18.65369
# Shear Modulus (GPa) = 15.99235 27.02951 21.51093
#
# Velocity S-wave (km/s) = 2.92817 3.80679 3.39601
# Velocity P-wave (km/s) = 4.02766 5.87659 5.03768
#
# Compressibility (1/GPa) = 0.11193202
#
# Stress axis : x y z
#
# Youngs Moduli (GPa) = 35.71678 45.40159 10.84530
#
# Poissons Ratio (x) = 0.68321 -0.30633
# Poissons Ratio (y) = 0.53747 0.30742
# Poissons Ratio (z) = -1.00883 1.28694
#
# Static dielectric constant tensor:
#      x y z
#    x 1.641390 0.000000 0.005270 
#    y 0.000000 1.626590 0.000000 
#    z 0.005270 0.000000 1.625820 
# 
# From -- ./inp_files/280785.got.cif
#   From: 2010.05.17/outbox.cif.g08.bks.cpg/sg12_141_cif.got.tgz:280785.got - 2010.06.03 13:09:07.
