data_PCOD9187732
_publ_section_title
;
Structure prediction by ZEFSAII (Michael W. Deem and Ramdas Pophale) SiO2 
 PCOD9187732
Probable space group: C 2/M
;
_chemical_formula_sum "Si O2"
_cell_formula_units_Z 64
_cell_length_a 19.047173
_cell_length_b 9.130325
_cell_length_c 30.185917
_cell_angle_alpha 90.000000
_cell_angle_beta 39.626556
_cell_angle_gamma 90.000000
_cell_volume 3348.056246
_symmetry_space_group_name_H-M "C 2/M"
_symmetry_group_IT_number 12
_symmetry_cell_setting 'monoclinic'
loop_
_space_group_symop_operation_xyz
x,y,z
-x,y,-z
-x,-y,-z
x,-y,z
1/2+x,1/2+y,z
1/2-x,1/2+y,-z
1/2-x,1/2-y,-z
1/2+x,1/2-y,z
loop_
_atom_site_type_symbol
_atom_site_label
_atom_site_fract_x
_atom_site_fract_y
_atom_site_fract_z
Si Si1 0.540116 0.824008 0.297414
Si Si2 0.636589 0.672643 0.067143
Si Si3 0.594981 0.327874 0.844774
Si Si4 0.784477 0.323465 0.437093
Si Si5 0.842607 0.170966 0.842210
Si Si6 0.692904 0.822283 0.306839
Si Si7 0.370923 0.675327 0.570189
Si Si8 0.625236 0.670177 0.931639
O O1 0.411317 0.785562 0.364413
O O2 0.593974 0.753763 0.227655
O O3 0.606627 0.781634 0.309754
O O4 0.549153 0.000000 0.289011
O O5 0.651694 0.500000 0.050161
O O6 0.528452 0.732954 0.094989
O O7 0.607203 0.688336 0.133368
O O8 0.750000 0.750000 0.000000
O O9 0.580850 0.500000 0.840595
O O10 0.686172 0.268700 0.767216
O O11 0.644571 0.322796 0.869646
O O12 0.778259 0.500000 0.444854
O O13 0.750000 0.250000 0.500000
O O14 0.703067 0.281020 0.436315
O O15 0.719508 0.233991 0.907031
O O16 0.838538 0.000000 0.833240
O O17 0.664004 0.756089 0.368103
O O18 0.693563 0.000000 0.308691
O O19 0.500000 0.705121 0.500000
O O20 0.357595 0.500000 0.582240
O O21 0.633288 0.500000 0.942235
O O22 0.500000 0.717361 0.000000
#
# Coordination Sequence:
#
# PCOD9187732 Si02
#       8
#     8   8   8   8   8   8   8   8
#     4  10  21  39  60  83 114 151 196 238 275 333
#     4  10  22  39  57  80 111 147 190 237 287 343
#     4   9  18  35  56  80 110 145 189 235 276 326
#     4  10  22  39  61  89 119 153 191 233 278 333
#     4  11  23  36  55  85 118 149 185 237 296 344
#     4  10  20  36  60  84 110 147 192 240 275 321
#     4  10  22  39  58  85 122 154 181 224 283 340
#     4  10  19  35  61  84 107 149 196 235 281 337
#
# _framework density 19.115570000000002
#
# number of rings (size 3 to 8) (size 9 to 14) (size 15 to 20)
#    0.000    2.000    1.250    1.875    1.750    4.000 
#    0.000    1.250    0.000    0.000    0.000    0.000 
#    0.000    0.000    0.000    0.000    0.000    0.000 
#
# Total GULP energy -178609.263276 kJ/mol
# GULP energy per Si atom -5581.539477 kJ/mol
# Density = 1.907206 g / cm^3
# Si number density = 19.115570 Si / 1000 Ang^3
#
#
#
# Elastic Constant Matrix: (Units=GPa)
#
#
# Indices 1 2 3 4 5 6 
#
# 1 105.5097 26.4591 40.3024 0.0001 -5.3643 -0.0001
# 2 26.4591 18.5527 28.3388 0.0001 0.6088 -0.0006
# 3 40.3024 28.3388 113.8617 0.0000 2.3688 0.0000
# 4 0.0001 0.0001 0.0000 30.0024 0.0000 6.8755
# 5 -5.3643 0.6088 2.3688 0.0000 33.7404 0.0000
# 6 -0.0001 -0.0006 0.0000 6.8755 0.0000 17.6704
#
#
#
# Elastic Compliance Matrix: (Units=1/GPa)
#
#
# Indices 1 2 3 4 5 6 
#
# 1 0.015010 -0.021448 -0.000033 0.000000 0.002776 -0.000001
# 2 -0.021448 0.117608 -0.021596 -0.000001 -0.004016 0.000004
# 3 -0.000033 -0.021596 0.014182 0.000000 -0.000611 -0.000001
# 4 0.000000 -0.000001 0.000000 0.036594 0.000000 -0.014238
# 5 0.002776 -0.004016 -0.000611 0.000000 0.030195 0.000000
# 6 -0.000001 0.000004 -0.000001 -0.014238 0.000000 0.062132
#
#
# Mechanical properties :
#
#
# Convention : Reuss Voigt Hill
#
# Bulk Modulus (GPa) = 16.48895 47.56938 32.02917
# Shear Modulus (GPa) = 13.08600 25.80422 19.44511
#
# Velocity S-wave (km/s) = 2.61927 3.67809 3.19288
# Velocity P-wave (km/s) = 4.21807 6.55568 5.51222
#
# Compressibility (1/GPa) = 0.06064669
#
# Stress axis : x y z
#
# Youngs Moduli (GPa) = 66.62263 8.50285 70.51318
#
# Poissons Ratio (x) = 0.18237 0.00229
# Poissons Ratio (y) = 1.42892 1.52279
# Poissons Ratio (z) = 0.00217 0.18363
#
# Static dielectric constant tensor:
#      x y z
#    x 1.684920 0.000000 -0.016350 
#    y 0.000000 1.649560 0.000000 
#    z -0.016350 0.000000 1.659330 
# 
# From -- ./inp_files/378225.got.cif
#   From: 2010.05.17/outbox.cif.g08.bks.cpg/sg12_190_cif.got.tgz:378225.got - 2010.06.03 13:09:07.
