data_PCOD9187926
_publ_section_title
;
Structure prediction by ZEFSAII (Michael W. Deem and Ramdas Pophale) SiO2 
 PCOD9187926
Probable space group: C 2/M
;
_chemical_formula_sum "Si O2"
_cell_formula_units_Z 56
_cell_length_a 13.271153
_cell_length_b 14.014664
_cell_length_c 12.498378
_cell_angle_alpha 90.000000
_cell_angle_beta 86.681335
_cell_angle_gamma 90.000000
_cell_volume 2320.684401
_symmetry_space_group_name_H-M "C 2/M"
_symmetry_group_IT_number 12
_symmetry_cell_setting 'monoclinic'
loop_
_space_group_symop_operation_xyz
x,y,z
-x,y,-z
-x,-y,-z
x,-y,z
1/2+x,1/2+y,z
1/2-x,1/2+y,-z
1/2-x,1/2-y,-z
1/2+x,1/2-y,z
loop_
_atom_site_type_symbol
_atom_site_label
_atom_site_fract_x
_atom_site_fract_y
_atom_site_fract_z
Si Si1 0.897149 0.885932 0.743388
Si Si2 0.288743 0.390049 0.290916
Si Si3 0.776652 0.275668 0.119971
Si Si4 0.084241 0.385022 0.574648
Si Si5 0.490295 0.742603 0.117673
Si Si6 0.313285 0.616260 0.524922
Si Si7 0.071107 0.393724 0.237758
O O1 0.800166 0.847421 0.816613
O O2 0.881910 0.854176 0.620940
O O3 0.993788 0.838426 0.793670
O O4 0.901748 0.000000 0.746860
O O5 0.317123 0.500000 0.265887
O O6 0.294825 0.319009 0.191435
O O7 0.337288 0.359196 0.400571
O O8 0.165685 0.390597 0.313390
O O9 0.892573 0.309452 0.113348
O O10 0.750000 0.250000 0.000000
O O11 0.089417 0.500000 0.556909
O O12 0.198711 0.351119 0.557564
O O13 0.000000 0.344733 0.500000
O O14 0.030908 0.372390 0.691767
O O15 0.579076 0.815364 0.146042
O O16 0.500000 0.697293 0.000000
O O17 0.314149 0.500000 0.525975
O O18 0.069584 0.500000 0.194031
#
# Coordination Sequence:
#
# PCOD9187926 Si02
#       7
#     8   8   8   8   8   8   8
#     4  11  25  46  71 100 135 184 231 278 340 410
#     4  10  20  38  66  98 135 174 211 270 344 401
#     4  12  25  46  68  97 133 174 230 289 333 402
#     4   9  14  25  52  92 131 168 209 252 313 399
#     4  12  25  46  68  92 133 171 229 291 337 402
#     4   9  18  35  61  95 135 174 219 274 332 408
#     4  10  19  35  62  96 131 167 209 264 339 401
#
# _framework density 24.130814000000001
#
# number of rings (size 3 to 8) (size 9 to 14) (size 15 to 20)
#    0.000    1.571    4.286    0.857    0.000    4.000 
#    0.000    0.714    0.000    2.571    0.000    0.000 
#    0.000    0.000    0.000    0.000    0.000    0.000 
#
# Total GULP energy -156349.958883 kJ/mol
# GULP energy per Si atom -5583.927103 kJ/mol
# Density = 2.407589 g / cm^3
# Si number density = 24.130814 Si / 1000 Ang^3
#
#
#
# Elastic Constant Matrix: (Units=GPa)
#
#
# Indices 1 2 3 4 5 6 
#
# 1 73.1805 -2.6677 32.5661 0.0000 25.4895 0.0000
# 2 -2.6677 100.2193 47.4249 0.0000 14.1811 0.0000
# 3 32.5661 47.4249 173.0667 0.0000 43.9862 0.0000
# 4 0.0000 0.0000 0.0000 42.4737 0.0000 5.7024
# 5 25.4895 14.1811 43.9862 0.0000 42.9832 0.0000
# 6 0.0000 0.0000 0.0000 5.7024 0.0000 26.2799
#
#
#
# Elastic Compliance Matrix: (Units=1/GPa)
#
#
# Indices 1 2 3 4 5 6 
#
# 1 0.017898 0.002619 -0.001579 0.000000 -0.009862 0.000000
# 2 0.002619 0.011867 -0.003183 0.000000 -0.002211 0.000000
# 3 -0.001579 -0.003183 0.008707 0.000000 -0.006924 0.000000
# 4 0.000000 0.000000 0.000000 0.024250 0.000000 -0.005262
# 5 -0.009862 -0.002211 -0.006924 0.000000 0.036928 0.000000
# 6 0.000000 0.000000 0.000000 -0.005262 0.000000 0.039194
#
#
# Mechanical properties :
#
#
# Convention : Reuss Voigt Hill
#
# Bulk Modulus (GPa) = 29.25108 55.67921 42.46514
# Shear Modulus (GPa) = 32.35723 40.29025 36.32374
#
# Velocity S-wave (km/s) = 3.66582 4.09058 3.88401
# Velocity P-wave (km/s) = 5.48323 6.74051 6.14411
#
# Compressibility (1/GPa) = 0.03418678
#
# Stress axis : x y z
#
# Youngs Moduli (GPa) = 55.87202 84.26872 114.84826
#
# Poissons Ratio (x) = -0.22071 0.18136
# Poissons Ratio (y) = -0.14634 0.36552
# Poissons Ratio (z) = 0.08823 0.26820
#
# Static dielectric constant tensor:
#      x y z
#    x 2.037760 0.000000 -0.066440 
#    y 0.000000 1.908960 0.000000 
#    z -0.066440 0.000000 1.965930 
# 
# From -- ./inp_files/143707.got.cif
#   From: 2010.05.17/outbox.cif.g08.bks.cpg/sg12_72_cif.got.tgz:143707.got - 2010.06.03 13:09:07.
