data_PCOD9187650
_publ_section_title
;
Structure prediction by ZEFSAII (Michael W. Deem and Ramdas Pophale) SiO2 
 PCOD9187650
Probable space group: C 2/M
;
_chemical_formula_sum "Si O2"
_cell_formula_units_Z 32
_cell_length_a 7.397629
_cell_length_b 13.194435
_cell_length_c 14.427704
_cell_angle_alpha 90.000000
_cell_angle_beta 128.028674
_cell_angle_gamma 90.000000
_cell_volume 1109.284173
_symmetry_space_group_name_H-M "C 2/M"
_symmetry_group_IT_number 12
_symmetry_cell_setting 'monoclinic'
loop_
_space_group_symop_operation_xyz
x,y,z
-x,y,-z
-x,-y,-z
x,-y,z
1/2+x,1/2+y,z
1/2-x,1/2+y,-z
1/2-x,1/2-y,-z
1/2+x,1/2-y,z
loop_
_atom_site_type_symbol
_atom_site_label
_atom_site_fract_x
_atom_site_fract_y
_atom_site_fract_z
Si Si1 0.673707 0.656113 0.844050
Si Si2 0.663692 0.865007 0.640504
Si Si3 0.346011 0.886762 0.100091
Si Si4 0.262699 0.666655 0.418009
O O1 0.430860 0.610502 0.729486
O O2 0.694456 0.779900 0.858476
O O3 0.891213 0.616631 0.855226
O O4 0.697310 0.623234 0.958425
O O5 0.500000 0.894111 0.500000
O O6 0.695831 0.743231 0.652137
O O7 0.475065 0.889940 0.658250
O O8 0.295189 0.000000 0.121250
O O9 0.500000 0.608269 0.500000
O O10 0.250000 0.750000 0.500000
#
# Coordination Sequence:
#
# PCOD9187650 Si02
#       4
#     8   8   8   8
#     4  10  19  35  60  87 114 158 200 232 303 357
#     4   9  15  25  46  80 112 143 188 233 280 350
#     4  10  22  40  60  86 120 152 197 254 288 339
#     4   7  12  21  35  62 102 137 169 216 266 317
#
# _framework density 28.847432999999999
#
# number of rings (size 3 to 8) (size 9 to 14) (size 15 to 20)
#    0.000    3.500    0.000    3.000    0.000    0.000 
#    0.000   11.250    0.000    3.750    0.000    0.000 
#    0.000    4.000    0.000    0.000    0.000    0.000 
#
# Total GULP energy -89137.587691 kJ/mol
# GULP energy per Si atom -5571.099231 kJ/mol
# Density = 2.878177 g / cm^3
# Si number density = 28.847433 Si / 1000 Ang^3
#
#
#
# Elastic Constant Matrix: (Units=GPa)
#
#
# Indices 1 2 3 4 5 6 
#
# 1 79.3791 27.0719 36.1227 0.0000 28.2303 0.0000
# 2 27.0719 234.5615 26.6232 0.0000 -1.0323 0.0000
# 3 36.1227 26.6232 236.9701 0.0000 33.4538 0.0000
# 4 0.0000 0.0000 0.0000 -32.7612 0.0000 3.1800
# 5 28.2303 -1.0323 33.4538 0.0000 72.8672 0.0000
# 6 0.0000 0.0000 0.0000 3.1800 0.0000 -14.7884
#
#
#
# Elastic Compliance Matrix: (Units=1/GPa)
#
#
# Indices 1 2 3 4 5 6 
#
# 1 0.015774 -0.001681 -0.001443 0.000000 -0.005472 0.000000
# 2 -0.001681 0.004504 -0.000375 0.000000 0.000887 0.000000
# 3 -0.001443 -0.000375 0.004709 0.000000 -0.001608 0.000000
# 4 0.000000 0.000000 0.000000 -0.031175 0.000000 -0.006704
# 5 -0.005472 0.000887 -0.001608 0.000000 0.016595 0.000000
# 6 0.000000 0.000000 0.000000 -0.006704 0.000000 -0.069062
#
#
# Mechanical properties :
#
#
# Convention : Reuss Voigt Hill
#
# Bulk Modulus (GPa) = 55.59000 81.17181 68.38091
# Shear Modulus (GPa) = -109.50217 35.80303 -36.84957
#
# Velocity S-wave (km/s) = -6.16778 3.52677 -3.57794
# Velocity P-wave (km/s) = 5.60444 6.69205 2.58590
#
# Compressibility (1/GPa) = 0.01798885
#
# Stress axis : x y z
#
# Youngs Moduli (GPa) = 63.39566 222.03775 212.35525
#
# Poissons Ratio (x) = 0.37321 0.30645
# Poissons Ratio (y) = 0.10656 0.07964
# Poissons Ratio (z) = 0.09149 0.08327
#
# Static dielectric constant tensor:
#      x y z
#    x 2.603650 0.000000 -0.202830 
#    y 0.000000 2.281250 0.000000 
#    z -0.202830 0.000000 2.395140 
# 
# From -- ./inp_files/332790.got.cif
#   From: 2010.05.17/outbox.cif.g08.bks.cpg/sg12_167_cif.got.tgz:332790.got - 2010.06.03 13:09:07.
