data_PCOD9187187
_publ_section_title
;
Structure prediction by ZEFSAII (Michael W. Deem and Ramdas Pophale) SiO2 
 PCOD9187187
Probable space group: C 2/M
;
_chemical_formula_sum "Si O2"
_cell_formula_units_Z 48
_cell_length_a 25.633324
_cell_length_b 8.490214
_cell_length_c 20.938007
_cell_angle_alpha 90.000000
_cell_angle_beta 144.394150
_cell_angle_gamma 90.000000
_cell_volume 2652.989744
_symmetry_space_group_name_H-M "C 2/M"
_symmetry_group_IT_number 12
_symmetry_cell_setting 'monoclinic'
loop_
_space_group_symop_operation_xyz
x,y,z
-x,y,-z
-x,-y,-z
x,-y,z
1/2+x,1/2+y,z
1/2-x,1/2+y,-z
1/2-x,1/2-y,-z
1/2+x,1/2-y,z
loop_
_atom_site_type_symbol
_atom_site_label
_atom_site_fract_x
_atom_site_fract_y
_atom_site_fract_z
Si Si1 0.698510 0.190607 0.886132
Si Si2 0.304640 0.188408 0.730489
Si Si3 0.994906 0.691684 0.265104
Si Si4 0.314364 0.688535 0.880035
Si Si5 0.190956 0.688889 0.500359
Si Si6 0.502200 0.190517 0.880767
O O1 0.595231 0.242840 0.788868
O O2 0.750033 0.243110 0.873782
O O3 0.699947 0.000000 0.888451
O O4 0.750000 0.250000 0.000000
O O5 0.286756 0.243110 0.784419
O O6 0.235531 0.255051 0.610159
O O7 0.405504 0.239639 0.811278
O O8 0.302762 0.000000 0.725001
O O9 0.995694 0.500000 0.266278
O O10 0.088616 0.744326 0.388645
O O11 0.990378 0.738752 0.186120
O O12 0.311061 0.500000 0.873899
O O13 0.414972 0.741558 0.997507
O O14 0.191258 0.500000 0.498594
O O15 0.250000 0.750000 0.500000
O O16 0.506976 0.000000 0.888449
#
# Coordination Sequence:
#
# PCOD9187187 Si02
#       6
#     8   8   8   8   8   8
#     4  10  20  36  58  82 111 145 186 227 272 330
#     4  11  23  39  57  81 113 154 191 226 278 337
#     4   9  18  35  58  83 111 145 184 224 273 333
#     4  11  23  36  54  86 117 146 185 233 282 328
#     4  11  21  37  60  85 113 147 187 232 277 329
#     4  10  19  35  58  82 112 150 186 221 275 342
#
# _framework density 18.092794000000001
#
# number of rings (size 3 to 8) (size 9 to 14) (size 15 to 20)
#    0.000    1.667    3.333    2.000    0.000    4.000 
#    0.000    2.500    0.000    5.000    0.000    0.000 
#    0.000    0.000    0.000    0.000    0.000    0.000 
#
# Total GULP energy -134061.397011 kJ/mol
# GULP energy per Si atom -5585.891542 kJ/mol
# Density = 1.805161 g / cm^3
# Si number density = 18.092794 Si / 1000 Ang^3
#
#
#
# Elastic Constant Matrix: (Units=GPa)
#
#
# Indices 1 2 3 4 5 6 
#
# 1 99.5554 17.2296 75.4382 0.0000 -5.6474 0.0000
# 2 17.2296 24.8239 25.2112 0.0000 -2.2351 0.0000
# 3 75.4382 25.2112 169.1525 0.0000 -5.0625 0.0000
# 4 0.0000 0.0000 0.0000 29.8722 0.0000 -6.1237
# 5 -5.6474 -2.2351 -5.0625 0.0000 36.0384 0.0000
# 6 0.0000 0.0000 0.0000 -6.1237 0.0000 23.4336
#
#
#
# Elastic Compliance Matrix: (Units=1/GPa)
#
#
# Indices 1 2 3 4 5 6 
#
# 1 0.015634 -0.004351 -0.006285 0.000000 0.001297 0.000000
# 2 -0.004351 0.048818 -0.005288 0.000000 0.001603 0.000000
# 3 -0.006285 -0.005288 0.009504 0.000000 0.000022 0.000000
# 4 0.000000 0.000000 0.000000 0.035371 0.000000 0.009243
# 5 0.001297 0.001603 0.000022 0.000000 0.028054 0.000000
# 6 0.000000 0.000000 0.000000 0.009243 0.000000 0.045089
#
#
# Mechanical properties :
#
#
# Convention : Reuss Voigt Hill
#
# Bulk Modulus (GPa) = 23.74839 58.80998 41.27919
# Shear Modulus (GPa) = 21.89595 29.57903 25.73749
#
# Velocity S-wave (km/s) = 3.48257 4.04772 3.77573
# Velocity P-wave (km/s) = 5.41530 7.37703 6.47093
#
# Compressibility (1/GPa) = 0.04210811
#
# Stress axis : x y z
#
# Youngs Moduli (GPa) = 63.96443 20.48412 105.22424
#
# Poissons Ratio (x) = 0.08913 0.66133
# Poissons Ratio (y) = 0.27832 0.55638
# Poissons Ratio (z) = 0.40201 0.10831
#
# Static dielectric constant tensor:
#      x y z
#    x 1.615860 0.000000 0.016810 
#    y 0.000000 1.602600 0.000000 
#    z 0.016810 0.000000 1.592680 
# 
# From -- ./inp_files/327171.got.cif
#   From: 2010.05.17/outbox.cif.g08.bks.cpg/sg12_164_cif.got.tgz:327171.got - 2010.06.03 13:09:07.
