data_PCOD9187145
_publ_section_title
;
Structure prediction by ZEFSAII (Michael W. Deem and Ramdas Pophale) SiO2 
 PCOD9187145
Probable space group: C 2/M
;
_chemical_formula_sum "Si O2"
_cell_formula_units_Z 48
_cell_length_a 16.119346
_cell_length_b 10.843996
_cell_length_c 15.180120
_cell_angle_alpha 90.000000
_cell_angle_beta 98.329804
_cell_angle_gamma 90.000000
_cell_volume 2625.464023
_symmetry_space_group_name_H-M "C 2/M"
_symmetry_group_IT_number 12
_symmetry_cell_setting 'monoclinic'
loop_
_space_group_symop_operation_xyz
x,y,z
-x,y,-z
-x,-y,-z
x,-y,z
1/2+x,1/2+y,z
1/2-x,1/2+y,-z
1/2-x,1/2-y,-z
1/2+x,1/2-y,z
loop_
_atom_site_type_symbol
_atom_site_label
_atom_site_fract_x
_atom_site_fract_y
_atom_site_fract_z
Si Si1 0.215283 0.359615 0.193973
Si Si2 0.469216 0.145363 0.338781
Si Si3 0.186846 0.364388 0.576097
Si Si4 0.094354 0.351638 0.013992
Si Si5 0.154488 0.299763 0.374349
Si Si6 0.158133 0.644728 0.833472
O O1 0.246575 0.500000 0.179090
O O2 0.145706 0.325887 0.110167
O O3 0.175982 0.363385 0.285290
O O4 0.282005 0.248523 0.198975
O O5 0.396076 0.194378 0.392698
O O6 0.554898 0.220797 0.358445
O O7 0.428045 0.147295 0.235686
O O8 0.489192 0.000000 0.363020
O O9 0.185916 0.500000 0.615404
O O10 0.173627 0.367019 0.469482
O O11 0.277244 0.308880 0.610075
O O12 0.087975 0.500000 0.008244
O O13 0.142003 0.317002 0.931856
O O14 0.000000 0.300860 0.000000
O O15 0.187246 0.500000 0.835153
#
# Coordination Sequence:
#
# PCOD9187145 Si02
#       6
#     8   8   8   8   8   8
#     4  11  21  34  54  83 114 144 181 231 284 329
#     4  10  19  35  58  81 106 143 192 233 269 327
#     4  10  21  37  56  80 111 145 188 236 284 335
#     4   9  18  33  55  82 109 140 184 232 273 323
#     4  11  21  34  58  82 111 145 188 233 284 331
#     4  10  20  36  57  81 110 147 187 226 273 334
#
# _framework density 18.282482000000002
#
# number of rings (size 3 to 8) (size 9 to 14) (size 15 to 20)
#    0.000    1.833    1.667    3.500    0.000    4.000 
#    0.000    0.833    0.000    6.000    0.000    0.000 
#    0.000    0.000    0.000    0.000    0.000    0.000 
#
# Total GULP energy -133617.282624 kJ/mol
# GULP energy per Si atom -5567.386776 kJ/mol
# Density = 1.824087 g / cm^3
# Si number density = 18.282482 Si / 1000 Ang^3
#
#
#
# Elastic Constant Matrix: (Units=GPa)
#
#
# Indices 1 2 3 4 5 6 
#
# 1 138.1319 52.0369 36.4305 0.0000 1.9133 0.0000
# 2 52.0369 52.9256 15.2842 0.0000 1.7048 0.0000
# 3 36.4305 15.2842 121.1907 0.0000 -0.9250 0.0000
# 4 0.0000 0.0000 0.0000 -353.3733 0.0000 -356.7321
# 5 1.9133 1.7048 -0.9250 0.0000 22.9480 0.0000
# 6 0.0000 0.0000 0.0000 -356.7321 0.0000 -323.4608
#
#
#
# Elastic Compliance Matrix: (Units=1/GPa)
#
#
# Indices 1 2 3 4 5 6 
#
# 1 0.012043 -0.011194 -0.002210 0.000000 -0.000262 0.000000
# 2 -0.011194 0.030069 -0.000437 0.000000 -0.001318 0.000000
# 3 -0.002210 -0.000437 0.008975 0.000000 0.000579 0.000000
# 4 0.000000 0.000000 0.000000 0.024967 0.000000 -0.027535
# 5 -0.000262 -0.001318 0.000579 0.000000 0.043720 0.000000
# 6 0.000000 0.000000 0.000000 -0.027535 0.000000 0.027276
#
#
# Mechanical properties :
#
#
# Convention : Reuss Voigt Hill
#
# Bulk Modulus (GPa) = 42.72734 57.75016 50.23875
# Shear Modulus (GPa) = 27.39180 -116.87745 -44.74283
#
# Velocity S-wave (km/s) = 3.87493 -8.00421 -4.95239
# Velocity P-wave (km/s) = 6.59101 7.33260 2.27217
#
# Compressibility (1/GPa) = 0.02340422
#
# Stress axis : x y z
#
# Youngs Moduli (GPa) = 83.03511 33.25640 111.41442
#
# Poissons Ratio (x) = 0.37228 0.24627
# Poissons Ratio (y) = 0.92951 0.04872
# Poissons Ratio (z) = 0.18354 0.01454
#
# Static dielectric constant tensor:
#      x y z
#    x 1.635440 0.000000 -0.014760 
#    y 0.000000 1.634500 0.000000 
#    z -0.014760 0.000000 1.667690 
# 
# From -- ./inp_files/212747.got.cif
#   From: 2010.05.17/outbox.cif.g08.bks.cpg/sg12_107_cif.got.tgz:212747.got - 2010.06.03 13:09:07.
