data_PCOD9187838
_publ_section_title
;
Structure prediction by ZEFSAII (Michael W. Deem and Ramdas Pophale) SiO2 
 PCOD9187838
Probable space group: C 2/M
;
_chemical_formula_sum "Si O2"
_cell_formula_units_Z 50
_cell_length_a 26.993244
_cell_length_b 7.508025
_cell_length_c 13.122934
_cell_angle_alpha 90.000000
_cell_angle_beta 51.571002
_cell_angle_gamma 90.000000
_cell_volume 2083.452739
_symmetry_space_group_name_H-M "C 2/M"
_symmetry_group_IT_number 12
_symmetry_cell_setting 'monoclinic'
loop_
_space_group_symop_operation_xyz
x,y,z
-x,y,-z
-x,-y,-z
x,-y,z
1/2+x,1/2+y,z
1/2-x,1/2+y,-z
1/2-x,1/2-y,-z
1/2+x,1/2-y,z
loop_
_atom_site_type_symbol
_atom_site_label
_atom_site_fract_x
_atom_site_fract_y
_atom_site_fract_z
Si Si1 0.276326 0.699782 0.661645
Si Si2 0.500000 0.000000 0.500000
Si Si3 0.211306 0.793569 0.948647
Si Si4 0.547672 0.782800 0.709695
Si Si5 0.916405 0.712958 0.970444
Si Si6 0.348216 0.782120 0.264895
Si Si7 0.411113 0.703085 0.558960
O O1 0.290678 0.500000 0.606703
O O2 0.238750 0.690462 0.816709
O O3 0.223975 0.782697 0.653812
O O4 0.343505 0.778358 0.606355
O O5 0.445862 0.843274 0.585097
O O6 0.220095 0.000000 0.914200
O O7 0.250000 0.750000 0.000000
O O8 0.136536 0.755843 0.046388
O O9 0.486039 0.725581 0.851460
O O10 0.611502 0.734322 0.688097
O O11 0.548619 0.703553 0.596723
O O12 0.545588 0.000000 0.700742
O O13 0.920891 0.500000 0.974067
O O14 0.888342 0.777353 0.114288
O O15 0.345442 0.000000 0.265520
O O16 0.404111 0.500000 0.606567
#
# Coordination Sequence:
#
# PCOD9187838 Si02
#       7
#     8   2   8   8   8   8   8
#     4   9  20  40  62  88 122 159 204 260 312 374
#     4  12  26  48  68  86 122 168 208 264 312 382
#     4  11  22  36  58  84 114 155 205 259 316 372
#     4  10  19  35  61  93 128 169 212 256 307 380
#     4   9  18  34  56  86 126 166 208 254 306 373
#     4   8  15  32  61  92 124 166 209 250 314 373
#     4  11  25  44  67  94 126 165 214 263 317 373
#
# _framework density 23.998624
#
# number of rings (size 3 to 8) (size 9 to 14) (size 15 to 20)
#    0.000    2.240    0.800    3.120    1.120    4.480 
#    0.000    3.200    0.000    4.800    0.000    0.000 
#    0.000    0.000    0.000    0.000    0.000    0.000 
#
# Total GULP energy -139410.186770 kJ/mol
# GULP energy per Si atom -5576.407471 kJ/mol
# Density = 2.394400 g / cm^3
# Si number density = 23.998624 Si / 1000 Ang^3
#
#
#
# Elastic Constant Matrix: (Units=GPa)
#
#
# Indices 1 2 3 4 5 6 
#
# 1 124.2960 16.2576 15.4636 0.0000 -28.8179 0.0000
# 2 16.2576 103.4135 10.2944 0.0000 -12.9205 0.0000
# 3 15.4636 10.2944 33.8007 0.0000 -17.6618 0.0000
# 4 0.0000 0.0000 0.0000 11.4547 0.0000 0.3351
# 5 -28.8179 -12.9205 -17.6618 0.0000 39.9083 0.0000
# 6 0.0000 0.0000 0.0000 0.3351 0.0000 22.3007
#
#
#
# Elastic Compliance Matrix: (Units=1/GPa)
#
#
# Indices 1 2 3 4 5 6 
#
# 1 0.009729 -0.000638 -0.000902 0.000000 0.006420 0.000000
# 2 -0.000638 0.010202 -0.001730 0.000000 0.002077 0.000000
# 3 -0.000902 -0.001730 0.038884 0.000000 0.015997 0.000000
# 4 0.000000 0.000000 0.000000 0.087338 0.000000 -0.001313
# 5 0.006420 0.002077 0.015997 0.000000 0.037445 0.000000
# 6 0.000000 0.000000 0.000000 -0.001313 0.000000 0.044861
#
#
# Mechanical properties :
#
#
# Convention : Reuss Voigt Hill
#
# Bulk Modulus (GPa) = 19.12982 38.39349 28.76166
# Shear Modulus (GPa) = 19.80785 29.36572 24.58678
#
# Velocity S-wave (km/s) = 2.87605 3.50185 3.20427
# Velocity P-wave (km/s) = 4.36089 5.69066 5.06957
#
# Compressibility (1/GPa) = 0.05227440
#
# Stress axis : x y z
#
# Youngs Moduli (GPa) = 102.78124 98.02123 25.71773
#
# Poissons Ratio (x) = 0.06250 0.02321
# Poissons Ratio (y) = 0.06554 0.04450
# Poissons Ratio (z) = 0.09275 0.16960
#
# Static dielectric constant tensor:
#      x y z
#    x 1.965300 0.000000 -0.016230 
#    y 0.000000 1.901100 0.000000 
#    z -0.016230 0.000000 1.904350 
# 
# From -- ./inp_files/243544.got.cif
#   From: 2010.05.17/outbox.cif.g08.bks.cpg/sg12_122_cif.got.tgz:243544.got - 2010.06.03 13:09:07.
