data_PCOD9187671
_publ_section_title
;
Structure prediction by ZEFSAII (Michael W. Deem and Ramdas Pophale) SiO2 
 PCOD9187671
Probable space group: C 2/M
;
_chemical_formula_sum "Si O2"
_cell_formula_units_Z 64
_cell_length_a 23.347479
_cell_length_b 16.246923
_cell_length_c 15.399409
_cell_angle_alpha 90.000000
_cell_angle_beta 148.842803
_cell_angle_gamma 90.000000
_cell_volume 3022.257093
_symmetry_space_group_name_H-M "C 2/M"
_symmetry_group_IT_number 12
_symmetry_cell_setting 'monoclinic'
loop_
_space_group_symop_operation_xyz
x,y,z
-x,y,-z
-x,-y,-z
x,-y,z
1/2+x,1/2+y,z
1/2-x,1/2+y,-z
1/2-x,1/2-y,-z
1/2+x,1/2-y,z
loop_
_atom_site_type_symbol
_atom_site_label
_atom_site_fract_x
_atom_site_fract_y
_atom_site_fract_z
Si Si1 0.803571 0.327179 0.621068
Si Si2 0.428564 0.586839 0.994450
Si Si3 0.129027 0.747919 0.675732
Si Si4 0.839227 0.592988 0.164382
Si Si5 0.939009 0.137230 0.664633
Si Si6 0.381135 0.588244 0.229649
Si Si7 0.482628 0.824547 0.197091
Si Si8 0.667164 0.235806 0.155928
O O1 0.750000 0.250000 0.500000
O O2 0.692733 0.376451 0.501915
O O3 0.859939 0.295312 0.783264
O O4 0.902906 0.363155 0.691564
O O5 0.366248 0.500000 0.923801
O O6 0.360297 0.669037 0.893430
O O7 0.500000 0.582472 0.000000
O O8 0.507768 0.598810 0.179597
O O9 0.165741 0.664503 0.770692
O O10 0.145104 0.830486 0.751425
O O11 0.200354 0.765970 0.683220
O O12 0.000000 0.738179 0.500000
O O13 0.872840 0.500000 0.234524
O O14 0.920487 0.626169 0.192741
O O15 0.714763 0.587231 0.966754
O O16 0.000402 0.098803 0.661955
O O17 0.978981 0.233519 0.720292
O O18 0.375828 0.500000 0.269818
O O19 0.397462 0.810769 0.005732
#
# Coordination Sequence:
#
# PCOD9187671 Si02
#       8
#     8   8   8   8   8   8   8   8
#     4  10  21  35  61  92 123 163 211 256 316 381
#     4  10  20  35  56  88 124 158 205 258 306 366
#     4  12  25  40  64  93 134 164 208 266 327 383
#     4  11  23  42  66  94 127 172 221 262 315 383
#     4  10  19  35  60  88 121 162 205 253 315 370
#     4  11  22  40  66  93 123 163 214 264 311 374
#     4  10  19  37  64  87 125 161 216 258 301 375
#     4  11  21  37  63  92 120 165 217 256 314 377
#
# _framework density 21.176226
#
# number of rings (size 3 to 8) (size 9 to 14) (size 15 to 20)
#    0.000    1.375    2.500    5.625    1.750    2.000 
#    0.000    1.250    0.000    3.000    0.000    0.000 
#    0.000    0.000    0.000    0.000    0.000    0.000 
#
# Total GULP energy -178617.193804 kJ/mol
# GULP energy per Si atom -5581.787306 kJ/mol
# Density = 2.112803 g / cm^3
# Si number density = 21.176226 Si / 1000 Ang^3
#
#
#
# Elastic Constant Matrix: (Units=GPa)
#
#
# Indices 1 2 3 4 5 6 
#
# 1 97.0910 13.1849 -4.7548 0.0000 21.7438 0.0000
# 2 13.1849 96.2294 -6.0949 0.0000 -5.8497 0.0000
# 3 -4.7548 -6.0949 43.0980 0.0000 16.0113 0.0000
# 4 0.0000 0.0000 0.0000 113.8220 0.0000 -247.0904
# 5 21.7438 -5.8497 16.0113 0.0000 43.8653 0.0000
# 6 0.0000 0.0000 0.0000 -247.0904 0.0000 631.1871
#
#
#
# Elastic Compliance Matrix: (Units=1/GPa)
#
#
# Indices 1 2 3 4 5 6 
#
# 1 0.012546 -0.001946 0.004067 0.000000 -0.007963 0.000000
# 2 -0.001946 0.010825 0.000488 0.000000 0.002230 0.000000
# 3 0.004067 0.000488 0.028281 0.000000 -0.012274 0.000000
# 4 0.000000 0.000000 0.000000 0.058501 0.000000 0.022901
# 5 -0.007963 0.002230 -0.012274 0.000000 0.031522 0.000000
# 6 0.000000 0.000000 0.000000 0.022901 0.000000 0.010550
#
#
# Mechanical properties :
#
#
# Convention : Reuss Voigt Hill
#
# Bulk Modulus (GPa) = 17.58356 26.78764 22.18560
# Shear Modulus (GPa) = 30.12738 173.38042 101.75390
#
# Velocity S-wave (km/s) = 3.77596 9.05830 6.93940
# Velocity P-wave (km/s) = 5.22800 11.04903 8.64329
#
# Compressibility (1/GPa) = 0.05687129
#
# Stress axis : x y z
#
# Youngs Moduli (GPa) = 79.70406 92.38008 35.36003
#
# Poissons Ratio (x) = 0.17973 -0.14383
# Poissons Ratio (y) = 0.15507 -0.01725
# Poissons Ratio (z) = -0.32419 -0.04506
#
# Static dielectric constant tensor:
#      x y z
#    x 1.782480 0.000000 0.025320 
#    y 0.000000 1.879880 0.000000 
#    z 0.025320 0.000000 1.722850 
# 
# From -- ./inp_files/241518.got.cif
#   From: 2010.05.17/outbox.cif.g08.bks.cpg/sg12_121_cif.got.tgz:241518.got - 2010.06.03 13:09:07.
