data_PCOD9187168
_publ_section_title
;
Structure prediction by ZEFSAII (Michael W. Deem and Ramdas Pophale) SiO2 
 PCOD9187168
Probable space group: C 2/M
;
_chemical_formula_sum "Si O2"
_cell_formula_units_Z 40
_cell_length_a 30.700928
_cell_length_b 13.640724
_cell_length_c 5.287939
_cell_angle_alpha 90.000000
_cell_angle_beta 89.999203
_cell_angle_gamma 90.000000
_cell_volume 2214.498352
_symmetry_space_group_name_H-M "C 2/M"
_symmetry_group_IT_number 12
_symmetry_cell_setting 'monoclinic'
loop_
_space_group_symop_operation_xyz
x,y,z
-x,y,-z
-x,-y,-z
x,-y,z
1/2+x,1/2+y,z
1/2-x,1/2+y,-z
1/2-x,1/2-y,-z
1/2+x,1/2-y,z
loop_
_atom_site_type_symbol
_atom_site_label
_atom_site_fract_x
_atom_site_fract_y
_atom_site_fract_z
Si Si1 0.868214 0.111784 0.659170
Si Si2 0.699228 0.225862 0.495534
Si Si3 0.333051 0.884681 0.003698
Si Si4 0.083731 0.732015 0.051099
Si Si5 0.952010 0.805486 0.454978
O O1 0.830079 0.176045 0.534548
O O2 0.883788 0.174176 0.904301
O O3 0.912192 0.118750 0.490018
O O4 0.856354 0.000000 0.708530
O O5 0.750000 0.250000 0.500000
O O6 0.687726 0.159688 0.251511
O O7 0.685717 0.169827 0.750306
O O8 0.384419 0.858535 0.991607
O O9 0.325651 0.000000 0.019600
O O10 0.057979 0.729661 0.315570
O O11 0.053519 0.755078 0.814800
O O12 0.000000 0.846948 0.500000
#
# Coordination Sequence:
#
# PCOD9187168 Si02
#       5
#     8   8   8   8   8
#     4   9  21  36  57  83 119 154 188 235 293 344
#     4  11  23  41  59  90 121 150 194 245 290 353
#     4  11  21  40  65  86 113 156 198 241 293 341
#     4   9  19  37  53  85 114 151 192 242 282 339
#     4  10  19  35  58  81 117 155 193 234 292 346
#
# _framework density 18.062781000000001
#
# number of rings (size 3 to 8) (size 9 to 14) (size 15 to 20)
#    1.200    0.800    2.000    1.800    0.000    2.800 
#    0.000    1.000    0.000    3.600    0.000    0.000 
#    0.000    0.000    0.000    0.000    0.000    0.000 
#
# Total GULP energy -111354.732438 kJ/mol
# GULP energy per Si atom -5567.736622 kJ/mol
# Density = 1.802167 g / cm^3
# Si number density = 18.062781 Si / 1000 Ang^3
#
#
#
# Elastic Constant Matrix: (Units=GPa)
#
#
# Indices 1 2 3 4 5 6 
#
# 1 102.1684 39.0608 8.8318 0.0000 11.3194 0.0000
# 2 39.0608 85.5139 16.2002 0.0000 -0.4493 0.0000
# 3 8.8318 16.2002 100.8806 0.0000 -6.8968 0.0000
# 4 0.0000 0.0000 0.0000 15.1957 0.0000 -2.1293
# 5 11.3194 -0.4493 -6.8968 0.0000 23.3445 0.0000
# 6 0.0000 0.0000 0.0000 -2.1293 0.0000 3.2562
#
#
#
# Elastic Compliance Matrix: (Units=1/GPa)
#
#
# Indices 1 2 3 4 5 6 
#
# 1 0.012756 -0.005740 -0.000638 0.000000 -0.006484 0.000000
# 2 -0.005740 0.014646 -0.001674 0.000000 0.002570 0.000000
# 3 -0.000638 -0.001674 0.010468 0.000000 0.003370 0.000000
# 4 0.000000 0.000000 0.000000 0.072446 0.000000 0.047374
# 5 -0.006484 0.002570 0.003370 0.000000 0.047026 0.000000
# 6 0.000000 0.000000 0.000000 0.047374 0.000000 0.338089
#
#
# Mechanical properties :
#
#
# Convention : Reuss Voigt Hill
#
# Bulk Modulus (GPa) = 45.94255 46.30535 46.12395
# Shear Modulus (GPa) = 9.63781 23.32393 16.48087
#
# Velocity S-wave (km/s) = 2.31243 3.59732 3.02391
# Velocity P-wave (km/s) = 5.71138 6.55330 6.14677
#
# Compressibility (1/GPa) = 0.02176631
#
# Stress axis : x y z
#
# Youngs Moduli (GPa) = 78.39638 68.27640 95.53137
#
# Poissons Ratio (x) = 0.39188 0.06098
# Poissons Ratio (y) = 0.44997 0.15990
# Poissons Ratio (z) = 0.05004 0.11428
#
# Static dielectric constant tensor:
#      x y z
#    x 1.627700 0.000000 -0.013520 
#    y 0.000000 1.597050 0.000000 
#    z -0.013520 0.000000 1.629320 
# 
# From -- ./inp_files/30650.got.cif
#   From: 2010.05.17/outbox.cif.g08.bks.cpg/sg12_16_cif.got.tgz:30650.got - 2010.06.03 13:09:07.
