data_PCOD9187866
_publ_section_title
;
Structure prediction by ZEFSAII (Michael W. Deem and Ramdas Pophale) SiO2 
 PCOD9187866
Probable space group: C 2/M
;
_chemical_formula_sum "Si O2"
_cell_formula_units_Z 60
_cell_length_a 23.909688
_cell_length_b 18.167011
_cell_length_c 7.254802
_cell_angle_alpha 90.000000
_cell_angle_beta 119.752312
_cell_angle_gamma 90.000000
_cell_volume 2735.849003
_symmetry_space_group_name_H-M "C 2/M"
_symmetry_group_IT_number 12
_symmetry_cell_setting 'monoclinic'
loop_
_space_group_symop_operation_xyz
x,y,z
-x,y,-z
-x,-y,-z
x,-y,z
1/2+x,1/2+y,z
1/2-x,1/2+y,-z
1/2-x,1/2-y,-z
1/2+x,1/2-y,z
loop_
_atom_site_type_symbol
_atom_site_label
_atom_site_fract_x
_atom_site_fract_y
_atom_site_fract_z
Si Si1 0.981465 0.254992 0.173768
Si Si2 0.723822 0.419167 0.302827
Si Si3 0.638473 0.893999 0.629531
Si Si4 0.121536 0.231482 0.511344
Si Si5 0.340876 0.732475 0.865858
Si Si6 0.312782 0.000000 0.041915
Si Si7 0.238721 0.865492 0.744832
Si Si8 0.994844 0.420473 0.713804
O O1 0.043549 0.228934 0.393208
O O2 0.979269 0.344036 0.168865
O O3 0.000000 0.228495 0.000000
O O4 0.907997 0.233108 0.086391
O O5 0.692561 0.500000 0.233606
O O6 0.794088 0.424697 0.329621
O O7 0.689360 0.348341 0.161826
O O8 0.735544 0.398319 0.533693
O O9 0.640801 0.807194 0.640417
O O10 0.582934 0.914734 0.394980
O O11 0.632815 0.935880 0.812653
O O12 0.141362 0.240666 0.325239
O O13 0.167427 0.167516 0.662310
O O14 0.289567 0.796839 0.829101
O O15 0.262356 0.933622 0.903867
O O16 0.015899 0.500000 0.819037
O O17 0.000000 0.416817 0.500000
#
# Coordination Sequence:
#
# PCOD9187866 Si02
#       8
#     8   8   8   8   8   4   8   8
#     4   9  20  35  56  81 107 139 189 229 263 333
#     4  11  19  37  62  82 112 147 180 234 290 334
#     4  11  20  37  54  81 110 151 184 222 280 332
#     4   9  18  38  60  77 110 154 182 225 282 338
#     4  10  19  35  62  88 109 142 191 233 274 329
#     4  12  26  32  51  88 120 140 190 240 266 318
#     4  11  21  36  58  86 113 146 185 237 280 325
#     4  10  21  35  52  71 112 154 178 214 276 335
#
# _framework density 21.931035000000001
#
# number of rings (size 3 to 8) (size 9 to 14) (size 15 to 20)
#    0.000    1.733    4.667    0.800    1.867    0.800 
#    0.000    0.000    1.467    2.000    0.000    0.933 
#    0.000    0.000    0.000    0.000    0.000    0.000 
#
# Total GULP energy -167006.416898 kJ/mol
# GULP energy per Si atom -5566.880563 kJ/mol
# Density = 2.188112 g / cm^3
# Si number density = 21.931035 Si / 1000 Ang^3
#
#
#
# Elastic Constant Matrix: (Units=GPa)
#
#
# Indices 1 2 3 4 5 6 
#
# 1 78.8981 42.9195 24.7467 0.0000 21.7151 0.0000
# 2 42.9195 174.6027 53.9610 0.0000 33.0290 0.0000
# 3 24.7467 53.9610 74.0695 0.0000 26.4347 0.0000
# 4 0.0000 0.0000 0.0000 -2.4054 0.0000 1.9694
# 5 21.7151 33.0290 26.4347 0.0000 40.5595 0.0000
# 6 0.0000 0.0000 0.0000 1.9694 0.0000 14.2532
#
#
#
# Elastic Compliance Matrix: (Units=1/GPa)
#
#
# Indices 1 2 3 4 5 6 
#
# 1 0.016014 -0.002379 -0.001627 0.000000 -0.005576 0.000000
# 2 -0.002379 0.008093 -0.004175 0.000000 -0.002596 0.000000
# 3 -0.001627 -0.004175 0.020279 0.000000 -0.008946 0.000000
# 4 0.000000 0.000000 0.000000 -0.373476 0.000000 0.051604
# 5 -0.005576 -0.002596 -0.008946 0.000000 0.035585 0.000000
# 6 0.000000 0.000000 0.000000 0.051604 0.000000 0.063029
#
#
# Mechanical properties :
#
#
# Convention : Reuss Voigt Hill
#
# Bulk Modulus (GPa) = 35.68379 63.42496 49.55438
# Shear Modulus (GPa) = -24.41722 24.21100 -0.10311
#
# Velocity S-wave (km/s) = -3.34033 3.32620 -0.21707
# Velocity P-wave (km/s) = 1.19547 6.61320 4.75203
#
# Compressibility (1/GPa) = 0.02802393
#
# Stress axis : x y z
#
# Youngs Moduli (GPa) = 62.44695 123.55809 49.31301
#
# Poissons Ratio (x) = 0.29390 0.08025
# Poissons Ratio (y) = 0.14854 0.20588
# Poissons Ratio (z) = 0.10162 0.51584
#
# Static dielectric constant tensor:
#      x y z
#    x 1.939890 0.000000 -0.056090 
#    y 0.000000 1.749170 0.000000 
#    z -0.056090 0.000000 1.880940 
# 
# From -- ./inp_files/105822.got.cif
#   From: 2010.05.17/outbox.cif.g08.bks.cpg/sg12_53_cif.got.tgz:105822.got - 2010.06.03 13:09:07.
