data_PCOD9187698
_publ_section_title
;
Structure prediction by ZEFSAII (Michael W. Deem and Ramdas Pophale) SiO2 
 PCOD9187698
Probable space group: C 2/M
;
_chemical_formula_sum "Si O2"
_cell_formula_units_Z 56
_cell_length_a 19.581467
_cell_length_b 8.826160
_cell_length_c 27.987209
_cell_angle_alpha 90.000000
_cell_angle_beta 38.852862
_cell_angle_gamma 90.000000
_cell_volume 3034.362957
_symmetry_space_group_name_H-M "C 2/M"
_symmetry_group_IT_number 12
_symmetry_cell_setting 'monoclinic'
loop_
_space_group_symop_operation_xyz
x,y,z
-x,y,-z
-x,-y,-z
x,-y,z
1/2+x,1/2+y,z
1/2-x,1/2+y,-z
1/2-x,1/2-y,-z
1/2+x,1/2-y,z
loop_
_atom_site_type_symbol
_atom_site_label
_atom_site_fract_x
_atom_site_fract_y
_atom_site_fract_z
Si Si1 0.430029 0.181908 0.134862
Si Si2 0.408552 0.820650 0.709473
Si Si3 0.721416 0.180519 0.872802
Si Si4 0.364023 0.819968 0.452179
Si Si5 0.877994 0.827039 0.546220
Si Si6 0.257027 0.178732 0.699737
Si Si7 0.829790 0.818806 0.996683
O O1 0.372517 0.219411 0.115112
O O2 0.348864 0.243677 0.219683
O O3 0.547687 0.256210 0.075964
O O4 0.438306 0.000000 0.132934
O O5 0.334840 0.728817 0.786540
O O6 0.532536 0.767839 0.635649
O O7 0.350436 0.805354 0.689453
O O8 0.405917 0.000000 0.723129
O O9 0.717279 0.000000 0.882736
O O10 0.706081 0.265197 0.930973
O O11 0.250000 0.750000 0.500000
O O12 0.381728 0.772714 0.497013
O O13 0.360654 0.000000 0.449839
O O14 0.798473 0.758154 0.629315
O O15 0.000000 0.829519 0.500000
O O16 0.845754 0.000000 0.552271
O O17 0.238790 0.000000 0.702108
O O18 0.828560 0.000000 0.994143
O O19 0.750000 0.750000 0.000000
#
# Coordination Sequence:
#
# PCOD9187698 Si02
#       7
#     8   8   8   8   8   8   8
#     4  10  21  39  63  92 124 155 194 242 291 350
#     4   9  19  36  59  86 118 154 196 245 295 349
#     4  10  21  38  64  93 120 153 195 242 293 350
#     4  11  23  40  59  84 119 159 202 248 300 356
#     4  11  22  36  59  88 119 156 201 248 298 352
#     4  10  19  35  60  90 120 153 198 247 296 347
#     4  12  25  42  63  88 122 159 197 241 294 352
#
# _framework density 18.455275
#
# number of rings (size 3 to 8) (size 9 to 14) (size 15 to 20)
#    0.000    1.571    1.429    3.857    0.000    5.714 
#    2.571    0.000    0.000    0.000    0.000    0.000 
#    0.000    0.000    0.000    0.000    0.000    0.000 
#
# Total GULP energy -156444.823868 kJ/mol
# GULP energy per Si atom -5587.315138 kJ/mol
# Density = 1.841327 g / cm^3
# Si number density = 18.455275 Si / 1000 Ang^3
#
#
#
# Elastic Constant Matrix: (Units=GPa)
#
#
# Indices 1 2 3 4 5 6 
#
# 1 80.6053 44.4675 72.1526 -0.0002 -19.6625 0.0006
# 2 44.4675 94.8360 64.9418 -0.0002 -13.0082 0.0005
# 3 72.1526 64.9418 151.1628 -0.0001 -15.7422 0.0002
# 4 -0.0002 -0.0002 -0.0001 35.7153 0.0000 -0.1078
# 5 -19.6625 -13.0082 -15.7422 0.0000 26.0545 -0.0001
# 6 0.0006 0.0005 0.0002 -0.1078 -0.0001 30.7627
#
#
#
# Elastic Compliance Matrix: (Units=1/GPa)
#
#
# Indices 1 2 3 4 5 6 
#
# 1 0.025989 -0.004122 -0.009397 0.000000 0.011878 0.000000
# 2 -0.004122 0.015959 -0.004677 0.000000 0.002031 0.000000
# 3 -0.009397 -0.004677 0.012943 0.000000 -0.001607 0.000000
# 4 0.000000 0.000000 0.000000 0.028000 0.000000 0.000098
# 5 0.011878 0.002031 -0.001607 0.000000 0.047388 0.000000
# 6 0.000000 0.000000 0.000000 0.000098 0.000000 0.032507
#
#
# Mechanical properties :
#
#
# Convention : Reuss Voigt Hill
#
# Bulk Modulus (GPa) = 54.05926 76.63644 65.34785
# Shear Modulus (GPa) = 24.34937 28.17598 26.26267
#
# Velocity S-wave (km/s) = 3.63626 3.91156 3.77642
# Velocity P-wave (km/s) = 6.85459 7.87503 7.38246
#
# Compressibility (1/GPa) = 0.01849822
#
# Stress axis : x y z
#
# Youngs Moduli (GPa) = 38.47737 62.66230 77.26189
#
# Poissons Ratio (x) = 0.25827 0.72607
# Poissons Ratio (y) = 0.15859 0.36137
# Poissons Ratio (z) = 0.36159 0.29308
#
# Static dielectric constant tensor:
#      x y z
#    x 1.618820 0.000000 0.011450 
#    y 0.000000 1.618940 0.000000 
#    z 0.011450 0.000000 1.624130 
# 
# From -- ./inp_files/362968.got.cif
#   From: 2010.05.17/outbox.cif.g08.bks.cpg/sg12_182_cif.got.tgz:362968.got - 2010.06.03 13:09:07.
