data_PCOD9187191
_publ_section_title
;
Structure prediction by ZEFSAII (Michael W. Deem and Ramdas Pophale) SiO2 
 PCOD9187191
Probable space group: C 2/M
;
_chemical_formula_sum "Si O2"
_cell_formula_units_Z 64
_cell_length_a 24.039259
_cell_length_b 21.309382
_cell_length_c 12.190574
_cell_angle_alpha 90.000000
_cell_angle_beta 31.488562
_cell_angle_gamma 90.000000
_cell_volume 3261.817643
_symmetry_space_group_name_H-M "C 2/M"
_symmetry_group_IT_number 12
_symmetry_cell_setting 'monoclinic'
loop_
_space_group_symop_operation_xyz
x,y,z
-x,y,-z
-x,-y,-z
x,-y,z
1/2+x,1/2+y,z
1/2-x,1/2+y,-z
1/2-x,1/2-y,-z
1/2+x,1/2-y,z
loop_
_atom_site_type_symbol
_atom_site_label
_atom_site_fract_x
_atom_site_fract_y
_atom_site_fract_z
Si Si1 0.372387 0.926523 0.722544
Si Si2 0.723158 0.322488 0.077424
Si Si3 0.658691 0.069506 0.478393
Si Si4 0.886031 0.214695 0.327380
Si Si5 0.093331 0.829807 0.092232
Si Si6 0.990372 0.345390 0.131622
Si Si7 0.717097 0.211587 0.795459
Si Si8 0.388806 0.400025 0.150391
O O1 0.500000 0.917307 0.500000
O O2 0.315085 0.872981 0.891199
O O3 0.327699 0.918747 0.674072
O O4 0.354190 0.000000 0.786824
O O5 0.750000 0.250000 0.000000
O O6 0.624044 0.340272 0.166152
O O7 0.712337 0.318987 0.226502
O O8 0.576358 0.118220 0.666337
O O9 0.770915 0.071958 0.354025
O O10 0.612580 0.000000 0.565768
O O11 0.923667 0.281809 0.220429
O O12 0.778370 0.215881 0.577922
O O13 0.885409 0.163499 0.231221
O O14 0.977658 0.198404 0.262496
O O15 0.179567 0.780539 0.897548
O O16 0.097714 0.887395 0.001621
O O17 0.000000 0.380943 0.000000
O O18 0.108139 0.327420 0.971450
O O19 0.500000 0.431060 0.000000
#
# Coordination Sequence:
#
# PCOD9187191 Si02
#       8
#     8   8   8   8   8   8   8   8
#     4  10  21  39  62  86 117 161 206 244 296 366
#     4  10  20  35  53  84 122 148 189 253 308 344
#     4  11  23  37  58  84 112 154 198 242 287 341
#     4  10  20  33  57  83 113 153 189 230 294 358
#     4   9  18  33  50  80 114 147 187 236 291 348
#     4  11  22  36  56  81 116 155 193 237 288 352
#     4  10  20  33  50  82 115 149 188 235 295 349
#     4  10  19  35  58  82 115 146 189 241 285 346
#
# _framework density 19.620961999999999
#
# number of rings (size 3 to 8) (size 9 to 14) (size 15 to 20)
#    0.000    1.875    1.250    4.125    1.750    2.500 
#    0.000    0.000    0.000    0.750    0.000    0.875 
#    0.000    0.000    0.000    0.000    0.000    0.000 
#
# Total GULP energy -178410.005800 kJ/mol
# GULP energy per Si atom -5575.312681 kJ/mol
# Density = 1.957630 g / cm^3
# Si number density = 19.620962 Si / 1000 Ang^3
#
#
#
# Elastic Constant Matrix: (Units=GPa)
#
#
# Indices 1 2 3 4 5 6 
#
# 1 119.3727 1.0854 16.0838 0.0000 -9.7064 0.0000
# 2 1.0854 64.8238 20.9989 0.0000 6.4454 0.0000
# 3 16.0838 20.9989 81.0357 0.0000 -5.7660 0.0000
# 4 0.0000 0.0000 0.0000 -61.6771 0.0000 23.7818
# 5 -9.7064 6.4454 -5.7660 0.0000 33.0061 0.0000
# 6 0.0000 0.0000 0.0000 23.7818 0.0000 9.6606
#
#
#
# Elastic Compliance Matrix: (Units=1/GPa)
#
#
# Indices 1 2 3 4 5 6 
#
# 1 0.008779 0.000152 -0.001620 0.000000 0.002269 0.000000
# 2 0.000152 0.017410 -0.004840 0.000000 -0.004201 0.000000
# 3 -0.001620 -0.004840 0.014125 0.000000 0.002936 0.000000
# 4 0.000000 0.000000 0.000000 -0.008318 0.000000 0.020477
# 5 0.002269 -0.004201 0.002936 0.000000 0.032298 0.000000
# 6 0.000000 0.000000 0.000000 0.020477 0.000000 0.053105
#
#
# Mechanical properties :
#
#
# Convention : Reuss Voigt Hill
#
# Bulk Modulus (GPa) = 36.10614 37.95206 37.02910
# Shear Modulus (GPa) = 35.90732 11.33554 23.62143
#
# Velocity S-wave (km/s) = 4.28255 2.40620 3.47347
# Velocity P-wave (km/s) = 6.54946 5.20618 5.91607
#
# Compressibility (1/GPa) = 0.02769612
#
# Stress axis : x y z
#
# Youngs Moduli (GPa) = 113.91411 57.43972 70.79597
#
# Poissons Ratio (x) = -0.00875 0.11472
# Poissons Ratio (y) = -0.01735 0.34269
# Poissons Ratio (z) = 0.18459 0.27804
#
# Static dielectric constant tensor:
#      x y z
#    x 1.747510 0.000000 -0.027090 
#    y 0.000000 1.712100 0.000000 
#    z -0.027090 0.000000 1.686400 
# 
# From -- ./inp_files/178390.got.cif
#   From: 2010.05.17/outbox.cif.g08.bks.cpg/sg12_90_cif.got.tgz:178390.got - 2010.06.03 13:09:07.
