data_PCOD9187338
_publ_section_title
;
Structure prediction by ZEFSAII (Michael W. Deem and Ramdas Pophale) SiO2 
 PCOD9187338
Probable space group: C 2/M
;
_chemical_formula_sum "Si O2"
_cell_formula_units_Z 64
_cell_length_a 28.364366
_cell_length_b 21.228260
_cell_length_c 5.253249
_cell_angle_alpha 90.000000
_cell_angle_beta 60.604966
_cell_angle_gamma 90.000000
_cell_volume 2755.887118
_symmetry_space_group_name_H-M "C 2/M"
_symmetry_group_IT_number 12
_symmetry_cell_setting 'monoclinic'
loop_
_space_group_symop_operation_xyz
x,y,z
-x,y,-z
-x,-y,-z
x,-y,z
1/2+x,1/2+y,z
1/2-x,1/2+y,-z
1/2-x,1/2-y,-z
1/2+x,1/2-y,z
loop_
_atom_site_type_symbol
_atom_site_label
_atom_site_fract_x
_atom_site_fract_y
_atom_site_fract_z
Si Si1 0.138730 0.432552 0.255921
Si Si2 0.643246 0.191571 0.892323
Si Si3 0.943050 0.636717 0.274535
Si Si4 0.250918 0.570051 0.095356
Si Si5 0.259794 0.302677 0.754591
Si Si6 0.122453 0.151834 0.594096
Si Si7 0.442598 0.260807 0.562466
Si Si8 0.362286 0.573519 0.967192
O O1 0.143992 0.500000 0.107185
O O2 0.142373 0.370301 0.076505
O O3 0.082358 0.425648 0.544257
O O4 0.187978 0.430213 0.329397
O O5 0.708442 0.203436 0.698144
O O6 0.610075 0.249408 0.115155
O O7 0.605181 0.169141 0.762987
O O8 0.955052 0.690014 0.448097
O O9 0.000000 0.623991 0.000000
O O10 0.262804 0.500000 0.952362
O O11 0.255091 0.627947 0.893662
O O12 0.296929 0.578507 0.183782
O O13 0.250000 0.250000 0.000000
O O14 0.322958 0.306635 0.511155
O O15 0.076300 0.199071 0.628040
O O16 0.111006 0.111815 0.875779
O O17 0.128902 0.105212 0.331938
O O18 0.500000 0.288101 0.500000
O O19 0.377045 0.500000 0.927604
#
# Coordination Sequence:
#
# PCOD9187338 Si02
#       8
#     8   8   8   8   8   8   8   8
#     4   9  20  37  55  82 118 159 215 267 314 373
#     4  10  21  39  58  83 120 164 201 263 324 374
#     4  11  23  36  59  82 113 163 212 260 315 371
#     4   8  17  35  56  82 121 170 209 246 310 386
#     4  10  19  35  58  92 128 158 202 265 326 375
#     4  11  24  39  67 100 128 170 211 255 322 382
#     4  11  23  41  62  86 123 161 209 253 310 389
#     4  10  22  42  66  95 132 167 209 259 313 386
#
# _framework density 23.223013000000002
#
# number of rings (size 3 to 8) (size 9 to 14) (size 15 to 20)
#    0.000    2.000    2.500    0.375    3.500    1.250 
#    0.000    3.750    0.000    2.250    0.000    0.000 
#    0.000    0.000    0.000    0.000    0.000    0.000 
#
# Total GULP energy -178499.988389 kJ/mol
# GULP energy per Si atom -5578.124637 kJ/mol
# Density = 2.317016 g / cm^3
# Si number density = 23.223013 Si / 1000 Ang^3
#
#
#
# Elastic Constant Matrix: (Units=GPa)
#
#
# Indices 1 2 3 4 5 6 
#
# 1 138.1581 33.8131 8.3326 0.0000 2.6519 0.0000
# 2 33.8131 112.0037 5.1027 0.0000 19.2380 0.0000
# 3 8.3326 5.1027 30.2395 0.0000 4.9604 0.0000
# 4 0.0000 0.0000 0.0000 23.0164 0.0000 3.6115
# 5 2.6519 19.2380 4.9604 0.0000 37.2972 0.0000
# 6 0.0000 0.0000 0.0000 3.6115 0.0000 23.0029
#
#
#
# Elastic Compliance Matrix: (Units=1/GPa)
#
#
# Indices 1 2 3 4 5 6 
#
# 1 0.007942 -0.002476 -0.001930 0.000000 0.000969 0.000000
# 2 -0.002476 0.010589 -0.000243 0.000000 -0.005254 0.000000
# 3 -0.001930 -0.000243 0.034348 0.000000 -0.004306 0.000000
# 4 0.000000 0.000000 0.000000 0.044545 0.000000 -0.006994
# 5 0.000969 -0.005254 -0.004306 0.000000 0.030025 0.000000
# 6 0.000000 0.000000 0.000000 -0.006994 0.000000 0.044571
#
#
# Mechanical properties :
#
#
# Convention : Reuss Voigt Hill
#
# Bulk Modulus (GPa) = 22.94501 41.65534 32.30017
# Shear Modulus (GPa) = 25.53046 32.20683 28.86864
#
# Velocity S-wave (km/s) = 3.31926 3.72808 3.52959
# Velocity P-wave (km/s) = 4.95900 6.04214 5.52717
#
# Compressibility (1/GPa) = 0.04358246
#
# Stress axis : x y z
#
# Youngs Moduli (GPa) = 125.91487 94.43547 29.11354
#
# Poissons Ratio (x) = 0.23384 0.05618
# Poissons Ratio (y) = 0.31178 0.00707
# Poissons Ratio (z) = 0.24296 0.02293
#
# Static dielectric constant tensor:
#      x y z
#    x 1.942610 0.000000 -0.014190 
#    y 0.000000 1.756710 0.000000 
#    z -0.014190 0.000000 1.948790 
# 
# From -- ./inp_files/32335.got.cif
#   From: 2010.05.17/outbox.cif.g08.bks.cpg/sg12_17_cif.got.tgz:32335.got - 2010.06.03 13:09:07.
