data_PCOD9187568
_publ_section_title
;
Structure prediction by ZEFSAII (Michael W. Deem and Ramdas Pophale) SiO2 
 PCOD9187568
Probable space group: C 2/M
;
_chemical_formula_sum "Si O2"
_cell_formula_units_Z 58
_cell_length_a 21.015113
_cell_length_b 18.240832
_cell_length_c 8.925924
_cell_angle_alpha 90.000000
_cell_angle_beta 52.188296
_cell_angle_gamma 90.000000
_cell_volume 2703.167943
_symmetry_space_group_name_H-M "C 2/M"
_symmetry_group_IT_number 12
_symmetry_cell_setting 'monoclinic'
loop_
_space_group_symop_operation_xyz
x,y,z
-x,y,-z
-x,-y,-z
x,-y,z
1/2+x,1/2+y,z
1/2-x,1/2+y,-z
1/2-x,1/2-y,-z
1/2+x,1/2-y,z
loop_
_atom_site_type_symbol
_atom_site_label
_atom_site_fract_x
_atom_site_fract_y
_atom_site_fract_z
Si Si1 0.091416 0.080925 0.424741
Si Si2 0.638581 0.086192 0.060085
Si Si3 0.290175 0.311536 0.296733
Si Si4 0.178339 0.584264 0.660558
Si Si5 0.038025 0.629560 0.658771
Si Si6 0.865786 0.772107 0.473720
Si Si7 0.292264 0.584471 0.028161
Si Si8 0.000000 0.500000 0.500000
O O1 0.109564 0.148791 0.504555
O O2 0.148273 0.086860 0.198125
O O3 0.000000 0.083796 0.500000
O O4 0.105990 0.000000 0.472644
O O5 0.557339 0.132188 0.176762
O O6 0.611479 0.000000 0.125004
O O7 0.679522 0.090974 0.838244
O O8 0.703925 0.103856 0.091341
O O9 0.239978 0.365302 0.480452
O O10 0.223317 0.252400 0.343399
O O11 0.357210 0.275307 0.304975
O O12 0.318207 0.359479 0.118090
O O13 0.195176 0.500000 0.600193
O O14 0.089287 0.604194 0.729095
O O15 0.073916 0.708141 0.563480
O O16 0.048954 0.565581 0.521215
O O17 0.289621 0.500000 0.085699
#
# Coordination Sequence:
#
# PCOD9187568 Si02
#       8
#     8   8   8   8   8   8   8   2
#     4  10  23  46  69  91 121 163 220 271 325 385
#     4  10  20  34  59  96 134 171 214 254 314 394
#     4  10  22  40  61  92 134 164 215 267 318 384
#     4  10  19  35  59  91 133 182 212 257 318 385
#     4  11  23  36  60  91 139 171 221 252 319 383
#     4  10  24  42  63  91 130 179 210 263 324 379
#     4  10  22  39  68 101 126 160 214 274 324 383
#     4  12  24  36  62 100 134 184 204 270 308 384
#
# _framework density 21.456308
#
# number of rings (size 3 to 8) (size 9 to 14) (size 15 to 20)
#    0.000    1.793    1.379    1.655    4.828    3.862 
#    0.000    7.586    0.000    2.483    0.000    0.000 
#    0.000    0.000    0.000    0.000    0.000    0.000 
#
# Total GULP energy -161931.558843 kJ/mol
# GULP energy per Si atom -5583.846857 kJ/mol
# Density = 2.140747 g / cm^3
# Si number density = 21.456308 Si / 1000 Ang^3
#
#
#
# Elastic Constant Matrix: (Units=GPa)
#
#
# Indices 1 2 3 4 5 6 
#
# 1 74.3460 52.9353 25.4697 0.0000 -0.1787 0.0000
# 2 52.9353 159.5607 25.6272 0.0000 6.4263 0.0000
# 3 25.4697 25.6272 27.3555 0.0000 -5.3496 0.0000
# 4 0.0000 0.0000 0.0000 11.7230 0.0000 10.5789
# 5 -0.1787 6.4263 -5.3496 0.0000 30.6928 0.0000
# 6 0.0000 0.0000 0.0000 10.5789 0.0000 39.6453
#
#
#
# Elastic Compliance Matrix: (Units=1/GPa)
#
#
# Indices 1 2 3 4 5 6 
#
# 1 0.022623 -0.004696 -0.017026 0.000000 -0.001853 0.000000
# 2 -0.004696 0.008600 -0.004185 0.000000 -0.002557 0.000000
# 3 -0.017026 -0.004185 0.058473 0.000000 0.010969 0.000000
# 4 0.000000 0.000000 0.000000 0.112358 0.000000 -0.029982
# 5 -0.001853 -0.002557 0.010969 0.000000 0.035017 0.000000
# 6 0.000000 0.000000 0.000000 -0.029982 0.000000 0.033224
#
#
# Mechanical properties :
#
#
# Convention : Reuss Voigt Hill
#
# Bulk Modulus (GPa) = 26.39731 52.14741 39.27236
# Shear Modulus (GPa) = 14.93710 26.89422 20.91566
#
# Velocity S-wave (km/s) = 2.64135 3.54424 3.12557
# Velocity P-wave (km/s) = 4.65101 6.41136 5.60078
#
# Compressibility (1/GPa) = 0.03788265
#
# Stress axis : x y z
#
# Youngs Moduli (GPa) = 44.20349 116.27568 17.10179
#
# Poissons Ratio (x) = 0.54603 0.29118
# Poissons Ratio (y) = 0.20758 0.07157
# Poissons Ratio (z) = 0.75261 0.48658
#
# Static dielectric constant tensor:
#      x y z
#    x 1.774870 0.000000 0.023530 
#    y 0.000000 1.794690 0.000000 
#    z 0.023530 0.000000 1.558900 
# 
# From -- ./inp_files/88407.got.cif
#   From: 2010.05.17/outbox.cif.g08.bks.cpg/sg12_45_cif.got.tgz:88407.got - 2010.06.03 13:09:07.
