data_PCOD9187033
_publ_section_title
;
Structure prediction by ZEFSAII (Michael W. Deem and Ramdas Pophale) SiO2 
 PCOD9187033
Probable space group: C 2/M
;
_chemical_formula_sum "Si O2"
_cell_formula_units_Z 64
_cell_length_a 31.025750
_cell_length_b 7.772448
_cell_length_c 16.825779
_cell_angle_alpha 90.000000
_cell_angle_beta 47.265397
_cell_angle_gamma 90.000000
_cell_volume 2980.231421
_symmetry_space_group_name_H-M "C 2/M"
_symmetry_group_IT_number 12
_symmetry_cell_setting 'monoclinic'
loop_
_space_group_symop_operation_xyz
x,y,z
-x,y,-z
-x,-y,-z
x,-y,z
1/2+x,1/2+y,z
1/2-x,1/2+y,-z
1/2-x,1/2-y,-z
1/2+x,1/2-y,z
loop_
_atom_site_type_symbol
_atom_site_label
_atom_site_fract_x
_atom_site_fract_y
_atom_site_fract_z
Si Si1 0.800251 0.707206 0.588275
Si Si2 0.535010 0.700808 0.380632
Si Si3 0.271151 0.704941 0.061204
Si Si4 0.124918 0.288742 0.651814
Si Si5 0.164087 0.293426 0.775598
Si Si6 0.497195 0.204510 0.757274
Si Si7 0.157210 0.708298 0.299567
Si Si8 0.110759 0.297996 0.005935
O O1 0.802123 0.500000 0.585428
O O2 0.825364 0.768529 0.472824
O O3 0.733410 0.756674 0.688892
O O4 0.841596 0.763160 0.609890
O O5 0.500000 0.777543 0.500000
O O6 0.520289 0.500000 0.394741
O O7 0.518620 0.773031 0.315327
O O8 0.603259 0.722419 0.316506
O O9 0.277232 0.500000 0.061141
O O10 0.219376 0.762291 0.184865
O O11 0.333174 0.784303 0.006610
O O12 0.250000 0.750000 0.000000
O O13 0.125747 0.500000 0.651087
O O14 0.137865 0.230512 0.724988
O O15 0.061622 0.230360 0.699371
O O16 0.157817 0.500000 0.784627
O O17 0.131564 0.224154 0.894957
O O18 0.499236 0.000000 0.768331
O O19 0.445812 0.276630 0.878376
O O20 0.154093 0.500000 0.300031
O O21 0.098811 0.500000 0.007590
#
# Coordination Sequence:
#
# PCOD9187033 Si02
#       8
#     8   8   8   8   8   8   8   8
#     4  10  19  35  57  83 113 145 188 234 280 341
#     4  11  24  39  56  83 116 147 183 232 288 338
#     4  11  22  36  55  80 110 145 185 229 278 331
#     4   9  19  35  58  84 110 146 191 237 282 330
#     4  10  20  35  56  85 117 147 183 233 289 335
#     4  10  21  39  60  81 110 152 196 234 274 333
#     4  10  21  36  56  81 108 146 190 226 271 334
#     4  10  21  36  56  83 115 149 188 232 281 335
#
# _framework density 21.474843
#
# number of rings (size 3 to 8) (size 9 to 14) (size 15 to 20)
#    0.000    1.875    1.250    2.625    0.000    7.500 
#    0.000    3.750    0.000    0.000    0.000    2.625 
#    0.000    0.000    0.000    0.000    0.000    0.000 
#
# Total GULP energy -178803.167017 kJ/mol
# GULP energy per Si atom -5587.598969 kJ/mol
# Density = 2.142597 g / cm^3
# Si number density = 21.474843 Si / 1000 Ang^3
#
#
#
# Elastic Constant Matrix: (Units=GPa)
#
#
# Indices 1 2 3 4 5 6 
#
# 1 120.7456 -6.7438 58.1641 0.0011 18.9930 -0.0015
# 2 -6.7438 26.1598 5.1549 -0.0094 1.7680 0.0164
# 3 58.1641 5.1549 159.2461 0.0000 13.8137 0.0003
# 4 0.0011 -0.0094 0.0000 17.4703 0.0003 -11.8513
# 5 18.9930 1.7680 13.8137 0.0003 40.1738 0.0003
# 6 -0.0015 0.0164 0.0003 -11.8513 0.0003 46.4591
#
#
#
# Elastic Compliance Matrix: (Units=1/GPa)
#
#
# Indices 1 2 3 4 5 6 
#
# 1 0.010951 0.003840 -0.003773 0.000001 -0.004049 -0.000001
# 2 0.003840 0.039885 -0.002457 0.000014 -0.002726 -0.000010
# 3 -0.003773 -0.002457 0.007806 -0.000001 -0.000792 0.000001
# 4 0.000001 0.000014 -0.000001 0.069218 -0.000001 0.017657
# 5 -0.004049 -0.002726 -0.000792 -0.000001 0.027198 0.000000
# 6 -0.000001 -0.000010 0.000001 0.017657 0.000000 0.026028
#
#
# Mechanical properties :
#
#
# Convention : Reuss Voigt Hill
#
# Bulk Modulus (GPa) = 18.56613 46.58910 32.57762
# Shear Modulus (GPa) = 24.53148 37.45906 30.99527
#
# Velocity S-wave (km/s) = 3.38351 4.18104 3.80324
# Velocity P-wave (km/s) = 4.89168 6.71193 5.87275
#
# Compressibility (1/GPa) = 0.05386151
#
# Stress axis : x y z
#
# Youngs Moduli (GPa) = 91.31930 25.07213 128.10929
#
# Poissons Ratio (x) = -0.09628 0.48332
# Poissons Ratio (y) = -0.35067 0.31479
# Poissons Ratio (z) = 0.34452 0.06161
#
# Static dielectric constant tensor:
#      x y z
#    x 1.731440 0.000000 0.011440 
#    y 0.000000 1.806010 0.000000 
#    z 0.011440 0.000000 1.798900 
# 
# From -- ./inp_files/249750.got.cif
#   From: 2010.05.17/outbox.cif.g08.bks.cpg/sg12_125_cif.got.tgz:249750.got - 2010.06.03 13:09:07.
