data_PCOD9187413
_publ_section_title
;
Structure prediction by ZEFSAII (Michael W. Deem and Ramdas Pophale) SiO2 
 PCOD9187413
Probable space group: C 2/M
;
_chemical_formula_sum "Si O2"
_cell_formula_units_Z 64
_cell_length_a 20.149045
_cell_length_b 18.752117
_cell_length_c 8.887400
_cell_angle_alpha 90.000000
_cell_angle_beta 87.431070
_cell_angle_gamma 90.000000
_cell_volume 3354.616063
_symmetry_space_group_name_H-M "C 2/M"
_symmetry_group_IT_number 12
_symmetry_cell_setting 'monoclinic'
loop_
_space_group_symop_operation_xyz
x,y,z
-x,y,-z
-x,-y,-z
x,-y,z
1/2+x,1/2+y,z
1/2-x,1/2+y,-z
1/2-x,1/2-y,-z
1/2+x,1/2-y,z
loop_
_atom_site_type_symbol
_atom_site_label
_atom_site_fract_x
_atom_site_fract_y
_atom_site_fract_z
Si Si1 0.768246 0.082454 0.284530
Si Si2 0.170558 0.780925 0.759032
Si Si3 0.427221 0.923457 0.576470
Si Si4 0.827571 0.695047 0.544143
Si Si5 0.211497 0.579896 0.948517
Si Si6 0.427880 0.728384 0.990762
Si Si7 0.703460 0.706672 0.176351
Si Si8 0.566377 0.889127 0.075922
O O1 0.832075 0.134270 0.267693
O O2 0.722351 0.131763 0.396825
O O3 0.776934 0.000000 0.329406
O O4 0.737186 0.081337 0.119412
O O5 0.185313 0.734904 0.609918
O O6 0.103063 0.756296 0.842364
O O7 0.235866 0.764272 0.855368
O O8 0.500000 0.925321 0.500000
O O9 0.393828 0.851068 0.524782
O O10 0.427107 0.919911 0.757917
O O11 0.394142 0.000000 0.538560
O O12 0.826676 0.757376 0.669311
O O13 0.219179 0.500000 0.889711
O O14 0.253840 0.634381 0.843464
O O15 0.133306 0.597260 0.973871
O O16 0.500000 0.692304 0.000000
O O17 0.363171 0.695226 0.916084
O O18 0.439590 0.803734 0.908393
O O19 0.500000 0.914922 0.000000
#
# Coordination Sequence:
#
# PCOD9187413 Si02
#       8
#     8   8   8   8   8   8   8   8
#     4  10  19  35  59  84 112 148 195 241 295 357
#     4  11  22  38  60  88 117 153 200 244 302 347
#     4  11  24  39  55  80 122 169 201 236 291 361
#     4  11  23  36  59  86 115 158 199 247 292 351
#     4  11  21  35  61  89 118 160 197 242 301 352
#     4  11  22  36  62  91 116 152 197 250 298 346
#     4  11  20  40  60  85 117 153 197 253 293 343
#     4  11  22  38  59  88 122 160 203 247 291 349
#
# _framework density 19.078188999999998
#
# number of rings (size 3 to 8) (size 9 to 14) (size 15 to 20)
#    0.000    1.125    5.000    3.375    3.500    1.000 
#    0.000    4.375    0.000    1.500    0.000    0.000 
#    0.000    6.000    0.000    0.000    0.000    0.000 
#
# Total GULP energy -178166.660803 kJ/mol
# GULP energy per Si atom -5567.708150 kJ/mol
# Density = 1.903477 g / cm^3
# Si number density = 19.078189 Si / 1000 Ang^3
#
#
#
# Elastic Constant Matrix: (Units=GPa)
#
#
# Indices 1 2 3 4 5 6 
#
# 1 104.8238 40.5163 26.4247 0.0000 -4.7097 0.0000
# 2 40.5163 141.1147 37.3929 0.0000 0.9390 0.0000
# 3 26.4247 37.3929 58.4050 0.0000 -5.9146 0.0000
# 4 0.0000 0.0000 0.0000 25.7075 0.0000 -34.1765
# 5 -4.7097 0.9390 -5.9146 0.0000 24.1576 0.0000
# 6 0.0000 0.0000 0.0000 -34.1765 0.0000 94.8074
#
#
#
# Elastic Compliance Matrix: (Units=1/GPa)
#
#
# Indices 1 2 3 4 5 6 
#
# 1 0.011398 -0.002354 -0.003502 0.000000 0.001456 0.000000
# 2 -0.002354 0.009090 -0.004960 0.000000 -0.002027 0.000000
# 3 -0.003502 -0.004960 0.022387 0.000000 0.004991 0.000000
# 4 0.000000 0.000000 0.000000 0.074697 0.000000 0.026927
# 5 0.001456 -0.002027 0.004991 0.000000 0.042980 0.000000
# 6 0.000000 0.000000 0.000000 0.026927 0.000000 0.020254
#
#
# Mechanical properties :
#
#
# Convention : Reuss Voigt Hill
#
# Bulk Modulus (GPa) = 47.07471 57.00123 52.03797
# Shear Modulus (GPa) = 23.86406 42.26846 33.06626
#
# Velocity S-wave (km/s) = 3.54058 4.71206 4.16768
# Velocity P-wave (km/s) = 6.43758 7.71668 7.10597
#
# Compressibility (1/GPa) = 0.02124283
#
# Stress axis : x y z
#
# Youngs Moduli (GPa) = 87.73433 110.00928 44.66816
#
# Poissons Ratio (x) = 0.25899 0.15644
# Poissons Ratio (y) = 0.20655 0.22155
# Poissons Ratio (z) = 0.30726 0.54564
#
# Static dielectric constant tensor:
#      x y z
#    x 1.715210 0.000000 0.020330 
#    y 0.000000 1.697780 0.000000 
#    z 0.020330 0.000000 1.741330 
# 
# From -- ./inp_files/87964.got.cif
#   From: 2010.05.17/outbox.cif.g08.bks.cpg/sg12_44_cif.got.tgz:87964.got - 2010.06.03 13:09:07.
