data_PCOD9187817
_publ_section_title
;
Structure prediction by ZEFSAII (Michael W. Deem and Ramdas Pophale) SiO2 
 PCOD9187817
Probable space group: C 2/M
;
_chemical_formula_sum "Si O2"
_cell_formula_units_Z 64
_cell_length_a 27.871507
_cell_length_b 15.866855
_cell_length_c 7.902456
_cell_angle_alpha 90.000000
_cell_angle_beta 126.173194
_cell_angle_gamma 90.000000
_cell_volume 2821.072213
_symmetry_space_group_name_H-M "C 2/M"
_symmetry_group_IT_number 12
_symmetry_cell_setting 'monoclinic'
loop_
_space_group_symop_operation_xyz
x,y,z
-x,y,-z
-x,-y,-z
x,-y,z
1/2+x,1/2+y,z
1/2-x,1/2+y,-z
1/2-x,1/2-y,-z
1/2+x,1/2-y,z
loop_
_atom_site_type_symbol
_atom_site_label
_atom_site_fract_x
_atom_site_fract_y
_atom_site_fract_z
Si Si1 0.719322 0.251428 0.208334
Si Si2 0.478474 0.162188 0.147810
Si Si3 0.350540 0.594267 0.834100
Si Si4 0.602583 0.907177 0.501175
Si Si5 0.147419 0.594939 0.207030
Si Si6 0.911677 0.093503 0.596204
Si Si7 0.660362 0.259755 0.720909
Si Si8 0.469439 0.350265 0.256043
O O1 0.700246 0.335376 0.266396
O O2 0.690248 0.169098 0.232257
O O3 0.788581 0.241019 0.315653
O O4 0.690695 0.268980 0.964570
O O5 0.532327 0.108390 0.335362
O O6 0.468790 0.249884 0.224270
O O7 0.500000 0.182662 0.000000
O O8 0.416981 0.112315 0.010817
O O9 0.327770 0.500000 0.819213
O O10 0.379859 0.597834 0.710344
O O11 0.404603 0.614874 0.076157
O O12 0.632517 0.900905 0.376640
O O13 0.628203 0.829844 0.657502
O O14 0.614848 0.000000 0.595434
O O15 0.168652 0.500000 0.212873
O O16 0.884952 0.166943 0.423601
O O17 0.981344 0.110031 0.764989
O O18 0.901968 0.000000 0.503994
O O19 0.500000 0.369927 0.500000
#
# Coordination Sequence:
#
# PCOD9187817 Si02
#       8
#     8   8   8   8   8   8   8   8
#     4  11  25  43  62  87 122 163 205 254 311 363
#     4  10  19  35  61  91 125 161 195 239 299 362
#     4  11  24  42  65  92 122 160 206 254 304 362
#     4  10  21  38  63  93 124 160 201 246 300 362
#     4  10  21  38  63  93 124 160 201 246 300 362
#     4  11  24  42  65  92 122 160 206 254 304 362
#     4  11  25  43  62  87 122 163 205 254 311 363
#     4  12  23  36  61  95 129 162 197 243 307 371
#
# _framework density 22.686411
#
# number of rings (size 3 to 8) (size 9 to 14) (size 15 to 20)
#    0.000    1.250    2.500    3.375    0.000    8.500 
#    0.000    5.000    0.000    2.250    0.000    0.000 
#    0.000    0.000    0.000    0.000    0.000    0.000 
#
# Total GULP energy -179149.148397 kJ/mol
# GULP energy per Si atom -5598.410887 kJ/mol
# Density = 2.263478 g / cm^3
# Si number density = 22.686411 Si / 1000 Ang^3
#
#
#
# Elastic Constant Matrix: (Units=GPa)
#
#
# Indices 1 2 3 4 5 6 
#
# 1 70.9867 38.8503 2.6323 0.0000 14.8411 0.0000
# 2 38.8503 156.8402 5.5036 0.0000 1.8826 0.0000
# 3 2.6323 5.5036 52.7219 0.0000 1.2811 0.0000
# 4 0.0000 0.0000 0.0000 -6.2679 0.0000 -0.4581
# 5 14.8411 1.8826 1.2811 0.0000 27.3618 0.0000
# 6 0.0000 0.0000 0.0000 -0.4581 0.0000 -18.1237
#
#
#
# Elastic Compliance Matrix: (Units=1/GPa)
#
#
# Indices 1 2 3 4 5 6 
#
# 1 0.018588 -0.004479 -0.000223 0.000000 -0.009764 0.000000
# 2 -0.004479 0.007483 -0.000605 0.000000 0.001943 0.000000
# 3 -0.000223 -0.000605 0.019059 0.000000 -0.000730 0.000000
# 4 0.000000 0.000000 0.000000 -0.159839 0.000000 0.004040
# 5 -0.009764 0.001943 -0.000730 0.000000 0.041744 0.000000
# 6 0.000000 0.000000 0.000000 0.004040 0.000000 -0.055278
#
#
# Mechanical properties :
#
#
# Convention : Reuss Voigt Hill
#
# Bulk Modulus (GPa) = 28.97180 41.61346 35.29263
# Shear Modulus (GPa) = -47.11517 16.16488 -15.47514
#
# Velocity S-wave (km/s) = -4.56214 2.67223 -2.61460
# Velocity P-wave (km/s) = 3.86685 5.28241 2.54473
#
# Compressibility (1/GPa) = 0.03451633
#
# Stress axis : x y z
#
# Youngs Moduli (GPa) = 53.79762 133.62939 52.46740
#
# Poissons Ratio (x) = 0.59858 0.01171
# Poissons Ratio (y) = 0.24098 0.03173
# Poissons Ratio (z) = 0.01201 0.08081
#
# Static dielectric constant tensor:
#      x y z
#    x 1.858300 0.000000 -0.050260 
#    y 0.000000 1.802780 0.000000 
#    z -0.050260 0.000000 1.836400 
# 
# From -- ./inp_files/112025.got.cif
#   From: 2010.05.17/outbox.cif.g08.bks.cpg/sg12_57_cif.got.tgz:112025.got - 2010.06.03 13:09:07.
