data_PCOD9187856
_publ_section_title
;
Structure prediction by ZEFSAII (Michael W. Deem and Ramdas Pophale) SiO2 
 PCOD9187856
Probable space group: C 2/M
;
_chemical_formula_sum "Si O2"
_cell_formula_units_Z 44
_cell_length_a 10.686016
_cell_length_b 14.186337
_cell_length_c 14.994509
_cell_angle_alpha 90.000000
_cell_angle_beta 91.886552
_cell_angle_gamma 90.000000
_cell_volume 2271.866865
_symmetry_space_group_name_H-M "C 2/M"
_symmetry_group_IT_number 12
_symmetry_cell_setting 'monoclinic'
loop_
_space_group_symop_operation_xyz
x,y,z
-x,y,-z
-x,-y,-z
x,-y,z
1/2+x,1/2+y,z
1/2-x,1/2+y,-z
1/2-x,1/2-y,-z
1/2+x,1/2-y,z
loop_
_atom_site_type_symbol
_atom_site_label
_atom_site_fract_x
_atom_site_fract_y
_atom_site_fract_z
Si Si1 0.279079 0.500000 0.880109
Si Si2 0.877353 0.638832 0.439996
Si Si3 0.598560 0.000000 0.147923
Si Si4 0.671494 0.500000 0.709428
Si Si5 0.767128 0.359939 0.976518
Si Si6 0.432081 0.500000 0.108443
Si Si7 0.631560 0.636684 0.548673
Si Si8 0.873228 0.500000 0.279492
O O1 0.423851 0.500000 0.911493
O O2 0.257986 0.500000 0.775118
O O3 0.219826 0.410298 0.927778
O O4 0.748715 0.612759 0.487449
O O5 0.874600 0.751625 0.435133
O O6 0.886088 0.588968 0.344944
O O7 0.000000 0.611997 0.500000
O O8 0.701346 0.000000 0.230099
O O9 0.626479 0.907333 0.086044
O O10 0.470965 0.000000 0.200027
O O11 0.570610 0.500000 0.784871
O O12 0.656377 0.587377 0.643107
O O13 0.644006 0.407785 0.927449
O O14 0.750000 0.250000 0.000000
O O15 0.500000 0.609001 0.500000
#
# Coordination Sequence:
#
# PCOD9187856 Si02
#       8
#     4   8   4   4   8   4   8   4
#     4  10  23  40  56  93 127 149 206 250 299 384
#     4  10  22  39  57  82 124 161 207 246 307 372
#     4   9  22  40  58  93 122 150 207 248 302 382
#     4  10  19  35  62  81 120 146 192 250 309 342
#     4   9  19  42  67  85 116 162 197 241 312 373
#     4   9  21  39  61  92 122 152 199 256 301 369
#     4  10  21  36  58  87 113 160 208 251 298 372
#     4  12  23  37  60  87 122 161 195 259 312 352
#
# _framework density 19.367332999999999
#
# number of rings (size 3 to 8) (size 9 to 14) (size 15 to 20)
#    0.000    2.545    0.000    3.273    2.545    4.364 
#    9.818    0.000    0.000    0.000    0.000    0.000 
#    0.000    0.000    0.000    0.000    0.000    0.000 
#
# Total GULP energy -122580.839265 kJ/mol
# GULP energy per Si atom -5571.856330 kJ/mol
# Density = 1.932325 g / cm^3
# Si number density = 19.367333 Si / 1000 Ang^3
#
#
#
# Elastic Constant Matrix: (Units=GPa)
#
#
# Indices 1 2 3 4 5 6 
#
# 1 118.8400 32.4973 51.1145 0.0000 -6.1661 0.0000
# 2 32.4973 160.0842 60.7989 0.0000 -4.0367 0.0000
# 3 51.1145 60.7989 134.7422 0.0000 -0.3642 0.0000
# 4 0.0000 0.0000 0.0000 53.9634 0.0000 0.4885
# 5 -6.1661 -4.0367 -0.3642 0.0000 41.0777 0.0000
# 6 0.0000 0.0000 0.0000 0.4885 0.0000 -4.5931
#
#
#
# Elastic Compliance Matrix: (Units=1/GPa)
#
#
# Indices 1 2 3 4 5 6 
#
# 1 0.010207 -0.000684 -0.003560 0.000000 0.001433 0.000000
# 2 -0.000684 0.007605 -0.003171 0.000000 0.000617 0.000000
# 3 -0.003560 -0.003171 0.010200 0.000000 -0.000755 0.000000
# 4 0.000000 0.000000 0.000000 0.018513 0.000000 0.001969
# 5 0.001433 0.000617 -0.000755 0.000000 0.024613 0.000000
# 6 0.000000 0.000000 0.000000 0.001969 0.000000 -0.217507
#
#
# Mechanical properties :
#
#
# Convention : Reuss Voigt Hill
#
# Bulk Modulus (GPa) = 75.84580 78.05421 76.95000
# Shear Modulus (GPa) = -39.32532 36.03998 -1.64267
#
# Velocity S-wave (km/s) = -4.51099 4.31845 -0.92196
# Velocity P-wave (km/s) = 3.48061 8.07805 6.21971
#
# Compressibility (1/GPa) = 0.01318465
#
# Stress axis : x y z
#
# Youngs Moduli (GPa) = 97.97105 131.48796 98.03471
#
# Poissons Ratio (x) = 0.08994 0.34896
# Poissons Ratio (y) = 0.06701 0.31082
# Poissons Ratio (z) = 0.34873 0.41689
#
# Static dielectric constant tensor:
#      x y z
#    x 1.755120 0.000000 -0.020610 
#    y 0.000000 1.679080 0.000000 
#    z -0.020610 0.000000 1.642740 
# 
# From -- ./inp_files/203930.got.cif
#   From: 2010.05.17/outbox.cif.g08.bks.cpg/sg12_102_cif.got.tgz:203930.got - 2010.06.03 13:09:07.
