data_PCOD9187899
_publ_section_title
;
Structure prediction by ZEFSAII (Michael W. Deem and Ramdas Pophale) SiO2 
 PCOD9187899
Probable space group: C 2/M
;
_chemical_formula_sum "Si O2"
_cell_formula_units_Z 58
_cell_length_a 24.126038
_cell_length_b 7.430185
_cell_length_c 21.455570
_cell_angle_alpha 90.000000
_cell_angle_beta 42.533566
_cell_angle_gamma 90.000000
_cell_volume 2600.078926
_symmetry_space_group_name_H-M "C 2/M"
_symmetry_group_IT_number 12
_symmetry_cell_setting 'monoclinic'
loop_
_space_group_symop_operation_xyz
x,y,z
-x,y,-z
-x,-y,-z
x,-y,z
1/2+x,1/2+y,z
1/2-x,1/2+y,-z
1/2-x,1/2-y,-z
1/2+x,1/2-y,z
loop_
_atom_site_type_symbol
_atom_site_label
_atom_site_fract_x
_atom_site_fract_y
_atom_site_fract_z
Si Si1 0.184679 0.786121 0.499108
Si Si2 0.451736 0.794774 0.980869
Si Si3 0.895300 0.281711 0.642430
Si Si4 0.290464 0.705199 0.176607
Si Si5 0.500000 0.500000 0.500000
Si Si6 0.685970 0.782792 0.702789
Si Si7 0.502197 0.205897 0.324737
Si Si8 0.988545 0.719926 0.200959
O O1 0.250000 0.750000 0.500000
O O2 0.230925 0.719525 0.398725
O O3 0.095684 0.706832 0.585351
O O4 0.173240 0.000000 0.504248
O O5 0.356430 0.797775 0.077816
O O6 0.483874 0.000000 0.950084
O O7 0.500000 0.711183 0.000000
O O8 0.467751 0.718883 0.898843
O O9 0.900399 0.500000 0.627748
O O10 0.802948 0.232990 0.738881
O O11 0.928520 0.160185 0.559151
O O12 0.953700 0.217329 0.651206
O O13 0.287077 0.500000 0.158206
O O14 0.324251 0.715886 0.218957
O O15 0.606850 0.730775 0.728189
O O16 0.687735 0.000000 0.703458
O O17 0.519804 0.285796 0.241953
O O18 0.531688 0.000000 0.299191
O O19 0.992573 0.500000 0.200618
#
# Coordination Sequence:
#
# PCOD9187899 Si02
#       8
#     8   8   8   8   2   8   8   8
#     4  11  22  34  54  85 120 158 202 247 305 379
#     4  10  19  35  62  91 119 157 211 263 314 382
#     4  10  26  45  65  97 130 170 218 266 317 377
#     4  11  24  40  58  87 129 160 199 262 326 381
#     4  12  26  44  76  90 126 172 220 264 312 376
#     4  10  20  35  56  83 116 155 205 248 302 375
#     4  10  21  41  62  82 124 165 205 262 314 374
#     4   9  17  35  60  87 115 159 205 252 314 373
#
# _framework density 22.307015
#
# number of rings (size 3 to 8) (size 9 to 14) (size 15 to 20)
#    0.000    1.793    2.759    1.034    4.828    1.379 
#    0.000    1.379    0.000    0.000    0.000    0.000 
#    0.000    0.000    0.000    0.000    0.000    0.000 
#
# Total GULP energy -161739.256971 kJ/mol
# GULP energy per Si atom -5577.215758 kJ/mol
# Density = 2.225624 g / cm^3
# Si number density = 22.307015 Si / 1000 Ang^3
#
#
#
# Elastic Constant Matrix: (Units=GPa)
#
#
# Indices 1 2 3 4 5 6 
#
# 1 61.2813 -1.8458 8.2132 0.0026 -3.0829 0.0123
# 2 -1.8458 90.2381 12.6386 0.0177 -2.7111 0.0006
# 3 8.2132 12.6386 123.0294 0.0049 5.3681 0.0033
# 4 0.0026 0.0177 0.0049 16.7026 -0.0029 -10.5407
# 5 -3.0829 -2.7111 5.3681 -0.0029 36.7318 0.0011
# 6 0.0123 0.0006 0.0033 -10.5407 0.0011 4.4067
#
#
#
# Elastic Compliance Matrix: (Units=1/GPa)
#
#
# Indices 1 2 3 4 5 6 
#
# 1 0.016582 0.000561 -0.001235 0.000061 0.001614 0.000101
# 2 0.000561 0.011300 -0.001245 0.000025 0.001063 0.000059
# 3 -0.001235 -0.001245 0.008401 0.000005 -0.001423 0.000010
# 4 0.000061 0.000025 0.000005 -0.117500 0.000005 -0.281060
# 5 0.001614 0.001063 -0.001423 0.000005 0.027646 0.000002
# 6 0.000101 0.000059 0.000010 -0.281060 0.000002 -0.445362
#
#
# Mechanical properties :
#
#
# Convention : Reuss Voigt Hill
#
# Bulk Modulus (GPa) = 30.82244 34.72898 32.77571
# Shear Modulus (GPa) = -10.32456 28.60438 9.13991
#
# Velocity S-wave (km/s) = -2.15370 3.58481 2.02638
# Velocity P-wave (km/s) = 2.76817 5.72162 4.49443
#
# Compressibility (1/GPa) = 0.03244389
#
# Stress axis : x y z
#
# Youngs Moduli (GPa) = 60.30729 88.49940 119.03999
#
# Poissons Ratio (x) = -0.04961 0.14701
# Poissons Ratio (y) = -0.03381 0.14816
# Poissons Ratio (z) = 0.07448 0.11015
#
# Static dielectric constant tensor:
#      x y z
#    x 1.850420 0.000000 0.039560 
#    y 0.000000 1.939570 0.000010 
#    z 0.039560 0.000010 1.841360 
# 
# From -- ./inp_files/324520.got.cif
#   From: 2010.05.17/outbox.cif.g08.bks.cpg/sg12_163_cif.got.tgz:324520.got - 2010.06.03 13:09:07.
