data_PCOD9187578
_publ_section_title
;
Structure prediction by ZEFSAII (Michael W. Deem and Ramdas Pophale) SiO2 
 PCOD9187578
Probable space group: C 2/M
;
_chemical_formula_sum "Si O2"
_cell_formula_units_Z 48
_cell_length_a 20.306216
_cell_length_b 14.910327
_cell_length_c 8.096619
_cell_angle_alpha 90.000000
_cell_angle_beta 85.840204
_cell_angle_gamma 90.000000
_cell_volume 2444.974126
_symmetry_space_group_name_H-M "C 2/M"
_symmetry_group_IT_number 12
_symmetry_cell_setting 'monoclinic'
loop_
_space_group_symop_operation_xyz
x,y,z
-x,y,-z
-x,-y,-z
x,-y,z
1/2+x,1/2+y,z
1/2-x,1/2+y,-z
1/2-x,1/2-y,-z
1/2+x,1/2-y,z
loop_
_atom_site_type_symbol
_atom_site_label
_atom_site_fract_x
_atom_site_fract_y
_atom_site_fract_z
Si Si1 0.673715 0.759812 0.067794
Si Si2 0.535420 0.223232 0.655108
Si Si3 0.092116 0.097295 0.475425
Si Si4 0.353858 0.894515 0.187379
Si Si5 0.778077 0.179883 0.622620
Si Si6 0.551998 0.655833 0.120944
O O1 0.678238 0.740935 0.260582
O O2 0.620838 0.684085 0.020570
O O3 0.750000 0.750000 0.000000
O O4 0.648681 0.852221 0.995958
O O5 0.500000 0.182790 0.500000
O O6 0.564957 0.318076 0.582188
O O7 0.591208 0.160083 0.720200
O O8 0.482895 0.253277 0.803431
O O9 0.170801 0.109517 0.460664
O O10 0.068698 0.103736 0.287462
O O11 0.073217 0.000000 0.545985
O O12 0.282414 0.869765 0.277804
O O13 0.365100 0.000000 0.186847
O O14 0.750000 0.250000 0.500000
O O15 0.500000 0.615811 0.000000
#
# Coordination Sequence:
#
# PCOD9187578 Si02
#       6
#     8   8   8   8   8   8
#     4   9  20  37  60  81 113 155 194 240 298 345
#     4  10  21  36  58  81 119 158 191 243 299 347
#     4  10  21  37  58  87 119 154 195 243 295 355
#     4  11  21  37  60  87 119 158 200 242 290 354
#     4  10  19  37  65  84 117 155 195 244 300 349
#     4  10  19  35  60  82 113 153 196 236 298 356
#
# _framework density 19.632109
#
# number of rings (size 3 to 8) (size 9 to 14) (size 15 to 20)
#    0.000    2.000    3.333    0.500    0.000    3.667 
#    0.000    3.333    0.000    0.000    0.000    0.000 
#    0.000    0.000    0.000    0.000    0.000    0.000 
#
# Total GULP energy -133740.344565 kJ/mol
# GULP energy per Si atom -5572.514357 kJ/mol
# Density = 1.958743 g / cm^3
# Si number density = 19.632109 Si / 1000 Ang^3
#
#
#
# Elastic Constant Matrix: (Units=GPa)
#
#
# Indices 1 2 3 4 5 6 
#
# 1 114.4827 41.3569 15.4336 0.0000 10.9119 0.0000
# 2 41.3569 137.6660 38.8439 0.0000 18.9288 0.0000
# 3 15.4336 38.8439 49.2083 0.0000 20.1200 0.0000
# 4 0.0000 0.0000 0.0000 18.8707 0.0000 -1.9854
# 5 10.9119 18.9288 20.1200 0.0000 40.9113 0.0000
# 6 0.0000 0.0000 0.0000 -1.9854 0.0000 10.7624
#
#
#
# Elastic Compliance Matrix: (Units=1/GPa)
#
#
# Indices 1 2 3 4 5 6 
#
# 1 0.009876 -0.002660 -0.000531 0.000000 -0.001142 0.000000
# 2 -0.002660 0.010087 -0.006897 0.000000 -0.000566 0.000000
# 3 -0.000531 -0.006897 0.030754 0.000000 -0.011792 0.000000
# 4 0.000000 0.000000 0.000000 0.054041 0.000000 0.009969
# 5 -0.001142 -0.000566 -0.011792 0.000000 0.030809 0.000000
# 6 0.000000 0.000000 0.000000 0.009969 0.000000 0.094755
#
#
# Mechanical properties :
#
#
# Convention : Reuss Voigt Hill
#
# Bulk Modulus (GPa) = 32.74178 54.73621 43.73899
# Shear Modulus (GPa) = 19.18079 27.82373 23.50226
#
# Velocity S-wave (km/s) = 3.12911 3.76873 3.46372
# Velocity P-wave (km/s) = 5.45609 6.84684 6.19065
#
# Compressibility (1/GPa) = 0.03054202
#
# Stress axis : x y z
#
# Youngs Moduli (GPa) = 101.25183 99.13860 32.51633
#
# Poissons Ratio (x) = 0.26373 0.01725
# Poissons Ratio (y) = 0.26935 0.22426
# Poissons Ratio (z) = 0.05372 0.68373
#
# Static dielectric constant tensor:
#      x y z
#    x 1.766950 0.000000 -0.013330 
#    y 0.000000 1.668180 0.000000 
#    z -0.013330 0.000000 1.730460 
# 
# From -- ./inp_files/85147.got.cif
#   From: 2010.05.17/outbox.cif.g08.bks.cpg/sg12_43_cif.got.tgz:85147.got - 2010.06.03 13:09:07.
