data_PCOD9187259
_publ_section_title
;
Structure prediction by ZEFSAII (Michael W. Deem and Ramdas Pophale) SiO2 
 PCOD9187259
Probable space group: C 2/M
;
_chemical_formula_sum "Si O2"
_cell_formula_units_Z 36
_cell_length_a 9.102875
_cell_length_b 17.008279
_cell_length_c 22.402058
_cell_angle_alpha 90.000000
_cell_angle_beta 145.753929
_cell_angle_gamma 90.000000
_cell_volume 1951.825628
_symmetry_space_group_name_H-M "C 2/M"
_symmetry_group_IT_number 12
_symmetry_cell_setting 'monoclinic'
loop_
_space_group_symop_operation_xyz
x,y,z
-x,y,-z
-x,-y,-z
x,-y,z
1/2+x,1/2+y,z
1/2-x,1/2+y,-z
1/2-x,1/2-y,-z
1/2+x,1/2-y,z
loop_
_atom_site_type_symbol
_atom_site_label
_atom_site_fract_x
_atom_site_fract_y
_atom_site_fract_z
Si Si1 0.472737 0.708749 0.158197
Si Si2 0.760832 0.087887 0.184925
Si Si3 0.000000 0.771841 0.500000
Si Si4 0.465441 0.688488 0.355966
Si Si5 0.184820 0.136478 0.014605
O O1 0.356334 0.653843 0.170521
O O2 0.752293 0.743761 0.269680
O O3 0.288836 0.783588 0.081927
O O4 0.474774 0.660164 0.097672
O O5 0.875501 0.113745 0.287482
O O6 0.447743 0.093020 0.083668
O O7 0.841319 0.000000 0.195056
O O8 0.253773 0.718251 0.572468
O O9 0.035060 0.820692 0.572796
O O10 0.000000 0.094993 0.000000
#
# Coordination Sequence:
#
# PCOD9187259 Si02
#       5
#     8   8   4   8   8
#     4  10  19  35  58  85 114 152 192 232 277 338
#     4  11  23  38  56  85 123 154 183 229 289 349
#     4  10  20  36  66  86 108 140 206 242 284 324
#     4  10  20  37  62  90 109 147 192 245 278 340
#     4  10  20  33  58  84 113 153 196 231 272 332
#
# _framework density 18.444272000000002
#
# number of rings (size 3 to 8) (size 9 to 14) (size 15 to 20)
#    0.000    1.778    2.222    4.667    3.111    2.222 
#    0.000    1.111    0.000    0.000    0.000    0.000 
#    0.000    0.000    0.000    0.000    0.000    0.000 
#
# Total GULP energy -100478.659150 kJ/mol
# GULP energy per Si atom -5582.147731 kJ/mol
# Density = 1.840229 g / cm^3
# Si number density = 18.444272 Si / 1000 Ang^3
#
#
#
# Elastic Constant Matrix: (Units=GPa)
#
#
# Indices 1 2 3 4 5 6 
#
# 1 110.4253 18.8135 42.3471 0.0001 0.4408 0.0000
# 2 18.8135 75.6830 14.8433 0.0001 -4.8033 -0.0001
# 3 42.3471 14.8433 98.9700 0.0010 -9.3271 0.0000
# 4 0.0001 0.0001 0.0010 -6.8315 0.0004 2.2591
# 5 0.4408 -4.8033 -9.3271 0.0004 41.7261 0.0000
# 6 0.0000 -0.0001 0.0000 2.2591 0.0000 10.8218
#
#
#
# Elastic Compliance Matrix: (Units=1/GPa)
#
#
# Indices 1 2 3 4 5 6 
#
# 1 0.011164 -0.001958 -0.004613 -0.000001 -0.001374 0.000000
# 2 -0.001958 0.014010 -0.001133 0.000000 0.001380 0.000000
# 3 -0.004613 -0.001133 0.012503 0.000002 0.002713 0.000000
# 4 -0.000001 0.000000 0.000002 -0.136927 0.000002 0.028584
# 5 -0.001374 0.001380 0.002713 0.000002 0.024746 0.000000
# 6 0.000000 0.000000 0.000000 0.028584 0.000000 0.086439
#
#
# Mechanical properties :
#
#
# Convention : Reuss Voigt Hill
#
# Bulk Modulus (GPa) = 44.90502 48.56511 46.73507
# Shear Modulus (GPa) = 143.82392 23.08156 83.45274
#
# Velocity S-wave (km/s) = 8.84007 3.54138 6.73380
# Velocity P-wave (km/s) = 11.33997 6.56580 9.26565
#
# Compressibility (1/GPa) = 0.02226922
#
# Stress axis : x y z
#
# Youngs Moduli (GPa) = 89.57486 71.37999 79.97815
#
# Poissons Ratio (x) = 0.13974 0.36891
# Poissons Ratio (y) = 0.17536 0.09065
# Poissons Ratio (z) = 0.41318 0.08090
#
# Static dielectric constant tensor:
#      x y z
#    x 1.657840 0.000000 -0.011650 
#    y 0.000000 1.622240 0.000000 
#    z -0.011650 0.000000 1.646910 
# 
# From -- ./inp_files/194861.got.cif
#   From: 2010.05.17/outbox.cif.g08.bks.cpg/sg12_98_cif.got.tgz:194861.got - 2010.06.03 13:09:07.
