data_PCOD9187340
_publ_section_title
;
Structure prediction by ZEFSAII (Michael W. Deem and Ramdas Pophale) SiO2 
 PCOD9187340
Probable space group: C 2/M
;
_chemical_formula_sum "Si O2"
_cell_formula_units_Z 52
_cell_length_a 19.898238
_cell_length_b 7.323787
_cell_length_c 17.158957
_cell_angle_alpha 90.000000
_cell_angle_beta 69.464106
_cell_angle_gamma 90.000000
_cell_volume 2341.677145
_symmetry_space_group_name_H-M "C 2/M"
_symmetry_group_IT_number 12
_symmetry_cell_setting 'monoclinic'
loop_
_space_group_symop_operation_xyz
x,y,z
-x,y,-z
-x,-y,-z
x,-y,z
1/2+x,1/2+y,z
1/2-x,1/2+y,-z
1/2-x,1/2-y,-z
1/2+x,1/2-y,z
loop_
_atom_site_type_symbol
_atom_site_label
_atom_site_fract_x
_atom_site_fract_y
_atom_site_fract_z
Si Si1 0.165379 0.718624 0.021631
Si Si2 0.814542 0.284623 0.534954
Si Si3 0.116483 0.000000 0.591878
Si Si4 0.433700 0.778765 0.265007
Si Si5 0.778492 0.720535 0.725628
Si Si6 0.903602 0.721515 0.790259
Si Si7 0.128386 0.707863 0.867796
O O1 0.156686 0.500000 0.022756
O O2 0.122956 0.785749 0.114403
O O3 0.250000 0.750000 0.000000
O O4 0.138188 0.791196 0.949369
O O5 0.830667 0.500000 0.529328
O O6 0.750000 0.250000 0.500000
O O7 0.877970 0.159925 0.477779
O O8 0.788763 0.229614 0.631573
O O9 0.116989 0.160267 0.659800
O O10 0.514314 0.730045 0.258493
O O11 0.423016 0.721352 0.179326
O O12 0.422683 0.000000 0.275203
O O13 0.773968 0.500000 0.731044
O O14 0.847157 0.779780 0.748048
O O15 0.706641 0.791296 0.795438
O O16 0.901776 0.500000 0.792556
O O17 0.104202 0.500000 0.890037
#
# Coordination Sequence:
#
# PCOD9187340 Si02
#       7
#     8   8   4   8   8   8   8
#     4  10  19  35  58  94 127 161 207 256 316 366
#     4  11  23  39  61  95 130 161 209 273 321 375
#     4  12  24  42  65  91 124 166 217 256 326 384
#     4  10  23  43  64  89 128 173 213 259 315 380
#     4  10  21  37  62  89 120 163 207 257 321 374
#     4   9  19  40  64  86 124 171 211 252 313 385
#     4  10  21  34  59  93 126 163 204 259 315 371
#
# _framework density 22.206306999999999
#
# number of rings (size 3 to 8) (size 9 to 14) (size 15 to 20)
#    0.000    1.846    2.308    1.385    4.308    1.846 
#    2.769    4.615    0.000    4.615    0.000    0.000 
#    0.000    0.000    0.000    0.000    0.000    0.000 
#
# Total GULP energy -144737.141734 kJ/mol
# GULP energy per Si atom -5566.813144 kJ/mol
# Density = 2.215576 g / cm^3
# Si number density = 22.206307 Si / 1000 Ang^3
#
#
#
# Elastic Constant Matrix: (Units=GPa)
#
#
# Indices 1 2 3 4 5 6 
#
# 1 62.0534 -3.8060 3.1066 0.0000 20.6507 -0.0001
# 2 -3.8060 118.3593 22.2115 0.0002 -3.0308 -0.0003
# 3 3.1066 22.2115 138.2295 0.0000 24.1302 0.0000
# 4 0.0000 0.0002 0.0000 -15.1876 0.0000 39.3941
# 5 20.6507 -3.0308 24.1302 0.0000 17.8068 0.0000
# 6 -0.0001 -0.0003 0.0000 39.3941 0.0000 -66.4109
#
#
#
# Elastic Compliance Matrix: (Units=1/GPa)
#
#
# Indices 1 2 3 4 5 6 
#
# 1 0.031322 -0.001664 0.007799 0.000000 -0.047176 0.000000
# 2 -0.001664 0.009075 -0.002656 0.000000 0.007073 0.000000
# 3 0.007799 -0.002656 0.011977 0.000000 -0.025726 0.000000
# 4 0.000000 0.000000 0.000000 0.122241 0.000000 0.072512
# 5 -0.047176 0.007073 -0.025726 0.000000 0.146934 0.000000
# 6 0.000000 0.000000 0.000000 0.072512 0.000000 0.027955
#
#
# Mechanical properties :
#
#
# Convention : Reuss Voigt Hill
#
# Bulk Modulus (GPa) = 16.85438 40.18515 28.51976
# Shear Modulus (GPa) = 13.79981 7.05034 10.42507
#
# Velocity S-wave (km/s) = 2.49557 1.78377 2.16906
# Velocity P-wave (km/s) = 3.98876 4.73054 4.37540
#
# Compressibility (1/GPa) = 0.05933176
#
# Stress axis : x y z
#
# Youngs Moduli (GPa) = 31.92608 110.19528 83.49565
#
# Poissons Ratio (x) = 0.18340 -0.65117
# Poissons Ratio (y) = 0.05314 0.22173
# Poissons Ratio (z) = -0.24899 0.29263
#
# Static dielectric constant tensor:
#      x y z
#    x 1.840990 0.000000 -0.020110 
#    y 0.000000 1.862840 0.000000 
#    z -0.020110 0.000000 1.820100 
# 
# From -- ./inp_files/230053.got.cif
#   From: 2010.05.17/outbox.cif.g08.bks.cpg/sg12_116_cif.got.tgz:230053.got - 2010.06.03 13:09:07.
