data_PCOD9187314
_publ_section_title
;
Structure prediction by ZEFSAII (Michael W. Deem and Ramdas Pophale) SiO2 
 PCOD9187314
Probable space group: C 2/M
;
_chemical_formula_sum "Si O2"
_cell_formula_units_Z 56
_cell_length_a 13.888530
_cell_length_b 28.890334
_cell_length_c 8.822819
_cell_angle_alpha 90.000000
_cell_angle_beta 126.306976
_cell_angle_gamma 90.000000
_cell_volume 2852.816011
_symmetry_space_group_name_H-M "C 2/M"
_symmetry_group_IT_number 12
_symmetry_cell_setting 'monoclinic'
loop_
_space_group_symop_operation_xyz
x,y,z
-x,y,-z
-x,-y,-z
x,-y,z
1/2+x,1/2+y,z
1/2-x,1/2+y,-z
1/2-x,1/2-y,-z
1/2+x,1/2-y,z
loop_
_atom_site_type_symbol
_atom_site_label
_atom_site_fract_x
_atom_site_fract_y
_atom_site_fract_z
Si Si1 0.357013 0.688053 0.376938
Si Si2 0.747456 0.401009 0.875056
Si Si3 0.441900 0.554511 0.103538
Si Si4 0.535928 0.842802 0.869875
Si Si5 0.219479 0.645114 0.526613
Si Si6 0.365667 0.790500 0.305020
Si Si7 0.182196 0.053528 0.496132
O O1 0.500000 0.686534 0.500000
O O2 0.307391 0.648420 0.222121
O O3 0.307207 0.673575 0.495784
O O4 0.317423 0.739364 0.291920
O O5 0.677135 0.420748 0.952338
O O6 0.721204 0.432983 0.703191
O O7 0.885442 0.389143 0.033703
O O8 0.417721 0.500000 0.060968
O O9 0.540911 0.559170 0.329512
O O10 0.500000 0.571480 0.000000
O O11 0.412668 0.852783 0.669140
O O12 0.612596 0.806379 0.845340
O O13 0.500000 0.824146 0.000000
O O14 0.210344 0.670857 0.677631
O O15 0.258107 0.591761 0.556879
O O16 0.500000 0.790564 0.500000
O O17 0.211496 0.000000 0.491632
#
# Coordination Sequence:
#
# PCOD9187314 Si02
#       7
#     8   8   8   8   8   8   8
#     4  10  19  35  58  88 113 150 202 246 283 351
#     4  11  21  36  60  84 120 152 198 233 292 348
#     4  10  22  39  60  89 121 150 188 243 300 348
#     4  11  21  40  56  83 116 162 194 240 290 348
#     4  10  20  39  61  83 118 158 195 241 296 349
#     4   9  21  36  60  81 113 158 202 239 297 344
#     4  10  20  36  62  86 113 151 192 232 291 352
#
# _framework density 19.629726999999999
#
# number of rings (size 3 to 8) (size 9 to 14) (size 15 to 20)
#    0.000    1.857    2.857    3.000    2.000    1.714 
#    0.000    2.857    0.000    3.857    0.000    0.000 
#    0.000    0.000    0.000    0.000    0.000    0.000 
#
# Total GULP energy -156247.999062 kJ/mol
# GULP energy per Si atom -5580.285681 kJ/mol
# Density = 1.958505 g / cm^3
# Si number density = 19.629727 Si / 1000 Ang^3
#
#
#
# Elastic Constant Matrix: (Units=GPa)
#
#
# Indices 1 2 3 4 5 6 
#
# 1 128.3966 58.3028 29.1100 0.0000 -21.6909 0.0000
# 2 58.3028 131.3131 13.6731 0.0000 -13.8290 0.0000
# 3 29.1100 13.6731 46.5793 0.0000 -5.5236 0.0000
# 4 0.0000 0.0000 0.0000 17.7222 0.0000 0.6221
# 5 -21.6909 -13.8290 -5.5236 0.0000 31.1555 0.0000
# 6 0.0000 0.0000 0.0000 0.6221 0.0000 17.9961
#
#
#
# Elastic Compliance Matrix: (Units=1/GPa)
#
#
# Indices 1 2 3 4 5 6 
#
# 1 0.011824 -0.004101 -0.005542 0.000000 0.005429 0.000000
# 2 -0.004101 0.009591 -0.000088 0.000000 0.001386 0.000000
# 3 -0.005542 -0.000088 0.025022 0.000000 0.000539 0.000000
# 4 0.000000 0.000000 0.000000 0.056495 0.000000 -0.001953
# 5 0.005429 0.001386 0.000539 0.000000 0.036588 0.000000
# 6 0.000000 0.000000 0.000000 -0.001953 0.000000 0.055635
#
#
# Mechanical properties :
#
#
# Convention : Reuss Voigt Hill
#
# Bulk Modulus (GPa) = 37.07082 56.49563 46.78322
# Shear Modulus (GPa) = 22.36034 27.05496 24.70765
#
# Velocity S-wave (km/s) = 3.37873 3.71653 3.55164
# Velocity P-wave (km/s) = 5.84355 6.87458 6.37993
#
# Compressibility (1/GPa) = 0.02697540
#
# Stress axis : x y z
#
# Youngs Moduli (GPa) = 84.57148 104.25931 39.96484
#
# Poissons Ratio (x) = 0.42758 0.22148
# Poissons Ratio (y) = 0.34684 0.00352
# Poissons Ratio (z) = 0.46869 0.00918
#
# Static dielectric constant tensor:
#      x y z
#    x 1.699210 0.000000 0.000150 
#    y 0.000000 1.675520 0.000000 
#    z 0.000150 0.000000 1.736200 
# 
# From -- ./inp_files/54782.got.cif
#   From: 2010.05.17/outbox.cif.g08.bks.cpg/sg12_28_cif.got.tgz:54782.got - 2010.06.03 13:09:07.
