data_PCOD9187144
_publ_section_title
;
Structure prediction by ZEFSAII (Michael W. Deem and Ramdas Pophale) SiO2 
 PCOD9187144
Probable space group: C 2/M
;
_chemical_formula_sum "Si O2"
_cell_formula_units_Z 64
_cell_length_a 19.890426
_cell_length_b 8.718763
_cell_length_c 21.859679
_cell_angle_alpha 90.000000
_cell_angle_beta 121.625542
_cell_angle_gamma 90.000000
_cell_volume 3227.928843
_symmetry_space_group_name_H-M "C 2/M"
_symmetry_group_IT_number 12
_symmetry_cell_setting 'monoclinic'
loop_
_space_group_symop_operation_xyz
x,y,z
-x,y,-z
-x,-y,-z
x,-y,z
1/2+x,1/2+y,z
1/2-x,1/2+y,-z
1/2-x,1/2-y,-z
1/2+x,1/2-y,z
loop_
_atom_site_type_symbol
_atom_site_label
_atom_site_fract_x
_atom_site_fract_y
_atom_site_fract_z
Si Si1 0.107246 0.321371 0.081820
Si Si2 0.051454 0.186690 0.668655
Si Si3 0.188280 0.814067 0.636795
Si Si4 0.929890 0.179218 0.517446
Si Si5 0.882524 0.813818 0.171061
Si Si6 0.773080 0.818848 0.945700
Si Si7 0.995458 0.822256 0.119649
Si Si8 0.331776 0.677127 0.771651
O O1 0.106078 0.500000 0.068939
O O2 0.142998 0.233810 0.041055
O O3 0.167643 0.279484 0.166626
O O4 0.025515 0.268014 0.074531
O O5 0.126534 0.225781 0.661745
O O6 0.068469 0.233480 0.745868
O O7 0.971710 0.245580 0.597692
O O8 0.047139 0.000000 0.665735
O O9 0.146961 0.758644 0.554083
O O10 0.271684 0.741254 0.693568
O O11 0.194102 0.000000 0.637965
O O12 0.000000 0.181993 0.500000
O O13 0.912834 0.000000 0.521514
O O14 0.795985 0.743503 0.130983
O O15 0.925620 0.764570 0.128925
O O16 0.877655 0.000000 0.167522
O O17 0.772083 0.000000 0.949050
O O18 0.750000 0.750000 0.000000
O O19 0.075027 0.820082 0.200185
O O20 0.981622 0.000000 0.096409
O O21 0.312955 0.500000 0.777907
#
# Coordination Sequence:
#
# PCOD9187144 Si02
#       8
#     8   8   8   8   8   8   8   8
#     4  10  19  35  58  81 106 140 181 221 261 311
#     4   8  14  24  44  72  99 131 173 219 266 318
#     4   9  14  22  41  70  99 133 178 226 270 315
#     4   7  11  20  35  62  99 131 168 220 268 311
#     4  10  19  35  58  82 109 142 182 220 267 322
#     4  12  25  41  60  86 117 143 171 212 262 312
#     4   8  18  34  52  77 109 144 180 223 267 315
#     4   9  17  29  46  71 102 136 175 220 267 311
#
# _framework density 19.826957
#
# number of rings (size 3 to 8) (size 9 to 14) (size 15 to 20)
#    0.750    2.125    0.000    4.500    0.000    1.500 
#    0.000    0.625    0.000    8.625    0.000    0.000 
#    0.000    0.000    0.000    0.000    0.000    0.000 
#
# Total GULP energy -178249.414975 kJ/mol
# GULP energy per Si atom -5570.294218 kJ/mol
# Density = 1.978183 g / cm^3
# Si number density = 19.826957 Si / 1000 Ang^3
#
#
#
# Elastic Constant Matrix: (Units=GPa)
#
#
# Indices 1 2 3 4 5 6 
#
# 1 87.2715 27.5101 30.9756 0.0000 0.6406 0.0000
# 2 27.5101 46.2112 14.0539 0.0000 -5.9666 0.0000
# 3 30.9756 14.0539 110.6664 0.0000 2.3802 0.0000
# 4 0.0000 0.0000 0.0000 20.0533 0.0000 3.3044
# 5 0.6406 -5.9666 2.3802 0.0000 24.8433 0.0000
# 6 0.0000 0.0000 0.0000 3.3044 0.0000 14.7438
#
#
#
# Elastic Compliance Matrix: (Units=1/GPa)
#
#
# Indices 1 2 3 4 5 6 
#
# 1 0.015236 -0.008382 -0.003155 0.000000 -0.002104 0.000000
# 2 -0.008382 0.027954 -0.001356 0.000000 0.007060 0.000000
# 3 -0.003155 -0.001356 0.010117 0.000000 -0.001214 0.000000
# 4 0.000000 0.000000 0.000000 0.051779 0.000000 -0.011605
# 5 -0.002104 0.007060 -0.001214 0.000000 0.042118 0.000000
# 6 0.000000 0.000000 0.000000 -0.011605 0.000000 0.070426
#
#
# Mechanical properties :
#
#
# Convention : Reuss Voigt Hill
#
# Bulk Modulus (GPa) = 36.33500 43.24759 39.79130
# Shear Modulus (GPa) = 19.79493 23.36872 21.58183
#
# Velocity S-wave (km/s) = 3.16315 3.43685 3.30284
# Velocity P-wave (km/s) = 5.63086 6.13263 5.88709
#
# Compressibility (1/GPa) = 0.02752167
#
# Stress axis : x y z
#
# Youngs Moduli (GPa) = 65.63394 35.77349 98.83920
#
# Poissons Ratio (x) = 0.29987 0.31182
# Poissons Ratio (y) = 0.55017 0.13398
# Poissons Ratio (z) = 0.20706 0.04849
#
# Static dielectric constant tensor:
#      x y z
#    x 1.672460 0.000000 -0.031510 
#    y 0.000000 1.661740 0.000000 
#    z -0.031510 0.000000 1.654250 
# 
# From -- ./inp_files/346266.got.cif
#   From: 2010.05.17/outbox.cif.g08.bks.cpg/sg12_174_cif.got.tgz:346266.got - 2010.06.03 13:09:07.
