data_PCOD9187463
_publ_section_title
;
Structure prediction by ZEFSAII (Michael W. Deem and Ramdas Pophale) SiO2 
 PCOD9187463
Probable space group: C 2/M
;
_chemical_formula_sum "Si O2"
_cell_formula_units_Z 58
_cell_length_a 19.835124
_cell_length_b 16.525909
_cell_length_c 9.606912
_cell_angle_alpha 90.000000
_cell_angle_beta 82.851929
_cell_angle_gamma 90.000000
_cell_volume 3124.607842
_symmetry_space_group_name_H-M "C 2/M"
_symmetry_group_IT_number 12
_symmetry_cell_setting 'monoclinic'
loop_
_space_group_symop_operation_xyz
x,y,z
-x,y,-z
-x,-y,-z
x,-y,z
1/2+x,1/2+y,z
1/2-x,1/2+y,-z
1/2-x,1/2-y,-z
1/2+x,1/2-y,z
loop_
_atom_site_type_symbol
_atom_site_label
_atom_site_fract_x
_atom_site_fract_y
_atom_site_fract_z
Si Si1 0.631551 0.819202 0.492400
Si Si2 0.104101 0.404906 0.214592
Si Si3 0.107632 0.129481 0.452806
Si Si4 0.351724 0.094089 0.088113
Si Si5 0.463725 0.815102 0.230763
Si Si6 0.500000 0.500000 0.000000
Si Si7 0.513632 0.624039 0.735172
Si Si8 0.239298 0.590035 0.635535
O O1 0.629143 0.868424 0.351642
O O2 0.621850 0.725273 0.461821
O O3 0.569364 0.839570 0.612140
O O4 0.700038 0.843154 0.555618
O O5 0.091970 0.500000 0.232240
O O6 0.034191 0.360673 0.193670
O O7 0.155741 0.391834 0.073480
O O8 0.073054 0.103148 0.607562
O O9 0.180642 0.092078 0.404531
O O10 0.054777 0.115517 0.340640
O O11 0.408586 0.153792 0.134414
O O12 0.284813 0.102883 0.199259
O O13 0.374869 0.000000 0.098783
O O14 0.475514 0.718778 0.229196
O O15 0.510287 0.570168 0.873771
O O16 0.213941 0.500000 0.601029
#
# Coordination Sequence:
#
# PCOD9187463 Si02
#       8
#     8   8   8   8   8   2   8   8
#     4  10  20  36  56  91 120 152 202 252 289 355
#     4  11  20  31  55  88 129 159 194 244 299 351
#     4  10  21  42  68  85 114 161 203 238 310 373
#     4   9  20  35  53  87 123 163 198 232 289 368
#     4  10  19  35  59  85 120 161 197 239 300 363
#     4  12  28  42  60  96 130 138 200 272 312 342
#     4  10  24  41  64  92 118 149 197 262 309 363
#     4  10  21  37  61  82 116 161 207 245 290 354
#
# _framework density 18.562329999999999
#
# number of rings (size 3 to 8) (size 9 to 14) (size 15 to 20)
#    0.000    1.931    1.379    2.069    3.862    3.862 
#    0.000    2.069    3.034    0.000    0.000    0.000 
#    0.000    0.000    0.000    0.000    0.000    0.000 
#
# Total GULP energy -161547.681125 kJ/mol
# GULP energy per Si atom -5570.609694 kJ/mol
# Density = 1.852008 g / cm^3
# Si number density = 18.562330 Si / 1000 Ang^3
#
#
#
# Elastic Constant Matrix: (Units=GPa)
#
#
# Indices 1 2 3 4 5 6 
#
# 1 90.3766 30.5083 54.4368 0.0000 -20.8772 0.0000
# 2 30.5083 83.6552 78.1268 0.0000 -10.0870 0.0000
# 3 54.4368 78.1268 173.2924 0.0000 -17.3320 0.0000
# 4 0.0000 0.0000 0.0000 36.5382 0.0000 4.2858
# 5 -20.8772 -10.0870 -17.3320 0.0000 10.0801 0.0000
# 6 0.0000 0.0000 0.0000 4.2858 0.0000 15.7608
#
#
#
# Elastic Compliance Matrix: (Units=1/GPa)
#
#
# Indices 1 2 3 4 5 6 
#
# 1 0.022383 -0.000825 -0.002542 0.000000 0.041161 0.000000
# 2 -0.000825 0.020945 -0.008766 0.000000 0.004178 0.000000
# 3 -0.002542 -0.008766 0.011011 0.000000 0.004895 0.000000
# 4 0.000000 0.000000 0.000000 0.028270 0.000000 -0.007687
# 5 0.041161 0.004178 0.004895 0.000000 0.197051 0.000000
# 6 0.000000 0.000000 0.000000 -0.007687 0.000000 0.065539
#
#
# Mechanical properties :
#
#
# Convention : Reuss Voigt Hill
#
# Bulk Modulus (GPa) = 33.25377 74.82976 54.04176
# Shear Modulus (GPa) = 13.17557 24.75931 18.96744
#
# Velocity S-wave (km/s) = 2.66710 3.65615 3.20007
# Velocity P-wave (km/s) = 5.23814 7.63043 6.54452
#
# Compressibility (1/GPa) = 0.03007178
#
# Stress axis : x y z
#
# Youngs Moduli (GPa) = 44.67670 47.74414 90.82088
#
# Poissons Ratio (x) = 0.03941 0.23090
# Poissons Ratio (y) = 0.03688 0.79610
# Poissons Ratio (z) = 0.11358 0.41851
#
# Static dielectric constant tensor:
#      x y z
#    x 1.619040 0.000000 -0.014340 
#    y 0.000000 1.644170 0.000000 
#    z -0.014340 0.000000 1.647350 
# 
# From -- ./inp_files/75941.got.cif
#   From: 2010.05.17/outbox.cif.g08.bks.cpg/sg12_38_cif.got.tgz:75941.got - 2010.06.03 13:09:07.
