data_PCOD9187365
_publ_section_title
;
Structure prediction by ZEFSAII (Michael W. Deem and Ramdas Pophale) SiO2 
 PCOD9187365
Probable space group: C 2/M
;
_chemical_formula_sum "Si O2"
_cell_formula_units_Z 64
_cell_length_a 30.619697
_cell_length_b 13.899886
_cell_length_c 9.724246
_cell_angle_alpha 90.000000
_cell_angle_beta 62.103664
_cell_angle_gamma 90.000000
_cell_volume 3657.799326
_symmetry_space_group_name_H-M "C 2/M"
_symmetry_group_IT_number 12
_symmetry_cell_setting 'monoclinic'
loop_
_space_group_symop_operation_xyz
x,y,z
-x,y,-z
-x,-y,-z
x,-y,z
1/2+x,1/2+y,z
1/2-x,1/2+y,-z
1/2-x,1/2-y,-z
1/2+x,1/2-y,z
loop_
_atom_site_type_symbol
_atom_site_label
_atom_site_fract_x
_atom_site_fract_y
_atom_site_fract_z
Si Si1 0.320064 0.887331 0.088243
Si Si2 0.147760 0.888121 0.822167
Si Si3 0.876252 0.192928 0.436061
Si Si4 0.846665 0.390275 0.369263
Si Si5 0.130887 0.786568 0.116690
Si Si6 0.058640 0.886871 0.428746
Si Si7 0.738511 0.891045 0.282454
Si Si8 0.289848 0.693364 0.785350
O O1 0.335254 0.868899 0.225980
O O2 0.262548 0.857950 0.154665
O O3 0.325714 0.000000 0.053642
O O4 0.354300 0.822948 0.938665
O O5 0.130875 0.859241 0.697131
O O6 0.206063 0.867507 0.753450
O O7 0.140468 0.000000 0.854771
O O8 0.121647 0.832553 0.982928
O O9 0.878487 0.306319 0.394130
O O10 0.921849 0.150188 0.453043
O O11 0.827844 0.174717 0.603443
O O12 0.866138 0.500000 0.350200
O O13 0.795868 0.388280 0.531539
O O14 0.086466 0.816463 0.281011
O O15 0.179648 0.829718 0.121720
O O16 0.000000 0.880660 0.500000
O O17 0.072991 0.000000 0.387843
O O18 0.720296 0.808023 0.207754
O O19 0.736470 0.000000 0.229405
#
# Coordination Sequence:
#
# PCOD9187365 Si02
#       8
#     8   8   8   8   8   8   8   8
#     4  11  21  32  51  79 117 158 193 221 258 312
#     4  11  20  30  50  79 110 143 182 227 271 317
#     4  10  19  35  59  81 111 146 187 223 267 327
#     4   9  17  31  51  79 114 155 192 225 258 305
#     4  11  22  37  53  79 113 146 181 232 280 321
#     4  10  23  44  66  84 104 134 173 223 288 349
#     4   9  17  28  46  73 112 155 193 226 260 303
#     4  10  20  33  48  75 113 158 193 220 257 315
#
# _framework density 17.496859000000001
#
# number of rings (size 3 to 8) (size 9 to 14) (size 15 to 20)
#    0.000    1.875    2.500    1.875    0.000    6.500 
#    0.000    2.500    0.000    3.750    0.000    1.750 
#    0.000    0.000    0.000    0.000    0.000    0.000 
#
# Total GULP energy -178512.820491 kJ/mol
# GULP energy per Si atom -5578.525640 kJ/mol
# Density = 1.745704 g / cm^3
# Si number density = 17.496859 Si / 1000 Ang^3
#
#
#
# Elastic Constant Matrix: (Units=GPa)
#
#
# Indices 1 2 3 4 5 6 
#
# 1 74.4688 34.6644 37.0363 0.0000 2.5292 0.0000
# 2 34.6644 77.7218 30.1089 0.0000 -2.6357 0.0000
# 3 37.0363 30.1089 59.6802 0.0000 12.9851 0.0000
# 4 0.0000 0.0000 0.0000 20.8980 0.0000 1.0818
# 5 2.5292 -2.6357 12.9851 0.0000 18.9443 0.0000
# 6 0.0000 0.0000 0.0000 1.0818 0.0000 17.7504
#
#
#
# Elastic Compliance Matrix: (Units=1/GPa)
#
#
# Indices 1 2 3 4 5 6 
#
# 1 0.021406 -0.004793 -0.011869 0.000000 0.004611 0.000000
# 2 -0.004793 0.018526 -0.008312 0.000000 0.008915 0.000000
# 3 -0.011869 -0.008312 0.033169 0.000000 -0.022307 0.000000
# 4 0.000000 0.000000 0.000000 0.048003 0.000000 -0.002925
# 5 0.004611 0.008915 -0.022307 0.000000 0.068701 0.000000
# 6 0.000000 0.000000 0.000000 -0.002925 0.000000 0.056515
#
#
# Mechanical properties :
#
#
# Convention : Reuss Voigt Hill
#
# Bulk Modulus (GPa) = 43.19126 46.16556 44.67841
# Shear Modulus (GPa) = 16.44812 18.85596 17.65204
#
# Velocity S-wave (km/s) = 3.06937 3.28636 3.17972
# Velocity P-wave (km/s) = 6.10738 6.39082 6.25071
#
# Compressibility (1/GPa) = 0.02315283
#
# Stress axis : x y z
#
# Youngs Moduli (GPa) = 46.71604 53.97727 30.14870
#
# Poissons Ratio (x) = 0.25869 0.35785
# Poissons Ratio (y) = 0.22389 0.25060
# Poissons Ratio (z) = 0.55449 0.44866
#
# Static dielectric constant tensor:
#      x y z
#    x 1.570420 0.000000 0.017130 
#    y 0.000000 1.626750 0.000000 
#    z 0.017130 0.000000 1.602650 
# 
# From -- ./inp_files/104541.got.cif
#   From: 2010.05.17/outbox.cif.g08.bks.cpg/sg12_53_cif.got.tgz:104541.got - 2010.06.03 13:09:07.
