data_PCOD9187131
_publ_section_title
;
Structure prediction by ZEFSAII (Michael W. Deem and Ramdas Pophale) SiO2 
 PCOD9187131
Probable space group: C 2/M
;
_chemical_formula_sum "Si O2"
_cell_formula_units_Z 64
_cell_length_a 14.754865
_cell_length_b 8.435465
_cell_length_c 26.923726
_cell_angle_alpha 90.000000
_cell_angle_beta 108.682025
_cell_angle_gamma 90.000000
_cell_volume 3174.475105
_symmetry_space_group_name_H-M "C 2/M"
_symmetry_group_IT_number 12
_symmetry_cell_setting 'monoclinic'
loop_
_space_group_symop_operation_xyz
x,y,z
-x,y,-z
-x,-y,-z
x,-y,z
1/2+x,1/2+y,z
1/2-x,1/2+y,-z
1/2-x,1/2-y,-z
1/2+x,1/2-y,z
loop_
_atom_site_type_symbol
_atom_site_label
_atom_site_fract_x
_atom_site_fract_y
_atom_site_fract_z
Si Si1 0.356186 0.307786 0.766495
Si Si2 0.948528 0.815596 0.038841
Si Si3 0.454384 0.809283 0.419489
Si Si4 0.351937 0.682153 0.877291
Si Si5 0.155181 0.693038 0.698031
Si Si6 0.646365 0.310972 0.499010
Si Si7 0.931721 0.689413 0.212173
Si Si8 0.314964 0.311863 0.096246
O O1 0.363515 0.500000 0.769008
O O2 0.332655 0.255283 0.818857
O O3 0.266924 0.261896 0.716530
O O4 0.457835 0.238664 0.769941
O O5 0.859067 0.744651 0.052724
O O6 0.035055 0.816898 0.093733
O O7 0.925334 0.000000 0.020831
O O8 0.000000 0.741242 0.000000
O O9 0.406423 0.754265 0.359750
O O10 0.387375 0.758261 0.453787
O O11 0.560187 0.740665 0.447223
O O12 0.461197 0.000000 0.420733
O O13 0.319097 0.500000 0.873071
O O14 0.293439 0.768143 0.909987
O O15 0.152680 0.500000 0.697573
O O16 0.112889 0.745422 0.743501
O O17 0.648458 0.500000 0.502587
O O18 0.750000 0.250000 0.500000
O O19 0.923664 0.500000 0.209051
O O20 0.875882 0.754984 0.154532
O O21 0.325168 0.500000 0.094840
#
# Coordination Sequence:
#
# PCOD9187131 Si02
#       8
#     8   8   8   8   8   8   8   8
#     4  10  19  36  56  80 110 148 188 225 274 335
#     4   9  19  36  56  78 108 146 183 225 282 340
#     4  10  20  38  61  88 119 153 191 240 291 339
#     4  10  19  35  58  79 107 145 182 223 279 335
#     4   9  20  37  57  81 118 153 184 228 284 339
#     4  11  22  39  62  88 118 156 198 239 284 339
#     4  11  21  36  56  82 112 148 187 228 277 333
#     4  11  21  35  56  82 107 140 185 230 275 334
#
# _framework density 20.160813000000001
#
# number of rings (size 3 to 8) (size 9 to 14) (size 15 to 20)
#    0.000    1.875    2.500    3.000    0.000    2.000 
#    0.000    6.250    0.000    2.625    0.000    0.000 
#    0.000    0.000    0.000    0.000    0.000    0.000 
#
# Total GULP energy -178635.704101 kJ/mol
# GULP energy per Si atom -5582.365753 kJ/mol
# Density = 2.011493 g / cm^3
# Si number density = 20.160813 Si / 1000 Ang^3
#
#
#
# Elastic Constant Matrix: (Units=GPa)
#
#
# Indices 1 2 3 4 5 6 
#
# 1 106.2939 6.0940 -0.7073 0.0000 8.2374 0.0000
# 2 6.0940 33.8503 -7.6530 0.0000 -1.4616 0.0000
# 3 -0.7073 -7.6530 47.8043 0.0000 0.5054 0.0000
# 4 0.0000 0.0000 0.0000 13.2597 0.0000 -0.0041
# 5 8.2374 -1.4616 0.5054 0.0000 18.5390 0.0000
# 6 0.0000 0.0000 0.0000 -0.0041 0.0000 29.9906
#
#
#
# Elastic Compliance Matrix: (Units=1/GPa)
#
#
# Indices 1 2 3 4 5 6 
#
# 1 0.009874 -0.002002 -0.000126 0.000000 -0.004542 0.000000
# 2 -0.002002 0.031154 0.004924 0.000000 0.003212 0.000000
# 3 -0.000126 0.004924 0.021707 0.000000 -0.000147 0.000000
# 4 0.000000 0.000000 0.000000 0.075417 0.000000 0.000010
# 5 -0.004542 0.003212 -0.000147 0.000000 0.056216 0.000000
# 6 0.000000 0.000000 0.000000 0.000010 0.000000 0.033344
#
#
# Mechanical properties :
#
#
# Convention : Reuss Voigt Hill
#
# Bulk Modulus (GPa) = 14.63595 20.37956 17.50775
# Shear Modulus (GPa) = 20.41689 25.03882 22.72785
#
# Velocity S-wave (km/s) = 3.18575 3.52796 3.36121
# Velocity P-wave (km/s) = 4.56151 5.16970 4.87510
#
# Compressibility (1/GPa) = 0.06832492
#
# Stress axis : x y z
#
# Youngs Moduli (GPa) = 101.27826 32.09840 46.06899
#
# Poissons Ratio (x) = 0.06427 0.00582
# Poissons Ratio (y) = 0.20279 -0.22684
# Poissons Ratio (z) = 0.01280 -0.15805
#
# Static dielectric constant tensor:
#      x y z
#    x 1.722160 0.000000 -0.007960 
#    y 0.000000 1.705270 0.000000 
#    z -0.007960 0.000000 1.723540 
# 
# From -- ./inp_files/375076.got.cif
#   From: 2010.05.17/outbox.cif.g08.bks.cpg/sg12_188_cif.got.tgz:375076.got - 2010.06.03 13:09:07.
