data_PCOD9187320
_publ_section_title
;
Structure prediction by ZEFSAII (Michael W. Deem and Ramdas Pophale) SiO2 
 PCOD9187320
Probable space group: C 2/M
;
_chemical_formula_sum "Si O2"
_cell_formula_units_Z 48
_cell_length_a 14.418546
_cell_length_b 26.125033
_cell_length_c 10.944850
_cell_angle_alpha 90.000000
_cell_angle_beta 146.434669
_cell_angle_gamma 90.000000
_cell_volume 2279.422687
_symmetry_space_group_name_H-M "C 2/M"
_symmetry_group_IT_number 12
_symmetry_cell_setting 'monoclinic'
loop_
_space_group_symop_operation_xyz
x,y,z
-x,y,-z
-x,-y,-z
x,-y,z
1/2+x,1/2+y,z
1/2-x,1/2+y,-z
1/2-x,1/2-y,-z
1/2+x,1/2-y,z
loop_
_atom_site_type_symbol
_atom_site_label
_atom_site_fract_x
_atom_site_fract_y
_atom_site_fract_z
Si Si1 0.000000 0.648496 0.000000
Si Si2 0.454611 0.391896 0.200355
Si Si3 0.559744 0.500000 0.208653
Si Si4 0.177792 0.810098 0.558533
Si Si5 0.045608 0.500000 0.407718
Si Si6 0.500000 0.331071 0.000000
Si Si7 0.437447 0.890152 0.194802
Si Si8 0.846329 0.700183 0.477274
O O1 0.829256 0.681360 0.818760
O O2 0.995148 0.616924 0.869264
O O3 0.500810 0.450457 0.220906
O O4 0.565969 0.360698 0.420527
O O5 0.489094 0.364699 0.108986
O O6 0.261596 0.384183 0.020933
O O7 0.758816 0.500000 0.410048
O O8 0.500000 0.500000 0.000000
O O9 0.079065 0.756641 0.462869
O O10 0.274325 0.802753 0.535768
O O11 0.000000 0.500000 0.500000
O O12 0.974370 0.447354 0.277571
O O13 0.320280 0.303300 0.789515
O O14 0.527072 0.847937 0.381536
#
# Coordination Sequence:
#
# PCOD9187320 Si02
#       8
#     4   8   4   8   4   4   8   8
#     4  10  21  43  66  88 134 169 227 264 312 382
#     4  11  23  38  61  94 130 163 214 260 331 382
#     4  12  22  40  64  93 126 165 201 263 325 380
#     4   9  19  38  62  89 122 174 212 270 311 382
#     4  12  26  43  70  97 132 164 211 272 328 385
#     4  10  19  35  58  88 126 165 199 274 320 392
#     4  11  25  41  63  97 126 174 213 269 320 390
#     4   9  19  36  61  91 127 164 220 259 329 377
#
# _framework density 21.057964999999999
#
# number of rings (size 3 to 8) (size 9 to 14) (size 15 to 20)
#    0.000    1.667    0.833    5.000    2.333    3.000 
#    0.000    2.500    0.000    3.000    0.000    0.000 
#    0.000    0.000    0.000    0.000    0.000    0.000 
#
# Total GULP energy -133907.889145 kJ/mol
# GULP energy per Si atom -5579.495381 kJ/mol
# Density = 2.101004 g / cm^3
# Si number density = 21.057965 Si / 1000 Ang^3
#
#
#
# Elastic Constant Matrix: (Units=GPa)
#
#
# Indices 1 2 3 4 5 6 
#
# 1 74.6802 29.5114 10.6224 0.0000 6.2147 0.0000
# 2 29.5114 187.9879 67.7945 0.0000 -1.7878 0.0000
# 3 10.6224 67.7945 118.7569 0.0000 10.0194 0.0000
# 4 0.0000 0.0000 0.0000 19.9543 0.0000 11.8689
# 5 6.2147 -1.7878 10.0194 0.0000 38.7814 0.0000
# 6 0.0000 0.0000 0.0000 11.8689 0.0000 20.4597
#
#
#
# Elastic Compliance Matrix: (Units=1/GPa)
#
#
# Indices 1 2 3 4 5 6 
#
# 1 0.014509 -0.002405 0.000287 0.000000 -0.002510 0.000000
# 2 -0.002405 0.007165 -0.004023 0.000000 0.001755 0.000000
# 3 0.000287 -0.004023 0.010950 0.000000 -0.003060 0.000000
# 4 0.000000 0.000000 0.000000 0.076516 0.000000 -0.044388
# 5 -0.002510 0.001755 -0.003060 0.000000 0.027059 0.000000
# 6 0.000000 0.000000 0.000000 -0.044388 0.000000 0.074626
#
#
# Mechanical properties :
#
#
# Convention : Reuss Voigt Hill
#
# Bulk Modulus (GPa) = 49.16170 66.36462 57.76316
# Shear Modulus (GPa) = 21.74977 34.07219 27.91098
#
# Velocity S-wave (km/s) = 3.21729 4.02682 3.64460
# Velocity P-wave (km/s) = 6.09900 7.29411 6.72316
#
# Compressibility (1/GPa) = 0.02034104
#
# Stress axis : x y z
#
# Youngs Moduli (GPa) = 68.92319 139.57616 91.32699
#
# Poissons Ratio (x) = 0.33569 -0.02621
# Poissons Ratio (y) = 0.16576 0.36740
# Poissons Ratio (z) = -0.01978 0.56151
#
# Static dielectric constant tensor:
#      x y z
#    x 1.745760 0.000000 -0.000990 
#    y 0.000000 1.865860 0.000000 
#    z -0.000990 0.000000 1.773950 
# 
# From -- ./inp_files/149942.got.cif
#   From: 2010.05.17/outbox.cif.g08.bks.cpg/sg12_75_cif.got.tgz:149942.got - 2010.06.03 13:09:07.
