data_PCOD9187559
_publ_section_title
;
Structure prediction by ZEFSAII (Michael W. Deem and Ramdas Pophale) SiO2 
 PCOD9187559
Probable space group: C 2/M
;
_chemical_formula_sum "Si O2"
_cell_formula_units_Z 48
_cell_length_a 25.074344
_cell_length_b 7.977798
_cell_length_c 11.459570
_cell_angle_alpha 90.000000
_cell_angle_beta 100.605998
_cell_angle_gamma 90.000000
_cell_volume 2253.187744
_symmetry_space_group_name_H-M "C 2/M"
_symmetry_group_IT_number 12
_symmetry_cell_setting 'monoclinic'
loop_
_space_group_symop_operation_xyz
x,y,z
-x,y,-z
-x,-y,-z
x,-y,z
1/2+x,1/2+y,z
1/2-x,1/2+y,-z
1/2-x,1/2-y,-z
1/2+x,1/2-y,z
loop_
_atom_site_type_symbol
_atom_site_label
_atom_site_fract_x
_atom_site_fract_y
_atom_site_fract_z
Si Si1 0.186878 0.797891 0.473274
Si Si2 0.014115 0.201859 0.640049
Si Si3 0.863759 0.204563 0.304445
Si Si4 0.853448 0.802803 0.786107
Si Si5 0.968548 0.694540 0.872989
Si Si6 0.743871 0.299517 0.865286
O O1 0.250000 0.750000 0.500000
O O2 0.156211 0.742371 0.576151
O O3 0.155572 0.734318 0.347667
O O4 0.185199 0.000000 0.469171
O O5 0.075338 0.261697 0.692515
O O6 0.000000 0.260115 0.500000
O O7 0.980444 0.240140 0.745335
O O8 0.013378 0.000000 0.631173
O O9 0.815199 0.258689 0.201119
O O10 0.865136 0.000000 0.301941
O O11 0.904215 0.716451 0.867467
O O12 0.794770 0.779263 0.819662
O O13 0.866321 0.000000 0.787346
O O14 0.983332 0.500000 0.874088
O O15 0.000000 0.768142 0.000000
O O16 0.746662 0.500000 0.849115
O O17 0.750000 0.250000 0.000000
#
# Coordination Sequence:
#
# PCOD9187559 Si02
#       6
#     8   8   8   8   8   8
#     4  10  19  35  59  90 124 156 196 244 301 365
#     4  10  21  41  68  95 126 166 212 263 315 379
#     4   9  19  36  60  89 122 159 197 244 305 364
#     4  11  23  40  65  93 122 161 207 255 310 374
#     4  11  26  45  64  92 128 168 213 266 322 379
#     4  11  23  39  59  87 125 165 206 253 306 367
#
# _framework density 21.303152000000001
#
# number of rings (size 3 to 8) (size 9 to 14) (size 15 to 20)
#    0.000    1.667    1.667    2.500    2.333    5.000 
#    0.000    1.667    0.000    0.000    0.000    0.000 
#    0.000    0.000    0.000    0.000    0.000    0.000 
#
# Total GULP energy -133919.426594 kJ/mol
# GULP energy per Si atom -5579.976108 kJ/mol
# Density = 2.125467 g / cm^3
# Si number density = 21.303152 Si / 1000 Ang^3
#
#
#
# Elastic Constant Matrix: (Units=GPa)
#
#
# Indices 1 2 3 4 5 6 
#
# 1 101.0250 -1.2577 37.2400 0.0000 22.1986 0.0000
# 2 -1.2577 19.0425 8.8619 0.0000 -0.4217 0.0000
# 3 37.2400 8.8619 148.0316 0.0000 22.5361 0.0000
# 4 0.0000 0.0000 0.0000 19.0092 0.0000 -5.8417
# 5 22.1986 -0.4217 22.5361 0.0000 35.6083 0.0000
# 6 0.0000 0.0000 0.0000 -5.8417 0.0000 27.2140
#
#
#
# Elastic Compliance Matrix: (Units=1/GPa)
#
#
# Indices 1 2 3 4 5 6 
#
# 1 0.012077 0.001690 -0.002209 0.000000 -0.006111 0.000000
# 2 0.001690 0.054542 -0.004015 0.000000 0.002133 0.000000
# 3 -0.002209 -0.004015 0.008133 0.000000 -0.003817 0.000000
# 4 0.000000 0.000000 0.000000 0.056321 0.000000 0.012090
# 5 -0.006111 0.002133 -0.003817 0.000000 0.034334 0.000000
# 6 0.000000 0.000000 0.000000 0.012090 0.000000 0.039341
#
#
# Mechanical properties :
#
#
# Convention : Reuss Voigt Hill
#
# Bulk Modulus (GPa) = 15.22463 39.75417 27.48940
# Shear Modulus (GPa) = 21.21258 31.24996 26.23127
#
# Velocity S-wave (km/s) = 3.15897 3.83419 3.51284
# Velocity P-wave (km/s) = 4.52412 6.18894 5.42082
#
# Compressibility (1/GPa) = 0.06568305
#
# Stress axis : x y z
#
# Youngs Moduli (GPa) = 82.80492 18.33463 122.96257
#
# Poissons Ratio (x) = -0.03099 0.27162
# Poissons Ratio (y) = -0.13996 0.49371
# Poissons Ratio (z) = 0.18292 0.07362
#
# Static dielectric constant tensor:
#      x y z
#    x 1.780370 0.000000 0.040400 
#    y 0.000000 1.777630 0.000000 
#    z 0.040400 0.000000 1.725290 
# 
# From -- ./inp_files/172085.got.cif
#   From: 2010.05.17/outbox.cif.g08.bks.cpg/sg12_87_cif.got.tgz:172085.got - 2010.06.03 13:09:07.
