data_PCOD9187876
_publ_section_title
;
Structure prediction by ZEFSAII (Michael W. Deem and Ramdas Pophale) SiO2 
 PCOD9187876
Probable space group: C 2/M
;
_chemical_formula_sum "Si O2"
_cell_formula_units_Z 56
_cell_length_a 27.323012
_cell_length_b 16.900307
_cell_length_c 9.979719
_cell_angle_alpha 90.000000
_cell_angle_beta 140.931727
_cell_angle_gamma 90.000000
_cell_volume 2904.367481
_symmetry_space_group_name_H-M "C 2/M"
_symmetry_group_IT_number 12
_symmetry_cell_setting 'monoclinic'
loop_
_space_group_symop_operation_xyz
x,y,z
-x,y,-z
-x,-y,-z
x,-y,z
1/2+x,1/2+y,z
1/2-x,1/2+y,-z
1/2-x,1/2-y,-z
1/2+x,1/2-y,z
loop_
_atom_site_type_symbol
_atom_site_label
_atom_site_fract_x
_atom_site_fract_y
_atom_site_fract_z
Si Si1 0.189776 0.408728 0.254028
Si Si2 0.574975 0.089102 0.255498
Si Si3 0.571117 0.500000 0.045380
Si Si4 0.619307 0.761313 0.994125
Si Si5 0.154154 0.840097 0.308086
Si Si6 0.594337 0.330401 0.684385
Si Si7 0.081545 0.000000 0.748203
Si Si8 0.936383 0.753837 0.654428
O O1 0.196812 0.500000 0.226235
O O2 0.147588 0.408454 0.309088
O O3 0.271850 0.366648 0.449455
O O4 0.137431 0.353627 0.048183
O O5 0.581067 0.160365 0.372524
O O6 0.567650 0.000000 0.295432
O O7 0.500000 0.103066 0.000000
O O8 0.617773 0.420776 0.176152
O O9 0.500000 0.500000 0.000000
O O10 0.560435 0.500000 0.861498
O O11 0.630708 0.728673 0.869962
O O12 0.529619 0.741073 0.839272
O O13 0.669791 0.715365 0.213154
O O14 0.094296 0.793880 0.275735
O O15 0.500000 0.329342 0.500000
O O16 0.620963 0.418673 0.782517
O O17 0.604154 0.299374 0.554797
O O18 0.000000 0.000000 0.500000
#
# Coordination Sequence:
#
# PCOD9187876 Si02
#       8
#     8   8   4   8   8   8   4   8
#     4  11  23  39  58  89 125 160 194 245 314 360
#     4  10  19  35  62  89 115 151 201 253 298 350
#     4  12  24  36  62  94 125 155 208 255 291 352
#     4  11  20  38  61  86 117 158 200 248 296 357
#     4  12  23  37  59  91 124 152 199 251 299 356
#     4   9  21  35  57  83 122 158 196 244 300 359
#     4  10  20  38  54  84 128 165 195 239 305 359
#     4  11  21  37  60  95 116 150 204 250 300 351
#
# _framework density 19.281305
#
# number of rings (size 3 to 8) (size 9 to 14) (size 15 to 20)
#    0.000    1.286    5.000    1.714    4.000    0.000 
#    0.000    1.429    0.000    2.571    0.000    0.000 
#    0.000    0.000    0.000    0.000    0.000    0.000 
#
# Total GULP energy -156249.180715 kJ/mol
# GULP energy per Si atom -5580.327883 kJ/mol
# Density = 1.923742 g / cm^3
# Si number density = 19.281305 Si / 1000 Ang^3
#
#
#
# Elastic Constant Matrix: (Units=GPa)
#
#
# Indices 1 2 3 4 5 6 
#
# 1 28.3456 28.1073 31.2812 0.0000 -14.0282 0.0000
# 2 28.1073 141.0354 43.4358 0.0000 -19.3004 0.0000
# 3 31.2812 43.4358 70.6068 0.0000 -19.7164 0.0000
# 4 0.0000 0.0000 0.0000 8.9865 0.0000 -0.4032
# 5 -14.0282 -19.3004 -19.7164 0.0000 36.2950 0.0000
# 6 0.0000 0.0000 0.0000 -0.4032 0.0000 -30.1497
#
#
#
# Elastic Compliance Matrix: (Units=1/GPa)
#
#
# Indices 1 2 3 4 5 6 
#
# 1 0.076570 -0.005187 -0.027394 0.000000 0.011955 0.000000
# 2 -0.005187 0.009229 -0.003028 0.000000 0.001258 0.000000
# 3 -0.027394 -0.003028 0.029183 0.000000 0.003655 0.000000
# 4 0.000000 0.000000 0.000000 0.111211 0.000000 -0.001487
# 5 0.011955 0.001258 0.003655 0.000000 0.034827 0.000000
# 6 0.000000 0.000000 0.000000 -0.001487 0.000000 -0.033148
#
#
# Mechanical properties :
#
#
# Convention : Reuss Voigt Hill
#
# Bulk Modulus (GPa) = 22.84998 49.51514 36.18256
# Shear Modulus (GPa) = 15.93997 12.17060 14.05529
#
# Velocity S-wave (km/s) = 2.87837 2.51512 2.70285
# Velocity P-wave (km/s) = 4.78782 5.84556 5.34293
#
# Compressibility (1/GPa) = 0.04376371
#
# Stress axis : x y z
#
# Youngs Moduli (GPa) = 13.05999 108.35538 34.26698
#
# Poissons Ratio (x) = 0.56205 0.93869
# Poissons Ratio (y) = 0.06774 0.10376
# Poissons Ratio (z) = 0.35776 0.32811
#
# Static dielectric constant tensor:
#      x y z
#    x 1.670680 0.000000 0.025770 
#    y 0.000000 1.713990 0.000000 
#    z 0.025770 0.000000 1.683170 
# 
# From -- ./inp_files/106074.got.cif
#   From: 2010.05.17/outbox.cif.g08.bks.cpg/sg12_54_cif.got.tgz:106074.got - 2010.06.03 13:09:07.
