data_PCOD9187261
_publ_section_title
;
Structure prediction by ZEFSAII (Michael W. Deem and Ramdas Pophale) SiO2 
 PCOD9187261
Probable space group: C 2/M
;
_chemical_formula_sum "Si O2"
_cell_formula_units_Z 56
_cell_length_a 25.828977
_cell_length_b 9.086179
_cell_length_c 17.644330
_cell_angle_alpha 90.000000
_cell_angle_beta 42.897480
_cell_angle_gamma 90.000000
_cell_volume 2818.656637
_symmetry_space_group_name_H-M "C 2/M"
_symmetry_group_IT_number 12
_symmetry_cell_setting 'monoclinic'
loop_
_space_group_symop_operation_xyz
x,y,z
-x,y,-z
-x,-y,-z
x,-y,z
1/2+x,1/2+y,z
1/2-x,1/2+y,-z
1/2-x,1/2-y,-z
1/2+x,1/2-y,z
loop_
_atom_site_type_symbol
_atom_site_label
_atom_site_fract_x
_atom_site_fract_y
_atom_site_fract_z
Si Si1 0.539640 0.172393 0.878497
Si Si2 0.087113 0.328707 0.115671
Si Si3 0.507456 0.673273 0.336247
Si Si4 0.192582 0.823449 0.735945
Si Si5 0.116406 0.671858 0.326506
Si Si6 0.727918 0.823704 0.859350
Si Si7 0.642041 0.170777 0.480110
O O1 0.477239 0.183831 0.880064
O O2 0.614740 0.266860 0.783374
O O3 0.561321 0.000000 0.863340
O O4 0.500000 0.218010 0.000000
O O5 0.088563 0.500000 0.139214
O O6 0.062528 0.224828 0.209896
O O7 0.167104 0.293429 0.990310
O O8 0.506855 0.500000 0.346407
O O9 0.542147 0.751241 0.373173
O O10 0.422579 0.732713 0.411912
O O11 0.198749 0.746580 0.811725
O O12 0.269608 0.785198 0.607349
O O13 0.193057 0.000000 0.745256
O O14 0.115376 0.500000 0.307708
O O15 0.190318 0.752439 0.213286
O O16 0.126051 0.681414 0.406768
O O17 0.733898 0.000000 0.843975
O O18 0.633064 0.000000 0.512235
#
# Coordination Sequence:
#
# PCOD9187261 Si02
#       7
#     8   8   8   8   8   8   8
#     4  10  19  36  60  87 114 147 190 231 279 335
#     4  10  22  39  58  80 115 156 187 227 285 339
#     4  12  25  38  56  83 113 149 193 237 280 332
#     4  10  20  34  57  89 118 147 183 232 286 333
#     4  10  21  38  61  86 113 148 188 232 285 337
#     4  10  19  35  58  85 115 148 189 234 279 332
#     4   9  20  39  60  82 112 149 189 230 279 336
#
# _framework density 19.867619999999999
#
# number of rings (size 3 to 8) (size 9 to 14) (size 15 to 20)
#    0.000    1.857    1.429    3.857    0.000    7.714 
#    0.000    0.714    0.000    0.000    0.000    0.000 
#    0.000    0.000    0.000    0.000    0.000    0.000 
#
# Total GULP energy -156453.614447 kJ/mol
# GULP energy per Si atom -5587.629087 kJ/mol
# Density = 1.982240 g / cm^3
# Si number density = 19.867620 Si / 1000 Ang^3
#
#
#
# Elastic Constant Matrix: (Units=GPa)
#
#
# Indices 1 2 3 4 5 6 
#
# 1 25.8762 6.2181 10.4392 -0.0007 -17.8593 0.0010
# 2 6.2181 84.1808 50.6421 -0.0005 -18.9237 -0.0002
# 3 10.4392 50.6421 86.8455 0.0008 -32.7118 -0.0003
# 4 -0.0007 -0.0005 0.0008 24.1155 -0.0002 -10.3379
# 5 -17.8593 -18.9237 -32.7118 -0.0002 32.9392 -0.0002
# 6 0.0010 -0.0002 -0.0003 -10.3379 -0.0002 26.5803
#
#
#
# Elastic Compliance Matrix: (Units=1/GPa)
#
#
# Indices 1 2 3 4 5 6 
#
# 1 0.065735 -0.000280 0.008988 0.000001 0.044406 -0.000002
# 2 -0.000280 0.018300 -0.010759 0.000001 -0.000324 0.000000
# 3 0.008988 -0.010759 0.025906 -0.000001 0.024420 0.000000
# 4 0.000001 0.000001 -0.000001 0.049764 0.000001 0.019355
# 5 0.044406 -0.000324 0.024420 0.000001 0.078500 -0.000001
# 6 -0.000002 0.000000 0.000000 0.019355 -0.000001 0.045149
#
#
# Mechanical properties :
#
#
# Convention : Reuss Voigt Hill
#
# Bulk Modulus (GPa) = 9.44838 36.83347 23.14093
# Shear Modulus (GPa) = 15.49243 25.36721 20.42982
#
# Velocity S-wave (km/s) = 2.79549 3.57713 3.21019
# Velocity P-wave (km/s) = 3.89688 5.96999 5.04115
#
# Compressibility (1/GPa) = 0.10583821
#
# Stress axis : x y z
#
# Youngs Moduli (GPa) = 15.21254 54.64528 38.60043
#
# Poissons Ratio (x) = 0.01532 -0.34694
# Poissons Ratio (y) = 0.00426 0.41532
# Poissons Ratio (z) = -0.13673 0.58795
#
# Static dielectric constant tensor:
#      x y z
#    x 1.708460 0.000000 -0.003840 
#    y 0.000000 1.662360 0.000000 
#    z -0.003840 0.000000 1.711270 
# 
# From -- ./inp_files/288239.got.cif
#   From: 2010.05.17/outbox.cif.g08.bks.cpg/sg12_145_cif.got.tgz:288239.got - 2010.06.03 13:09:07.
