data_PCOD9187630
_publ_section_title
;
Structure prediction by ZEFSAII (Michael W. Deem and Ramdas Pophale) SiO2 
 PCOD9187630
Probable space group: C 2/M
;
_chemical_formula_sum "Si O2"
_cell_formula_units_Z 56
_cell_length_a 19.351704
_cell_length_b 8.593225
_cell_length_c 20.999863
_cell_angle_alpha 90.000000
_cell_angle_beta 60.259831
_cell_angle_gamma 90.000000
_cell_volume 3032.170566
_symmetry_space_group_name_H-M "C 2/M"
_symmetry_group_IT_number 12
_symmetry_cell_setting 'monoclinic'
loop_
_space_group_symop_operation_xyz
x,y,z
-x,y,-z
-x,-y,-z
x,-y,z
1/2+x,1/2+y,z
1/2-x,1/2+y,-z
1/2-x,1/2-y,-z
1/2+x,1/2-y,z
loop_
_atom_site_type_symbol
_atom_site_label
_atom_site_fract_x
_atom_site_fract_y
_atom_site_fract_z
Si Si1 0.333261 0.324234 0.945660
Si Si2 0.459982 0.685961 0.583387
Si Si3 0.000875 0.189033 0.924063
Si Si4 0.211066 0.679853 0.298433
Si Si5 0.015160 0.815572 0.695404
Si Si6 0.882644 0.684205 0.239200
Si Si7 0.852960 0.673675 0.810867
O O1 0.332017 0.500000 0.969045
O O2 0.415447 0.256055 0.935367
O O3 0.336565 0.306595 0.868671
O O4 0.250000 0.250000 0.000000
O O5 0.500000 0.742554 0.500000
O O6 0.447755 0.500000 0.583966
O O7 0.373270 0.759701 0.635834
O O8 0.518078 0.710060 0.617851
O O9 0.069446 0.255241 0.845779
O O10 0.006180 0.000000 0.916879
O O11 0.000000 0.228251 0.000000
O O12 0.222715 0.500000 0.312148
O O13 0.289119 0.777740 0.278373
O O14 0.200716 0.684053 0.226773
O O15 0.084116 0.769414 0.712674
O O16 0.942597 0.705110 0.748691
O O17 0.997042 0.000000 0.712680
O O18 0.895800 0.500000 0.238173
O O19 0.844480 0.500000 0.842772
#
# Coordination Sequence:
#
# PCOD9187630 Si02
#       7
#     8   8   8   8   8   8   8
#     4  11  23  37  56  80 111 148 189 241 293 344
#     4   9  19  38  64  93 123 152 188 236 286 341
#     4  10  23  42  60  80 112 155 197 241 298 350
#     4  10  22  38  59  86 118 154 194 236 286 345
#     4  10  19  35  60  86 115 152 189 228 284 344
#     4  12  24  38  59  86 118 154 198 246 289 342
#     4  10  20  36  57  81 109 145 190 239 286 338
#
# _framework density 18.468617999999999
#
# number of rings (size 3 to 8) (size 9 to 14) (size 15 to 20)
#    0.000    1.714    1.429    3.000    2.000    3.429 
#    0.000    0.714    0.000    0.000    0.000    0.000 
#    0.000    0.000    0.000    0.000    0.000    0.000 
#
# Total GULP energy -156064.385776 kJ/mol
# GULP energy per Si atom -5573.728063 kJ/mol
# Density = 1.842658 g / cm^3
# Si number density = 18.468618 Si / 1000 Ang^3
#
#
#
# Elastic Constant Matrix: (Units=GPa)
#
#
# Indices 1 2 3 4 5 6 
#
# 1 98.8714 26.0766 47.7140 0.0000 -1.7261 0.0001
# 2 26.0766 53.3312 23.2168 -0.0001 4.2403 0.0002
# 3 47.7140 23.2168 110.0932 0.0000 6.9358 0.0000
# 4 0.0000 -0.0001 0.0000 22.0688 0.0000 -2.4647
# 5 -1.7261 4.2403 6.9358 0.0000 17.2303 0.0000
# 6 0.0001 0.0002 0.0000 -2.4647 0.0000 23.7439
#
#
#
# Elastic Compliance Matrix: (Units=1/GPa)
#
#
# Indices 1 2 3 4 5 6 
#
# 1 0.014089 -0.004933 -0.005367 0.000000 0.004786 0.000000
# 2 -0.004933 0.022571 -0.002299 0.000000 -0.005123 0.000000
# 3 -0.005367 -0.002299 0.012202 0.000000 -0.004884 0.000000
# 4 0.000000 0.000000 0.000000 0.045844 0.000000 0.004759
# 5 0.004786 -0.005123 -0.004884 0.000000 0.061743 0.000000
# 6 0.000000 0.000000 0.000000 0.004759 0.000000 0.042610
#
#
# Mechanical properties :
#
#
# Convention : Reuss Voigt Hill
#
# Bulk Modulus (GPa) = 42.25994 50.70118 46.48056
# Shear Modulus (GPa) = 21.53818 23.62783 22.58300
#
# Velocity S-wave (km/s) = 3.41868 3.58068 3.50062
# Velocity P-wave (km/s) = 6.20603 6.67887 6.44679
#
# Compressibility (1/GPa) = 0.02366307
#
# Stress axis : x y z
#
# Youngs Moduli (GPa) = 70.97791 44.30473 81.95427
#
# Poissons Ratio (x) = 0.21855 0.43988
# Poissons Ratio (y) = 0.35012 0.18843
# Poissons Ratio (z) = 0.38096 0.10187
#
# Static dielectric constant tensor:
#      x y z
#    x 1.626470 0.000000 0.169410 
#    y 0.000000 1.644670 0.000000 
#    z 0.169410 0.000000 0.598910 
# 
# From -- ./inp_files/275617.got.cif
#   From: 2010.05.17/outbox.cif.g08.bks.cpg/sg12_138_cif.got.tgz:275617.got - 2010.06.03 13:09:07.
