data_PCOD9187021
_publ_section_title
;
Structure prediction by ZEFSAII (Michael W. Deem and Ramdas Pophale) SiO2 
 PCOD9187021
Probable space group: C 2/M
;
_chemical_formula_sum "Si O2"
_cell_formula_units_Z 64
_cell_length_a 24.235152
_cell_length_b 15.369934
_cell_length_c 9.098640
_cell_angle_alpha 90.000000
_cell_angle_beta 96.077609
_cell_angle_gamma 90.000000
_cell_volume 3370.127638
_symmetry_space_group_name_H-M "C 2/M"
_symmetry_group_IT_number 12
_symmetry_cell_setting 'monoclinic'
loop_
_space_group_symop_operation_xyz
x,y,z
-x,y,-z
-x,-y,-z
x,-y,z
1/2+x,1/2+y,z
1/2-x,1/2+y,-z
1/2-x,1/2-y,-z
1/2+x,1/2-y,z
loop_
_atom_site_type_symbol
_atom_site_label
_atom_site_fract_x
_atom_site_fract_y
_atom_site_fract_z
Si Si1 0.950539 0.595106 0.865597
Si Si2 0.748789 0.730973 0.672323
Si Si3 0.025092 0.220953 0.168994
Si Si4 0.337410 0.598646 0.437633
Si Si5 0.821768 0.399922 0.861414
Si Si6 0.539558 0.405798 0.651997
Si Si7 0.632352 0.600880 0.218468
Si Si8 0.248791 0.099837 0.135594
O O1 0.950895 0.500000 0.791594
O O2 0.961923 0.681241 0.774998
O O3 0.887928 0.606990 0.912035
O O4 0.000000 0.592224 0.000000
O O5 0.750000 0.750000 0.500000
O O6 0.699439 0.661676 0.669355
O O7 0.802097 0.677733 0.748280
O O8 0.736090 0.819389 0.755926
O O9 0.081019 0.164082 0.181805
O O10 0.980311 0.172003 0.253970
O O11 0.000000 0.226155 0.000000
O O12 0.316110 0.500000 0.421766
O O13 0.399041 0.601790 0.392137
O O14 0.341083 0.619923 0.612929
O O15 0.813425 0.500000 0.803286
O O16 0.783044 0.391430 0.994901
O O17 0.500000 0.406876 0.500000
O O18 0.533940 0.500000 0.727414
O O19 0.613660 0.500000 0.218600
O O20 0.681511 0.607838 0.112555
O O21 0.258742 0.000000 0.193595
#
# Coordination Sequence:
#
# PCOD9187021 Si02
#       8
#     8   8   8   8   8   8   8   8
#     4   9  20  39  62  84 112 153 198 246 303 355
#     4  12  23  35  59  89 122 162 201 248 292 360
#     4  11  22  34  57  88 115 145 197 250 296 350
#     4  10  21  37  58  83 118 160 201 238 286 357
#     4  10  22  40  62  89 120 154 202 254 300 361
#     4  10  20  36  57  81 113 157 193 230 287 356
#     4  10  19  35  57  82 118 156 192 237 297 360
#     4  10  22  39  60  85 120 160 196 246 303 349
#
# _framework density 18.990378
#
# number of rings (size 3 to 8) (size 9 to 14) (size 15 to 20)
#    0.000    1.750    2.500    1.875    0.000    4.500 
#    0.000    2.500    0.000    0.375    0.000    0.000 
#    0.000    0.000    0.000    0.000    0.000    0.000 
#
# Total GULP energy -178377.278908 kJ/mol
# GULP energy per Si atom -5574.289966 kJ/mol
# Density = 1.894716 g / cm^3
# Si number density = 18.990378 Si / 1000 Ang^3
#
#
#
# Elastic Constant Matrix: (Units=GPa)
#
#
# Indices 1 2 3 4 5 6 
#
# 1 91.4189 35.5510 19.2944 0.0000 7.1229 0.0000
# 2 35.5510 130.3438 42.9295 0.0000 5.9165 0.0000
# 3 19.2944 42.9295 46.5659 0.0000 -4.7767 0.0000
# 4 0.0000 0.0000 0.0000 27.7785 0.0000 15.6552
# 5 7.1229 5.9165 -4.7767 0.0000 28.5676 0.0000
# 6 0.0000 0.0000 0.0000 15.6552 0.0000 -12.9210
#
#
#
# Elastic Compliance Matrix: (Units=1/GPa)
#
#
# Indices 1 2 3 4 5 6 
#
# 1 0.012807 -0.002123 -0.003695 0.000000 -0.003371 0.000000
# 2 -0.002123 0.011850 -0.010421 0.000000 -0.003667 0.000000
# 3 -0.003695 -0.010421 0.033504 0.000000 0.008682 0.000000
# 4 0.000000 0.000000 0.000000 0.021392 0.000000 0.025919
# 5 -0.003371 -0.003667 0.008682 0.000000 0.038056 0.000000
# 6 0.000000 0.000000 0.000000 0.025919 0.000000 -0.045990
#
#
# Mechanical properties :
#
#
# Convention : Reuss Voigt Hill
#
# Bulk Modulus (GPa) = 38.93738 51.54204 45.23971
# Shear Modulus (GPa) = 44.38240 20.05525 32.21882
#
# Velocity S-wave (km/s) = 4.83960 3.25325 4.12343
# Velocity P-wave (km/s) = 7.19564 6.42741 6.82235
#
# Compressibility (1/GPa) = 0.02568226
#
# Stress axis : x y z
#
# Youngs Moduli (GPa) = 78.08360 84.39025 29.84753
#
# Poissons Ratio (x) = 0.17916 0.11029
# Poissons Ratio (y) = 0.16577 0.31104
# Poissons Ratio (z) = 0.28852 0.87942
#
# Static dielectric constant tensor:
#      x y z
#    x 1.665090 0.000000 0.011230 
#    y 0.000000 1.720440 0.000000 
#    z 0.011230 0.000000 1.649740 
# 
# From -- ./inp_files/96870.got.cif
#   From: 2010.05.17/outbox.cif.g08.bks.cpg/sg12_49_cif.got.tgz:96870.got - 2010.06.03 13:09:07.
