data_PCOD9187688
_publ_section_title
;
Structure prediction by ZEFSAII (Michael W. Deem and Ramdas Pophale) SiO2 
 PCOD9187688
Probable space group: C 2/M
;
_chemical_formula_sum "Si O2"
_cell_formula_units_Z 44
_cell_length_a 16.890902
_cell_length_b 15.331536
_cell_length_c 9.086175
_cell_angle_alpha 90.000000
_cell_angle_beta 74.799100
_cell_angle_gamma 90.000000
_cell_volume 2270.661986
_symmetry_space_group_name_H-M "C 2/M"
_symmetry_group_IT_number 12
_symmetry_cell_setting 'monoclinic'
loop_
_space_group_symop_operation_xyz
x,y,z
-x,y,-z
-x,-y,-z
x,-y,z
1/2+x,1/2+y,z
1/2-x,1/2+y,-z
1/2-x,1/2-y,-z
1/2+x,1/2-y,z
loop_
_atom_site_type_symbol
_atom_site_label
_atom_site_fract_x
_atom_site_fract_y
_atom_site_fract_z
Si Si1 0.897108 0.210093 0.265492
Si Si2 0.000000 0.334734 0.000000
Si Si3 0.557150 0.602219 0.256520
Si Si4 0.095974 0.736578 0.427479
Si Si5 0.816999 0.100818 0.069347
Si Si6 0.635357 0.900375 0.155624
O O1 0.866499 0.256922 0.428306
O O2 0.828953 0.164446 0.200240
O O3 0.964922 0.136840 0.276550
O O4 0.947362 0.276216 0.137989
O O5 0.934999 0.385689 0.930750
O O6 0.558856 0.500000 0.293227
O O7 0.596462 0.666888 0.356418
O O8 0.610239 0.615620 0.082361
O O9 0.126959 0.667652 0.293307
O O10 0.000000 0.714679 0.500000
O O11 0.726720 0.112612 0.045426
O O12 0.823597 0.000000 0.113956
O O13 0.630279 0.000000 0.212191
#
# Coordination Sequence:
#
# PCOD9187688 Si02
#       6
#     8   4   8   8   8   8
#     4  11  20  36  61  88 122 154 191 240 297 362
#     4  12  21  40  61  88 108 156 207 250 289 350
#     4  10  19  35  60  89 123 157 189 237 293 356
#     4  10  21  38  57  88 120 153 200 237 297 354
#     4  10  21  37  60  90 121 157 197 240 293 349
#     4  11  24  42  61  84 118 159 205 250 288 339
#
# _framework density 19.377609
#
# number of rings (size 3 to 8) (size 9 to 14) (size 15 to 20)
#    0.000    1.455    5.455    0.818    0.000    9.455 
#    0.000    0.000    0.000    4.364    0.000    0.000 
#    0.000    0.000    0.000    0.000    0.000    0.000 
#
# Total GULP energy -122795.486944 kJ/mol
# GULP energy per Si atom -5581.613043 kJ/mol
# Density = 1.933351 g / cm^3
# Si number density = 19.377609 Si / 1000 Ang^3
#
#
#
# Elastic Constant Matrix: (Units=GPa)
#
#
# Indices 1 2 3 4 5 6 
#
# 1 77.0112 23.0775 20.4956 0.0000 11.7157 0.0000
# 2 23.0775 85.3949 44.3051 0.0000 0.5037 0.0000
# 3 20.4956 44.3051 81.7393 0.0000 15.8299 0.0000
# 4 0.0000 0.0000 0.0000 -7.9803 0.0000 -57.4092
# 5 11.7157 0.5037 15.8299 0.0000 18.2294 0.0000
# 6 0.0000 0.0000 0.0000 -57.4092 0.0000 -107.0123
#
#
#
# Elastic Compliance Matrix: (Units=1/GPa)
#
#
# Indices 1 2 3 4 5 6 
#
# 1 0.015779 -0.004449 0.000475 0.000000 -0.010430 0.000000
# 2 -0.004449 0.018774 -0.011437 0.000000 0.012272 0.000000
# 3 0.000475 -0.011437 0.022014 0.000000 -0.019106 0.000000
# 4 0.000000 0.000000 0.000000 0.043825 0.000000 -0.023511
# 5 -0.010430 0.012272 -0.019106 0.000000 0.077812 0.000000
# 6 0.000000 0.000000 0.000000 -0.023511 0.000000 0.003268
#
#
# Mechanical properties :
#
#
# Convention : Reuss Voigt Hill
#
# Bulk Modulus (GPa) = 38.84298 46.65577 42.74938
# Shear Modulus (GPa) = 22.63710 -8.93484 6.85113
#
# Velocity S-wave (km/s) = 3.42162 -2.14963 1.88236
# Velocity P-wave (km/s) = 5.97484 4.23889 5.18010
#
# Compressibility (1/GPa) = 0.02574468
#
# Stress axis : x y z
#
# Youngs Moduli (GPa) = 63.37672 53.26450 45.42483
#
# Poissons Ratio (x) = 0.23698 -0.02158
# Poissons Ratio (y) = 0.28197 0.51954
# Poissons Ratio (z) = -0.03011 0.60920
#
# Static dielectric constant tensor:
#      x y z
#    x 1.684690 0.000000 0.011750 
#    y 0.000000 1.670740 0.000000 
#    z 0.011750 0.000000 1.694300 
# 
# From -- ./inp_files/73059.got.cif
#   From: 2010.05.17/outbox.cif.g08.bks.cpg/sg12_37_cif.got.tgz:73059.got - 2010.06.03 13:09:07.
