data_PCOD9187122
_publ_section_title
;
Structure prediction by ZEFSAII (Michael W. Deem and Ramdas Pophale) SiO2 
 PCOD9187122
Probable space group: C 2/M
;
_chemical_formula_sum "Si O2"
_cell_formula_units_Z 64
_cell_length_a 9.679413
_cell_length_b 27.871728
_cell_length_c 14.290843
_cell_angle_alpha 90.000000
_cell_angle_beta 69.203030
_cell_angle_gamma 90.000000
_cell_volume 3604.210271
_symmetry_space_group_name_H-M "C 2/M"
_symmetry_group_IT_number 12
_symmetry_cell_setting 'monoclinic'
loop_
_space_group_symop_operation_xyz
x,y,z
-x,y,-z
-x,-y,-z
x,-y,z
1/2+x,1/2+y,z
1/2-x,1/2+y,-z
1/2-x,1/2-y,-z
1/2+x,1/2-y,z
loop_
_atom_site_type_symbol
_atom_site_label
_atom_site_fract_x
_atom_site_fract_y
_atom_site_fract_z
Si Si1 0.831435 0.196643 0.069763
Si Si2 0.830442 0.775738 0.569266
Si Si3 0.635600 0.159191 0.735921
Si Si4 0.342549 0.191482 0.716637
Si Si5 0.135208 0.406352 0.395513
Si Si6 0.074086 0.447203 0.695855
Si Si7 0.147459 0.055131 0.513382
Si Si8 0.328480 0.192638 0.068157
O O1 0.793427 0.179223 0.182288
O O2 0.777384 0.252025 0.088147
O O3 0.750203 0.170781 0.003605
O O4 0.000000 0.196844 0.000000
O O5 0.750000 0.750000 0.500000
O O6 0.747013 0.823342 0.627017
O O7 0.826771 0.738999 0.658446
O O8 0.000000 0.784605 0.500000
O O9 0.487744 0.190142 0.748157
O O10 0.593643 0.103111 0.744353
O O11 0.694627 0.170457 0.824783
O O12 0.362298 0.147670 0.641174
O O13 0.285984 0.419084 0.411775
O O14 0.000000 0.410452 0.500000
O O15 0.078390 0.440469 0.325661
O O16 0.073990 0.500000 0.741930
O O17 0.216107 0.446544 0.592274
O O18 0.000000 0.075418 0.500000
O O19 0.112844 0.000000 0.548026
O O20 0.500000 0.192447 0.000000
#
# Coordination Sequence:
#
# PCOD9187122 Si02
#       8
#     8   8   8   8   8   8   8   8
#     4  10  21  34  56  81 109 139 184 235 277 323
#     4  12  25  37  54  80 122 162 189 220 265 338
#     4  11  22  37  59  83 110 154 191 229 285 336
#     4  11  21  37  54  78 114 153 188 226 277 332
#     4   9  18  32  55  77 105 145 190 223 269 332
#     4   9  19  35  55  77 105 142 192 238 275 326
#     4   9  17  31  50  74 105 138 177 232 285 321
#     4  10  19  35  58  78 102 140 183 231 279 329
#
# _framework density 17.757010999999999
#
# number of rings (size 3 to 8) (size 9 to 14) (size 15 to 20)
#    0.000    1.875    3.750    0.750    3.500    3.000 
#    2.250    0.000    0.000    0.375    0.000    0.000 
#    0.000   13.000    0.000    0.000    0.000    0.000 
#
# Total GULP energy -178252.352916 kJ/mol
# GULP energy per Si atom -5570.386029 kJ/mol
# Density = 1.771659 g / cm^3
# Si number density = 17.757011 Si / 1000 Ang^3
#
#
#
# Elastic Constant Matrix: (Units=GPa)
#
#
# Indices 1 2 3 4 5 6 
#
# 1 90.6258 19.0950 26.0642 0.0000 9.0446 0.0000
# 2 19.0950 62.7331 8.8583 0.0000 14.2339 0.0000
# 3 26.0642 8.8583 66.5142 0.0000 10.5007 0.0000
# 4 0.0000 0.0000 0.0000 4.9180 0.0000 4.3277
# 5 9.0446 14.2339 10.5007 0.0000 29.2745 0.0000
# 6 0.0000 0.0000 0.0000 4.3277 0.0000 10.0297
#
#
#
# Elastic Compliance Matrix: (Units=1/GPa)
#
#
# Indices 1 2 3 4 5 6 
#
# 1 0.013100 -0.003142 -0.004576 0.000000 -0.000878 0.000000
# 2 -0.003142 0.018743 0.000022 0.000000 -0.008150 0.000000
# 3 -0.004576 0.000022 0.017600 0.000000 -0.004910 0.000000
# 4 0.000000 0.000000 0.000000 0.327789 0.000000 -0.141435
# 5 -0.000878 -0.008150 -0.004910 0.000000 0.040155 0.000000
# 6 0.000000 0.000000 0.000000 -0.141435 0.000000 0.160730
#
#
# Mechanical properties :
#
#
# Convention : Reuss Voigt Hill
#
# Bulk Modulus (GPa) = 29.36859 36.43425 32.90142
# Shear Modulus (GPa) = 8.26638 19.90150 14.08394
#
# Velocity S-wave (km/s) = 2.15995 3.35142 2.81934
# Velocity P-wave (km/s) = 4.77447 5.96144 5.40067
#
# Compressibility (1/GPa) = 0.03404998
#
# Stress axis : x y z
#
# Youngs Moduli (GPa) = 76.33454 53.35280 56.81857
#
# Poissons Ratio (x) = 0.16764 0.26002
# Poissons Ratio (y) = 0.23985 -0.00124
# Poissons Ratio (z) = 0.34933 -0.00116
#
# Static dielectric constant tensor:
#      x y z
#    x 1.650280 0.000000 0.015170 
#    y 0.000000 1.630470 0.000000 
#    z 0.015170 0.000000 1.652490 
# 
# From -- ./inp_files/199779.got.cif
#   From: 2010.05.17/outbox.cif.g08.bks.cpg/sg12_100_cif.got.tgz:199779.got - 2010.06.03 13:09:07.
