data_PCOD9187164
_publ_section_title
;
Structure prediction by ZEFSAII (Michael W. Deem and Ramdas Pophale) SiO2 
 PCOD9187164
Probable space group: C 2/M
;
_chemical_formula_sum "Si O2"
_cell_formula_units_Z 64
_cell_length_a 25.099235
_cell_length_b 9.281687
_cell_length_c 14.529619
_cell_angle_alpha 90.000000
_cell_angle_beta 89.043868
_cell_angle_gamma 90.000000
_cell_volume 3384.395871
_symmetry_space_group_name_H-M "C 2/M"
_symmetry_group_IT_number 12
_symmetry_cell_setting 'monoclinic'
loop_
_space_group_symop_operation_xyz
x,y,z
-x,y,-z
-x,-y,-z
x,-y,z
1/2+x,1/2+y,z
1/2-x,1/2+y,-z
1/2-x,1/2-y,-z
1/2+x,1/2-y,z
loop_
_atom_site_type_symbol
_atom_site_label
_atom_site_fract_x
_atom_site_fract_y
_atom_site_fract_z
Si Si1 0.306419 0.171791 0.978145
Si Si2 0.140302 0.166357 0.864749
Si Si3 0.440559 0.669404 0.671156
Si Si4 0.199949 0.332681 0.541246
Si Si5 0.918851 0.329570 0.489068
Si Si6 0.059949 0.830004 0.703733
Si Si7 0.342169 0.171594 0.767559
Si Si8 0.274570 0.664504 0.291076
O O1 0.349687 0.231907 0.049252
O O2 0.299001 0.000000 0.988030
O O3 0.250000 0.250000 0.000000
O O4 0.327807 0.200289 0.874538
O O5 0.095466 0.210170 0.791336
O O6 0.196196 0.166432 0.807329
O O7 0.129722 0.000000 0.892594
O O8 0.430501 0.500000 0.656011
O O9 0.446722 0.748170 0.572286
O O10 0.496768 0.683666 0.722202
O O11 0.391983 0.740981 0.727556
O O12 0.211719 0.500000 0.543319
O O13 0.250000 0.250000 0.500000
O O14 0.144543 0.312389 0.490745
O O15 0.194262 0.270423 0.643533
O O16 0.931124 0.500000 0.487702
O O17 0.928660 0.259845 0.389069
O O18 0.071879 0.000000 0.684953
O O19 0.287169 0.204083 0.715416
O O20 0.352173 0.000000 0.756842
O O21 0.278208 0.500000 0.326138
#
# Coordination Sequence:
#
# PCOD9187164 Si02
#       8
#     8   8   8   8   8   8   8   8
#     4  11  22  38  62  92 123 155 194 239 291 354
#     4  10  20  38  62  88 117 151 188 240 297 342
#     4  11  24  40  60  87 115 154 203 246 291 346
#     4  11  23  35  50  79 116 153 194 235 286 348
#     4  11  23  38  58  86 118 155 199 244 292 349
#     4  10  22  41  63  86 117 155 200 247 292 344
#     4  10  22  40  59  85 120 155 191 237 293 352
#     4  10  19  35  58  81 112 152 189 230 291 347
#
# _framework density 18.910316999999999
#
# number of rings (size 3 to 8) (size 9 to 14) (size 15 to 20)
#    0.000    1.500    2.500    2.625    0.000    9.500 
#    0.000    0.625    0.000    3.750    0.000    0.000 
#    0.000    0.000    0.000    0.000    0.000    0.000 
#
# Total GULP energy -178731.113166 kJ/mol
# GULP energy per Si atom -5585.347286 kJ/mol
# Density = 1.886728 g / cm^3
# Si number density = 18.910317 Si / 1000 Ang^3
#
#
#
# Elastic Constant Matrix: (Units=GPa)
#
#
# Indices 1 2 3 4 5 6 
#
# 1 108.6345 50.8433 38.1976 0.0000 14.9669 0.0000
# 2 50.8433 67.4855 43.2883 0.0000 10.8810 0.0000
# 3 38.1976 43.2883 82.0482 0.0000 18.4757 0.0000
# 4 0.0000 0.0000 0.0000 35.2319 0.0000 0.2032
# 5 14.9669 10.8810 18.4757 0.0000 26.4899 0.0000
# 6 0.0000 0.0000 0.0000 0.2032 0.0000 25.7863
#
#
#
# Elastic Compliance Matrix: (Units=1/GPa)
#
#
# Indices 1 2 3 4 5 6 
#
# 1 0.014629 -0.009963 -0.000729 0.000000 -0.003665 0.000000
# 2 -0.009963 0.029212 -0.011080 0.000000 0.001358 0.000000
# 3 -0.000729 -0.011080 0.020470 0.000000 -0.009314 0.000000
# 4 0.000000 0.000000 0.000000 0.028385 0.000000 -0.000224
# 5 -0.003665 0.001358 -0.009314 0.000000 0.045760 0.000000
# 6 0.000000 0.000000 0.000000 -0.000224 0.000000 0.038782
#
#
# Mechanical properties :
#
#
# Convention : Reuss Voigt Hill
#
# Bulk Modulus (GPa) = 48.15000 58.09183 53.12092
# Shear Modulus (GPa) = 21.95823 25.89087 23.92455
#
# Velocity S-wave (km/s) = 3.41130 3.70420 3.56077
# Velocity P-wave (km/s) = 6.40574 7.00580 6.71248
#
# Compressibility (1/GPa) = 0.02076843
#
# Stress axis : x y z
#
# Youngs Moduli (GPa) = 68.35548 34.23202 48.85122
#
# Poissons Ratio (x) = 0.34106 0.03561
# Poissons Ratio (y) = 0.68105 0.54125
# Poissons Ratio (z) = 0.04982 0.37928
#
# Static dielectric constant tensor:
#      x y z
#    x 1.696640 0.000000 0.011520 
#    y 0.000000 1.639670 0.000000 
#    z 0.011520 0.000000 1.683180 
# 
# From -- ./inp_files/238759.got.cif
#   From: 2010.05.17/outbox.cif.g08.bks.cpg/sg12_120_cif.got.tgz:238759.got - 2010.06.03 13:09:07.
