data_PCOD9187918
_publ_section_title
;
Structure prediction by ZEFSAII (Michael W. Deem and Ramdas Pophale) SiO2 
 PCOD9187918
Probable space group: C 2/M
;
_chemical_formula_sum "Si O2"
_cell_formula_units_Z 48
_cell_length_a 23.889559
_cell_length_b 8.419238
_cell_length_c 12.420998
_cell_angle_alpha 90.000000
_cell_angle_beta 68.730783
_cell_angle_gamma 90.000000
_cell_volume 2328.092959
_symmetry_space_group_name_H-M "C 2/M"
_symmetry_group_IT_number 12
_symmetry_cell_setting 'monoclinic'
loop_
_space_group_symop_operation_xyz
x,y,z
-x,y,-z
-x,-y,-z
x,-y,z
1/2+x,1/2+y,z
1/2-x,1/2+y,-z
1/2-x,1/2-y,-z
1/2+x,1/2-y,z
loop_
_atom_site_type_symbol
_atom_site_label
_atom_site_fract_x
_atom_site_fract_y
_atom_site_fract_z
Si Si1 0.147184 0.813569 0.836725
Si Si2 0.887182 0.691925 0.541035
Si Si3 0.744514 0.311853 0.382141
Si Si4 0.945034 0.307671 0.271633
Si Si5 0.426763 0.193499 0.741484
Si Si6 0.817709 0.687294 0.959088
O O1 0.206123 0.772806 0.725456
O O2 0.090632 0.761290 0.804269
O O3 0.144869 0.000000 0.859880
O O4 0.154160 0.723229 0.944157
O O5 0.880504 0.500000 0.544596
O O6 0.822596 0.768874 0.606037
O O7 0.912328 0.737910 0.406694
O O8 0.928613 0.734107 0.613902
O O9 0.755217 0.500000 0.371385
O O10 0.750000 0.250000 0.500000
O O11 0.943063 0.500000 0.266044
O O12 0.013999 0.255176 0.236017
O O13 0.364959 0.251401 0.838101
O O14 0.426746 0.000000 0.746303
O O15 0.813621 0.500000 0.945337
O O16 0.750000 0.750000 0.000000
#
# Coordination Sequence:
#
# PCOD9187918 Si02
#       6
#     8   8   8   8   8   8
#     4  12  25  41  61  88 125 163 208 257 307 360
#     4  10  19  35  62  93 126 160 201 251 305 368
#     4  12  23  37  59  89 123 158 199 248 307 365
#     4  10  20  37  62  91 124 161 204 250 306 369
#     4   9  20  38  62  91 121 161 206 251 303 369
#     4  11  23  42  66  91 123 161 208 256 308 367
#
# _framework density 20.617733999999999
#
# number of rings (size 3 to 8) (size 9 to 14) (size 15 to 20)
#    0.000    1.333    1.667    5.000    0.000    4.000 
#    0.000    6.667    0.000    2.000    0.000    0.000 
#    0.000    0.000    0.000    0.000    0.000    0.000 
#
# Total GULP energy -134188.031122 kJ/mol
# GULP energy per Si atom -5591.167963 kJ/mol
# Density = 2.057081 g / cm^3
# Si number density = 20.617734 Si / 1000 Ang^3
#
#
#
# Elastic Constant Matrix: (Units=GPa)
#
#
# Indices 1 2 3 4 5 6 
#
# 1 135.7608 8.4843 20.9524 0.0000 2.1092 0.0000
# 2 8.4843 20.1597 -12.1698 0.0000 -8.9691 0.0000
# 3 20.9524 -12.1698 59.9125 0.0000 10.4867 0.0000
# 4 0.0000 0.0000 0.0000 18.6761 0.0000 1.7391
# 5 2.1092 -8.9691 10.4867 0.0000 25.9446 0.0000
# 6 0.0000 0.0000 0.0000 1.7391 0.0000 30.5885
#
#
#
# Elastic Compliance Matrix: (Units=1/GPa)
#
#
# Indices 1 2 3 4 5 6 
#
# 1 0.008423 -0.006578 -0.004050 0.000000 -0.001322 0.000000
# 2 -0.006578 0.068638 0.012909 0.000000 0.019046 0.000000
# 3 -0.004050 0.012909 0.021405 0.000000 -0.003860 0.000000
# 4 0.000000 0.000000 0.000000 0.053829 0.000000 -0.003060
# 5 -0.001322 0.019046 -0.003860 0.000000 0.046795 0.000000
# 6 0.000000 0.000000 0.000000 -0.003060 0.000000 0.032866
#
#
# Mechanical properties :
#
#
# Convention : Reuss Voigt Hill
#
# Bulk Modulus (GPa) = 9.70608 27.81854 18.76231
# Shear Modulus (GPa) = 19.10307 28.27957 23.69132
#
# Velocity S-wave (km/s) = 3.04721 3.70755 3.39348
# Velocity P-wave (km/s) = 4.13503 5.64355 4.94713
#
# Compressibility (1/GPa) = 0.10302817
#
# Stress axis : x y z
#
# Youngs Moduli (GPa) = 118.72828 14.56909 46.71754
#
# Poissons Ratio (x) = 0.09583 0.18922
# Poissons Ratio (y) = 0.78096 -0.60307
# Poissons Ratio (z) = 0.48089 -0.18807
#
# Static dielectric constant tensor:
#      x y z
#    x 1.735500 0.000000 -0.007120 
#    y 0.000000 1.716370 0.000000 
#    z -0.007120 0.000000 1.728660 
# 
# From -- ./inp_files/172937.got.cif
#   From: 2010.05.17/outbox.cif.g08.bks.cpg/sg12_87_cif.got.tgz:172937.got - 2010.06.03 13:09:07.
