data_PCOD9187421
_publ_section_title
;
Structure prediction by ZEFSAII (Michael W. Deem and Ramdas Pophale) SiO2 
 PCOD9187421
Probable space group: C 2/M
;
_chemical_formula_sum "Si O2"
_cell_formula_units_Z 50
_cell_length_a 13.281169
_cell_length_b 13.296110
_cell_length_c 13.616824
_cell_angle_alpha 90.000000
_cell_angle_beta 74.040613
_cell_angle_gamma 90.000000
_cell_volume 2311.886546
_symmetry_space_group_name_H-M "C 2/M"
_symmetry_group_IT_number 12
_symmetry_cell_setting 'monoclinic'
loop_
_space_group_symop_operation_xyz
x,y,z
-x,y,-z
-x,-y,-z
x,-y,z
1/2+x,1/2+y,z
1/2-x,1/2+y,-z
1/2-x,1/2-y,-z
1/2+x,1/2-y,z
loop_
_atom_site_type_symbol
_atom_site_label
_atom_site_fract_x
_atom_site_fract_y
_atom_site_fract_z
Si Si1 0.095225 0.888278 0.820264
Si Si2 0.352627 0.184750 0.076312
Si Si3 0.620851 0.708269 0.138371
Si Si4 0.661642 0.119559 0.506133
Si Si5 0.035969 0.709027 0.357736
Si Si6 0.000000 0.500000 0.000000
Si Si7 0.608996 0.386387 0.586080
O O1 0.131264 0.787782 0.866233
O O2 0.132238 0.884111 0.697332
O O3 0.969999 0.873224 0.852042
O O4 0.122943 0.000000 0.852364
O O5 0.232088 0.156820 0.124615
O O6 0.369082 0.221888 0.959878
O O7 0.427658 0.090195 0.070932
O O8 0.588737 0.778309 0.238643
O O9 0.613198 0.165258 0.418815
O O10 0.574113 0.147995 0.610556
O O11 0.782534 0.148237 0.492848
O O12 0.662795 0.000000 0.493673
O O13 0.992825 0.818771 0.398238
O O14 0.587962 0.500000 0.563162
#
# Coordination Sequence:
#
# PCOD9187421 Si02
#       7
#     8   8   8   8   8   2   8
#     4  10  20  39  63  90 117 153 201 249 285 348
#     4  11  23  42  57  85 119 158 191 244 296 354
#     4  10  22  39  59  86 114 152 201 236 300 346
#     4  10  20  37  58  87 118 157 194 240 289 341
#     4  10  19  35  59  84 114 148 191 245 281 343
#     4  12  24  44  58  80 126 160 188 242 304 358
#     4   9  19  35  60  87 118 151 193 238 292 343
#
# _framework density 21.627359999999999
#
# number of rings (size 3 to 8) (size 9 to 14) (size 15 to 20)
#    0.000    1.920    1.600    2.400    1.120    1.280 
#    7.200    1.600    0.000    1.920    0.000    0.000 
#    0.000    0.000    0.000    0.000    0.000    0.000 
#
# Total GULP energy -139251.247884 kJ/mol
# GULP energy per Si atom -5570.049915 kJ/mol
# Density = 2.157814 g / cm^3
# Si number density = 21.627360 Si / 1000 Ang^3
#
#
#
# Elastic Constant Matrix: (Units=GPa)
#
#
# Indices 1 2 3 4 5 6 
#
# 1 39.4385 -4.0498 -13.5229 0.0000 -18.8898 0.0000
# 2 -4.0498 114.4393 -2.6009 0.0000 5.0971 0.0000
# 3 -13.5229 -2.6009 76.7539 0.0000 -2.1705 0.0000
# 4 0.0000 0.0000 0.0000 -244.2210 0.0000 -56.1736
# 5 -18.8898 5.0971 -2.1705 0.0000 26.1459 0.0000
# 6 0.0000 0.0000 0.0000 -56.1736 0.0000 8.4526
#
#
#
# Elastic Compliance Matrix: (Units=1/GPa)
#
#
# Indices 1 2 3 4 5 6 
#
# 1 0.043838 0.000308 0.008648 0.000000 0.032330 0.000000
# 2 0.000308 0.008822 0.000312 0.000000 -0.001471 0.000000
# 3 0.008648 0.000312 0.014773 0.000000 0.007414 0.000000
# 4 0.000000 0.000000 0.000000 -0.001619 0.000000 -0.010762
# 5 0.032330 -0.001471 0.007414 0.000000 0.062507 0.000000
# 6 0.000000 0.000000 0.000000 -0.010762 0.000000 0.046788
#
#
# Mechanical properties :
#
#
# Convention : Reuss Voigt Hill
#
# Bulk Modulus (GPa) = 11.63227 21.14274 16.38750
# Shear Modulus (GPa) = 26.99378 -25.20415 0.89482
#
# Velocity S-wave (km/s) = 3.53672 -3.41747 0.64393
# Velocity P-wave (km/s) = 4.69766 2.40313 2.85421
#
# Compressibility (1/GPa) = 0.08596773
#
# Stress axis : x y z
#
# Youngs Moduli (GPa) = 22.81130 113.35592 67.69312
#
# Poissons Ratio (x) = -0.03490 -0.58543
# Poissons Ratio (y) = -0.00702 -0.02109
# Poissons Ratio (z) = -0.19728 -0.03532
#
# Static dielectric constant tensor:
#      x y z
#    x 1.843160 0.000000 0.007550 
#    y 0.000000 1.817560 0.000000 
#    z 0.007550 0.000000 1.804840 
# 
# From -- ./inp_files/213320.got.cif
#   From: 2010.05.17/outbox.cif.g08.bks.cpg/sg12_107_cif.got.tgz:213320.got - 2010.06.03 13:09:07.
