data_PCOD9187291
_publ_section_title
;
Structure prediction by ZEFSAII (Michael W. Deem and Ramdas Pophale) SiO2 
 PCOD9187291
Probable space group: C 2/M
;
_chemical_formula_sum "Si O2"
_cell_formula_units_Z 48
_cell_length_a 13.831234
_cell_length_b 28.298991
_cell_length_c 9.433083
_cell_angle_alpha 90.000000
_cell_angle_beta 145.802323
_cell_angle_gamma 90.000000
_cell_volume 2075.201953
_symmetry_space_group_name_H-M "C 2/M"
_symmetry_group_IT_number 12
_symmetry_cell_setting 'monoclinic'
loop_
_space_group_symop_operation_xyz
x,y,z
-x,y,-z
-x,-y,-z
x,-y,z
1/2+x,1/2+y,z
1/2-x,1/2+y,-z
1/2-x,1/2-y,-z
1/2+x,1/2-y,z
loop_
_atom_site_type_symbol
_atom_site_label
_atom_site_fract_x
_atom_site_fract_y
_atom_site_fract_z
Si Si1 0.660560 0.869765 0.397862
Si Si2 0.022865 0.172531 0.854592
Si Si3 0.185133 0.450131 0.650359
Si Si4 0.944468 0.271242 0.767693
Si Si5 0.757749 0.555098 0.718149
Si Si6 0.372382 0.579046 0.142485
O O1 0.837693 0.843713 0.571565
O O2 0.694698 0.902522 0.573654
O O3 0.540151 0.824199 0.275215
O O4 0.634106 0.909050 0.246359
O O5 0.059088 0.226577 0.857761
O O6 0.141207 0.133334 0.925979
O O7 0.000000 0.170226 0.000000
O O8 0.203255 0.500000 0.590905
O O9 0.000000 0.450150 0.500000
O O10 0.323973 0.448737 0.942886
O O11 0.750000 0.250000 0.500000
O O12 0.000000 0.276996 0.000000
O O13 0.800671 0.500000 0.757060
O O14 0.561540 0.563571 0.423434
O O15 0.752344 0.568594 0.877539
#
# Coordination Sequence:
#
# PCOD9187291 Si02
#       6
#     8   8   8   8   8   8
#     4  10  20  35  57  84 115 154 200 240 295 357
#     4   9  16  33  60  86 109 147 188 249 305 350
#     4  11  23  37  55  81 121 164 200 240 292 355
#     4   9  19  35  61  88 119 153 198 250 306 357
#     4  10  20  34  58  88 119 154 194 247 304 358
#     4  10  19  35  58  86 120 151 194 250 302 353
#
# _framework density 23.130279000000002
#
# number of rings (size 3 to 8) (size 9 to 14) (size 15 to 20)
#    0.000    2.167    1.667    2.500    0.000    1.333 
#    0.000    2.500   14.667    7.000    0.000    0.000 
#    0.000    0.000    0.000    0.000    0.000    0.000 
#
# Total GULP energy -133766.624594 kJ/mol
# GULP energy per Si atom -5573.609358 kJ/mol
# Density = 2.307763 g / cm^3
# Si number density = 23.130279 Si / 1000 Ang^3
#
#
#
# Elastic Constant Matrix: (Units=GPa)
#
#
# Indices 1 2 3 4 5 6 
#
# 1 42.6517 48.5122 21.2341 0.0000 -12.6396 0.0000
# 2 48.5122 284.9768 32.3342 0.0000 -32.3211 0.0000
# 3 21.2341 32.3342 100.4715 0.0000 -21.5230 0.0000
# 4 0.0000 0.0000 0.0000 40.0340 0.0000 -28.9872
# 5 -12.6396 -32.3211 -21.5230 0.0000 28.9580 0.0000
# 6 0.0000 0.0000 0.0000 -28.9872 0.0000 -67.3677
#
#
#
# Elastic Compliance Matrix: (Units=1/GPa)
#
#
# Indices 1 2 3 4 5 6 
#
# 1 0.032236 -0.004319 -0.004093 0.000000 0.006207 0.000000
# 2 -0.004319 0.004610 0.000152 0.000000 0.003373 0.000000
# 3 -0.004093 0.000152 0.012397 0.000000 0.007597 0.000000
# 4 0.000000 0.000000 0.000000 0.019045 0.000000 -0.008195
# 5 0.006207 0.003373 0.007597 0.000000 0.046653 0.000000
# 6 0.000000 0.000000 0.000000 -0.008195 0.000000 -0.011318
#
#
# Mechanical properties :
#
#
# Convention : Reuss Voigt Hill
#
# Bulk Modulus (GPa) = 30.56146 70.25123 50.40635
# Shear Modulus (GPa) = 38.15356 22.05949 30.10652
#
# Velocity S-wave (km/s) = 4.06582 3.09156 3.61169
# Velocity P-wave (km/s) = 5.93992 6.57127 6.26355
#
# Compressibility (1/GPa) = 0.03272095
#
# Stress axis : x y z
#
# Youngs Moduli (GPa) = 31.02168 216.93914 80.66712
#
# Poissons Ratio (x) = 0.93698 0.33018
# Poissons Ratio (y) = 0.13399 -0.01225
# Poissons Ratio (z) = 0.12697 -0.03293
#
# Static dielectric constant tensor:
#      x y z
#    x 1.871340 0.000000 0.027320 
#    y 0.000000 1.924190 0.000000 
#    z 0.027320 0.000000 1.914630 
# 
# From -- ./inp_files/68371.got.cif
#   From: 2010.05.17/outbox.cif.g08.bks.cpg/sg12_35_cif.got.tgz:68371.got - 2010.06.03 13:09:07.
