data_PCOD9187753
_publ_section_title
;
Structure prediction by ZEFSAII (Michael W. Deem and Ramdas Pophale) SiO2 
 PCOD9187753
Probable space group: C 2/M
;
_chemical_formula_sum "Si O2"
_cell_formula_units_Z 40
_cell_length_a 18.133221
_cell_length_b 11.309634
_cell_length_c 14.465571
_cell_angle_alpha 90.000000
_cell_angle_beta 138.907701
_cell_angle_gamma 90.000000
_cell_volume 1949.869337
_symmetry_space_group_name_H-M "C 2/M"
_symmetry_group_IT_number 12
_symmetry_cell_setting 'monoclinic'
loop_
_space_group_symop_operation_xyz
x,y,z
-x,y,-z
-x,-y,-z
x,-y,z
1/2+x,1/2+y,z
1/2-x,1/2+y,-z
1/2-x,1/2-y,-z
1/2+x,1/2-y,z
loop_
_atom_site_type_symbol
_atom_site_label
_atom_site_fract_x
_atom_site_fract_y
_atom_site_fract_z
Si Si1 0.931446 0.364071 0.030092
Si Si2 0.166080 0.864410 0.743778
Si Si3 0.415345 0.758751 0.682699
Si Si4 0.966094 0.369974 0.360082
Si Si5 0.204669 0.129346 0.569312
O O1 0.953946 0.500000 0.081622
O O2 0.979093 0.274962 0.151362
O O3 0.799153 0.354457 0.888186
O O4 0.000000 0.346541 0.000000
O O5 0.106486 0.748125 0.727612
O O6 0.150944 0.853739 0.618543
O O7 0.131752 0.000000 0.737250
O O8 0.430627 0.853346 0.613399
O O9 0.306494 0.784102 0.642388
O O10 0.386834 0.642522 0.597550
O O11 0.913989 0.500000 0.293318
O O12 0.000000 0.368698 0.500000
O O13 0.256527 0.000000 0.619757
#
# Coordination Sequence:
#
# PCOD9187753 Si02
#       5
#     8   8   8   8   8
#     4  10  19  35  61  87 112 145 193 247 291 335
#     4  10  21  39  62  88 116 150 196 247 289 334
#     4  11  21  36  59  86 115 154 191 240 290 347
#     4  11  23  38  56  85 123 160 190 228 290 357
#     4  10  20  36  60  88 111 146 200 250 287 330
#
# _framework density 20.514195000000001
#
# number of rings (size 3 to 8) (size 9 to 14) (size 15 to 20)
#    0.000    1.600    4.000    1.800    0.000    2.000 
#    0.000    1.000    0.000    1.200    0.000    0.000 
#    0.000    0.000    0.000    0.000    0.000    0.000 
#
# Total GULP energy -111473.349868 kJ/mol
# GULP energy per Si atom -5573.667493 kJ/mol
# Density = 2.046750 g / cm^3
# Si number density = 20.514195 Si / 1000 Ang^3
#
#
#
# Elastic Constant Matrix: (Units=GPa)
#
#
# Indices 1 2 3 4 5 6 
#
# 1 62.8691 30.4943 10.4435 0.0000 3.2657 0.0000
# 2 30.4943 111.5783 29.3860 0.0000 19.4592 0.0000
# 3 10.4435 29.3860 63.7684 0.0000 -4.0745 0.0000
# 4 0.0000 0.0000 0.0000 20.4298 0.0000 6.5760
# 5 3.2657 19.4592 -4.0745 0.0000 26.1187 0.0000
# 6 0.0000 0.0000 0.0000 6.5760 0.0000 15.3497
#
#
#
# Elastic Compliance Matrix: (Units=1/GPa)
#
#
# Indices 1 2 3 4 5 6 
#
# 1 0.018416 -0.005137 -0.000557 0.000000 0.001438 0.000000
# 2 -0.005137 0.013866 -0.006230 0.000000 -0.010660 0.000000
# 3 -0.000557 -0.006230 0.019135 0.000000 0.007696 0.000000
# 4 0.000000 0.000000 0.000000 0.056778 0.000000 -0.024324
# 5 0.001438 -0.010660 0.007696 0.000000 0.047250 0.000000
# 6 0.000000 0.000000 0.000000 -0.024324 0.000000 0.075569
#
#
# Mechanical properties :
#
#
# Convention : Reuss Voigt Hill
#
# Bulk Modulus (GPa) = 36.27126 42.09595 39.18360
# Shear Modulus (GPa) = 18.93576 23.57243 21.25409
#
# Velocity S-wave (km/s) = 3.04148 3.39348 3.22229
# Velocity P-wave (km/s) = 5.48211 5.99327 5.74338
#
# Compressibility (1/GPa) = 0.02757004
#
# Stress axis : x y z
#
# Youngs Moduli (GPa) = 54.30184 72.11834 52.25909
#
# Poissons Ratio (x) = 0.37048 0.02910
# Poissons Ratio (y) = 0.27895 0.32556
# Poissons Ratio (z) = 0.03023 0.44927
#
# Static dielectric constant tensor:
#      x y z
#    x 1.765380 0.000000 0.010930 
#    y 0.000000 1.751360 0.000000 
#    z 0.010930 0.000000 1.753700 
# 
# From -- ./inp_files/153290.got.cif
#   From: 2010.05.17/outbox.cif.g08.bks.cpg/sg12_77_cif.got.tgz:153290.got - 2010.06.03 13:09:07.
