data_PCOD9187898
_publ_section_title
;
Structure prediction by ZEFSAII (Michael W. Deem and Ramdas Pophale) SiO2 
 PCOD9187898
Probable space group: C 2/M
;
_chemical_formula_sum "Si O2"
_cell_formula_units_Z 48
_cell_length_a 21.811675
_cell_length_b 9.529470
_cell_length_c 12.239629
_cell_angle_alpha 90.000000
_cell_angle_beta 100.354310
_cell_angle_gamma 90.000000
_cell_volume 2502.622599
_symmetry_space_group_name_H-M "C 2/M"
_symmetry_group_IT_number 12
_symmetry_cell_setting 'monoclinic'
loop_
_space_group_symop_operation_xyz
x,y,z
-x,y,-z
-x,-y,-z
x,-y,z
1/2+x,1/2+y,z
1/2-x,1/2+y,-z
1/2-x,1/2-y,-z
1/2+x,1/2-y,z
loop_
_atom_site_type_symbol
_atom_site_label
_atom_site_fract_x
_atom_site_fract_y
_atom_site_fract_z
Si Si1 0.997366 0.842986 0.368574
Si Si2 0.926673 0.168470 0.958596
Si Si3 0.646553 0.660113 0.678775
Si Si4 0.591361 0.163577 0.264700
Si Si5 0.191783 0.168412 0.928908
Si Si6 0.812744 0.335975 0.510235
O O1 0.925699 0.843485 0.310722
O O2 0.000000 0.822171 0.500000
O O3 0.034282 0.726413 0.315564
O O4 0.023659 0.000000 0.355062
O O5 0.903643 0.246461 0.842812
O O6 0.926116 0.000000 0.944213
O O7 0.875103 0.201699 0.035259
O O8 0.000000 0.207525 0.000000
O O9 0.663384 0.500000 0.650157
O O10 0.686165 0.699317 0.797837
O O11 0.652087 0.765239 0.580095
O O12 0.649393 0.177815 0.365204
O O13 0.582677 0.000000 0.236297
O O14 0.200723 0.000000 0.943065
O O15 0.250000 0.250000 0.000000
O O16 0.802452 0.500000 0.486274
O O17 0.750000 0.250000 0.500000
#
# Coordination Sequence:
#
# PCOD9187898 Si02
#       6
#     8   8   8   8   8   8
#     4  10  19  35  62  91 119 156 199 240 294 364
#     4  10  22  43  68  91 121 164 215 259 302 366
#     4  10  21  40  64  90 121 156 200 251 301 361
#     4  11  24  39  60  92 128 159 196 253 311 361
#     4  10  23  41  63  91 122 159 204 257 309 364
#     4  11  25  41  59  87 123 162 203 249 305 364
#
# _framework density 19.179880000000001
#
# number of rings (size 3 to 8) (size 9 to 14) (size 15 to 20)
#    0.000    1.667    1.667    2.000    2.333    7.333 
#    0.000    1.667    0.000    0.000    0.000    0.000 
#    0.000    0.000    0.000    0.000    0.000    0.000 
#
# Total GULP energy -134011.857292 kJ/mol
# GULP energy per Si atom -5583.827387 kJ/mol
# Density = 1.913623 g / cm^3
# Si number density = 19.179880 Si / 1000 Ang^3
#
#
#
# Elastic Constant Matrix: (Units=GPa)
#
#
# Indices 1 2 3 4 5 6 
#
# 1 66.4992 34.5214 10.6829 0.0000 6.5868 0.0000
# 2 34.5214 71.3085 48.6253 0.0000 3.5893 0.0000
# 3 10.6829 48.6253 90.1648 0.0000 8.1842 0.0000
# 4 0.0000 0.0000 0.0000 32.0567 0.0000 5.0381
# 5 6.5868 3.5893 8.1842 0.0000 24.8857 0.0000
# 6 0.0000 0.0000 0.0000 5.0381 0.0000 23.8100
#
#
#
# Elastic Compliance Matrix: (Units=1/GPa)
#
#
# Indices 1 2 3 4 5 6 
#
# 1 0.022064 -0.014177 0.005542 0.000000 -0.005618 0.000000
# 2 -0.014177 0.031304 -0.015599 0.000000 0.004368 0.000000
# 3 0.005542 -0.015599 0.019353 0.000000 -0.005582 0.000000
# 4 0.000000 0.000000 0.000000 0.032268 0.000000 -0.006828
# 5 -0.005618 0.004368 -0.005582 0.000000 0.042876 0.000000
# 6 0.000000 0.000000 0.000000 -0.006828 0.000000 0.043444
#
#
# Mechanical properties :
#
#
# Convention : Reuss Voigt Hill
#
# Bulk Modulus (GPa) = 41.23408 46.18130 43.70769
# Shear Modulus (GPa) = 20.17250 25.09334 22.63292
#
# Velocity S-wave (km/s) = 3.24659 3.62099 3.43889
# Velocity P-wave (km/s) = 5.96650 6.45076 6.21335
#
# Compressibility (1/GPa) = 0.02425179
#
# Stress axis : x y z
#
# Youngs Moduli (GPa) = 45.32307 31.94477 51.67104
#
# Poissons Ratio (x) = 0.45289 -0.28634
# Poissons Ratio (y) = 0.64256 0.80600
# Poissons Ratio (z) = -0.25116 0.49830
#
# Static dielectric constant tensor:
#      x y z
#    x 1.704370 0.000000 -0.013870 
#    y 0.000000 1.622150 0.000000 
#    z -0.013870 0.000000 1.692470 
# 
# From -- ./inp_files/172421.got.cif
#   From: 2010.05.17/outbox.cif.g08.bks.cpg/sg12_87_cif.got.tgz:172421.got - 2010.06.03 13:09:07.
