data_PCOD9187232
_publ_section_title
;
Structure prediction by ZEFSAII (Michael W. Deem and Ramdas Pophale) SiO2 
 PCOD9187232
Probable space group: C 2/M
;
_chemical_formula_sum "Si O2"
_cell_formula_units_Z 56
_cell_length_a 31.886978
_cell_length_b 8.188358
_cell_length_c 18.880740
_cell_angle_alpha 90.000000
_cell_angle_beta 144.555090
_cell_angle_gamma 90.000000
_cell_volume 2858.888503
_symmetry_space_group_name_H-M "C 2/M"
_symmetry_group_IT_number 12
_symmetry_cell_setting 'monoclinic'
loop_
_space_group_symop_operation_xyz
x,y,z
-x,y,-z
-x,-y,-z
x,-y,z
1/2+x,1/2+y,z
1/2-x,1/2+y,-z
1/2-x,1/2-y,-z
1/2+x,1/2-y,z
loop_
_atom_site_type_symbol
_atom_site_label
_atom_site_fract_x
_atom_site_fract_y
_atom_site_fract_z
Si Si1 0.670872 0.193210 0.867724
Si Si2 0.915875 0.696966 0.389291
Si Si3 0.733555 0.691241 0.556926
Si Si4 0.607570 0.302144 0.486693
Si Si5 0.957102 0.197829 0.210931
Si Si6 0.017344 0.198629 0.913017
Si Si7 0.882800 0.197859 0.819798
O O1 0.634160 0.258946 0.744353
O O2 0.614441 0.236838 0.851394
O O3 0.675155 0.000000 0.864868
O O4 0.750000 0.250000 0.000000
O O5 0.918674 0.500000 0.388706
O O6 0.882901 0.743727 0.419906
O O7 0.000000 0.755645 0.500000
O O8 0.719739 0.500000 0.530931
O O9 0.750000 0.750000 0.500000
O O10 0.665863 0.759003 0.509000
O O11 0.805451 0.725741 0.700725
O O12 0.610235 0.500000 0.490534
O O13 0.527619 0.251276 0.352011
O O14 0.966768 0.254888 0.143733
O O15 0.954617 0.000000 0.207365
O O16 0.939047 0.247046 0.835361
O O17 0.016610 0.000000 0.911728
O O18 0.078081 0.246145 0.053450
O O19 0.876287 0.000000 0.809523
#
# Coordination Sequence:
#
# PCOD9187232 Si02
#       7
#     8   8   8   8   8   8   8
#     4  11  24  41  60  85 117 151 188 238 294 350
#     4  10  21  40  63  86 116 151 194 245 292 347
#     4  11  23  38  55  82 118 152 189 238 288 340
#     4  10  22  37  59  88 117 152 195 240 289 346
#     4  10  19  35  58  84 112 146 190 235 283 344
#     4   8  16  32  57  82 109 148 191 229 278 344
#     4   9  17  34  57  80 109 150 192 233 280 336
#
# _framework density 19.588031999999998
#
# number of rings (size 3 to 8) (size 9 to 14) (size 15 to 20)
#    0.000    2.143    1.429    2.571    0.000    6.000 
#    0.000    8.571    0.000    0.000    0.000    0.000 
#    0.000    0.000    0.000    0.000    0.000    0.000 
#
# Total GULP energy -156279.857784 kJ/mol
# GULP energy per Si atom -5581.423492 kJ/mol
# Density = 1.954345 g / cm^3
# Si number density = 19.588032 Si / 1000 Ang^3
#
#
#
# Elastic Constant Matrix: (Units=GPa)
#
#
# Indices 1 2 3 4 5 6 
#
# 1 141.9916 10.3197 79.0271 0.0000 -7.6297 0.0000
# 2 10.3197 11.5684 12.0040 0.0000 -0.9029 0.0000
# 3 79.0271 12.0040 123.2845 0.0000 9.2982 0.0000
# 4 0.0000 0.0000 0.0000 26.5755 0.0000 2.4864
# 5 -7.6297 -0.9029 9.2982 0.0000 34.7996 0.0000
# 6 0.0000 0.0000 0.0000 2.4864 0.0000 25.0359
#
#
#
# Elastic Compliance Matrix: (Units=1/GPa)
#
#
# Indices 1 2 3 4 5 6 
#
# 1 0.011687 -0.002160 -0.007624 0.000000 0.004543 0.000000
# 2 -0.002160 0.097452 -0.008429 0.000000 0.004307 0.000000
# 3 -0.007624 -0.008429 0.014249 0.000000 -0.005697 0.000000
# 4 0.000000 0.000000 0.000000 0.037982 0.000000 -0.003772
# 5 0.004543 0.004307 -0.005697 0.000000 0.031366 0.000000
# 6 0.000000 0.000000 0.000000 -0.003772 0.000000 0.040317
#
#
# Mechanical properties :
#
#
# Convention : Reuss Voigt Hill
#
# Bulk Modulus (GPa) = 11.49929 53.28289 32.39109
# Shear Modulus (GPa) = 16.75238 28.98177 22.86708
#
# Velocity S-wave (km/s) = 2.92761 3.85068 3.42043
# Velocity P-wave (km/s) = 4.16067 6.85793 5.67197
#
# Compressibility (1/GPa) = 0.08696186
#
# Stress axis : x y z
#
# Youngs Moduli (GPa) = 85.56579 10.26150 70.18171
#
# Poissons Ratio (x) = 0.02216 0.53505
# Poissons Ratio (y) = 0.18481 0.59156
# Poissons Ratio (z) = 0.65234 0.08649
#
# Static dielectric constant tensor:
#      x y z
#    x 1.675560 0.000000 -0.013220 
#    y 0.000000 1.701510 0.000000 
#    z -0.013220 0.000000 1.682850 
# 
# From -- ./inp_files/292506.got.cif
#   From: 2010.05.17/outbox.cif.g08.bks.cpg/sg12_147_cif.got.tgz:292506.got - 2010.06.03 13:09:07.
