data_PCOD9187352
_publ_section_title
;
Structure prediction by ZEFSAII (Michael W. Deem and Ramdas Pophale) SiO2 
 PCOD9187352
Probable space group: C 2/M
;
_chemical_formula_sum "Si O2"
_cell_formula_units_Z 56
_cell_length_a 16.264684
_cell_length_b 8.965192
_cell_length_c 23.398056
_cell_angle_alpha 90.000000
_cell_angle_beta 120.812575
_cell_angle_gamma 90.000000
_cell_volume 2930.225575
_symmetry_space_group_name_H-M "C 2/M"
_symmetry_group_IT_number 12
_symmetry_cell_setting 'monoclinic'
loop_
_space_group_symop_operation_xyz
x,y,z
-x,y,-z
-x,-y,-z
x,-y,z
1/2+x,1/2+y,z
1/2-x,1/2+y,-z
1/2-x,1/2-y,-z
1/2+x,1/2-y,z
loop_
_atom_site_type_symbol
_atom_site_label
_atom_site_fract_x
_atom_site_fract_y
_atom_site_fract_z
Si Si1 0.436283 0.179303 0.421769
Si Si2 0.024138 0.825364 0.070602
Si Si3 0.226909 0.321358 0.346965
Si Si4 0.813762 0.823476 0.786617
Si Si5 0.372056 0.174766 0.203067
Si Si6 0.459529 0.181759 0.657800
Si Si7 0.174102 0.828257 0.931876
O O1 0.500000 0.211170 0.500000
O O2 0.331935 0.251516 0.389974
O O3 0.493479 0.229560 0.385271
O O4 0.423534 0.000000 0.412935
O O5 0.110799 0.764847 0.139526
O O6 0.928724 0.820377 0.074001
O O7 0.050787 0.000000 0.069508
O O8 0.000000 0.758345 0.000000
O O9 0.234062 0.500000 0.349950
O O10 0.184953 0.266084 0.271486
O O11 0.149379 0.274394 0.367452
O O12 0.708833 0.813549 0.777072
O O13 0.833593 0.000000 0.782798
O O14 0.470675 0.231487 0.265807
O O15 0.336872 0.255579 0.133909
O O16 0.383418 0.000000 0.193171
O O17 0.462026 0.000000 0.658700
O O18 0.201576 0.000000 0.935350
O O19 0.250000 0.750000 0.000000
#
# Coordination Sequence:
#
# PCOD9187352 Si02
#       7
#     8   8   8   8   8   8   8
#     4  10  21  41  66  88 116 159 206 242 283 355
#     4   9  18  33  53  77 103 138 188 240 284 332
#     4  11  22  36  58  88 124 155 189 243 303 350
#     4  10  19  35  60  83 109 150 197 238 285 351
#     4  10  19  35  59  80 108 149 189 233 288 348
#     4   9  19  37  59  87 120 156 193 238 297 352
#     4  11  22  35  52  77 109 143 187 239 293 349
#
# _framework density 19.111156999999999
#
# number of rings (size 3 to 8) (size 9 to 14) (size 15 to 20)
#    0.000    2.000    1.429    2.571    0.000    3.714 
#    0.000    2.857    0.000    3.000    0.000    0.000 
#    0.000    0.000    0.000    0.000    0.000    0.000 
#
# Total GULP energy -156285.983846 kJ/mol
# GULP energy per Si atom -5581.642280 kJ/mol
# Density = 1.906766 g / cm^3
# Si number density = 19.111157 Si / 1000 Ang^3
#
#
#
# Elastic Constant Matrix: (Units=GPa)
#
#
# Indices 1 2 3 4 5 6 
#
# 1 115.0418 37.6057 75.9613 0.0000 9.0541 0.0000
# 2 37.6057 37.3743 38.6517 0.0000 -2.5109 0.0000
# 3 75.9613 38.6517 125.5940 0.0000 6.7700 0.0000
# 4 0.0000 0.0000 0.0000 20.9964 0.0000 0.3280
# 5 9.0541 -2.5109 6.7700 0.0000 27.6191 0.0000
# 6 0.0000 0.0000 0.0000 0.3280 0.0000 18.7869
#
#
#
# Elastic Compliance Matrix: (Units=1/GPa)
#
#
# Indices 1 2 3 4 5 6 
#
# 1 0.016946 -0.010333 -0.006809 0.000000 -0.004826 0.000000
# 2 -0.010333 0.046779 -0.008673 0.000000 0.009766 0.000000
# 3 -0.006809 -0.008673 0.014868 0.000000 -0.002201 0.000000
# 4 0.000000 0.000000 0.000000 0.047640 0.000000 -0.000832
# 5 -0.004826 0.009766 -0.002201 0.000000 0.039216 0.000000
# 6 0.000000 0.000000 0.000000 -0.000832 0.000000 0.053243
#
#
# Mechanical properties :
#
#
# Convention : Reuss Voigt Hill
#
# Bulk Modulus (GPa) = 37.08841 64.71638 50.90240
# Shear Modulus (GPa) = 17.90117 21.86658 19.88388
#
# Velocity S-wave (km/s) = 3.06385 3.38624 3.22907
# Velocity P-wave (km/s) = 5.65377 7.01609 6.37144
#
# Compressibility (1/GPa) = 0.02696260
#
# Stress axis : x y z
#
# Youngs Moduli (GPa) = 59.01065 21.37698 67.25808
#
# Poissons Ratio (x) = 0.22090 0.45796
# Poissons Ratio (y) = 0.60979 0.58333
# Poissons Ratio (z) = 0.40180 0.18540
#
# Static dielectric constant tensor:
#      x y z
#    x 1.666200 0.000000 0.005000 
#    y 0.000000 1.656800 0.000000 
#    z 0.005000 0.000000 1.664280 
# 
# From -- ./inp_files/339075.got.cif
#   From: 2010.05.17/outbox.cif.g08.bks.cpg/sg12_170_cif.got.tgz:339075.got - 2010.06.03 13:09:07.
