data_PCOD9187971
_publ_section_title
;
Structure prediction by ZEFSAII (Michael W. Deem and Ramdas Pophale) SiO2 
 PCOD9187971
Probable space group: C 2/M
;
_chemical_formula_sum "Si O2"
_cell_formula_units_Z 64
_cell_length_a 18.626548
_cell_length_b 13.511271
_cell_length_c 26.692173
_cell_angle_alpha 90.000000
_cell_angle_beta 27.399628
_cell_angle_gamma 90.000000
_cell_volume 3091.387761
_symmetry_space_group_name_H-M "C 2/M"
_symmetry_group_IT_number 12
_symmetry_cell_setting 'monoclinic'
loop_
_space_group_symop_operation_xyz
x,y,z
-x,y,-z
-x,-y,-z
x,-y,z
1/2+x,1/2+y,z
1/2-x,1/2+y,-z
1/2-x,1/2-y,-z
1/2+x,1/2-y,z
loop_
_atom_site_type_symbol
_atom_site_label
_atom_site_fract_x
_atom_site_fract_y
_atom_site_fract_z
Si Si1 0.313871 0.821344 0.122834
Si Si2 0.819784 0.885779 0.593750
Si Si3 0.321749 0.393877 0.089279
Si Si4 0.720670 0.773482 0.749857
Si Si5 0.019334 0.389743 0.427916
Si Si6 0.062273 0.887452 0.204724
Si Si7 0.266286 0.278149 0.432146
Si Si8 0.952544 0.113977 0.902698
O O1 0.258735 0.706883 0.150577
O O2 0.275769 0.843198 0.203903
O O3 0.218632 0.880087 0.140534
O O4 0.500000 0.827628 0.000000
O O5 0.721114 0.839163 0.700094
O O6 0.789577 0.816174 0.565328
O O7 0.000000 0.879701 0.500000
O O8 0.782549 0.000000 0.607214
O O9 0.248631 0.500000 0.147600
O O10 0.500000 0.397921 0.000000
O O11 0.328215 0.383586 0.024918
O O12 0.865427 0.698107 0.658362
O O13 0.574350 0.699113 0.841505
O O14 0.075771 0.500000 0.379953
O O15 0.000000 0.385451 0.500000
O O16 0.853424 0.366260 0.506516
O O17 0.934417 0.814220 0.307888
O O18 0.094588 0.867866 0.125731
O O19 0.001308 0.000000 0.245335
O O20 0.250000 0.250000 0.500000
O O21 0.015788 0.000000 0.865434
#
# Coordination Sequence:
#
# PCOD9187971 Si02
#       8
#     8   8   8   8   8   8   8   8
#     4  11  24  41  63  91 126 173 214 268 317 374
#     4  11  24  43  66  93 129 174 216 253 304 382
#     4   9  17  34  59  91 123 159 203 250 311 370
#     4  12  19  39  64  96 124 168 214 255 313 373
#     4  11  21  36  63  97 127 157 205 262 313 372
#     4  11  25  42  64  91 124 165 211 264 324 384
#     4  12  23  42  63  92 129 167 205 258 324 382
#     4  10  19  35  64  93 123 161 204 258 319 371
#
# _framework density 20.702676
#
# number of rings (size 3 to 8) (size 9 to 14) (size 15 to 20)
#    0.000    1.125    6.250    1.500    0.000    4.750 
#    0.000    0.625    0.000    0.000    0.000    0.000 
#    0.000    0.000    0.000    0.000    0.000    0.000 
#
# Total GULP energy -178688.750014 kJ/mol
# GULP energy per Si atom -5584.023438 kJ/mol
# Density = 2.065556 g / cm^3
# Si number density = 20.702676 Si / 1000 Ang^3
#
#
#
# Elastic Constant Matrix: (Units=GPa)
#
#
# Indices 1 2 3 4 5 6 
#
# 1 131.4518 19.6016 33.4499 -0.0057 32.0186 -0.0013
# 2 19.6016 74.0064 9.6293 -0.0081 7.0725 -0.0020
# 3 33.4499 9.6293 37.3514 -0.0218 20.2552 -0.0031
# 4 -0.0057 -0.0081 -0.0218 43.5065 0.0105 -9.6196
# 5 32.0186 7.0725 20.2552 0.0105 40.0301 0.0029
# 6 -0.0013 -0.0020 -0.0031 -9.6196 0.0029 5.8321
#
#
#
# Elastic Compliance Matrix: (Units=1/GPa)
#
#
# Indices 1 2 3 4 5 6 
#
# 1 0.010702 -0.001513 -0.006473 -0.000001 -0.005018 -0.000001
# 2 -0.001513 0.014218 -0.002211 0.000003 -0.000183 0.000009
# 3 -0.006473 -0.002211 0.041511 0.000046 -0.015436 0.000103
# 4 -0.000001 0.000003 0.000046 0.036180 -0.000037 0.059676
# 5 -0.005018 -0.000183 -0.015436 -0.000037 0.036837 -0.000089
# 6 -0.000001 0.000009 0.000103 0.059676 -0.000089 0.269895
#
#
# Mechanical properties :
#
#
# Convention : Reuss Voigt Hill
#
# Bulk Modulus (GPa) = 21.72212 40.90792 31.31502
# Shear Modulus (GPa) = 11.23381 29.88235 20.55808
#
# Velocity S-wave (km/s) = 2.33196 3.80334 3.15463
# Velocity P-wave (km/s) = 4.21496 6.25218 5.33178
#
# Compressibility (1/GPa) = 0.04603602
#
# Stress axis : x y z
#
# Youngs Moduli (GPa) = 93.43718 70.33206 24.09004
#
# Poissons Ratio (x) = 0.10640 0.15595
# Poissons Ratio (y) = 0.14136 0.05327
# Poissons Ratio (z) = 0.60487 0.15553
#
# Static dielectric constant tensor:
#      x y z
#    x 1.741760 0.000000 -0.000280 
#    y 0.000000 1.740500 0.000000 
#    z -0.000280 0.000000 1.753730 
# 
# From -- ./inp_files/343998.got.cif
#   From: 2010.05.17/outbox.cif.g08.bks.cpg/sg12_172_cif.got.tgz:343998.got - 2010.06.03 13:09:07.
