data_PCOD9187692
_publ_section_title
;
Structure prediction by ZEFSAII (Michael W. Deem and Ramdas Pophale) SiO2 
 PCOD9187692
Probable space group: C 2/M
;
_chemical_formula_sum "Si O2"
_cell_formula_units_Z 48
_cell_length_a 16.611812
_cell_length_b 30.692514
_cell_length_c 9.419114
_cell_angle_alpha 90.000000
_cell_angle_beta 33.531942
_cell_angle_gamma 90.000000
_cell_volume 2652.861620
_symmetry_space_group_name_H-M "C 2/M"
_symmetry_group_IT_number 12
_symmetry_cell_setting 'monoclinic'
loop_
_space_group_symop_operation_xyz
x,y,z
-x,y,-z
-x,-y,-z
x,-y,z
1/2+x,1/2+y,z
1/2-x,1/2+y,-z
1/2-x,1/2-y,-z
1/2+x,1/2-y,z
loop_
_atom_site_type_symbol
_atom_site_label
_atom_site_fract_x
_atom_site_fract_y
_atom_site_fract_z
Si Si1 0.308351 0.078432 0.172987
Si Si2 0.163144 0.500000 0.327270
Si Si3 0.914381 0.340716 0.490696
Si Si4 0.853551 0.424765 0.421368
Si Si5 0.129191 0.677132 0.927899
Si Si6 0.666707 0.500000 0.212195
Si Si7 0.327838 0.751043 0.733465
O O1 0.277143 0.066845 0.383284
O O2 0.288081 0.130617 0.194811
O O3 0.227911 0.044420 0.191800
O O4 0.476947 0.073133 0.876246
O O5 0.177461 0.458903 0.410387
O O6 0.000000 0.500000 0.500000
O O7 0.280207 0.500000 0.028781
O O8 0.832321 0.377008 0.519916
O O9 0.821438 0.299960 0.680667
O O10 0.000000 0.361004 0.500000
O O11 0.040113 0.321490 0.205446
O O12 0.242754 0.716658 0.759182
O O13 0.000000 0.677487 0.000000
O O14 0.500000 0.500000 0.500000
O O15 0.500000 0.740747 0.500000
O O16 0.250000 0.750000 0.000000
#
# Coordination Sequence:
#
# PCOD9187692 Si02
#       7
#     8   4   8   8   8   4   8
#     4  10  20  40  62  87 127 160 195 253 317 359
#     4  12  21  33  65  99 110 148 215 248 282 365
#     4  10  19  35  60  89 126 157 201 259 308 360
#     4  10  19  36  62  96 113 152 211 263 287 353
#     4  11  21  39  63  95 123 163 211 261 316 369
#     4  12  27  41  59  93 134 163 193 248 323 374
#     4  11  22  39  60  87 123 168 207 256 319 367
#
# _framework density 18.093668999999998
#
# number of rings (size 3 to 8) (size 9 to 14) (size 15 to 20)
#    0.000    1.333    8.333    1.000    2.333    2.667 
#    0.000    1.667    0.000    0.000    0.000    0.000 
#    0.000    0.000    0.000    0.000    0.000    0.000 
#
# Total GULP energy -133738.393457 kJ/mol
# GULP energy per Si atom -5572.433061 kJ/mol
# Density = 1.805249 g / cm^3
# Si number density = 18.093669 Si / 1000 Ang^3
#
#
#
# Elastic Constant Matrix: (Units=GPa)
#
#
# Indices 1 2 3 4 5 6 
#
# 1 55.9406 50.0191 42.3959 0.0000 25.6142 0.0000
# 2 50.0191 134.6896 48.7915 0.0000 9.7326 0.0000
# 3 42.3959 48.7915 103.2898 0.0000 24.9879 0.0000
# 4 0.0000 0.0000 0.0000 33.6649 0.0000 3.4440
# 5 25.6142 9.7326 24.9879 0.0000 33.6430 0.0000
# 6 0.0000 0.0000 0.0000 3.4440 0.0000 5.6125
#
#
#
# Elastic Compliance Matrix: (Units=1/GPa)
#
#
# Indices 1 2 3 4 5 6 
#
# 1 0.046966 -0.013120 -0.006519 0.000000 -0.027120 0.000000
# 2 -0.013120 0.012635 -0.002579 0.000000 0.008249 0.000000
# 3 -0.006519 -0.002579 0.014865 0.000000 -0.005332 0.000000
# 4 0.000000 0.000000 0.000000 0.031694 0.000000 -0.019448
# 5 -0.027120 0.008249 -0.005332 0.000000 0.051946 0.000000
# 6 0.000000 0.000000 0.000000 -0.019448 0.000000 0.190106
#
#
# Mechanical properties :
#
#
# Convention : Reuss Voigt Hill
#
# Bulk Modulus (GPa) = 33.29982 64.03702 48.66842
# Shear Modulus (GPa) = 12.41748 24.76499 18.59123
#
# Velocity S-wave (km/s) = 2.62255 3.70362 3.20894
# Velocity P-wave (km/s) = 5.25495 7.33198 6.37857
#
# Compressibility (1/GPa) = 0.03003019
#
# Stress axis : x y z
#
# Youngs Moduli (GPa) = 21.29202 79.14506 67.27112
#
# Poissons Ratio (x) = 1.03841 0.43853
# Poissons Ratio (y) = 0.27936 0.17348
# Poissons Ratio (z) = 0.13880 0.20410
#
# Static dielectric constant tensor:
#      x y z
#    x 1.831720 0.000000 -0.055100 
#    y 0.000000 1.653430 0.000000 
#    z -0.055100 0.000000 1.627270 
# 
# From -- ./inp_files/80668.got.cif
#   From: 2010.05.17/outbox.cif.g08.bks.cpg/sg12_41_cif.got.tgz:80668.got - 2010.06.03 13:09:07.
