data_PCOD9187840
_publ_section_title
;
Structure prediction by ZEFSAII (Michael W. Deem and Ramdas Pophale) SiO2 
 PCOD9187840
Probable space group: C 2/M
;
_chemical_formula_sum "Si O2"
_cell_formula_units_Z 64
_cell_length_a 17.367438
_cell_length_b 15.000527
_cell_length_c 14.472467
_cell_angle_alpha 90.000000
_cell_angle_beta 52.262492
_cell_angle_gamma 90.000000
_cell_volume 2981.701424
_symmetry_space_group_name_H-M "C 2/M"
_symmetry_group_IT_number 12
_symmetry_cell_setting 'monoclinic'
loop_
_space_group_symop_operation_xyz
x,y,z
-x,y,-z
-x,-y,-z
x,-y,z
1/2+x,1/2+y,z
1/2-x,1/2+y,-z
1/2-x,1/2-y,-z
1/2+x,1/2-y,z
loop_
_atom_site_type_symbol
_atom_site_label
_atom_site_fract_x
_atom_site_fract_y
_atom_site_fract_z
Si Si1 0.604786 0.892911 0.461311
Si Si2 0.063717 0.891009 0.626119
Si Si3 0.061723 0.220233 0.803427
Si Si4 0.090740 0.601786 0.688319
Si Si5 0.299474 0.600087 0.633080
Si Si6 0.878048 0.098411 0.965884
Si Si7 0.739177 0.322162 0.796454
Si Si8 0.660319 0.665193 0.199105
O O1 0.500000 0.863661 0.500000
O O2 0.605595 0.875609 0.569914
O O3 0.689762 0.850243 0.338240
O O4 0.612424 0.000000 0.444295
O O5 0.101654 0.843467 0.691188
O O6 0.123039 0.856729 0.493474
O O7 0.953004 0.857261 0.701113
O O8 0.068208 0.000000 0.629716
O O9 0.037034 0.317004 0.778930
O O10 0.146098 0.225801 0.817454
O O11 0.964662 0.170473 0.909129
O O12 0.050537 0.500000 0.724680
O O13 0.197097 0.600555 0.656658
O O14 0.337071 0.500000 0.614402
O O15 0.289332 0.631095 0.744693
O O16 0.820027 0.121371 0.914241
O O17 0.921640 0.000000 0.923441
O O18 0.810594 0.102592 0.104713
O O19 0.804383 0.266392 0.821388
#
# Coordination Sequence:
#
# PCOD9187840 Si02
#       8
#     8   8   8   8   8   8   8   8
#     4  10  24  42  63  94 133 177 221 264 324 401
#     4  10  22  37  62  97 135 174 219 276 335 395
#     4  11  23  41  68  99 130 167 223 275 339 395
#     4  10  22  41  64  95 138 176 219 274 331 401
#     4  10  19  35  61  93 129 173 218 270 333 392
#     4  11  26  47  71  96 130 174 227 288 335 387
#     4  12  25  41  67  98 131 172 222 276 334 392
#     4  11  22  38  59  94 132 170 213 271 329 398
#
# _framework density 21.464254
#
# number of rings (size 3 to 8) (size 9 to 14) (size 15 to 20)
#    0.000    1.375    1.250    4.500    5.250    5.500 
#    0.000    0.000    0.000    3.000    0.000    0.000 
#    0.000    0.000    0.000    0.000    0.000    0.000 
#
# Total GULP energy -178599.430008 kJ/mol
# GULP energy per Si atom -5581.232188 kJ/mol
# Density = 2.141540 g / cm^3
# Si number density = 21.464254 Si / 1000 Ang^3
#
#
#
# Elastic Constant Matrix: (Units=GPa)
#
#
# Indices 1 2 3 4 5 6 
#
# 1 83.4941 17.1957 30.7457 0.0000 16.3688 0.0000
# 2 17.1957 110.3707 44.6538 0.0000 -5.3201 0.0000
# 3 30.7457 44.6538 79.0563 0.0000 9.4417 0.0000
# 4 0.0000 0.0000 0.0000 -86.3434 0.0000 79.3866
# 5 16.3688 -5.3201 9.4417 0.0000 18.7884 0.0000
# 6 0.0000 0.0000 0.0000 79.3866 0.0000 -36.9876
#
#
#
# Elastic Compliance Matrix: (Units=1/GPa)
#
#
# Indices 1 2 3 4 5 6 
#
# 1 0.016208 -0.001542 -0.003930 0.000000 -0.012583 0.000000
# 2 -0.001542 0.012850 -0.007716 0.000000 0.008859 0.000000
# 3 -0.003930 -0.007716 0.019562 0.000000 -0.008592 0.000000
# 4 0.000000 0.000000 0.000000 0.011898 0.000000 0.025538
# 5 -0.012583 0.008859 -0.008592 0.000000 0.071013 0.000000
# 6 0.000000 0.000000 0.000000 0.025538 0.000000 0.027776
#
#
# Mechanical properties :
#
#
# Convention : Reuss Voigt Hill
#
# Bulk Modulus (GPa) = 44.95615 50.90127 47.92871
# Shear Modulus (GPa) = 25.89361 -8.88679 8.50341
#
# Velocity S-wave (km/s) = 3.47704 -2.03697 1.99255
# Velocity P-wave (km/s) = 6.09178 4.27008 5.26039
#
# Compressibility (1/GPa) = 0.02224390
#
# Stress axis : x y z
#
# Youngs Moduli (GPa) = 61.69642 77.82404 51.11904
#
# Poissons Ratio (x) = 0.11999 0.20090
# Poissons Ratio (y) = 0.09512 0.39445
# Poissons Ratio (z) = 0.24247 0.60052
#
# Static dielectric constant tensor:
#      x y z
#    x 1.779770 0.000000 0.017400 
#    y 0.000000 1.865920 0.000000 
#    z 0.017400 0.000000 1.800490 
# 
# From -- ./inp_files/225671.got.cif
#   From: 2010.05.17/outbox.cif.g08.bks.cpg/sg12_113_cif.got.tgz:225671.got - 2010.06.03 13:09:07.
