data_PCOD9187942
_publ_section_title
;
Structure prediction by ZEFSAII (Michael W. Deem and Ramdas Pophale) SiO2 
 PCOD9187942
Probable space group: C 2/M
;
_chemical_formula_sum "Si O2"
_cell_formula_units_Z 56
_cell_length_a 9.202569
_cell_length_b 29.170047
_cell_length_c 12.265396
_cell_angle_alpha 90.000000
_cell_angle_beta 61.133233
_cell_angle_gamma 90.000000
_cell_volume 2883.402703
_symmetry_space_group_name_H-M "C 2/M"
_symmetry_group_IT_number 12
_symmetry_cell_setting 'monoclinic'
loop_
_space_group_symop_operation_xyz
x,y,z
-x,y,-z
-x,-y,-z
x,-y,z
1/2+x,1/2+y,z
1/2-x,1/2+y,-z
1/2-x,1/2-y,-z
1/2+x,1/2-y,z
loop_
_atom_site_type_symbol
_atom_site_label
_atom_site_fract_x
_atom_site_fract_y
_atom_site_fract_z
Si Si1 0.701222 0.549371 0.415774
Si Si2 0.387494 0.921024 0.138067
Si Si3 0.347466 0.344160 0.884233
Si Si4 0.209729 0.179516 0.702032
Si Si5 0.831419 0.715165 0.218818
Si Si6 0.380069 0.844030 0.846383
Si Si7 0.694920 0.652242 0.462739
O O1 0.500000 0.549179 0.500000
O O2 0.756390 0.500000 0.443567
O O3 0.778607 0.551351 0.265229
O O4 0.750107 0.599000 0.445904
O O5 0.257221 0.886016 0.129498
O O6 0.518268 0.889117 0.156447
O O7 0.500000 0.942741 0.000000
O O8 0.540476 0.347343 0.790843
O O9 0.279527 0.299883 0.843208
O O10 0.295845 0.343071 0.028512
O O11 0.186695 0.232352 0.744120
O O12 0.353978 0.160744 0.727529
O O13 0.231748 0.174645 0.565531
O O14 0.775608 0.682624 0.339154
O O15 0.019429 0.698416 0.137303
O O16 0.500000 0.652323 0.500000
#
# Coordination Sequence:
#
# PCOD9187942 Si02
#       7
#     8   8   8   8   8   8   8
#     4  10  19  35  63  91 110 139 188 239 291 348
#     4   9  18  38  61  83 117 153 182 233 295 337
#     4  10  19  37  55  75 115 152 182 233 283 321
#     4  12  23  33  54  80 111 151 197 228 265 335
#     4  11  21  37  53  76 110 154 188 229 276 321
#     4  10  22  34  54  82 110 148 192 232 275 328
#     4  11  21  39  56  75 111 146 184 233 284 333
#
# _framework density 19.421496999999999
#
# number of rings (size 3 to 8) (size 9 to 14) (size 15 to 20)
#    0.000    1.571    4.286    3.857    0.000    4.286 
#    0.000    0.000    0.000    1.714    0.000    0.000 
#    0.000   13.143    0.000    0.000    0.000    0.000 
#
# Total GULP energy -156096.258043 kJ/mol
# GULP energy per Si atom -5574.866359 kJ/mol
# Density = 1.937729 g / cm^3
# Si number density = 19.421497 Si / 1000 Ang^3
#
#
#
# Elastic Constant Matrix: (Units=GPa)
#
#
# Indices 1 2 3 4 5 6 
#
# 1 63.6191 2.7693 11.9601 0.0000 8.2862 0.0000
# 2 2.7693 66.3198 6.8729 0.0000 -5.1783 0.0000
# 3 11.9601 6.8729 92.9809 0.0000 -3.6961 0.0000
# 4 0.0000 0.0000 0.0000 29.1221 0.0000 -0.7635
# 5 8.2862 -5.1783 -3.6961 0.0000 35.0027 0.0000
# 6 0.0000 0.0000 0.0000 -0.7635 0.0000 -1.2559
#
#
#
# Elastic Compliance Matrix: (Units=1/GPa)
#
#
# Indices 1 2 3 4 5 6 
#
# 1 0.016742 -0.000802 -0.002266 0.000000 -0.004321 0.000000
# 2 -0.000802 0.015394 -0.000941 0.000000 0.002368 0.000000
# 3 -0.002266 -0.000941 0.011179 0.000000 0.001578 0.000000
# 4 0.000000 0.000000 0.000000 0.033799 0.000000 -0.020549
# 5 -0.004321 0.002368 0.001578 0.000000 0.030109 0.000000
# 6 0.000000 0.000000 0.000000 -0.020549 0.000000 -0.783756
#
#
# Mechanical properties :
#
#
# Convention : Reuss Voigt Hill
#
# Bulk Modulus (GPa) = 28.32990 29.56938 28.94964
# Shear Modulus (GPa) = -7.61326 25.99494 9.19084
#
# Velocity S-wave (km/s) = -1.98205 3.66247 2.17775
# Velocity P-wave (km/s) = 3.06276 5.75700 4.61105
#
# Compressibility (1/GPa) = 0.03529840
#
# Stress axis : x y z
#
# Youngs Moduli (GPa) = 59.72894 64.95916 89.45640
#
# Poissons Ratio (x) = 0.05208 0.20271
# Poissons Ratio (y) = 0.04788 0.08415
# Poissons Ratio (z) = 0.13535 0.06110
#
# Static dielectric constant tensor:
#      x y z
#    x 1.693590 0.000000 -0.045870 
#    y 0.000000 1.666490 0.000000 
#    z -0.045870 0.000000 1.739600 
# 
# From -- ./inp_files/125196.got.cif
#   From: 2010.05.17/outbox.cif.g08.bks.cpg/sg12_63_cif.got.tgz:125196.got - 2010.06.03 13:09:07.
