data_PCOD9187517
_publ_section_title
;
Structure prediction by ZEFSAII (Michael W. Deem and Ramdas Pophale) SiO2 
 PCOD9187517
Probable space group: C 2/M
;
_chemical_formula_sum "Si O2"
_cell_formula_units_Z 58
_cell_length_a 9.888599
_cell_length_b 20.041639
_cell_length_c 26.973181
_cell_angle_alpha 90.000000
_cell_angle_beta 149.942616
_cell_angle_gamma 90.000000
_cell_volume 2677.458081
_symmetry_space_group_name_H-M "C 2/M"
_symmetry_group_IT_number 12
_symmetry_cell_setting 'monoclinic'
loop_
_space_group_symop_operation_xyz
x,y,z
-x,y,-z
-x,-y,-z
x,-y,z
1/2+x,1/2+y,z
1/2-x,1/2+y,-z
1/2-x,1/2-y,-z
1/2+x,1/2-y,z
loop_
_atom_site_type_symbol
_atom_site_label
_atom_site_fract_x
_atom_site_fract_y
_atom_site_fract_z
Si Si1 0.299243 0.801011 0.226268
Si Si2 0.945328 0.920856 0.323207
Si Si3 0.278460 0.800074 0.392582
Si Si4 0.500000 0.000000 0.000000
Si Si5 0.249618 0.099721 0.841278
Si Si6 0.862091 0.612896 0.333239
Si Si7 0.733724 0.256049 0.884353
Si Si8 0.952621 0.923900 0.537681
O O1 0.528352 0.748374 0.312976
O O2 0.365420 0.869280 0.276195
O O3 0.301721 0.801828 0.167604
O O4 0.016584 0.773669 0.159204
O O5 0.723314 0.910538 0.209385
O O6 0.187886 0.873021 0.383088
O O7 0.907983 0.897613 0.368315
O O8 0.008799 0.000000 0.344777
O O9 0.500000 0.773985 0.500000
O O10 0.367210 0.816406 0.364776
O O11 0.432043 0.942581 0.935946
O O12 0.275767 0.176762 0.864820
O O13 0.932590 0.081293 0.750975
O O14 0.126179 0.576327 0.437211
O O15 0.000000 0.243302 0.000000
O O16 0.000000 0.888995 0.500000
O O17 0.052431 0.000000 0.565161
#
# Coordination Sequence:
#
# PCOD9187517 Si02
#       8
#     8   8   8   2   8   8   8   8
#     4  11  22  40  59  85 122 160 205 253 306 362
#     4  10  19  35  59  87 119 156 190 245 304 362
#     4  11  21  37  57  88 123 154 197 248 300 368
#     4  12  20  36  64  98 118 152 188 248 334 356
#     4  10  21  35  60  94 121 146 191 254 308 363
#     4  10  22  39  56  87 122 157 197 249 302 362
#     4  11  22  41  62  87 120 158 208 260 310 365
#     4  10  22  38  58  85 119 164 206 239 296 376
#
# _framework density 21.662337000000001
#
# number of rings (size 3 to 8) (size 9 to 14) (size 15 to 20)
#    0.000    1.517    6.897    0.414    0.966    3.034 
#    0.000    0.000    0.000    0.000    0.000    0.966 
#    0.000    0.000    0.000    0.000    0.000    0.000 
#
# Total GULP energy -161458.611773 kJ/mol
# GULP energy per Si atom -5567.538337 kJ/mol
# Density = 2.161303 g / cm^3
# Si number density = 21.662337 Si / 1000 Ang^3
#
#
#
# Elastic Constant Matrix: (Units=GPa)
#
#
# Indices 1 2 3 4 5 6 
#
# 1 86.6609 3.7928 37.1198 0.0002 -37.6169 -0.0003
# 2 3.7928 42.4026 3.0271 0.0004 -10.3274 -0.0003
# 3 37.1198 3.0271 116.8472 -0.0034 -37.4699 -0.0019
# 4 0.0002 0.0004 -0.0034 16.8468 -0.0012 -9.4282
# 5 -37.6169 -10.3274 -37.4699 -0.0012 39.4077 0.0000
# 6 -0.0003 -0.0003 -0.0019 -9.4282 0.0000 16.3751
#
#
#
# Elastic Compliance Matrix: (Units=1/GPa)
#
#
# Indices 1 2 3 4 5 6 
#
# 1 0.020070 0.003053 -0.000079 0.000002 0.019883 0.000001
# 2 0.003053 0.026022 0.002125 0.000002 0.011755 0.000002
# 3 -0.000079 0.002125 0.012491 0.000006 0.012359 0.000005
# 4 0.000002 0.000002 0.000006 0.087579 0.000011 0.050425
# 5 0.019883 0.011755 0.012359 0.000011 0.059187 0.000008
# 6 0.000001 0.000002 0.000005 0.050425 0.000008 0.090101
#
#
# Mechanical properties :
#
#
# Convention : Reuss Voigt Hill
#
# Bulk Modulus (GPa) = 14.53867 37.08777 25.81322
# Shear Modulus (GPa) = 16.22440 27.99066 22.10753
#
# Velocity S-wave (km/s) = 2.73970 3.59853 3.19807
# Velocity P-wave (km/s) = 4.09072 5.86719 5.05756
#
# Compressibility (1/GPa) = 0.06878207
#
# Stress axis : x y z
#
# Youngs Moduli (GPa) = 49.82542 38.42969 80.05548
#
# Poissons Ratio (x) = -0.11733 0.00632
# Poissons Ratio (y) = -0.15212 -0.17015
# Poissons Ratio (z) = 0.00393 -0.08168
#
# Static dielectric constant tensor:
#      x y z
#    x 1.919710 0.000000 -0.032100 
#    y 0.000000 1.806690 0.000000 
#    z -0.032100 0.000000 1.797700 
# 
# From -- ./inp_files/357089.got.cif
#   From: 2010.05.17/outbox.cif.g08.bks.cpg/sg12_179_cif.got.tgz:357089.got - 2010.06.03 13:09:07.
