data_PCOD9187104
_publ_section_title
;
Structure prediction by ZEFSAII (Michael W. Deem and Ramdas Pophale) SiO2 
 PCOD9187104
Probable space group: C 2/M
;
_chemical_formula_sum "Si O2"
_cell_formula_units_Z 56
_cell_length_a 19.130338
_cell_length_b 21.504278
_cell_length_c 16.415150
_cell_angle_alpha 90.000000
_cell_angle_beta 26.104544
_cell_angle_gamma 90.000000
_cell_volume 2971.360156
_symmetry_space_group_name_H-M "C 2/M"
_symmetry_group_IT_number 12
_symmetry_cell_setting 'monoclinic'
loop_
_space_group_symop_operation_xyz
x,y,z
-x,y,-z
-x,-y,-z
x,-y,z
1/2+x,1/2+y,z
1/2-x,1/2+y,-z
1/2-x,1/2-y,-z
1/2+x,1/2-y,z
loop_
_atom_site_type_symbol
_atom_site_label
_atom_site_fract_x
_atom_site_fract_y
_atom_site_fract_z
Si Si1 0.446894 0.731751 0.936924
Si Si2 0.832293 0.818622 0.904676
Si Si3 0.741165 0.800550 0.290624
Si Si4 0.575492 0.321966 0.505230
Si Si5 0.576471 0.071173 0.169873
Si Si6 0.936610 0.632093 0.158836
Si Si7 0.613415 0.933103 0.460611
O O1 0.455433 0.688874 0.849595
O O2 0.598560 0.715767 0.831101
O O3 0.466740 0.806100 0.912139
O O4 0.283174 0.714382 0.153239
O O5 0.939040 0.828275 0.714217
O O6 0.750000 0.750000 0.000000
O O7 0.710494 0.875595 0.038657
O O8 0.612095 0.751653 0.456389
O O9 0.708833 0.871220 0.343265
O O10 0.500000 0.345878 0.500000
O O11 0.747712 0.352333 0.347117
O O12 0.476730 0.085059 0.190842
O O13 0.474747 0.074235 0.360164
O O14 0.638286 0.000000 0.100041
O O15 0.000000 0.617593 0.000000
O O16 0.500000 0.935829 0.500000
O O17 0.699283 0.000000 0.373664
#
# Coordination Sequence:
#
# PCOD9187104 Si02
#       7
#     8   8   8   8   8   8   8
#     4  10  20  35  58  93 123 158 196 260 315 368
#     4  12  22  36  62  91 124 160 212 259 317 368
#     4  10  19  35  57  88 124 153 200 256 314 366
#     4  11  22  35  61  93 121 159 206 271 319 368
#     4  11  25  43  64  91 129 172 213 258 317 387
#     4  11  21  42  64  90 128 164 213 261 318 380
#     4  10  21  38  60  84 119 167 213 249 302 381
#
# _framework density 18.846589000000002
#
# number of rings (size 3 to 8) (size 9 to 14) (size 15 to 20)
#    0.000    1.286    4.286    3.857    2.000    1.429 
#    0.000    2.857    0.000    1.714    0.000    0.000 
#    0.000    0.000    0.000    0.000    0.000    0.000 
#
# Total GULP energy -155942.282371 kJ/mol
# GULP energy per Si atom -5569.367228 kJ/mol
# Density = 1.880369 g / cm^3
# Si number density = 18.846589 Si / 1000 Ang^3
#
#
#
# Elastic Constant Matrix: (Units=GPa)
#
#
# Indices 1 2 3 4 5 6 
#
# 1 98.7206 12.9549 17.7593 -0.0024 18.9018 0.0019
# 2 12.9549 101.6450 26.8086 -0.0013 -1.6881 0.0026
# 3 17.7593 26.8086 64.5441 -0.0033 7.3242 0.0031
# 4 -0.0024 -0.0013 -0.0033 20.0395 0.0036 -3.6854
# 5 18.9018 -1.6881 7.3242 0.0036 29.2025 -0.0024
# 6 0.0019 0.0026 0.0031 -3.6854 -0.0024 21.9764
#
#
#
# Elastic Compliance Matrix: (Units=1/GPa)
#
#
# Indices 1 2 3 4 5 6 
#
# 1 0.012048 -0.001127 -0.002012 0.000002 -0.007359 -0.000001
# 2 -0.001127 0.011251 -0.004652 -0.000001 0.002547 0.000000
# 3 -0.002012 -0.004652 0.018385 0.000003 -0.003578 -0.000002
# 4 0.000002 -0.000001 0.000003 0.051490 -0.000008 0.008635
# 5 -0.007359 0.002547 -0.003578 -0.000008 0.040052 0.000004
# 6 -0.000001 0.000000 -0.000002 0.008635 0.000004 0.046951
#
#
# Mechanical properties :
#
#
# Convention : Reuss Voigt Hill
#
# Bulk Modulus (GPa) = 38.31056 42.21725 40.26390
# Shear Modulus (GPa) = 24.45465 28.06947 26.26206
#
# Velocity S-wave (km/s) = 3.60608 3.86342 3.73696
# Velocity P-wave (km/s) = 6.14086 6.50772 6.32695
#
# Compressibility (1/GPa) = 0.02610247
#
# Stress axis : x y z
#
# Youngs Moduli (GPa) = 82.99800 88.88037 54.39197
#
# Poissons Ratio (x) = 0.10019 0.10943
# Poissons Ratio (y) = 0.09356 0.25303
# Poissons Ratio (z) = 0.16698 0.41347
#
# Static dielectric constant tensor:
#      x y z
#    x 1.795670 0.000000 0.012740 
#    y 0.000000 1.687570 0.000000 
#    z 0.012740 0.000000 1.644940 
# 
# From -- ./inp_files/227594.got.cif
#   From: 2010.05.17/outbox.cif.g08.bks.cpg/sg12_114_cif.got.tgz:227594.got - 2010.06.03 13:09:07.
