data_PCOD9187449
_publ_section_title
;
Structure prediction by ZEFSAII (Michael W. Deem and Ramdas Pophale) SiO2 
 PCOD9187449
Probable space group: C 2/M
;
_chemical_formula_sum "Si O2"
_cell_formula_units_Z 40
_cell_length_a 8.979006
_cell_length_b 26.885616
_cell_length_c 16.230000
_cell_angle_alpha 90.000000
_cell_angle_beta 33.774060
_cell_angle_gamma 90.000000
_cell_volume 2178.103716
_symmetry_space_group_name_H-M "C 2/M"
_symmetry_group_IT_number 12
_symmetry_cell_setting 'monoclinic'
loop_
_space_group_symop_operation_xyz
x,y,z
-x,y,-z
-x,-y,-z
x,-y,z
1/2+x,1/2+y,z
1/2-x,1/2+y,-z
1/2-x,1/2-y,-z
1/2+x,1/2-y,z
loop_
_atom_site_type_symbol
_atom_site_label
_atom_site_fract_x
_atom_site_fract_y
_atom_site_fract_z
Si Si1 0.454509 0.500000 0.618407
Si Si2 0.619051 0.000000 0.038482
Si Si3 0.719932 0.291826 0.081149
Si Si4 0.777195 0.793924 0.420217
Si Si5 0.877966 0.393322 0.963976
Si Si6 0.042973 0.110304 0.382137
O O1 0.500000 0.500000 0.500000
O O2 0.548168 0.554676 0.605536
O O3 0.140244 0.500000 0.783787
O O4 0.756587 0.053082 0.989967
O O5 0.500000 0.000000 0.000000
O O6 0.492291 0.279988 0.251402
O O7 0.750000 0.250000 0.000000
O O8 0.686120 0.345828 0.054043
O O9 0.000000 0.294570 0.000000
O O10 0.500000 0.801635 0.500000
O O11 0.750000 0.750000 0.500000
O O12 0.885736 0.844613 0.411920
O O13 0.140286 0.385166 0.786252
O O14 0.000000 0.397197 0.000000
O O15 0.000000 0.113100 0.500000
#
# Coordination Sequence:
#
# PCOD9187449 Si02
#       6
#     4   4   8   8   8   8
#     4   8  16  30  53  84 112 144 183 226 275 332
#     4   8  14  24  50  82 104 130 175 231 270 312
#     4  11  22  39  57  79 110 144 187 230 276 331
#     4  12  25  39  56  82 113 151 191 232 284 334
#     4   9  16  32  54  81 108 138 182 229 272 322
#     4  10  19  35  59  85 115 148 188 232 278 336
#
# _framework density 18.364598000000001
#
# number of rings (size 3 to 8) (size 9 to 14) (size 15 to 20)
#    0.000    2.000    4.000    1.800    2.800    0.000 
#    0.000    0.500    0.000    0.000    0.000    0.700 
#    0.000    0.000    0.000    0.000    0.000    0.000 
#
# Total GULP energy -111374.895382 kJ/mol
# GULP energy per Si atom -5568.744769 kJ/mol
# Density = 1.832280 g / cm^3
# Si number density = 18.364598 Si / 1000 Ang^3
#
#
#
# Elastic Constant Matrix: (Units=GPa)
#
#
# Indices 1 2 3 4 5 6 
#
# 1 35.6396 37.3807 24.2882 0.0000 11.4370 0.0000
# 2 37.3807 210.9300 31.0743 0.0000 13.3718 0.0000
# 3 24.2882 31.0743 115.6445 0.0000 33.5260 0.0000
# 4 0.0000 0.0000 0.0000 25.6888 0.0000 -4.1436
# 5 11.4370 13.3718 33.5260 0.0000 34.1636 0.0000
# 6 0.0000 0.0000 0.0000 -4.1436 0.0000 31.9261
#
#
#
# Elastic Compliance Matrix: (Units=1/GPa)
#
#
# Indices 1 2 3 4 5 6 
#
# 1 0.039577 -0.005897 -0.004969 0.000000 -0.006064 0.000000
# 2 -0.005897 0.005834 -0.000335 0.000000 0.000019 0.000000
# 3 -0.004969 -0.000335 0.012943 0.000000 -0.010907 0.000000
# 4 0.000000 0.000000 0.000000 0.039760 0.000000 0.005160
# 5 -0.006064 0.000019 -0.010907 0.000000 0.041997 0.000000
# 6 0.000000 0.000000 0.000000 0.005160 0.000000 0.031992
#
#
# Mechanical properties :
#
#
# Convention : Reuss Voigt Hill
#
# Bulk Modulus (GPa) = 27.81568 60.85562 44.33565
# Shear Modulus (GPa) = 24.21448 36.32042 30.26745
#
# Velocity S-wave (km/s) = 3.63511 4.45200 4.06413
# Velocity P-wave (km/s) = 5.72695 7.72247 6.79833
#
# Compressibility (1/GPa) = 0.03595094
#
# Stress axis : x y z
#
# Youngs Moduli (GPa) = 25.26744 171.40640 77.26369
#
# Poissons Ratio (x) = 1.01082 0.38396
# Poissons Ratio (y) = 0.14901 0.02586
# Poissons Ratio (z) = 0.12556 0.05736
#
# Static dielectric constant tensor:
#      x y z
#    x 1.624130 0.000000 -0.001690 
#    y 0.000000 1.747890 0.000000 
#    z -0.001690 0.000000 1.644840 
# 
# From -- ./inp_files/259655.got.cif
#   From: 2010.05.17/outbox.cif.g08.bks.cpg/sg12_130_cif.got.tgz:259655.got - 2010.06.03 13:09:07.
