data_PCOD9187960
_publ_section_title
;
Structure prediction by ZEFSAII (Michael W. Deem and Ramdas Pophale) SiO2 
 PCOD9187960
Probable space group: C 2/M
;
_chemical_formula_sum "Si O2"
_cell_formula_units_Z 40
_cell_length_a 9.241410
_cell_length_b 18.892878
_cell_length_c 10.874344
_cell_angle_alpha 90.000000
_cell_angle_beta 92.360339
_cell_angle_gamma 90.000000
_cell_volume 1897.015172
_symmetry_space_group_name_H-M "C 2/M"
_symmetry_group_IT_number 12
_symmetry_cell_setting 'monoclinic'
loop_
_space_group_symop_operation_xyz
x,y,z
-x,y,-z
-x,-y,-z
x,-y,z
1/2+x,1/2+y,z
1/2-x,1/2+y,-z
1/2-x,1/2-y,-z
1/2+x,1/2-y,z
loop_
_atom_site_type_symbol
_atom_site_label
_atom_site_fract_x
_atom_site_fract_y
_atom_site_fract_z
Si Si1 0.557014 0.416284 0.128405
Si Si2 0.939449 0.298668 0.858205
Si Si3 0.672097 0.582908 0.479208
Si Si4 0.735272 0.583068 0.757419
Si Si5 0.236356 0.673716 0.747315
O O1 0.558598 0.500000 0.121066
O O2 0.432516 0.397064 0.221473
O O3 0.715561 0.390866 0.164183
O O4 0.500000 0.385083 0.000000
O O5 0.840980 0.368620 0.840336
O O6 0.839912 0.235722 0.801777
O O7 0.074090 0.305268 0.770080
O O8 0.000000 0.289386 0.000000
O O9 0.500000 0.590381 0.500000
O O10 0.691424 0.500000 0.437748
O O11 0.754269 0.591377 0.611944
O O12 0.727401 0.641670 0.385217
O O13 0.751475 0.500000 0.788482
#
# Coordination Sequence:
#
# PCOD9187960 Si02
#       5
#     8   8   8   8   8
#     4  10  19  35  63  94 124 166 217 265 320 388
#     4  12  27  45  65  94 134 177 219 274 329 383
#     4  10  21  42  72  99 130 170 216 270 324 387
#     4  10  22  42  66  96 132 169 215 272 328 386
#     4  12  24  41  65  93 129 175 220 265 324 390
#
# _framework density 21.085757000000001
#
# number of rings (size 3 to 8) (size 9 to 14) (size 15 to 20)
#    0.000    1.200    2.000    4.200    0.000    3.600 
#    0.000    2.000    0.000    0.000    0.000    0.000 
#    0.000    0.000    0.000    0.000    0.000    0.000 
#
# Total GULP energy -111657.184375 kJ/mol
# GULP energy per Si atom -5582.859219 kJ/mol
# Density = 2.103776 g / cm^3
# Si number density = 21.085757 Si / 1000 Ang^3
#
#
#
# Elastic Constant Matrix: (Units=GPa)
#
#
# Indices 1 2 3 4 5 6 
#
# 1 66.9339 35.2093 -7.8258 0.0000 -5.1850 0.0000
# 2 35.2093 89.5018 43.2002 0.0000 -1.2940 0.0000
# 3 -7.8258 43.2002 78.6022 0.0000 -1.7017 0.0000
# 4 0.0000 0.0000 0.0000 3.1022 0.0000 40.0778
# 5 -5.1850 -1.2940 -1.7017 0.0000 26.3481 0.0000
# 6 0.0000 0.0000 0.0000 40.0778 0.0000 -8.4271
#
#
#
# Elastic Compliance Matrix: (Units=1/GPa)
#
#
# Indices 1 2 3 4 5 6 
#
# 1 0.024148 -0.014483 0.010466 0.000000 0.004717 0.000000
# 2 -0.014483 0.023895 -0.014632 0.000000 -0.002622 0.000000
# 3 0.010466 -0.014632 0.021866 0.000000 0.002753 0.000000
# 4 0.000000 0.000000 0.000000 0.005162 0.000000 0.024552
# 5 0.004717 -0.002622 0.002753 0.000000 0.038931 0.000000
# 6 0.000000 0.000000 0.000000 0.024552 0.000000 -0.001900
#
#
# Mechanical properties :
#
#
# Convention : Reuss Voigt Hill
#
# Bulk Modulus (GPa) = 30.66395 41.80060 36.23228
# Shear Modulus (GPa) = 31.19768 15.16827 23.18298
#
# Velocity S-wave (km/s) = 3.85068 2.68500 3.31941
# Velocity P-wave (km/s) = 5.86041 5.42950 5.64906
#
# Compressibility (1/GPa) = 0.03261158
#
# Stress axis : x y z
#
# Youngs Moduli (GPa) = 41.41151 41.84987 45.73402
#
# Poissons Ratio (x) = 0.60612 -0.47867
# Poissons Ratio (y) = 0.59977 0.66916
# Poissons Ratio (z) = -0.43343 0.61233
#
# Static dielectric constant tensor:
#      x y z
#    x 1.730840 0.000000 -0.009150 
#    y 0.000000 1.797130 0.000000 
#    z -0.009150 0.000000 1.811140 
# 
# From -- ./inp_files/118944.got.cif
#   From: 2010.05.17/outbox.cif.g08.bks.cpg/sg12_60_cif.got.tgz:118944.got - 2010.06.03 13:09:07.
