data_PCOD9187418
_publ_section_title
;
Structure prediction by ZEFSAII (Michael W. Deem and Ramdas Pophale) SiO2 
 PCOD9187418
Probable space group: C 2/M
;
_chemical_formula_sum "Si O2"
_cell_formula_units_Z 56
_cell_length_a 21.355463
_cell_length_b 9.274480
_cell_length_c 17.895730
_cell_angle_alpha 90.000000
_cell_angle_beta 119.133353
_cell_angle_gamma 90.000000
_cell_volume 3096.031741
_symmetry_space_group_name_H-M "C 2/M"
_symmetry_group_IT_number 12
_symmetry_cell_setting 'monoclinic'
loop_
_space_group_symop_operation_xyz
x,y,z
-x,y,-z
-x,-y,-z
x,-y,z
1/2+x,1/2+y,z
1/2-x,1/2+y,-z
1/2-x,1/2-y,-z
1/2+x,1/2-y,z
loop_
_atom_site_type_symbol
_atom_site_label
_atom_site_fract_x
_atom_site_fract_y
_atom_site_fract_z
Si Si1 0.326656 0.325841 0.556987
Si Si2 0.653341 0.673613 0.264548
Si Si3 0.319878 0.663176 0.134116
Si Si4 0.080420 0.833688 0.076198
Si Si5 0.154305 0.338314 0.989856
Si Si6 0.915440 0.172474 0.459658
Si Si7 0.808553 0.673625 0.284398
O O1 0.316194 0.500000 0.551945
O O2 0.250000 0.250000 0.500000
O O3 0.353944 0.276320 0.654552
O O4 0.382150 0.294913 0.522220
O O5 0.651708 0.500000 0.268006
O O6 0.593662 0.715141 0.168968
O O7 0.730962 0.712948 0.275019
O O8 0.345681 0.500000 0.162816
O O9 0.362030 0.743568 0.092616
O O10 0.317007 0.754784 0.208099
O O11 0.239345 0.653564 0.054613
O O12 0.106494 0.000000 0.085842
O O13 0.124046 0.735391 0.045668
O O14 0.000000 0.830873 0.000000
O O15 0.126984 0.500000 0.964018
O O16 0.869216 0.262301 0.373591
O O17 0.000000 0.203290 0.500000
O O18 0.905795 0.000000 0.441234
O O19 0.812180 0.500000 0.281657
#
# Coordination Sequence:
#
# PCOD9187418 Si02
#       7
#     8   8   8   8   8   8   8
#     4  10  19  35  59  84 113 148 192 242 290 344
#     4   9  18  33  55  82 109 143 189 241 289 337
#     4  10  20  34  55  82 109 142 185 230 282 339
#     4  10  20  36  56  79 111 152 197 238 288 350
#     4  10  20  34  54  79 110 144 183 232 288 337
#     4  10  22  39  57  83 120 156 191 237 293 353
#     4  11  20  34  59  84 112 145 187 240 292 346
#
# _framework density 18.087671
#
# number of rings (size 3 to 8) (size 9 to 14) (size 15 to 20)
#    0.000    2.000    2.857    1.286    0.000    1.714 
#    2.571    0.714    0.000    0.000    0.000    0.000 
#    0.000    0.000    0.000    0.000    0.000    0.000 
#
# Total GULP energy -156113.828695 kJ/mol
# GULP energy per Si atom -5575.493882 kJ/mol
# Density = 1.804650 g / cm^3
# Si number density = 18.087671 Si / 1000 Ang^3
#
#
#
# Elastic Constant Matrix: (Units=GPa)
#
#
# Indices 1 2 3 4 5 6 
#
# 1 68.1157 32.5218 55.4213 0.0000 -14.7663 0.0000
# 2 32.5218 73.6660 49.4088 0.0000 -10.2657 0.0000
# 3 55.4213 49.4088 143.9803 0.0000 -25.9757 0.0000
# 4 0.0000 0.0000 0.0000 23.2967 0.0000 9.6328
# 5 -14.7663 -10.2657 -25.9757 0.0000 33.6712 0.0000
# 6 0.0000 0.0000 0.0000 9.6328 0.0000 -3.4502
#
#
#
# Elastic Compliance Matrix: (Units=1/GPa)
#
#
# Indices 1 2 3 4 5 6 
#
# 1 0.023318 -0.005467 -0.006454 0.000000 0.003581 0.000000
# 2 -0.005467 0.018935 -0.004396 0.000000 -0.000016 0.000000
# 3 -0.006454 -0.004396 0.011833 0.000000 0.004958 0.000000
# 4 0.000000 0.000000 0.000000 0.019924 0.000000 0.055626
# 5 0.003581 -0.000016 0.004958 0.000000 0.035089 0.000000
# 6 0.000000 0.000000 0.000000 0.055626 0.000000 -0.134531
#
#
# Mechanical properties :
#
#
# Convention : Reuss Voigt Hill
#
# Bulk Modulus (GPa) = 46.61611 62.27397 54.44504
# Shear Modulus (GPa) = 348.39191 20.59754 184.49473
#
# Velocity S-wave (km/s) = 13.89356 3.37821 10.11047
# Velocity P-wave (km/s) = 16.82864 7.05125 12.90200
#
# Compressibility (1/GPa) = 0.02145181
#
# Stress axis : x y z
#
# Youngs Moduli (GPa) = 42.88495 52.81317 84.51187
#
# Poissons Ratio (x) = 0.28872 0.54541
# Poissons Ratio (y) = 0.23445 0.37154
# Poissons Ratio (z) = 0.27677 0.23218
#
# Static dielectric constant tensor:
#      x y z
#    x 1.619940 0.000000 0.006400 
#    y 0.000000 1.621550 0.000000 
#    z 0.006400 0.000000 1.625830 
# 
# From -- ./inp_files/281751.got.cif
#   From: 2010.05.17/outbox.cif.g08.bks.cpg/sg12_141_cif.got.tgz:281751.got - 2010.06.03 13:09:07.
