data_PCOD9187651
_publ_section_title
;
Structure prediction by ZEFSAII (Michael W. Deem and Ramdas Pophale) SiO2 
 PCOD9187651
Probable space group: C 2/M
;
_chemical_formula_sum "Si O2"
_cell_formula_units_Z 64
_cell_length_a 13.154546
_cell_length_b 20.553450
_cell_length_c 15.254208
_cell_angle_alpha 90.000000
_cell_angle_beta 115.541876
_cell_angle_gamma 90.000000
_cell_volume 3721.233876
_symmetry_space_group_name_H-M "C 2/M"
_symmetry_group_IT_number 12
_symmetry_cell_setting 'monoclinic'
loop_
_space_group_symop_operation_xyz
x,y,z
-x,y,-z
-x,-y,-z
x,-y,z
1/2+x,1/2+y,z
1/2-x,1/2+y,-z
1/2-x,1/2-y,-z
1/2+x,1/2-y,z
loop_
_atom_site_type_symbol
_atom_site_label
_atom_site_fract_x
_atom_site_fract_y
_atom_site_fract_z
Si Si1 0.288329 0.423833 0.576654
Si Si2 0.801271 0.424307 0.261347
Si Si3 0.787442 0.309580 0.574885
Si Si4 0.057015 0.881742 0.114029
Si Si5 0.959841 0.309596 0.262429
Si Si6 0.197411 0.190406 0.737573
Si Si7 0.039925 0.924307 0.738653
Si Si8 0.557002 0.774953 0.114001
O O1 0.274776 0.500000 0.549551
O O2 0.224643 0.411839 0.645297
O O3 0.243266 0.375799 0.486527
O O4 0.420657 0.411841 0.645296
O O5 0.830616 0.500000 0.262100
O O6 0.682828 0.409810 0.169069
O O7 0.895573 0.375788 0.261691
O O8 0.750000 0.250000 0.500000
O O9 0.724475 0.305960 0.644575
O O10 0.920099 0.305962 0.644571
O O11 0.063169 0.803482 0.126339
O O12 0.986244 0.909811 0.169070
O O13 0.000000 0.896768 0.000000
O O14 0.881904 0.250001 0.263805
O O15 0.985692 0.302274 0.168916
O O16 0.133882 0.124213 0.738310
O O17 0.316773 0.197728 0.831088
O O18 0.068519 0.000000 0.737900
O O19 0.500000 0.789493 0.000000
#
# Coordination Sequence:
#
# PCOD9187651 Si02
#       8
#     8   8   8   8   8   8   8   8
#     4   9  20  38  57  80 113 149 187 230 278 328
#     4  10  21  37  58  84 116 150 185 231 281 330
#     4  11  24  36  55  83 113 145 188 238 279 323
#     4  10  19  35  60  87 115 144 185 237 280 327
#     4  11  22  38  58  83 114 146 188 231 278 335
#     4  11  22  38  58  83 114 146 188 231 278 335
#     4  10  21  37  58  84 116 150 185 231 281 330
#     4  10  22  38  59  86 113 147 186 228 280 336
#
# _framework density 17.198595999999998
#
# number of rings (size 3 to 8) (size 9 to 14) (size 15 to 20)
#    0.000    1.750    2.500    2.625    3.500    7.000 
#    0.000    4.375    0.000    0.750    0.000    0.000 
#    0.000    0.000    0.000    0.000    0.000    0.000 
#
# Total GULP energy -178756.902208 kJ/mol
# GULP energy per Si atom -5586.153194 kJ/mol
# Density = 1.715945 g / cm^3
# Si number density = 17.198596 Si / 1000 Ang^3
#
#
#
# Elastic Constant Matrix: (Units=GPa)
#
#
# Indices 1 2 3 4 5 6 
#
# 1 145.2718 90.7882 76.9536 0.0000 -2.0164 0.0000
# 2 90.7882 115.9234 73.8703 0.0000 -0.5470 0.0000
# 3 76.9536 73.8703 136.7735 0.0000 1.7527 0.0000
# 4 0.0000 0.0000 0.0000 26.3961 0.0000 -0.4138
# 5 -2.0164 -0.5470 1.7527 0.0000 3.3115 0.0000
# 6 0.0000 0.0000 0.0000 -0.4138 0.0000 39.0605
#
#
#
# Elastic Compliance Matrix: (Units=1/GPa)
#
#
# Indices 1 2 3 4 5 6 
#
# 1 0.014528 -0.009229 -0.003306 0.000000 0.009072 0.000000
# 2 -0.009229 0.019134 -0.005145 0.000000 0.000264 0.000000
# 3 -0.003306 -0.005145 0.012069 0.000000 -0.009251 0.000000
# 4 0.000000 0.000000 0.000000 0.037891 0.000000 0.000401
# 5 0.009072 0.000264 -0.009251 0.000000 0.312437 0.000000
# 6 0.000000 0.000000 0.000000 0.000401 0.000000 0.025606
#
#
# Mechanical properties :
#
#
# Convention : Reuss Voigt Hill
#
# Bulk Modulus (GPa) = 96.41878 97.91033 97.16455
# Shear Modulus (GPa) = 10.85819 24.17739 17.51779
#
# Velocity S-wave (km/s) = 2.51538 3.75344 3.19495
# Velocity P-wave (km/s) = 8.03865 8.70846 8.38025
#
# Compressibility (1/GPa) = 0.01037142
#
# Stress axis : x y z
#
# Youngs Moduli (GPa) = 68.83072 52.26316 82.85797
#
# Poissons Ratio (x) = 0.48232 0.27394
# Poissons Ratio (y) = 0.63522 0.42631
# Poissons Ratio (z) = 0.22756 0.26890
#
# Static dielectric constant tensor:
#      x y z
#    x 1.560110 0.000000 0.000140 
#    y 0.000000 1.567910 0.000000 
#    z 0.000140 0.000000 1.564300 
# 
# From -- ./inp_files/170575.got.cif
#   From: 2010.05.17/outbox.cif.g08.bks.cpg/sg12_86_cif.got.tgz:170575.got - 2010.06.03 13:09:07.
