data_PCOD9187714
_publ_section_title
;
Structure prediction by ZEFSAII (Michael W. Deem and Ramdas Pophale) SiO2 
 PCOD9187714
Probable space group: C 2/M
;
_chemical_formula_sum "Si O2"
_cell_formula_units_Z 34
_cell_length_a 8.453899
_cell_length_b 22.164468
_cell_length_c 8.061747
_cell_angle_alpha 90.000000
_cell_angle_beta 69.455322
_cell_angle_gamma 90.000000
_cell_volume 1414.504682
_symmetry_space_group_name_H-M "C 2/M"
_symmetry_group_IT_number 12
_symmetry_cell_setting 'monoclinic'
loop_
_space_group_symop_operation_xyz
x,y,z
-x,y,-z
-x,-y,-z
x,-y,z
1/2+x,1/2+y,z
1/2-x,1/2+y,-z
1/2-x,1/2-y,-z
1/2+x,1/2-y,z
loop_
_atom_site_type_symbol
_atom_site_label
_atom_site_fract_x
_atom_site_fract_y
_atom_site_fract_z
Si Si1 0.888526 0.432014 0.875018
Si Si2 0.308812 0.333891 0.206173
Si Si3 0.000000 0.000000 0.500000
Si Si4 0.717435 0.894107 0.590810
Si Si5 0.613466 0.288428 0.290480
O O1 0.821846 0.500000 0.886474
O O2 0.030680 0.419001 0.685129
O O3 0.738194 0.384664 0.910037
O O4 0.000000 0.427165 0.000000
O O5 0.249945 0.365334 0.399989
O O6 0.494978 0.311427 0.186092
O O7 0.198806 0.274468 0.215746
O O8 0.146821 0.053112 0.430936
O O9 0.753228 0.839453 0.705777
O O10 0.500000 0.279473 0.500000
#
# Coordination Sequence:
#
# PCOD9187714 Si02
#       5
#     8   8   2   8   8
#     4  11  25  41  58  85 124 161 195 240 297 356
#     4  11  21  37  63  91 117 156 201 245 298 347
#     4  12  20  36  64  98 122 148 200 248 292 344
#     4  11  21  38  64  91 122 151 198 246 293 350
#     4  10  19  35  60  93 122 148 193 253 300 342
#
# _framework density 24.036683
#
# number of rings (size 3 to 8) (size 9 to 14) (size 15 to 20)
#    0.000    1.176    4.706    6.353    1.647    0.941 
#    0.000    5.882    0.000    4.235    0.000    0.000 
#    0.000    0.000    0.000    0.000    0.000    0.000 
#
# Total GULP energy -94964.160534 kJ/mol
# GULP energy per Si atom -5586.127090 kJ/mol
# Density = 2.398197 g / cm^3
# Si number density = 24.036683 Si / 1000 Ang^3
#
#
#
# Elastic Constant Matrix: (Units=GPa)
#
#
# Indices 1 2 3 4 5 6 
#
# 1 97.8443 74.0314 -0.1322 0.0000 13.8802 0.0000
# 2 74.0314 237.9065 32.0388 0.0000 25.4411 0.0000
# 3 -0.1322 32.0388 47.3858 0.0000 11.6190 0.0000
# 4 0.0000 0.0000 0.0000 58.6121 0.0000 -18.4024
# 5 13.8802 25.4411 11.6190 0.0000 34.1610 0.0000
# 6 0.0000 0.0000 0.0000 -18.4024 0.0000 45.6096
#
#
#
# Elastic Compliance Matrix: (Units=1/GPa)
#
#
# Indices 1 2 3 4 5 6 
#
# 1 0.014213 -0.004567 0.004047 0.000000 -0.003750 0.000000
# 2 -0.004567 0.006313 -0.003909 0.000000 -0.001516 0.000000
# 3 0.004047 -0.003909 0.025581 0.000000 -0.007433 0.000000
# 4 0.000000 0.000000 0.000000 0.019536 0.000000 0.007882
# 5 -0.003750 -0.001516 -0.007433 0.000000 0.034455 0.000000
# 6 0.000000 0.000000 0.000000 0.007882 0.000000 0.025106
#
#
# Mechanical properties :
#
#
# Convention : Reuss Voigt Hill
#
# Bulk Modulus (GPa) = 26.84674 66.11251 46.47963
# Shear Modulus (GPa) = 34.13495 46.15645 40.14570
#
# Velocity S-wave (km/s) = 3.77253 4.38682 4.09122
# Velocity P-wave (km/s) = 5.49266 7.29544 6.45728
#
# Compressibility (1/GPa) = 0.03724847
#
# Stress axis : x y z
#
# Youngs Moduli (GPa) = 70.35732 158.40240 39.09221
#
# Poissons Ratio (x) = 0.72339 -0.15821
# Poissons Ratio (y) = 0.32131 0.15282
# Poissons Ratio (z) = -0.28473 0.61925
#
# Static dielectric constant tensor:
#      x y z
#    x 1.906610 0.000000 -0.007950 
#    y 0.000000 1.842570 0.000000 
#    z -0.007950 0.000000 2.025130 
# 
# From -- ./inp_files/37979.got.cif
#   From: 2010.05.17/outbox.cif.g08.bks.cpg/sg12_19_cif.got.tgz:37979.got - 2010.06.03 13:09:07.
