data_PCOD9187329
_publ_section_title
;
Structure prediction by ZEFSAII (Michael W. Deem and Ramdas Pophale) SiO2 
 PCOD9187329
Probable space group: C 2/M
;
_chemical_formula_sum "Si O2"
_cell_formula_units_Z 52
_cell_length_a 24.069077
_cell_length_b 7.371771
_cell_length_c 12.311221
_cell_angle_alpha 90.000000
_cell_angle_beta 90.060525
_cell_angle_gamma 90.000000
_cell_volume 2184.399946
_symmetry_space_group_name_H-M "C 2/M"
_symmetry_group_IT_number 12
_symmetry_cell_setting 'monoclinic'
loop_
_space_group_symop_operation_xyz
x,y,z
-x,y,-z
-x,-y,-z
x,-y,z
1/2+x,1/2+y,z
1/2-x,1/2+y,-z
1/2-x,1/2-y,-z
1/2+x,1/2-y,z
loop_
_atom_site_type_symbol
_atom_site_label
_atom_site_fract_x
_atom_site_fract_y
_atom_site_fract_z
Si Si1 0.966570 0.220405 0.107840
Si Si2 0.842421 0.780753 0.055998
Si Si3 0.775000 0.290903 0.263067
Si Si4 0.906762 0.500000 0.548705
Si Si5 0.043928 0.217866 0.306021
Si Si6 0.185063 0.799389 0.521325
Si Si7 0.160096 0.219554 0.191195
O O1 0.903025 0.277773 0.097313
O O2 0.995625 0.269986 0.220828
O O3 0.967786 0.000000 0.104611
O O4 0.000000 0.280267 0.000000
O O5 0.796670 0.718091 0.140548
O O6 0.841349 0.000000 0.054909
O O7 0.834950 0.717931 0.932695
O O8 0.773681 0.500000 0.297016
O O9 0.815639 0.196303 0.347136
O O10 0.712437 0.216138 0.260977
O O11 0.950775 0.340143 0.588877
O O12 0.859843 0.657567 0.518720
O O13 0.101256 0.266478 0.241956
O O14 0.042019 0.000000 0.323883
O O15 0.250000 0.750000 0.500000
O O16 0.173674 0.000000 0.476253
O O17 0.162873 0.000000 0.188877
#
# Coordination Sequence:
#
# PCOD9187329 Si02
#       7
#     8   8   8   4   8   8   8
#     4   9  16  33  62  90 124 168 218 262 317 378
#     4  10  19  35  58  90 125 172 213 253 312 385
#     4  11  22  38  56  89 129 170 213 254 315 389
#     4  12  24  40  61  93 126 158 221 264 326 374
#     4  10  20  38  63  94 127 168 211 270 317 371
#     4  12  24  43  66  92 125 166 212 271 326 381
#     4   9  18  33  58  85 127 170 208 246 306 381
#
# _framework density 23.805164999999999
#
# number of rings (size 3 to 8) (size 9 to 14) (size 15 to 20)
#    0.000    1.692    3.077    2.308    0.000    1.231 
#    4.154    0.385    0.000    1.846    0.000    4.308 
#    0.000    0.000    0.000    0.000    0.000    0.000 
#
# Total GULP energy -144977.243177 kJ/mol
# GULP energy per Si atom -5576.047814 kJ/mol
# Density = 2.375098 g / cm^3
# Si number density = 23.805165 Si / 1000 Ang^3
#
#
#
# Elastic Constant Matrix: (Units=GPa)
#
#
# Indices 1 2 3 4 5 6 
#
# 1 67.9255 12.3345 28.8872 0.0000 32.6157 0.0000
# 2 12.3345 147.9421 20.2015 0.0000 19.7898 0.0000
# 3 28.8872 20.2015 85.3967 0.0000 25.2563 0.0000
# 4 0.0000 0.0000 0.0000 308.6247 0.0000 184.6833
# 5 32.6157 19.7898 25.2563 0.0000 49.9431 0.0000
# 6 0.0000 0.0000 0.0000 184.6833 0.0000 121.3784
#
#
#
# Elastic Compliance Matrix: (Units=1/GPa)
#
#
# Indices 1 2 3 4 5 6 
#
# 1 0.022486 0.000378 -0.003890 0.000000 -0.012867 0.000000
# 2 0.000378 0.007218 -0.001078 0.000000 -0.002562 0.000000
# 3 -0.003890 -0.001078 0.014585 0.000000 -0.004408 0.000000
# 4 0.000000 0.000000 0.000000 0.036206 0.000000 -0.055089
# 5 -0.012867 -0.002562 -0.004408 0.000000 0.031670 0.000000
# 6 0.000000 0.000000 0.000000 -0.055089 0.000000 0.092060
#
#
# Mechanical properties :
#
#
# Convention : Reuss Voigt Hill
#
# Bulk Modulus (GPa) = 28.48327 47.12339 37.80333
# Shear Modulus (GPa) = 22.21164 111.97864 67.09514
#
# Velocity S-wave (km/s) = 3.05792 6.86599 5.31473
# Velocity P-wave (km/s) = 4.94560 9.09363 7.31960
#
# Compressibility (1/GPa) = 0.03510833
#
# Stress axis : x y z
#
# Youngs Moduli (GPa) = 44.47146 138.54770 68.56559
#
# Poissons Ratio (x) = -0.05232 0.26674
# Poissons Ratio (y) = -0.01680 0.07388
# Poissons Ratio (z) = 0.17301 0.14929
#
# Static dielectric constant tensor:
#      x y z
#    x 1.868130 0.000000 -0.025840 
#    y 0.000000 1.938160 0.000000 
#    z -0.025840 0.000000 1.959860 
# 
# From -- ./inp_files/180055.got.cif
#   From: 2010.05.17/outbox.cif.g08.bks.cpg/sg12_91_cif.got.tgz:180055.got - 2010.06.03 13:09:07.
