data_PCOD9187039
_publ_section_title
;
Structure prediction by ZEFSAII (Michael W. Deem and Ramdas Pophale) SiO2 
 PCOD9187039
Probable space group: C 2/M
;
_chemical_formula_sum "Si O2"
_cell_formula_units_Z 64
_cell_length_a 30.936613
_cell_length_b 7.670633
_cell_length_c 22.969915
_cell_angle_alpha 90.000000
_cell_angle_beta 147.751327
_cell_angle_gamma 90.000000
_cell_volume 2908.540063
_symmetry_space_group_name_H-M "C 2/M"
_symmetry_group_IT_number 12
_symmetry_cell_setting 'monoclinic'
loop_
_space_group_symop_operation_xyz
x,y,z
-x,y,-z
-x,-y,-z
x,-y,z
1/2+x,1/2+y,z
1/2-x,1/2+y,-z
1/2-x,1/2-y,-z
1/2+x,1/2-y,z
loop_
_atom_site_type_symbol
_atom_site_label
_atom_site_fract_x
_atom_site_fract_y
_atom_site_fract_z
Si Si1 0.380932 0.714023 0.493500
Si Si2 0.413618 0.699600 0.881990
Si Si3 0.959645 0.299862 0.811064
Si Si4 0.837145 0.207764 0.573257
Si Si5 0.244913 0.204369 0.745246
Si Si6 0.439708 0.293536 0.280078
Si Si7 0.896565 0.711179 0.099820
Si Si8 0.771564 0.785865 0.141656
O O1 0.380720 0.500000 0.492052
O O2 0.345422 0.764841 0.515942
O O3 0.323080 0.777256 0.375911
O O4 0.474277 0.773919 0.598684
O O5 0.412320 0.500000 0.900798
O O6 0.416599 0.706242 0.815519
O O7 0.333249 0.781977 0.816857
O O8 0.500000 0.777412 0.000000
O O9 0.969850 0.500000 0.841108
O O10 0.903708 0.292310 0.690556
O O11 0.046185 0.229038 0.888226
O O12 0.750000 0.250000 0.500000
O O13 0.850495 0.000000 0.590113
O O14 0.242530 0.273588 0.808146
O O15 0.226144 0.000000 0.729715
O O16 0.440650 0.500000 0.292725
O O17 0.431722 0.269240 0.201642
O O18 0.357843 0.223703 0.215949
O O19 0.899225 0.500000 0.102228
O O20 0.804586 0.768766 0.984531
O O21 0.771272 0.000000 0.140037
#
# Coordination Sequence:
#
# PCOD9187039 Si02
#       8
#     8   8   8   8   8   8   8   8
#     4   9  19  34  55  82 113 147 188 234 281 337
#     4  11  24  40  58  84 116 150 191 238 289 348
#     4  11  22  36  57  83 112 150 192 234 288 346
#     4  11  21  35  54  81 115 149 191 238 286 343
#     4  10  20  38  60  83 114 152 192 237 285 342
#     4  10  19  35  57  83 114 149 188 235 292 343
#     4  10  20  35  54  83 116 146 189 238 287 348
#     4   9  19  34  57  85 112 146 191 240 288 342
#
# _framework density 22.004165
#
# number of rings (size 3 to 8) (size 9 to 14) (size 15 to 20)
#    0.000    1.875    1.250    3.000    0.000    4.000 
#    0.000    5.000    0.000    0.000    0.000    1.750 
#    0.000    0.000    0.000    0.000    0.000    0.000 
#
# Total GULP energy -178831.472381 kJ/mol
# GULP energy per Si atom -5588.483512 kJ/mol
# Density = 2.195408 g / cm^3
# Si number density = 22.004165 Si / 1000 Ang^3
#
#
#
# Elastic Constant Matrix: (Units=GPa)
#
#
# Indices 1 2 3 4 5 6 
#
# 1 82.4149 -9.8677 26.5876 0.0000 18.3326 0.0000
# 2 -9.8677 38.3241 -5.2896 0.0000 0.6240 0.0000
# 3 26.5876 -5.2896 131.9039 0.0000 12.2249 0.0000
# 4 0.0000 0.0000 0.0000 13.4417 0.0000 0.1045
# 5 18.3326 0.6240 12.2249 0.0000 42.1662 0.0000
# 6 0.0000 0.0000 0.0000 0.1045 0.0000 -0.4682
#
#
#
# Elastic Compliance Matrix: (Units=1/GPa)
#
#
# Indices 1 2 3 4 5 6 
#
# 1 0.014560 0.003530 -0.002263 0.000000 -0.005727 0.000000
# 2 0.003530 0.027115 0.000571 0.000000 -0.002101 -0.000001
# 3 -0.002263 0.000571 0.008190 0.000000 -0.001399 0.000000
# 4 0.000000 0.000000 0.000000 0.074267 0.000000 0.016570
# 5 -0.005727 -0.002101 -0.001399 0.000000 0.026642 0.000000
# 6 0.000000 -0.000001 0.000000 0.016570 0.000000 -2.132004
#
#
# Mechanical properties :
#
#
# Convention : Reuss Voigt Hill
#
# Bulk Modulus (GPa) = 18.67723 30.61148 24.64436
# Shear Modulus (GPa) = -2.54187 27.10878 12.28346
#
# Velocity S-wave (km/s) = -1.07596 3.51377 2.36526
# Velocity P-wave (km/s) = 2.63873 5.51398 4.32243
#
# Compressibility (1/GPa) = 0.05354113
#
# Stress axis : x y z
#
# Youngs Moduli (GPa) = 68.68065 36.87979 122.10169
#
# Poissons Ratio (x) = -0.13018 0.27626
# Poissons Ratio (y) = -0.24244 -0.06967
# Poissons Ratio (z) = 0.15539 -0.02104
#
# Static dielectric constant tensor:
#      x y z
#    x 1.770460 0.000000 0.010090 
#    y 0.000000 1.856880 0.000000 
#    z 0.010090 0.000000 1.799000 
# 
# From -- ./inp_files/353461.got.cif
#   From: 2010.05.17/outbox.cif.g08.bks.cpg/sg12_177_cif.got.tgz:353461.got - 2010.06.03 13:09:07.
