data_PCOD9187088
_publ_section_title
;
Structure prediction by ZEFSAII (Michael W. Deem and Ramdas Pophale) SiO2 
 PCOD9187088
Probable space group: C 2/M
;
_chemical_formula_sum "Si O2"
_cell_formula_units_Z 64
_cell_length_a 15.859695
_cell_length_b 8.193610
_cell_length_c 34.164368
_cell_angle_alpha 90.000000
_cell_angle_beta 46.204326
_cell_angle_gamma 90.000000
_cell_volume 3204.556259
_symmetry_space_group_name_H-M "C 2/M"
_symmetry_group_IT_number 12
_symmetry_cell_setting 'monoclinic'
loop_
_space_group_symop_operation_xyz
x,y,z
-x,y,-z
-x,-y,-z
x,-y,z
1/2+x,1/2+y,z
1/2-x,1/2+y,-z
1/2-x,1/2-y,-z
1/2+x,1/2-y,z
loop_
_atom_site_type_symbol
_atom_site_label
_atom_site_fract_x
_atom_site_fract_y
_atom_site_fract_z
Si Si1 0.881355 0.696998 0.059778
Si Si2 0.190206 0.304834 0.059707
Si Si3 0.544812 0.192472 0.443186
Si Si4 0.637737 0.689606 0.559493
Si Si5 0.467581 0.301768 0.326535
Si Si6 0.723109 0.805721 0.666548
Si Si7 0.268734 0.300858 0.740697
Si Si8 0.923823 0.300231 0.134996
O O1 0.883750 0.500000 0.059115
O O2 0.769135 0.748378 0.070721
O O3 0.887050 0.751669 0.103051
O O4 0.000000 0.753435 0.000000
O O5 0.187737 0.500000 0.060785
O O6 0.055699 0.246646 0.102630
O O7 0.250000 0.250000 0.000000
O O8 0.500000 0.247811 0.500000
O O9 0.473989 0.283348 0.432135
O O10 0.680794 0.223390 0.392347
O O11 0.519244 0.000000 0.448174
O O12 0.657822 0.500000 0.559617
O O13 0.750000 0.750000 0.500000
O O14 0.605653 0.760873 0.612179
O O15 0.465622 0.500000 0.327103
O O16 0.403894 0.238244 0.308595
O O17 0.601535 0.250157 0.288320
O O18 0.743565 0.748957 0.704355
O O19 0.740948 0.000000 0.659351
O O20 0.267654 0.500000 0.740924
O O21 0.169820 0.246345 0.802721
O O22 0.924352 0.500000 0.134791
#
# Coordination Sequence:
#
# PCOD9187088 Si02
#       8
#     8   8   8   8   8   8   8   8
#     4  10  19  35  57  85 117 154 196 237 286 346
#     4  11  21  35  57  87 119 156 196 241 293 345
#     4  11  23  38  57  84 117 152 191 240 294 349
#     4  11  22  37  57  85 117 151 190 238 293 352
#     4  10  21  39  60  83 114 151 191 235 287 343
#     4  11  22  38  61  88 115 151 195 240 290 347
#     4   9  19  39  61  82 114 157 197 235 286 348
#     4   9  19  36  59  83 115 158 196 233 288 351
#
# _framework density 19.971564999999998
#
# number of rings (size 3 to 8) (size 9 to 14) (size 15 to 20)
#    0.000    1.750    2.500    2.250    0.000    6.250 
#    0.000    0.000    0.000    5.250    0.000    0.000 
#    0.000    0.000    0.000    0.000    0.000    0.000 
#
# Total GULP energy -178764.236819 kJ/mol
# GULP energy per Si atom -5586.382401 kJ/mol
# Density = 1.992611 g / cm^3
# Si number density = 19.971565 Si / 1000 Ang^3
#
#
#
# Elastic Constant Matrix: (Units=GPa)
#
#
# Indices 1 2 3 4 5 6 
#
# 1 174.9223 0.7197 81.7358 0.0000 -5.0891 0.0004
# 2 0.7197 10.4652 13.1213 -0.0004 -1.7398 0.0019
# 3 81.7358 13.1213 150.0311 0.0003 -5.8329 0.0004
# 4 0.0000 -0.0004 0.0003 6.4848 -0.0008 -1.4284
# 5 -5.0891 -1.7398 -5.8329 -0.0008 29.2495 -0.0005
# 6 0.0004 0.0019 0.0004 -1.4284 -0.0005 33.0756
#
#
#
# Elastic Compliance Matrix: (Units=1/GPa)
#
#
# Indices 1 2 3 4 5 6 
#
# 1 0.007956 0.005589 -0.004794 0.000001 0.000761 0.000000
# 2 0.005589 0.111853 -0.012629 0.000008 0.005107 -0.000006
# 3 -0.004794 -0.012629 0.010400 -0.000001 0.000489 0.000001
# 4 0.000001 0.000008 -0.000001 0.155689 0.000005 0.006723
# 5 0.000761 0.005107 0.000489 0.000005 0.034722 0.000000
# 6 0.000000 -0.000006 0.000001 0.006723 0.000000 0.030524
#
#
# Mechanical properties :
#
#
# Convention : Reuss Voigt Hill
#
# Bulk Modulus (GPa) = 9.38583 58.50801 33.94692
# Shear Modulus (GPa) = 12.18547 29.75144 20.96845
#
# Velocity S-wave (km/s) = 2.47278 3.86384 3.24375
# Velocity P-wave (km/s) = 3.58646 7.01890 5.57349
#
# Compressibility (1/GPa) = 0.10654353
#
# Stress axis : x y z
#
# Youngs Moduli (GPa) = 125.69388 8.94028 96.15146
#
# Poissons Ratio (x) = -0.04997 0.46091
# Poissons Ratio (y) = -0.70256 1.21429
# Poissons Ratio (z) = 0.60252 0.11291
#
# Static dielectric constant tensor:
#      x y z
#    x 1.699240 0.000000 -0.006060 
#    y 0.000000 1.727010 0.000000 
#    z -0.006060 0.000000 1.704340 
# 
# From -- ./inp_files/375513.got.cif
#   From: 2010.05.17/outbox.cif.g08.bks.cpg/sg12_188_cif.got.tgz:375513.got - 2010.06.03 13:09:07.
