data_PCOD9187951
_publ_section_title
;
Structure prediction by ZEFSAII (Michael W. Deem and Ramdas Pophale) SiO2 
 PCOD9187951
Probable space group: C 2/M
;
_chemical_formula_sum "Si O2"
_cell_formula_units_Z 64
_cell_length_a 14.210758
_cell_length_b 17.438514
_cell_length_c 20.452425
_cell_angle_alpha 90.000000
_cell_angle_beta 37.071339
_cell_angle_gamma 90.000000
_cell_volume 3055.281355
_symmetry_space_group_name_H-M "C 2/M"
_symmetry_group_IT_number 12
_symmetry_cell_setting 'monoclinic'
loop_
_space_group_symop_operation_xyz
x,y,z
-x,y,-z
-x,-y,-z
x,-y,z
1/2+x,1/2+y,z
1/2-x,1/2+y,-z
1/2-x,1/2-y,-z
1/2+x,1/2-y,z
loop_
_atom_site_type_symbol
_atom_site_label
_atom_site_fract_x
_atom_site_fract_y
_atom_site_fract_z
Si Si1 0.359221 0.407328 0.394465
Si Si2 0.221116 0.410842 0.941667
Si Si3 0.470665 0.171011 0.148692
Si Si4 0.010698 0.588501 0.606116
Si Si5 0.642311 0.159314 0.191034
Si Si6 0.164838 0.176857 0.248404
Si Si7 0.200903 0.908169 0.721242
Si Si8 0.074707 0.838204 0.055591
O O1 0.374719 0.500000 0.394377
O O2 0.185728 0.380320 0.510717
O O3 0.498715 0.362990 0.352199
O O4 0.367557 0.389808 0.311998
O O5 0.263089 0.500000 0.916469
O O6 0.046752 0.398251 0.065470
O O7 0.252970 0.371778 0.855044
O O8 0.325639 0.367372 0.937626
O O9 0.531707 0.167730 0.188810
O O10 0.286097 0.176214 0.240860
O O11 0.545356 0.247674 0.075535
O O12 0.032724 0.500000 0.574361
O O13 0.929345 0.596083 0.721566
O O14 0.878285 0.620820 0.630977
O O15 0.643091 0.238174 0.231445
O O16 0.815894 0.143903 0.066661
O O17 0.092066 0.876485 0.838981
O O18 0.204110 0.000000 0.724406
#
# Coordination Sequence:
#
# PCOD9187951 Si02
#       8
#     8   8   8   8   8   8   8   8
#     4  10  21  40  62  87 121 155 205 268 311 351
#     4  11  21  36  59  89 124 159 202 254 302 354
#     4  11  23  38  58  88 125 163 201 244 308 370
#     4  10  23  40  60  86 119 166 209 251 309 367
#     4  11  23  40  59  85 127 163 201 247 305 375
#     4  12  22  37  63  89 117 161 208 254 304 363
#     4  10  19  35  63  93 119 155 208 260 306 359
#     4  11  20  39  60  90 125 163 196 244 314 367
#
# _framework density 20.947334000000001
#
# number of rings (size 3 to 8) (size 9 to 14) (size 15 to 20)
#    0.000    1.250    3.750    3.000    0.000    7.500 
#    0.000    1.875    0.000    1.500    0.000    0.000 
#    0.000    0.000    0.000    0.000    0.000    0.000 
#
# Total GULP energy -178784.444125 kJ/mol
# GULP energy per Si atom -5587.013879 kJ/mol
# Density = 2.089966 g / cm^3
# Si number density = 20.947334 Si / 1000 Ang^3
#
#
#
# Elastic Constant Matrix: (Units=GPa)
#
#
# Indices 1 2 3 4 5 6 
#
# 1 61.6867 3.1946 21.2058 0.0002 -25.4709 0.0000
# 2 3.1946 45.2526 17.8250 0.0000 -10.6912 0.0000
# 3 21.2058 17.8250 82.2935 0.0011 -22.4483 0.0000
# 4 0.0002 0.0000 0.0011 46.8476 -0.0003 -4.8401
# 5 -25.4709 -10.6912 -22.4483 -0.0003 36.8575 0.0000
# 6 0.0000 0.0000 0.0000 -4.8401 0.0000 18.7663
#
#
#
# Elastic Compliance Matrix: (Units=1/GPa)
#
#
# Indices 1 2 3 4 5 6 
#
# 1 0.023278 0.002965 -0.002420 0.000000 0.015473 0.000000
# 2 0.002965 0.025200 -0.004401 0.000000 0.006679 0.000000
# 3 -0.002420 -0.004401 0.015499 0.000000 0.006491 0.000000
# 4 0.000000 0.000000 0.000000 0.021930 0.000000 0.005656
# 5 0.015473 0.006679 0.006491 0.000000 0.043715 0.000000
# 6 0.000000 0.000000 0.000000 0.005656 0.000000 0.054746
#
#
# Mechanical properties :
#
#
# Convention : Reuss Voigt Hill
#
# Bulk Modulus (GPa) = 17.77242 30.40930 24.09086
# Shear Modulus (GPa) = 23.71527 30.29476 27.00502
#
# Velocity S-wave (km/s) = 3.36838 3.80707 3.59442
# Velocity P-wave (km/s) = 4.86114 5.82010 5.36210
#
# Compressibility (1/GPa) = 0.05626695
#
# Stress axis : x y z
#
# Youngs Moduli (GPa) = 42.95866 39.68224 64.52011
#
# Poissons Ratio (x) = -0.11768 0.15614
# Poissons Ratio (y) = -0.12739 0.28393
# Poissons Ratio (z) = 0.10396 0.17463
#
# Static dielectric constant tensor:
#      x y z
#    x 1.780810 0.000000 -0.046910 
#    y 0.000000 1.733310 0.000000 
#    z -0.046910 0.000000 1.796750 
# 
# From -- ./inp_files/340830.got.cif
#   From: 2010.05.17/outbox.cif.g08.bks.cpg/sg12_171_cif.got.tgz:340830.got - 2010.06.03 13:09:07.
