data_PCOD9187634
_publ_section_title
;
Structure prediction by ZEFSAII (Michael W. Deem and Ramdas Pophale) SiO2 
 PCOD9187634
Probable space group: C 2/M
;
_chemical_formula_sum "Si O2"
_cell_formula_units_Z 64
_cell_length_a 15.974290
_cell_length_b 8.378104
_cell_length_c 25.780795
_cell_angle_alpha 90.000000
_cell_angle_beta 71.953025
_cell_angle_gamma 90.000000
_cell_volume 3280.606106
_symmetry_space_group_name_H-M "C 2/M"
_symmetry_group_IT_number 12
_symmetry_cell_setting 'monoclinic'
loop_
_space_group_symop_operation_xyz
x,y,z
-x,y,-z
-x,-y,-z
x,-y,z
1/2+x,1/2+y,z
1/2-x,1/2+y,-z
1/2-x,1/2-y,-z
1/2+x,1/2-y,z
loop_
_atom_site_type_symbol
_atom_site_label
_atom_site_fract_x
_atom_site_fract_y
_atom_site_fract_z
Si Si1 0.225805 0.809551 0.367498
Si Si2 0.157958 0.807304 0.866771
Si Si3 0.593295 0.690449 0.632505
Si Si4 0.968589 0.804776 0.562815
Si Si5 0.221754 0.307221 0.251796
Si Si6 0.473548 0.192779 0.748207
Si Si7 0.975274 0.307304 0.866773
Si Si8 0.780941 0.306954 0.938124
O O1 0.307016 0.749999 0.385978
O O2 0.130340 0.751287 0.404923
O O3 0.239852 0.755388 0.305580
O O4 0.224816 0.000000 0.368844
O O5 0.208414 0.753122 0.804829
O O6 0.214011 0.753397 0.905766
O O7 0.057971 0.749999 0.884065
O O8 0.158872 0.000000 0.866514
O O9 0.593651 0.500000 0.631159
O O10 0.535251 0.748714 0.595081
O O11 0.545430 0.744613 0.694424
O O12 0.000000 0.754037 0.500000
O O13 0.968299 0.000000 0.563396
O O14 0.223678 0.500000 0.252679
O O15 0.123668 0.258556 0.252664
O O16 0.486755 0.246879 0.804832
O O17 0.476356 0.000000 0.747323
O O18 0.974616 0.500000 0.866516
O O19 0.880229 0.253396 0.905770
O O20 0.781380 0.500000 0.937247
O O21 0.750000 0.250000 0.000000
#
# Coordination Sequence:
#
# PCOD9187634 Si02
#       8
#     8   8   8   8   8   8   8   8
#     4  11  22  37  58  86 116 149 188 232 282 336
#     4  10  21  38  59  84 114 149 185 227 277 333
#     4  11  22  37  58  86 116 149 188 232 282 336
#     4   9  20  39  59  79 110 151 192 235 282 331
#     4  10  19  35  60  86 116 151 184 227 284 338
#     4  10  19  35  60  86 116 151 184 227 284 338
#     4  10  21  38  59  84 114 149 185 227 277 333
#     4  10  22  41  60  80 111 148 189 232 279 327
#
# _framework density 19.508590000000002
#
# number of rings (size 3 to 8) (size 9 to 14) (size 15 to 20)
#    0.000    1.875    2.500    1.500    0.000    5.000 
#    0.000    2.500    0.000    5.250    0.000    0.000 
#    0.000    0.000    0.000    0.000    0.000    0.000 
#
# Total GULP energy -178784.250743 kJ/mol
# GULP energy per Si atom -5587.007836 kJ/mol
# Density = 1.946419 g / cm^3
# Si number density = 19.508590 Si / 1000 Ang^3
#
#
#
# Elastic Constant Matrix: (Units=GPa)
#
#
# Indices 1 2 3 4 5 6 
#
# 1 207.4001 22.4378 96.7846 0.0000 -3.9203 0.0000
# 2 22.4378 9.7804 16.0278 0.0000 -0.2328 0.0000
# 3 96.7846 16.0278 161.4688 0.0000 2.2345 0.0000
# 4 0.0000 0.0000 0.0000 17.5731 0.0000 -0.3459
# 5 -3.9203 -0.2328 2.2345 0.0000 1.1911 0.0000
# 6 0.0000 0.0000 0.0000 -0.3459 0.0000 27.1966
#
#
#
# Elastic Compliance Matrix: (Units=1/GPa)
#
#
# Indices 1 2 3 4 5 6 
#
# 1 0.009004 -0.012104 -0.004695 0.000000 0.036074 0.000000
# 2 -0.012104 0.141096 -0.006756 0.000000 0.000418 0.000000
# 3 -0.004695 -0.006756 0.010174 0.000000 -0.035858 0.000000
# 4 0.000000 0.000000 0.000000 0.056919 -0.000001 0.000724
# 5 0.036074 0.000418 -0.035858 -0.000001 1.025619 0.000000
# 6 0.000000 0.000000 0.000000 0.000724 0.000000 0.036778
#
#
# Mechanical properties :
#
#
# Convention : Reuss Voigt Hill
#
# Bulk Modulus (GPa) = 8.83671 72.12773 40.48222
# Shear Modulus (GPa) = 3.66456 25.41877 14.54166
#
# Velocity S-wave (km/s) = 1.37205 3.61356 2.73316
# Velocity P-wave (km/s) = 2.65509 7.37990 5.54583
#
# Compressibility (1/GPa) = 0.11316427
#
# Stress axis : x y z
#
# Youngs Moduli (GPa) = 111.06519 7.08737 98.29015
#
# Poissons Ratio (x) = 0.08578 0.46143
# Poissons Ratio (y) = 1.34432 0.66407
# Poissons Ratio (z) = 0.52141 0.04788
#
# Static dielectric constant tensor:
#      x y z
#    x 1.681220 0.000000 -0.000990 
#    y 0.000000 1.679010 0.000000 
#    z -0.000990 0.000000 1.653660 
# 
# From -- ./inp_files/359786.got.cif
#   From: 2010.05.17/outbox.cif.g08.bks.cpg/sg12_180_cif.got.tgz:359786.got - 2010.06.03 13:09:07.
