data_PCOD9187871
_publ_section_title
;
Structure prediction by ZEFSAII (Michael W. Deem and Ramdas Pophale) SiO2 
 PCOD9187871
Probable space group: C 2/M
;
_chemical_formula_sum "Si O2"
_cell_formula_units_Z 64
_cell_length_a 14.774563
_cell_length_b 8.123661
_cell_length_c 27.760502
_cell_angle_alpha 90.000000
_cell_angle_beta 128.376882
_cell_angle_gamma 90.000000
_cell_volume 2612.033856
_symmetry_space_group_name_H-M "C 2/M"
_symmetry_group_IT_number 12
_symmetry_cell_setting 'monoclinic'
loop_
_space_group_symop_operation_xyz
x,y,z
-x,y,-z
-x,-y,-z
x,-y,z
1/2+x,1/2+y,z
1/2-x,1/2+y,-z
1/2-x,1/2-y,-z
1/2+x,1/2-y,z
loop_
_atom_site_type_symbol
_atom_site_label
_atom_site_fract_x
_atom_site_fract_y
_atom_site_fract_z
Si Si1 0.367829 0.298659 0.099616
Si Si2 0.126992 0.307768 0.042256
Si Si3 0.620154 0.813746 0.452103
Si Si4 0.845283 0.187694 0.636456
Si Si5 0.620074 0.684094 0.601345
Si Si6 0.549561 0.302851 0.767390
Si Si7 0.601137 0.301459 0.134871
Si Si8 0.204198 0.691797 0.730014
O O1 0.364346 0.500000 0.097782
O O2 0.237138 0.235813 0.051006
O O3 0.414332 0.248011 0.167683
O O4 0.467572 0.249175 0.095695
O O5 0.115996 0.500000 0.025387
O O6 0.157965 0.291908 0.109096
O O7 0.000000 0.227887 0.000000
O O8 0.750000 0.750000 0.500000
O O9 0.604431 0.799191 0.389270
O O10 0.515683 0.721735 0.443745
O O11 0.614075 0.000000 0.466006
O O12 0.709407 0.207532 0.600407
O O13 0.915897 0.222456 0.708564
O O14 0.870018 0.000000 0.629969
O O15 0.640762 0.500000 0.591509
O O16 0.660066 0.706079 0.670119
O O17 0.569647 0.500000 0.771815
O O18 0.622952 0.218859 0.749532
O O19 0.607707 0.500000 0.129548
O O20 0.669936 0.267739 0.206738
O O21 0.202913 0.500000 0.714867
#
# Coordination Sequence:
#
# PCOD9187871 Si02
#       8
#     8   8   8   8   8   8   8   8
#     4   9  18  35  57  81 115 156 192 235 299 364
#     4  10  21  37  57  81 111 151 200 251 301 359
#     4  12  26  46  69  95 127 166 213 263 310 365
#     4  11  23  41  66  97 128 163 208 256 310 373
#     4  12  25  42  65  95 129 169 209 251 310 370
#     4  10  19  35  62  88 119 161 198 237 303 376
#     4  10  21  37  58  84 114 154 196 242 299 363
#     4  11  21  35  59  90 123 155 198 252 306 365
#
# _framework density 24.50198
#
# number of rings (size 3 to 8) (size 9 to 14) (size 15 to 20)
#    0.000    1.375    2.500    3.750    0.000    4.250 
#    0.000    3.750    0.000    0.000    0.000    0.000 
#    0.000    0.000    0.000    0.000    0.000    0.000 
#
# Total GULP energy -179035.801691 kJ/mol
# GULP energy per Si atom -5594.868803 kJ/mol
# Density = 2.444621 g / cm^3
# Si number density = 24.501980 Si / 1000 Ang^3
#
#
#
# Elastic Constant Matrix: (Units=GPa)
#
#
# Indices 1 2 3 4 5 6 
#
# 1 128.2058 -6.5686 17.5249 0.0000 24.7942 0.0000
# 2 -6.5686 40.4563 8.0484 0.0000 7.8397 0.0000
# 3 17.5249 8.0484 72.9572 0.0000 22.7320 0.0000
# 4 0.0000 0.0000 0.0000 19.1144 0.0000 -1.4946
# 5 24.7942 7.8397 22.7320 0.0000 49.6454 0.0000
# 6 0.0000 0.0000 0.0000 -1.4946 0.0000 25.7247
#
#
#
# Elastic Compliance Matrix: (Units=1/GPa)
#
#
# Indices 1 2 3 4 5 6 
#
# 1 0.008917 0.002504 -0.001058 0.000000 -0.004364 0.000000
# 2 0.002504 0.026410 -0.002130 0.000000 -0.004446 0.000000
# 3 -0.001058 -0.002130 0.016244 0.000000 -0.006573 0.000000
# 4 0.000000 0.000000 0.000000 0.052555 0.000000 0.003053
# 5 -0.004364 -0.004446 -0.006573 0.000000 0.026034 0.000000
# 6 0.000000 0.000000 0.000000 0.003053 0.000000 0.039051
#
#
# Mechanical properties :
#
#
# Convention : Reuss Voigt Hill
#
# Bulk Modulus (GPa) = 19.91932 31.06984 25.49458
# Shear Modulus (GPa) = 26.69332 33.73788 30.21560
#
# Velocity S-wave (km/s) = 3.30424 3.71475 3.51549
# Velocity P-wave (km/s) = 4.76494 5.57738 5.18709
#
# Compressibility (1/GPa) = 0.05020252
#
# Stress axis : x y z
#
# Youngs Moduli (GPa) = 112.14638 37.86475 61.56177
#
# Poissons Ratio (x) = -0.09481 0.06515
# Poissons Ratio (y) = -0.28082 0.13111
# Poissons Ratio (z) = 0.11869 0.08064
#
# Static dielectric constant tensor:
#      x y z
#    x -0.438610 0.000000 -0.222220 
#    y 0.000000 1.841220 0.000000 
#    z -0.222220 0.000000 2.010510 
# 
# From -- ./inp_files/375616.got.cif
#   From: 2010.05.17/outbox.cif.g08.bks.cpg/sg12_188_cif.got.tgz:375616.got - 2010.06.03 13:09:07.
