data_PCOD9187747
_publ_section_title
;
Structure prediction by ZEFSAII (Michael W. Deem and Ramdas Pophale) SiO2 
 PCOD9187747
Probable space group: C 2/M
;
_chemical_formula_sum "Si O2"
_cell_formula_units_Z 60
_cell_length_a 9.745521
_cell_length_b 15.244144
_cell_length_c 21.150207
_cell_angle_alpha 90.000000
_cell_angle_beta 118.216805
_cell_angle_gamma 90.000000
_cell_volume 2768.725326
_symmetry_space_group_name_H-M "C 2/M"
_symmetry_group_IT_number 12
_symmetry_cell_setting 'monoclinic'
loop_
_space_group_symop_operation_xyz
x,y,z
-x,y,-z
-x,-y,-z
x,-y,z
1/2+x,1/2+y,z
1/2-x,1/2+y,-z
1/2-x,1/2-y,-z
1/2+x,1/2-y,z
loop_
_atom_site_type_symbol
_atom_site_label
_atom_site_fract_x
_atom_site_fract_y
_atom_site_fract_z
Si Si1 0.418947 0.101048 0.680673
Si Si2 0.399951 0.599543 0.698309
Si Si3 0.500000 0.251950 0.000000
Si Si4 0.057060 0.607013 0.580822
Si Si5 0.231491 0.869035 0.198505
Si Si6 0.785427 0.902515 0.952006
Si Si7 0.917908 0.403683 0.899395
Si Si8 0.229042 0.827567 0.749849
O O1 0.448261 0.133701 0.615749
O O2 0.591523 0.100506 0.749452
O O3 0.305606 0.158742 0.698439
O O4 0.363062 0.000000 0.667359
O O5 0.426108 0.500000 0.681310
O O6 0.234468 0.631873 0.635405
O O7 0.378573 0.596282 0.769627
O O8 0.545583 0.657426 0.710740
O O9 0.621556 0.321904 0.996443
O O10 0.602132 0.182801 0.062525
O O11 0.055789 0.500000 0.581544
O O12 0.000000 0.636552 0.500000
O O13 0.188047 0.892786 0.117838
O O14 0.232292 0.765705 0.211711
O O15 0.600261 0.897304 0.921258
O O16 0.833655 0.000000 0.983732
O O17 0.888693 0.500000 0.922407
O O18 0.812193 0.396286 0.814685
#
# Coordination Sequence:
#
# PCOD9187747 Si02
#       8
#     8   8   4   8   8   8   8   8
#     4  10  19  35  61  86 113 158 206 246 302 369
#     4  10  21  35  57  90 121 151 200 258 301 351
#     4  12  24  42  62  90 118 156 204 256 316 370
#     4   8  16  34  60  89 123 163 203 246 300 366
#     4  11  21  37  59  84 117 156 202 248 308 369
#     4  11  23  42  64  87 116 156 207 258 307 372
#     4  11  24  42  62  84 121 163 203 251 314 381
#     4  12  22  36  58  89 122 154 203 258 312 356
#
# _framework density 21.670622000000002
#
# number of rings (size 3 to 8) (size 9 to 14) (size 15 to 20)
#    0.000    1.467    2.667    4.800    0.000    0.000 
#    2.400    0.667    0.000   16.000    0.000    0.000 
#    0.000    0.000    0.000    0.000    0.000    0.133 
#
# Total GULP energy -167615.458667 kJ/mol
# GULP energy per Si atom -5587.181956 kJ/mol
# Density = 2.162130 g / cm^3
# Si number density = 21.670622 Si / 1000 Ang^3
#
#
#
# Elastic Constant Matrix: (Units=GPa)
#
#
# Indices 1 2 3 4 5 6 
#
# 1 106.0734 23.5295 22.0436 0.0000 -8.3462 0.0000
# 2 23.5295 139.3689 13.5703 0.0000 -3.7139 0.0000
# 3 22.0436 13.5703 79.3336 0.0000 -15.4788 0.0000
# 4 0.0000 0.0000 0.0000 8.2594 0.0000 -13.9054
# 5 -8.3462 -3.7139 -15.4788 0.0000 20.0064 0.0000
# 6 0.0000 0.0000 0.0000 -13.9054 0.0000 13.2234
#
#
#
# Elastic Compliance Matrix: (Units=1/GPa)
#
#
# Indices 1 2 3 4 5 6 
#
# 1 0.010394 -0.001480 -0.002170 0.000000 0.002382 0.000000
# 2 -0.001480 0.007511 -0.000850 0.000000 0.000119 0.000000
# 3 -0.002170 -0.000850 0.015483 0.000000 0.010916 0.000000
# 4 0.000000 0.000000 0.000000 -0.157158 0.000000 -0.165263
# 5 0.002382 0.000119 0.010916 0.000000 0.059446 0.000000
# 6 0.000000 0.000000 0.000000 -0.165263 0.000000 -0.098162
#
#
# Mechanical properties :
#
#
# Convention : Reuss Voigt Hill
#
# Bulk Modulus (GPa) = 41.00451 49.22918 45.11685
# Shear Modulus (GPa) = -34.39848 26.00668 -4.19590
#
# Velocity S-wave (km/s) = -3.98846 3.46799 -1.39299
# Velocity P-wave (km/s) = 1.49920 6.22915 4.27520
#
# Compressibility (1/GPa) = 0.02438756
#
# Stress axis : x y z
#
# Youngs Moduli (GPa) = 96.20762 133.13729 64.58565
#
# Poissons Ratio (x) = 0.19705 0.14016
# Poissons Ratio (y) = 0.14239 0.05492
# Poissons Ratio (z) = 0.20878 0.11321
#
# Static dielectric constant tensor:
#      x y z
#    x 1.779500 0.000000 -0.020740 
#    y 0.000000 1.837530 0.000000 
#    z -0.020740 0.000000 1.792560 
# 
# From -- ./inp_files/332984.got.cif
#   From: 2010.05.17/outbox.cif.g08.bks.cpg/sg12_167_cif.got.tgz:332984.got - 2010.06.03 13:09:07.
