data_PCOD9187575
_publ_section_title
;
Structure prediction by ZEFSAII (Michael W. Deem and Ramdas Pophale) SiO2 
 PCOD9187575
Probable space group: C 2/M
;
_chemical_formula_sum "Si O2"
_cell_formula_units_Z 64
_cell_length_a 14.640044
_cell_length_b 23.571371
_cell_length_c 17.910951
_cell_angle_alpha 90.000000
_cell_angle_beta 147.819253
_cell_angle_gamma 90.000000
_cell_volume 3291.852970
_symmetry_space_group_name_H-M "C 2/M"
_symmetry_group_IT_number 12
_symmetry_cell_setting 'monoclinic'
loop_
_space_group_symop_operation_xyz
x,y,z
-x,y,-z
-x,-y,-z
x,-y,z
1/2+x,1/2+y,z
1/2-x,1/2+y,-z
1/2-x,1/2-y,-z
1/2+x,1/2-y,z
loop_
_atom_site_type_symbol
_atom_site_label
_atom_site_fract_x
_atom_site_fract_y
_atom_site_fract_z
Si Si1 0.711779 0.806062 0.925402
Si Si2 0.406361 0.333555 0.809358
Si Si3 0.102170 0.135007 0.650312
Si Si4 0.697916 0.567541 0.485725
Si Si5 0.879343 0.266151 0.299182
Si Si6 0.878609 0.360705 0.736335
Si Si7 0.305105 0.066707 0.388293
Si Si8 0.748615 0.239928 0.586654
O O1 0.621716 0.788057 0.785979
O O2 0.579528 0.846967 0.876489
O O3 0.750000 0.750000 0.000000
O O4 0.895287 0.833088 0.033854
O O5 0.288398 0.292531 0.778332
O O6 0.321475 0.394740 0.747468
O O7 0.380708 0.305446 0.709718
O O8 0.117468 0.197928 0.694514
O O9 0.291801 0.118178 0.752997
O O10 0.000000 0.135404 0.500000
O O11 0.987623 0.095816 0.624730
O O12 0.689101 0.500000 0.492083
O O13 0.826452 0.597371 0.633359
O O14 0.764884 0.577331 0.448028
O O15 0.055100 0.282556 0.462724
O O16 0.790188 0.299478 0.655514
O O17 0.500000 0.080307 0.500000
O O18 0.278710 0.000000 0.356666
O O19 0.750000 0.250000 0.500000
#
# Coordination Sequence:
#
# PCOD9187575 Si02
#       8
#     8   8   8   8   8   8   8   8
#     4  12  25  39  55  89 136 173 207 250 321 391
#     4  12  24  38  59  92 130 166 210 258 317 385
#     4  10  19  35  59  93 128 157 208 262 313 372
#     4  10  22  39  64  96 124 162 211 268 319 363
#     4  12  21  36  59  90 126 166 209 263 316 376
#     4  11  21  36  57  86 128 165 210 254 312 374
#     4  10  23  43  68  96 124 161 219 272 313 368
#     4  12  19  33  58  87 119 162 210 257 314 366
#
# _framework density 19.441936999999999
#
# number of rings (size 3 to 8) (size 9 to 14) (size 15 to 20)
#    0.000    0.875    6.250    2.250    3.500    2.250 
#    0.000    0.625    0.000    1.500    0.000    1.750 
#    0.000    0.000    0.000    0.000    0.000    0.000 
#
# Total GULP energy -178690.191733 kJ/mol
# GULP energy per Si atom -5584.068492 kJ/mol
# Density = 1.939769 g / cm^3
# Si number density = 19.441937 Si / 1000 Ang^3
#
#
#
# Elastic Constant Matrix: (Units=GPa)
#
#
# Indices 1 2 3 4 5 6 
#
# 1 123.2198 37.9566 31.4337 0.0000 28.0420 0.0001
# 2 37.9566 99.1484 26.6633 0.0002 15.5868 0.0001
# 3 31.4337 26.6633 82.9078 -0.0030 31.0220 -0.0010
# 4 0.0000 0.0002 -0.0030 16.4670 -0.0014 3.6212
# 5 28.0420 15.5868 31.0220 -0.0014 38.7416 -0.0004
# 6 0.0001 0.0001 -0.0010 3.6212 -0.0004 31.1194
#
#
#
# Elastic Compliance Matrix: (Units=1/GPa)
#
#
# Indices 1 2 3 4 5 6 
#
# 1 0.010545 -0.002887 -0.000925 -0.000001 -0.005730 0.000000
# 2 -0.002887 0.011975 -0.002478 -0.000001 -0.000743 0.000000
# 3 -0.000925 -0.002478 0.017970 0.000002 -0.012722 0.000000
# 4 -0.000001 -0.000001 0.000002 0.062322 0.000001 -0.007252
# 5 -0.005730 -0.000743 -0.012722 0.000001 0.040446 0.000000
# 6 0.000000 0.000000 0.000000 -0.007252 0.000000 0.032978
#
#
# Mechanical properties :
#
#
# Convention : Reuss Voigt Hill
#
# Bulk Modulus (GPa) = 35.83252 55.26479 45.54865
# Shear Modulus (GPa) = 25.23720 31.21376 28.22548
#
# Velocity S-wave (km/s) = 3.60680 4.01120 3.81436
# Velocity P-wave (km/s) = 5.98463 7.06684 6.54813
#
# Compressibility (1/GPa) = 0.02790761
#
# Stress axis : x y z
#
# Youngs Moduli (GPa) = 94.83094 83.51064 55.64896
#
# Poissons Ratio (x) = 0.24112 0.05150
# Poissons Ratio (y) = 0.27380 0.13791
# Poissons Ratio (z) = 0.08776 0.20695
#
# Static dielectric constant tensor:
#      x y z
#    x 1.805300 0.000000 0.038420 
#    y 0.000000 1.668530 0.000000 
#    z 0.038420 0.000000 1.693340 
# 
# From -- ./inp_files/272885.got.cif
#   From: 2010.05.17/outbox.cif.g08.bks.cpg/sg12_137_cif.got.tgz:272885.got - 2010.06.03 13:09:07.
