data_PCOD9187240
_publ_section_title
;
Structure prediction by ZEFSAII (Michael W. Deem and Ramdas Pophale) SiO2 
 PCOD9187240
Probable space group: C 2/M
;
_chemical_formula_sum "Si O2"
_cell_formula_units_Z 56
_cell_length_a 20.255320
_cell_length_b 15.074114
_cell_length_c 9.266791
_cell_angle_alpha 90.000000
_cell_angle_beta 86.723974
_cell_angle_gamma 90.000000
_cell_volume 2824.814764
_symmetry_space_group_name_H-M "C 2/M"
_symmetry_group_IT_number 12
_symmetry_cell_setting 'monoclinic'
loop_
_space_group_symop_operation_xyz
x,y,z
-x,y,-z
-x,-y,-z
x,-y,z
1/2+x,1/2+y,z
1/2-x,1/2+y,-z
1/2-x,1/2-y,-z
1/2+x,1/2-y,z
loop_
_atom_site_type_symbol
_atom_site_label
_atom_site_fract_x
_atom_site_fract_y
_atom_site_fract_z
Si Si1 0.037109 0.901582 0.224594
Si Si2 0.114841 0.303725 0.716022
Si Si3 0.594649 0.640135 0.908347
Si Si4 0.513774 0.097203 0.326753
Si Si5 0.735504 0.289727 0.222989
Si Si6 0.239196 0.898801 0.928143
Si Si7 0.400886 0.259992 0.606727
O O1 0.049881 0.837803 0.354825
O O2 0.961883 0.902132 0.181912
O O3 0.061026 0.000000 0.251467
O O4 0.074454 0.865444 0.077584
O O5 0.101108 0.240190 0.852978
O O6 0.194399 0.314664 0.710869
O O7 0.100383 0.259552 0.562524
O O8 0.057902 0.378621 0.731841
O O9 0.664706 0.595410 0.879332
O O10 0.500000 0.092645 0.500000
O O11 0.569230 0.174148 0.311361
O O12 0.536326 0.000000 0.274319
O O13 0.733381 0.187568 0.162057
O O14 0.671428 0.291263 0.332258
O O15 0.732745 0.359463 0.091061
O O16 0.267770 0.000000 0.919317
#
# Coordination Sequence:
#
# PCOD9187240 Si02
#       7
#     8   8   8   8   8   8   8
#     4  11  21  34  58  87 118 154 190 233 292 351
#     4  10  21  38  60  85 118 152 197 246 295 352
#     4  10  19  35  58  84 114 150 190 233 285 342
#     4   9  19  37  61  83 112 157 198 239 295 351
#     4  10  22  36  58  86 115 159 192 242 305 349
#     4  10  20  37  58  82 115 153 198 240 285 351
#     4  11  21  38  60  87 121 150 195 249 297 355
#
# _framework density 19.824307999999998
#
# number of rings (size 3 to 8) (size 9 to 14) (size 15 to 20)
#    0.000    1.857    2.857    2.143    0.000    1.143 
#    0.000    5.000    0.000    6.000    0.000    0.000 
#    0.000    0.000    0.000    0.000    0.000    0.000 
#
# Total GULP energy -155926.786117 kJ/mol
# GULP energy per Si atom -5568.813790 kJ/mol
# Density = 1.977919 g / cm^3
# Si number density = 19.824308 Si / 1000 Ang^3
#
#
#
# Elastic Constant Matrix: (Units=GPa)
#
#
# Indices 1 2 3 4 5 6 
#
# 1 83.4188 22.4682 11.6631 0.0000 14.1278 0.0000
# 2 22.4682 81.8731 29.2747 0.0000 20.4266 0.0000
# 3 11.6631 29.2747 19.4781 0.0000 17.1294 0.0000
# 4 0.0000 0.0000 0.0000 50.2709 0.0000 -57.1194
# 5 14.1278 20.4266 17.1294 0.0000 23.4224 0.0000
# 6 0.0000 0.0000 0.0000 -57.1194 0.0000 68.2113
#
#
#
# Elastic Compliance Matrix: (Units=1/GPa)
#
#
# Indices 1 2 3 4 5 6 
#
# 1 0.013689 -0.002938 0.003438 0.000000 -0.008209 0.000000
# 2 -0.002938 0.029624 -0.060537 0.000000 0.020210 0.000000
# 3 0.003438 -0.060537 0.268068 0.000000 -0.145325 0.000000
# 4 0.000000 0.000000 0.000000 0.409878 0.000000 0.343227
# 5 -0.008209 0.020210 -0.145325 0.000000 0.136301 0.000000
# 6 0.000000 0.000000 0.000000 0.343227 0.000000 0.302075
#
#
# Mechanical properties :
#
#
# Convention : Reuss Voigt Hill
#
# Bulk Modulus (GPa) = 5.22722 34.62024 19.92373
# Shear Modulus (GPa) = 3.72169 36.47184 20.09677
#
# Velocity S-wave (km/s) = 1.37165 4.29389 3.18739
# Velocity P-wave (km/s) = 2.26959 6.48728 4.85982
#
# Compressibility (1/GPa) = 0.19130614
#
# Stress axis : x y z
#
# Youngs Moduli (GPa) = 73.05381 33.75644 3.73040
#
# Poissons Ratio (x) = 0.09917 -0.01282
# Poissons Ratio (y) = 0.21461 0.22583
# Poissons Ratio (z) = -0.25115 2.04352
#
# Static dielectric constant tensor:
#      x y z
#    x 1.737270 0.000000 0.006510 
#    y 0.000000 1.763170 0.000000 
#    z 0.006510 0.000000 1.681900 
# 
# From -- ./inp_files/86375.got.cif
#   From: 2010.05.17/outbox.cif.g08.bks.cpg/sg12_44_cif.got.tgz:86375.got - 2010.06.03 13:09:07.
