data_PCOD9187279
_publ_section_title
;
Structure prediction by ZEFSAII (Michael W. Deem and Ramdas Pophale) SiO2 
 PCOD9187279
Probable space group: C 2/M
;
_chemical_formula_sum "Si O2"
_cell_formula_units_Z 40
_cell_length_a 8.015584
_cell_length_b 31.089269
_cell_length_c 15.124072
_cell_angle_alpha 90.000000
_cell_angle_beta 35.675145
_cell_angle_gamma 90.000000
_cell_volume 2197.979543
_symmetry_space_group_name_H-M "C 2/M"
_symmetry_group_IT_number 12
_symmetry_cell_setting 'monoclinic'
loop_
_space_group_symop_operation_xyz
x,y,z
-x,y,-z
-x,-y,-z
x,-y,z
1/2+x,1/2+y,z
1/2-x,1/2+y,-z
1/2-x,1/2-y,-z
1/2+x,1/2-y,z
loop_
_atom_site_type_symbol
_atom_site_label
_atom_site_fract_x
_atom_site_fract_y
_atom_site_fract_z
Si Si1 0.048368 0.197744 0.670733
Si Si2 0.500000 0.731962 0.500000
Si Si3 0.853252 0.887876 0.974714
Si Si4 0.500000 0.176317 0.000000
Si Si5 0.123255 0.549235 0.846071
Si Si6 0.320689 0.599215 0.338442
O O1 0.240428 0.235231 0.629051
O O2 0.058400 0.204249 0.561361
O O3 0.152972 0.149901 0.649524
O O4 0.731218 0.202198 0.845339
O O5 0.091790 0.904712 0.802593
O O6 0.670870 0.853659 0.996073
O O7 0.622492 0.924579 0.099087
O O8 0.000000 0.870757 0.000000
O O9 0.154750 0.500000 0.804085
O O10 0.426332 0.573855 0.719252
O O11 0.000000 0.549335 0.000000
O O12 0.000000 0.584853 0.500000
#
# Coordination Sequence:
#
# PCOD9187279 Si02
#       6
#     8   4   8   4   8   8
#     4  10  20  38  56  80 113 143 185 231 280 333
#     4  10  22  36  56  82 106 148 186 224 286 340
#     4  10  19  35  58  86 108 151 192 224 276 331
#     4  10  20  40  57  82 116 142 188 238 267 334
#     4   9  17  34  57  81 114 150 186 228 274 330
#     4  10  19  36  57  82 115 150 182 234 281 330
#
# _framework density 18.198530999999999
#
# number of rings (size 3 to 8) (size 9 to 14) (size 15 to 20)
#    0.000    2.200    6.000    0.000    0.000    3.200 
#    3.600    0.000    0.000    1.200    0.000    0.000 
#    0.000    0.000    0.000    0.000    0.000    0.000 
#
# Total GULP energy -111454.025396 kJ/mol
# GULP energy per Si atom -5572.701270 kJ/mol
# Density = 1.815711 g / cm^3
# Si number density = 18.198531 Si / 1000 Ang^3
#
#
#
# Elastic Constant Matrix: (Units=GPa)
#
#
# Indices 1 2 3 4 5 6 
#
# 1 90.3556 22.2449 17.9260 0.0000 -8.4739 0.0000
# 2 22.2449 62.6490 31.9118 0.0000 -1.3526 0.0000
# 3 17.9260 31.9118 133.3533 0.0000 -30.9172 0.0000
# 4 0.0000 0.0000 0.0000 -1.0636 0.0000 2.8959
# 5 -8.4739 -1.3526 -30.9172 0.0000 15.6681 0.0000
# 6 0.0000 0.0000 0.0000 2.8959 0.0000 12.8843
#
#
#
# Elastic Compliance Matrix: (Units=1/GPa)
#
#
# Indices 1 2 3 4 5 6 
#
# 1 0.012981 -0.005382 0.001959 0.000000 0.010423 0.000000
# 2 -0.005382 0.021951 -0.008783 0.000000 -0.018347 0.000000
# 3 0.001959 -0.008783 0.017340 0.000000 0.034518 0.000000
# 4 0.000000 0.000000 0.000000 -0.583244 0.000000 0.131092
# 5 0.010423 -0.018347 0.034518 0.000000 0.135990 0.000000
# 6 0.000000 0.000000 0.000000 0.131092 0.000000 0.048149
#
#
# Mechanical properties :
#
#
# Convention : Reuss Voigt Hill
#
# Bulk Modulus (GPa) = 35.89360 47.83593 41.86476
# Shear Modulus (GPa) = -15.96762 19.78275 1.90756
#
# Velocity S-wave (km/s) = -2.96533 3.30062 1.02492
# Velocity P-wave (km/s) = 2.83583 6.39282 4.94520
#
# Compressibility (1/GPa) = 0.02786012
#
# Stress axis : x y z
#
# Youngs Moduli (GPa) = 77.03450 45.55635 57.66974
#
# Poissons Ratio (x) = 0.24520 -0.11300
# Poissons Ratio (y) = 0.41462 0.50652
# Poissons Ratio (z) = -0.15094 0.40013
#
# Static dielectric constant tensor:
#      x y z
#    x 1.627800 0.000000 -0.018000 
#    y 0.000000 1.625460 0.000000 
#    z -0.018000 0.000000 1.644290 
# 
# From -- ./inp_files/259653.got.cif
#   From: 2010.05.17/outbox.cif.g08.bks.cpg/sg12_130_cif.got.tgz:259653.got - 2010.06.03 13:09:07.
