data_PCOD9187278
_publ_section_title
;
Structure prediction by ZEFSAII (Michael W. Deem and Ramdas Pophale) SiO2 
 PCOD9187278
Probable space group: C 2/M
;
_chemical_formula_sum "Si O2"
_cell_formula_units_Z 48
_cell_length_a 7.716221
_cell_length_b 21.278252
_cell_length_c 23.248018
_cell_angle_alpha 90.000000
_cell_angle_beta 145.551983
_cell_angle_gamma 90.000000
_cell_volume 2159.139483
_symmetry_space_group_name_H-M "C 2/M"
_symmetry_group_IT_number 12
_symmetry_cell_setting 'monoclinic'
loop_
_space_group_symop_operation_xyz
x,y,z
-x,y,-z
-x,-y,-z
x,-y,z
1/2+x,1/2+y,z
1/2-x,1/2+y,-z
1/2-x,1/2-y,-z
1/2+x,1/2-y,z
loop_
_atom_site_type_symbol
_atom_site_label
_atom_site_fract_x
_atom_site_fract_y
_atom_site_fract_z
Si Si1 0.485805 0.804319 0.077164
Si Si2 0.931441 0.248529 0.781098
Si Si3 0.652124 0.571420 0.477875
Si Si4 0.757574 0.618158 0.304093
Si Si5 0.065033 0.571833 0.141177
Si Si6 0.052143 0.618828 0.264194
O O1 0.642593 0.788393 0.182160
O O2 0.378978 0.875498 0.053767
O O3 0.779276 0.793645 0.118207
O O4 0.250000 0.750000 0.000000
O O5 0.729385 0.194621 0.696847
O O6 0.011545 0.307251 0.762002
O O7 0.500000 0.571148 0.500000
O O8 0.655520 0.500000 0.457088
O O9 0.415108 0.611041 0.375424
O O10 0.993480 0.596055 0.581229
O O11 0.423380 0.590260 0.227591
O O12 0.868859 0.596364 0.270626
O O13 0.010843 0.500000 0.110368
O O14 0.986506 0.582677 0.186940
#
# Coordination Sequence:
#
# PCOD9187278 Si02
#       6
#     8   8   8   8   8   8
#     4  10  20  36  61  85 113 145 189 244 294 356
#     4  10  19  35  58  86 108 148 196 231 301 346
#     4   9  18  32  53  79 111 160 201 230 282 344
#     4  10  20  36  57  84 120 156 194 244 287 345
#     4  10  22  37  60  90 117 154 196 241 296 352
#     4  10  20  36  57  84 120 156 194 244 287 345
#
# _framework density 22.231078
#
# number of rings (size 3 to 8) (size 9 to 14) (size 15 to 20)
#    0.000    2.167    1.667    1.500    0.000    3.333 
#    0.000    1.667    0.000   18.000    0.000    0.000 
#    0.000    0.000    0.000    0.000    0.000    0.000 
#
# Total GULP energy -133696.768932 kJ/mol
# GULP energy per Si atom -5570.698705 kJ/mol
# Density = 2.218048 g / cm^3
# Si number density = 22.231078 Si / 1000 Ang^3
#
#
#
# Elastic Constant Matrix: (Units=GPa)
#
#
# Indices 1 2 3 4 5 6 
#
# 1 60.7503 7.6637 -4.1801 -0.0007 -4.6684 -0.0003
# 2 7.6637 162.5570 23.7760 -0.0009 -2.3858 -0.0002
# 3 -4.1801 23.7760 32.4504 -0.0041 4.2708 -0.0003
# 4 -0.0007 -0.0009 -0.0041 24.9745 0.0009 6.6483
# 5 -4.6684 -2.3858 4.2708 0.0009 20.8792 -0.0002
# 6 -0.0003 -0.0002 -0.0003 6.6483 -0.0002 15.2081
#
#
#
# Elastic Compliance Matrix: (Units=1/GPa)
#
#
# Indices 1 2 3 4 5 6 
#
# 1 0.017026 -0.001139 0.002614 0.000001 0.003142 0.000000
# 2 -0.001139 0.007038 -0.005524 -0.000001 0.001680 0.000000
# 3 0.002614 -0.005524 0.036181 0.000007 -0.007447 -0.000002
# 4 0.000001 -0.000001 0.000007 0.045314 -0.000003 -0.019809
# 5 0.003142 0.001680 -0.007447 -0.000003 0.050312 0.000002
# 6 0.000000 0.000000 -0.000002 -0.019809 0.000002 0.074414
#
#
# Mechanical properties :
#
#
# Convention : Reuss Voigt Hill
#
# Bulk Modulus (GPa) = 19.17682 34.47521 26.82602
# Shear Modulus (GPa) = 19.54913 27.44558 23.49736
#
# Velocity S-wave (km/s) = 2.96862 3.51744 3.25462
# Velocity P-wave (km/s) = 4.51610 5.66020 5.12020
#
# Compressibility (1/GPa) = 0.05214628
#
# Stress axis : x y z
#
# Youngs Moduli (GPa) = 58.73434 142.08474 27.63888
#
# Poissons Ratio (x) = 0.16182 -0.07225
# Poissons Ratio (y) = 0.06689 0.15269
# Poissons Ratio (z) = -0.15354 0.78494
#
# Static dielectric constant tensor:
#      x y z
#    x 2.039030 0.000000 -0.007080 
#    y 0.000000 2.030460 0.000000 
#    z -0.007080 0.000000 1.850260 
# 
# From -- ./inp_files/257926.got.cif
#   From: 2010.05.17/outbox.cif.g08.bks.cpg/sg12_129_cif.got.tgz:257926.got - 2010.06.03 13:09:07.
