data_PCOD9187207
_publ_section_title
;
Structure prediction by ZEFSAII (Michael W. Deem and Ramdas Pophale) SiO2 
 PCOD9187207
Probable space group: C 2/M
;
_chemical_formula_sum "Si O2"
_cell_formula_units_Z 56
_cell_length_a 19.433462
_cell_length_b 9.165349
_cell_length_c 19.744452
_cell_angle_alpha 90.000000
_cell_angle_beta 115.292302
_cell_angle_gamma 90.000000
_cell_volume 3179.654487
_symmetry_space_group_name_H-M "C 2/M"
_symmetry_group_IT_number 12
_symmetry_cell_setting 'monoclinic'
loop_
_space_group_symop_operation_xyz
x,y,z
-x,y,-z
-x,-y,-z
x,-y,z
1/2+x,1/2+y,z
1/2-x,1/2+y,-z
1/2-x,1/2-y,-z
1/2+x,1/2-y,z
loop_
_atom_site_type_symbol
_atom_site_label
_atom_site_fract_x
_atom_site_fract_y
_atom_site_fract_z
Si Si1 0.841865 0.839634 0.689751
Si Si2 0.631082 0.323342 0.746329
Si Si3 0.946182 0.327360 0.912762
Si Si4 0.575599 0.322421 0.572520
Si Si5 0.727411 0.670971 0.558704
Si Si6 0.793233 0.833966 0.825873
Si Si7 0.006599 0.171432 0.804215
O O1 0.795232 0.710481 0.637695
O O2 0.819038 0.844061 0.758503
O O3 0.931919 0.818411 0.725284
O O4 0.822992 0.000000 0.651848
O O5 0.639127 0.500000 0.747447
O O6 0.591871 0.278787 0.657771
O O7 0.713171 0.249974 0.791512
O O8 0.577725 0.285724 0.787846
O O9 0.934156 0.500000 0.897820
O O10 0.864360 0.250169 0.889046
O O11 0.987573 0.261702 0.863574
O O12 0.000000 0.304594 0.000000
O O13 0.500000 0.273694 0.500000
O O14 0.572955 0.500000 0.572618
O O15 0.649063 0.276647 0.559772
O O16 0.720275 0.500000 0.544800
O O17 0.750000 0.750000 0.500000
O O18 0.785349 0.000000 0.848482
O O19 0.013861 0.000000 0.826016
#
# Coordination Sequence:
#
# PCOD9187207 Si02
#       7
#     8   8   8   8   8   8   8
#     4   9  18  34  53  75 104 138 180 226 272 325
#     4  10  19  35  58  83 113 147 190 232 275 336
#     4  10  21  38  61  87 115 146 184 229 273 328
#     4   9  19  34  54  77 104 144 188 230 278 329
#     4  11  22  34  52  75 102 138 183 232 282 332
#     4  10  20  35  58  84 112 146 183 226 276 330
#     4   9  20  35  57  86 114 147 183 227 277 330
#
# _framework density 17.611975999999999
#
# number of rings (size 3 to 8) (size 9 to 14) (size 15 to 20)
#    0.000    2.286    1.429    2.143    2.000    4.000 
#    0.000    0.714    0.000    2.143    0.000    0.000 
#    0.000    0.000    0.000    0.000    0.000    0.000 
#
# Total GULP energy -156032.481437 kJ/mol
# GULP energy per Si atom -5572.588623 kJ/mol
# Density = 1.757189 g / cm^3
# Si number density = 17.611976 Si / 1000 Ang^3
#
#
#
# Elastic Constant Matrix: (Units=GPa)
#
#
# Indices 1 2 3 4 5 6 
#
# 1 128.6418 48.7950 52.1815 0.0000 15.7101 0.0000
# 2 48.7950 56.2613 45.3346 0.0000 7.1200 0.0000
# 3 52.1815 45.3346 85.7496 0.0000 12.7151 0.0000
# 4 0.0000 0.0000 0.0000 25.0088 0.0000 1.6581
# 5 15.7101 7.1200 12.7151 0.0000 20.5905 0.0000
# 6 0.0000 0.0000 0.0000 1.6581 0.0000 25.0556
#
#
#
# Elastic Compliance Matrix: (Units=1/GPa)
#
#
# Indices 1 2 3 4 5 6 
#
# 1 0.012534 -0.008168 -0.002543 0.000000 -0.005169 0.000000
# 2 -0.008168 0.036296 -0.014621 0.000000 0.002710 0.000000
# 3 -0.002543 -0.014621 0.021908 0.000000 -0.006533 0.000000
# 4 0.000000 0.000000 0.000000 0.040162 0.000000 -0.002658
# 5 -0.005169 0.002710 -0.006533 0.000000 0.055607 0.000000
# 6 0.000000 0.000000 0.000000 -0.002658 0.000000 0.040087
#
#
# Mechanical properties :
#
#
# Convention : Reuss Voigt Hill
#
# Bulk Modulus (GPa) = 49.81190 62.58610 56.19900
# Shear Modulus (GPa) = 18.94299 22.42040 20.68170
#
# Velocity S-wave (km/s) = 3.28315 3.57181 3.43052
# Velocity P-wave (km/s) = 6.53579 7.25422 6.90435
#
# Compressibility (1/GPa) = 0.02007553
#
# Stress axis : x y z
#
# Youngs Moduli (GPa) = 79.78061 27.55094 45.64577
#
# Poissons Ratio (x) = 0.22503 0.11608
# Poissons Ratio (y) = 0.65163 0.66738
# Poissons Ratio (z) = 0.20288 0.40282
#
# Static dielectric constant tensor:
#      x y z
#    x 1.618650 0.000000 -0.081120 
#    y 0.000000 1.624240 0.000000 
#    z -0.081120 0.000000 1.857960 
# 
# From -- ./inp_files/313782.got.cif
#   From: 2010.05.17/outbox.cif.g08.bks.cpg/sg12_157_cif.got.tgz:313782.got - 2010.06.03 13:09:07.
