data_PCOD9187198
_publ_section_title
;
Structure prediction by ZEFSAII (Michael W. Deem and Ramdas Pophale) SiO2 
 PCOD9187198
Probable space group: C 2/M
;
_chemical_formula_sum "Si O2"
_cell_formula_units_Z 32
_cell_length_a 13.080805
_cell_length_b 13.717218
_cell_length_c 10.671843
_cell_angle_alpha 90.000000
_cell_angle_beta 55.400484
_cell_angle_gamma 90.000000
_cell_volume 1576.210662
_symmetry_space_group_name_H-M "C 2/M"
_symmetry_group_IT_number 12
_symmetry_cell_setting 'monoclinic'
loop_
_space_group_symop_operation_xyz
x,y,z
-x,y,-z
-x,-y,-z
x,-y,z
1/2+x,1/2+y,z
1/2-x,1/2+y,-z
1/2-x,1/2-y,-z
1/2+x,1/2-y,z
loop_
_atom_site_type_symbol
_atom_site_label
_atom_site_fract_x
_atom_site_fract_y
_atom_site_fract_z
Si Si1 0.901517 0.108881 0.956096
Si Si2 0.333176 0.111111 0.706447
Si Si3 0.248250 0.386915 0.527192
Si Si4 0.033943 0.247368 0.670548
O O1 0.771002 0.126864 0.115094
O O2 0.899186 0.000000 0.899871
O O3 0.000000 0.106203 0.000000
O O4 0.950043 0.188369 0.826338
O O5 0.273754 0.117350 0.609129
O O6 0.440995 0.187230 0.655491
O O7 0.380894 0.000000 0.686062
O O8 0.248621 0.500000 0.563987
O O9 0.134228 0.323383 0.660322
O O10 0.377385 0.331162 0.460336
#
# Coordination Sequence:
#
# PCOD9187198 Si02
#       4
#     8   8   8   8
#     4  10  19  35  58  83 110 141 183 232 271 319
#     4  10  20  36  59  85 110 141 185 230 270 321
#     4  10  21  37  57  83 113 144 183 228 270 322
#     4  11  20  32  58  88 108 142 185 227 274 321
#
# _framework density 20.301853999999999
#
# number of rings (size 3 to 8) (size 9 to 14) (size 15 to 20)
#    0.000    1.750    2.500    3.000    0.000    2.000 
#    0.000    0.000    0.000   34.500    0.000    0.000 
#    0.000    0.000    0.000    0.000    0.000    0.000 
#
# Total GULP energy -89363.524914 kJ/mol
# GULP energy per Si atom -5585.220307 kJ/mol
# Density = 2.025565 g / cm^3
# Si number density = 20.301854 Si / 1000 Ang^3
#
#
#
# Elastic Constant Matrix: (Units=GPa)
#
#
# Indices 1 2 3 4 5 6 
#
# 1 68.2589 55.0195 31.3913 0.0000 -23.9795 0.0000
# 2 55.0195 174.3453 75.4468 0.0000 -22.0064 0.0000
# 3 31.3913 75.4468 114.3857 0.0000 -20.4761 0.0000
# 4 0.0000 0.0000 0.0000 19.3014 0.0000 -6.2280
# 5 -23.9795 -22.0064 -20.4761 0.0000 23.3125 0.0000
# 6 0.0000 0.0000 0.0000 -6.2280 0.0000 36.2466
#
#
#
# Elastic Compliance Matrix: (Units=1/GPa)
#
#
# Indices 1 2 3 4 5 6 
#
# 1 0.027222 -0.005937 0.000540 0.000000 0.022870 0.000000
# 2 -0.005937 0.009566 -0.004932 0.000000 -0.001410 0.000000
# 3 0.000540 -0.004932 0.013187 0.000000 0.007481 0.000000
# 4 0.000000 0.000000 0.000000 0.054851 0.000000 0.009425
# 5 0.022870 -0.001410 0.007481 0.000000 0.071661 0.000000
# 6 0.000000 0.000000 0.000000 0.009425 0.000000 0.029208
#
#
# Mechanical properties :
#
#
# Convention : Reuss Voigt Hill
#
# Bulk Modulus (GPa) = 34.11305 75.63388 54.87347
# Shear Modulus (GPa) = 21.17507 28.78093 24.97800
#
# Velocity S-wave (km/s) = 3.23307 3.76925 3.51141
# Velocity P-wave (km/s) = 5.54765 7.50191 6.59754
#
# Compressibility (1/GPa) = 0.02931429
#
# Stress axis : x y z
#
# Youngs Moduli (GPa) = 36.73472 104.53634 75.83291
#
# Poissons Ratio (x) = 0.62068 -0.04091
# Poissons Ratio (y) = 0.21811 0.37405
# Poissons Ratio (z) = -0.01982 0.51562
#
# Static dielectric constant tensor:
#      x y z
#    x 1.718760 0.000000 -0.024230 
#    y 0.000000 1.742980 0.000000 
#    z -0.024230 0.000000 1.794670 
# 
# From -- ./inp_files/45389.got.cif
#   From: 2010.05.17/outbox.cif.g08.bks.cpg/sg12_23_cif.got.tgz:45389.got - 2010.06.03 13:09:07.
