data_PCOD9187052
_publ_section_title
;
Structure prediction by ZEFSAII (Michael W. Deem and Ramdas Pophale) SiO2 
 PCOD9187052
Probable space group: C 2/M
;
_chemical_formula_sum "Si O2"
_cell_formula_units_Z 64
_cell_length_a 30.844116
_cell_length_b 7.756108
_cell_length_c 14.934119
_cell_angle_alpha 90.000000
_cell_angle_beta 126.842087
_cell_angle_gamma 90.000000
_cell_volume 2859.195101
_symmetry_space_group_name_H-M "C 2/M"
_symmetry_group_IT_number 12
_symmetry_cell_setting 'monoclinic'
loop_
_space_group_symop_operation_xyz
x,y,z
-x,y,-z
-x,-y,-z
x,-y,z
1/2+x,1/2+y,z
1/2-x,1/2+y,-z
1/2-x,1/2-y,-z
1/2+x,1/2-y,z
loop_
_atom_site_type_symbol
_atom_site_label
_atom_site_fract_x
_atom_site_fract_y
_atom_site_fract_z
Si Si1 0.996125 0.797563 0.595833
Si Si2 0.044151 0.701319 0.123140
Si Si3 0.802534 0.793288 0.122824
Si Si4 0.750686 0.790993 0.238010
Si Si5 0.410697 0.288473 0.156716
Si Si6 0.794934 0.794302 0.482894
Si Si7 0.875188 0.795813 0.920431
Si Si8 0.918159 0.297852 0.642566
O O1 0.938836 0.781322 0.575071
O O2 0.000000 0.724448 0.500000
O O3 0.039063 0.727351 0.721497
O O4 0.009392 0.000000 0.603600
O O5 0.030192 0.500000 0.117755
O O6 0.100463 0.712759 0.138587
O O7 0.051537 0.776580 0.231639
O O8 0.000000 0.779122 0.000000
O O9 0.789311 0.729520 0.205787
O O10 0.856382 0.730737 0.140752
O O11 0.807856 0.000000 0.133996
O O12 0.750000 0.750000 0.000000
O O13 0.773243 0.729992 0.360570
O O14 0.688626 0.736069 0.146887
O O15 0.750654 0.000000 0.237572
O O16 0.411272 0.500000 0.154224
O O17 0.406403 0.231755 0.048210
O O18 0.750000 0.750000 0.500000
O O19 0.854295 0.723891 0.577024
O O20 0.800293 0.000000 0.484865
O O21 0.883645 0.000000 0.922896
O O22 0.930005 0.500000 0.651910
#
# Coordination Sequence:
#
# PCOD9187052 Si02
#       8
#     8   8   8   8   8   8   8   8
#     4  10  22  40  65  89 116 160 208 250 296 355
#     4  10  22  40  61  84 114 152 192 236 290 351
#     4  10  19  35  57  83 118 153 191 241 291 348
#     4  10  22  37  58  84 114 153 196 235 285 353
#     4   9  19  35  56  85 120 152 193 245 295 347
#     4  11  24  42  64  90 121 160 203 247 299 357
#     4  11  21  34  57  87 119 150 185 239 294 347
#     4  11  24  42  63  89 123 158 199 251 301 354
#
# _framework density 22.383924
#
# number of rings (size 3 to 8) (size 9 to 14) (size 15 to 20)
#    0.000    1.750    1.250    2.625    1.750    5.500 
#    0.000    1.250    0.000    0.000    0.000    0.000 
#    0.000    0.000    0.000    0.000    0.000    0.000 
#
# Total GULP energy -178869.545900 kJ/mol
# GULP energy per Si atom -5589.673309 kJ/mol
# Density = 2.233298 g / cm^3
# Si number density = 22.383924 Si / 1000 Ang^3
#
#
#
# Elastic Constant Matrix: (Units=GPa)
#
#
# Indices 1 2 3 4 5 6 
#
# 1 111.6743 -9.5692 36.7321 0.0000 -22.6167 0.0000
# 2 -9.5692 39.3793 6.0386 0.0000 -4.7828 0.0000
# 3 36.7321 6.0386 124.3026 0.0000 -25.8576 0.0000
# 4 0.0000 0.0000 0.0000 14.7276 0.0000 5.5670
# 5 -22.6167 -4.7828 -25.8576 0.0000 47.7696 0.0000
# 6 0.0000 0.0000 0.0000 5.5670 0.0000 20.8725
#
#
#
# Elastic Compliance Matrix: (Units=1/GPa)
#
#
# Indices 1 2 3 4 5 6 
#
# 1 0.010936 0.003552 -0.002539 0.000000 0.004159 0.000000
# 2 0.003552 0.026932 -0.001631 0.000000 0.003495 0.000000
# 3 -0.002539 -0.001631 0.009680 0.000000 0.003875 0.000000
# 4 0.000000 0.000000 0.000000 0.075513 0.000000 -0.020140
# 5 0.004159 0.003495 0.003875 0.000000 0.025350 0.000000
# 6 0.000000 0.000000 0.000000 -0.020140 0.000000 0.053282
#
#
# Mechanical properties :
#
#
# Convention : Reuss Voigt Hill
#
# Bulk Modulus (GPa) = 21.59226 37.97325 29.78276
# Shear Modulus (GPa) = 22.89723 32.81758 27.85740
#
# Velocity S-wave (km/s) = 3.20180 3.83315 3.53161
# Velocity P-wave (km/s) = 4.83073 6.04914 5.47394
#
# Compressibility (1/GPa) = 0.04631288
#
# Stress axis : x y z
#
# Youngs Moduli (GPa) = 91.43701 37.13075 103.30118
#
# Poissons Ratio (x) = -0.13189 0.26230
# Poissons Ratio (y) = -0.32479 0.16847
# Poissons Ratio (z) = 0.23217 0.06056
#
# Static dielectric constant tensor:
#      x y z
#    x 1.820850 0.000000 -0.018040 
#    y 0.000000 1.872530 0.000000 
#    z -0.018040 0.000000 1.828200 
# 
# From -- ./inp_files/249978.got.cif
#   From: 2010.05.17/outbox.cif.g08.bks.cpg/sg12_125_cif.got.tgz:249978.got - 2010.06.03 13:09:07.
