data_PCOD9187179
_publ_section_title
;
Structure prediction by ZEFSAII (Michael W. Deem and Ramdas Pophale) SiO2 
 PCOD9187179
Probable space group: C 2/M
;
_chemical_formula_sum "Si O2"
_cell_formula_units_Z 40
_cell_length_a 13.193887
_cell_length_b 24.210182
_cell_length_c 5.098522
_cell_angle_alpha 90.000000
_cell_angle_beta 102.524030
_cell_angle_gamma 90.000000
_cell_volume 1589.850196
_symmetry_space_group_name_H-M "C 2/M"
_symmetry_group_IT_number 12
_symmetry_cell_setting 'monoclinic'
loop_
_space_group_symop_operation_xyz
x,y,z
-x,y,-z
-x,-y,-z
x,-y,z
1/2+x,1/2+y,z
1/2-x,1/2+y,-z
1/2-x,1/2-y,-z
1/2+x,1/2-y,z
loop_
_atom_site_type_symbol
_atom_site_label
_atom_site_fract_x
_atom_site_fract_y
_atom_site_fract_z
Si Si1 0.892780 0.432888 0.313383
Si Si2 0.709033 0.935824 0.240958
Si Si3 0.617988 0.223732 0.104813
Si Si4 0.566336 0.592960 0.774317
Si Si5 0.341099 0.706124 0.370092
O O1 0.897930 0.500000 0.292898
O O2 0.802311 0.416486 0.466835
O O3 0.000000 0.414028 0.500000
O O4 0.869962 0.410492 0.013372
O O5 0.820762 0.934068 0.169264
O O6 0.679037 0.000000 0.248891
O O7 0.621250 0.274556 0.321416
O O8 0.718330 0.191235 0.276174
O O9 0.500000 0.203334 0.000000
O O10 0.645909 0.243924 0.827696
O O11 0.500000 0.568434 0.500000
O O12 0.594452 0.655572 0.708568
O O13 0.500000 0.589403 0.000000
#
# Coordination Sequence:
#
# PCOD9187179 Si02
#       5
#     8   8   8   8   8
#     4   9  17  33  57  81 106 139 181 230 284 340
#     4  10  21  36  55  82 113 147 193 238 277 330
#     4  10  19  35  58  82 110 140 174 222 277 332
#     4  12  24  38  57  79 111 152 194 238 282 330
#     4  10  21  35  56  83 108 141 183 221 269 336
#
# _framework density 25.159604000000002
#
# number of rings (size 3 to 8) (size 9 to 14) (size 15 to 20)
#    0.000    1.800    0.000    5.400    0.000    3.200 
#    0.000    2.000    0.000    0.000    0.000    0.000 
#    0.000    0.000    0.000    0.000    0.000    0.000 
#
# Total GULP energy -111727.658930 kJ/mol
# GULP energy per Si atom -5586.382946 kJ/mol
# Density = 2.510234 g / cm^3
# Si number density = 25.159604 Si / 1000 Ang^3
#
#
#
# Elastic Constant Matrix: (Units=GPa)
#
#
# Indices 1 2 3 4 5 6 
#
# 1 134.5900 4.6162 46.2762 0.0000 12.8517 0.0000
# 2 4.6162 28.1571 7.4475 0.0000 -2.3573 0.0000
# 3 46.2762 7.4475 150.7057 0.0000 -0.7693 0.0000
# 4 0.0000 0.0000 0.0000 -25.7660 0.0000 61.7907
# 5 12.8517 -2.3573 -0.7693 0.0000 54.6311 0.0000
# 6 0.0000 0.0000 0.0000 61.7907 0.0000 -41.6888
#
#
#
# Elastic Compliance Matrix: (Units=1/GPa)
#
#
# Indices 1 2 3 4 5 6 
#
# 1 0.008551 -0.000891 -0.002592 0.000000 -0.002087 0.000000
# 2 -0.000891 0.036206 -0.001507 0.000000 0.001751 0.000000
# 3 -0.002592 -0.001507 0.007509 0.000000 0.000651 0.000000
# 4 0.000000 0.000000 0.000000 0.015193 0.000000 0.022519
# 5 -0.002087 0.001751 0.000651 0.000000 0.018880 0.000000
# 6 0.000000 0.000000 0.000000 0.022519 0.000000 0.009390
#
#
# Mechanical properties :
#
#
# Convention : Reuss Voigt Hill
#
# Bulk Modulus (GPa) = 23.64818 47.79252 35.72035
# Shear Modulus (GPa) = 41.73435 14.44278 28.08857
#
# Velocity S-wave (km/s) = 4.07724 2.39853 3.34490
# Velocity P-wave (km/s) = 5.62004 5.16793 5.39872
#
# Compressibility (1/GPa) = 0.04228655
#
# Stress axis : x y z
#
# Youngs Moduli (GPa) = 116.94400 27.61959 133.16922
#
# Poissons Ratio (x) = 0.02461 0.34522
# Poissons Ratio (y) = 0.10419 0.20065
# Poissons Ratio (z) = 0.30316 0.04161
#
# Static dielectric constant tensor:
#      x y z
#    x 1.891740 0.000000 -0.113940 
#    y 0.000000 2.049510 0.000000 
#    z -0.113940 0.000000 1.813460 
# 
# From -- ./inp_files/8183.got.cif
#   From: 2010.05.17/outbox.cif.g08.bks.cpg/sg12_5_cif.got.tgz:8183.got - 2010.06.03 13:09:07.
