data_PCOD9187077
_publ_section_title
;
Structure prediction by ZEFSAII (Michael W. Deem and Ramdas Pophale) SiO2 
 PCOD9187077
Probable space group: C 2/M
;
_chemical_formula_sum "Si O2"
_cell_formula_units_Z 64
_cell_length_a 26.206995
_cell_length_b 15.331821
_cell_length_c 8.979519
_cell_angle_alpha 90.000000
_cell_angle_beta 69.603269
_cell_angle_gamma 90.000000
_cell_volume 3381.765785
_symmetry_space_group_name_H-M "C 2/M"
_symmetry_group_IT_number 12
_symmetry_cell_setting 'monoclinic'
loop_
_space_group_symop_operation_xyz
x,y,z
-x,y,-z
-x,-y,-z
x,-y,z
1/2+x,1/2+y,z
1/2-x,1/2+y,-z
1/2-x,1/2-y,-z
1/2+x,1/2-y,z
loop_
_atom_site_type_symbol
_atom_site_label
_atom_site_fract_x
_atom_site_fract_y
_atom_site_fract_z
Si Si1 0.239786 0.651907 0.953306
Si Si2 0.510501 0.236425 0.667220
Si Si3 0.153189 0.394332 0.786490
Si Si4 0.138462 0.267079 0.530996
Si Si5 0.837259 0.901037 0.651395
Si Si6 0.652734 0.094795 0.260465
Si Si7 0.955805 0.905790 0.677685
Si Si8 0.441026 0.902133 0.897138
O O1 0.196777 0.639688 0.862718
O O2 0.294964 0.614611 0.828028
O O3 0.250000 0.750000 0.000000
O O4 0.210500 0.602413 0.118728
O O5 0.500000 0.218085 0.500000
O O6 0.574480 0.250914 0.621055
O O7 0.475103 0.321453 0.745956
O O8 0.488071 0.160223 0.793204
O O9 0.160282 0.500000 0.756694
O O10 0.158845 0.331552 0.639292
O O11 0.093299 0.381489 0.919974
O O12 0.167646 0.174866 0.467410
O O13 0.144602 0.324333 0.375994
O O14 0.897336 0.892885 0.661614
O O15 0.830710 0.000000 0.600773
O O16 0.605508 0.099025 0.184261
O O17 0.648126 0.000000 0.340831
O O18 0.000000 0.909753 0.500000
O O19 0.956106 0.000000 0.755033
O O20 0.462253 0.000000 0.887291
#
# Coordination Sequence:
#
# PCOD9187077 Si02
#       8
#     8   8   8   8   8   8   8   8
#     4  11  22  40  65  87 114 155 202 248 303 365
#     4  11  19  32  56  88 123 150 210 255 287 343
#     4  10  24  43  60  86 129 164 194 245 312 367
#     4  12  22  36  59  91 118 164 203 245 303 361
#     4  11  21  36  61  91 121 154 202 254 304 360
#     4  10  19  35  57  84 118 153 195 244 297 350
#     4   9  17  31  54  86 117 148 189 246 302 343
#     4   9  19  35  56  80 115 160 197 241 294 351
#
# _framework density 18.925024000000001
#
# number of rings (size 3 to 8) (size 9 to 14) (size 15 to 20)
#    0.000    1.625    5.000    2.250    1.750    2.250 
#    0.000    1.250    0.000    2.250    0.000    1.750 
#    0.000    0.000    0.000    0.000    0.000    0.000 
#
# Total GULP energy -178441.700497 kJ/mol
# GULP energy per Si atom -5576.303141 kJ/mol
# Density = 1.888195 g / cm^3
# Si number density = 18.925024 Si / 1000 Ang^3
#
#
#
# Elastic Constant Matrix: (Units=GPa)
#
#
# Indices 1 2 3 4 5 6 
#
# 1 48.8956 23.8009 18.9949 0.0000 -9.6499 0.0000
# 2 23.8009 152.6681 51.4288 0.0000 0.2129 0.0000
# 3 18.9949 51.4288 56.1820 0.0000 -7.4034 0.0000
# 4 0.0000 0.0000 0.0000 23.2376 0.0000 -9.7754
# 5 -9.6499 0.2129 -7.4034 0.0000 28.9826 0.0000
# 6 0.0000 0.0000 0.0000 -9.7754 0.0000 16.1421
#
#
#
# Elastic Compliance Matrix: (Units=1/GPa)
#
#
# Indices 1 2 3 4 5 6 
#
# 1 0.024998 -0.001973 -0.005740 0.000000 0.006871 0.000000
# 2 -0.001973 0.009785 -0.008679 0.000000 -0.002946 0.000000
# 3 -0.005740 -0.008679 0.028397 0.000000 0.005406 0.000000
# 4 0.000000 0.000000 0.000000 0.057744 0.000000 0.034969
# 5 0.006871 -0.002946 0.005406 0.000000 0.038194 0.000000
# 6 0.000000 0.000000 0.000000 0.034969 0.000000 0.083126
#
#
# Mechanical properties :
#
#
# Convention : Reuss Voigt Hill
#
# Bulk Modulus (GPa) = 32.89823 49.57722 41.23772
# Shear Modulus (GPa) = 17.53396 24.57384 21.05390
#
# Velocity S-wave (km/s) = 3.04714 3.60736 3.33902
# Velocity P-wave (km/s) = 5.45906 6.60335 6.05828
#
# Compressibility (1/GPa) = 0.03039677
#
# Stress axis : x y z
#
# Youngs Moduli (GPa) = 40.00277 102.19287 35.21524
#
# Poissons Ratio (x) = 0.20164 0.20214
# Poissons Ratio (y) = 0.07893 0.30562
# Poissons Ratio (z) = 0.22962 0.88689
#
# Static dielectric constant tensor:
#      x y z
#    x 1.667040 0.000000 -0.004920 
#    y 0.000000 1.706850 0.000000 
#    z -0.004920 0.000000 1.643460 
# 
# From -- ./inp_files/104536.got.cif
#   From: 2010.05.17/outbox.cif.g08.bks.cpg/sg12_53_cif.got.tgz:104536.got - 2010.06.03 13:09:07.
