data_PCOD9187940
_publ_section_title
;
Structure prediction by ZEFSAII (Michael W. Deem and Ramdas Pophale) SiO2 
 PCOD9187940
Probable space group: C 2/M
;
_chemical_formula_sum "Si O2"
_cell_formula_units_Z 64
_cell_length_a 14.412299
_cell_length_b 18.397340
_cell_length_c 13.964605
_cell_angle_alpha 90.000000
_cell_angle_beta 59.733903
_cell_angle_gamma 90.000000
_cell_volume 3197.987967
_symmetry_space_group_name_H-M "C 2/M"
_symmetry_group_IT_number 12
_symmetry_cell_setting 'monoclinic'
loop_
_space_group_symop_operation_xyz
x,y,z
-x,y,-z
-x,-y,-z
x,-y,z
1/2+x,1/2+y,z
1/2-x,1/2+y,-z
1/2-x,1/2-y,-z
1/2+x,1/2-y,z
loop_
_atom_site_type_symbol
_atom_site_label
_atom_site_fract_x
_atom_site_fract_y
_atom_site_fract_z
Si Si1 0.312684 0.713559 0.227363
Si Si2 0.157107 0.729992 0.475619
Si Si3 0.607582 0.130307 0.879599
Si Si4 0.341141 0.414765 0.833300
Si Si5 0.964615 0.363723 0.789140
Si Si6 0.760136 0.169392 0.044360
Si Si7 0.483787 0.300014 0.303933
Si Si8 0.938668 0.424329 0.433880
O O1 0.204332 0.733542 0.343811
O O2 0.366848 0.784848 0.152335
O O3 0.286102 0.670267 0.143995
O O4 0.392847 0.682596 0.268606
O O5 0.250000 0.750000 0.500000
O O6 0.062694 0.780760 0.566544
O O7 0.130296 0.647502 0.518106
O O8 0.719518 0.095826 0.855364
O O9 0.566079 0.107811 0.796393
O O10 0.500000 0.121501 0.000000
O O11 0.367440 0.500000 0.818541
O O12 0.427462 0.362668 0.736598
O O13 0.339369 0.379052 0.940334
O O14 0.855893 0.368049 0.903938
O O15 0.973180 0.278279 0.756790
O O16 0.969570 0.409508 0.691375
O O17 0.750000 0.250000 0.000000
O O18 0.880140 0.500000 0.443923
O O19 0.000000 0.429670 0.500000
#
# Coordination Sequence:
#
# PCOD9187940 Si02
#       8
#     8   8   8   8   8   8   8   8
#     4  10  20  35  69  98 119 158 220 271 310 378
#     4   9  19  40  64  94 119 158 216 262 307 377
#     4  11  21  39  62  92 122 160 215 277 322 360
#     4  12  26  41  59  93 140 177 211 260 328 400
#     4  10  19  35  63  90 117 161 215 265 313 372
#     4  12  20  37  61  91 124 165 214 261 313 377
#     4   9  20  39  63  92 126 165 213 263 315 379
#     4  10  21  36  57  88 127 158 192 254 324 373
#
# _framework density 20.012581999999998
#
# number of rings (size 3 to 8) (size 9 to 14) (size 15 to 20)
#    0.000    1.625    3.750    1.500    1.750    2.250 
#    0.000    4.375    0.000    1.500    0.000    0.000 
#    0.000    0.000    0.000    0.000    0.000    0.000 
#
# Total GULP energy -178184.131277 kJ/mol
# GULP energy per Si atom -5568.254102 kJ/mol
# Density = 1.996703 g / cm^3
# Si number density = 20.012582 Si / 1000 Ang^3
#
#
#
# Elastic Constant Matrix: (Units=GPa)
#
#
# Indices 1 2 3 4 5 6 
#
# 1 69.1948 46.7537 41.0649 0.0000 -4.2873 0.0000
# 2 46.7537 112.7720 48.3674 0.0000 0.3339 0.0000
# 3 41.0649 48.3674 114.2857 0.0000 -4.5907 0.0000
# 4 0.0000 0.0000 0.0000 27.3076 0.0000 -0.5266
# 5 -4.2873 0.3339 -4.5907 0.0000 26.0003 0.0000
# 6 0.0000 0.0000 0.0000 -0.5266 0.0000 14.9477
#
#
#
# Elastic Compliance Matrix: (Units=1/GPa)
#
#
# Indices 1 2 3 4 5 6 
#
# 1 0.022395 -0.007199 -0.004883 0.000000 0.002923 0.000000
# 2 -0.007199 0.013172 -0.003064 0.000000 -0.001897 0.000000
# 3 -0.004883 -0.003064 0.011854 0.000000 0.001327 0.000000
# 4 0.000000 0.000000 0.000000 0.036645 0.000000 0.001291
# 5 0.002923 -0.001897 0.001327 0.000000 0.039202 0.000000
# 6 0.000000 0.000000 0.000000 0.001291 0.000000 0.066945
#
#
# Mechanical properties :
#
#
# Convention : Reuss Voigt Hill
#
# Bulk Modulus (GPa) = 58.37798 63.18049 60.77923
# Shear Modulus (GPa) = 22.10287 24.32224 23.21255
#
# Velocity S-wave (km/s) = 3.32693 3.48997 3.40942
# Velocity P-wave (km/s) = 6.63264 6.91945 6.77756
#
# Compressibility (1/GPa) = 0.01712975
#
# Stress axis : x y z
#
# Youngs Moduli (GPa) = 44.65242 75.91948 84.35625
#
# Poissons Ratio (x) = 0.54656 0.41189
# Poissons Ratio (y) = 0.32146 0.25846
# Poissons Ratio (z) = 0.21803 0.23261
#
# Static dielectric constant tensor:
#      x y z
#    x 1.792040 0.000000 -0.000910 
#    y 0.000000 1.641610 0.000000 
#    z -0.000910 0.000000 1.758920 
# 
# From -- ./inp_files/216356.got.cif
#   From: 2010.05.17/outbox.cif.g08.bks.cpg/sg12_109_cif.got.tgz:216356.got - 2010.06.03 13:09:07.
