data_PCOD9187498
_publ_section_title
;
Structure prediction by ZEFSAII (Michael W. Deem and Ramdas Pophale) SiO2 
 PCOD9187498
Probable space group: C 2/M
;
_chemical_formula_sum "Si O2"
_cell_formula_units_Z 56
_cell_length_a 13.038111
_cell_length_b 13.084885
_cell_length_c 18.533904
_cell_angle_alpha 90.000000
_cell_angle_beta 56.375313
_cell_angle_gamma 90.000000
_cell_volume 2632.879891
_symmetry_space_group_name_H-M "C 2/M"
_symmetry_group_IT_number 12
_symmetry_cell_setting 'monoclinic'
loop_
_space_group_symop_operation_xyz
x,y,z
-x,y,-z
-x,-y,-z
x,-y,z
1/2+x,1/2+y,z
1/2-x,1/2+y,-z
1/2-x,1/2-y,-z
1/2+x,1/2-y,z
loop_
_atom_site_type_symbol
_atom_site_label
_atom_site_fract_x
_atom_site_fract_y
_atom_site_fract_z
Si Si1 0.800567 0.612373 0.523945
Si Si2 0.509707 0.381254 0.888813
Si Si3 0.363697 0.326553 0.544547
Si Si4 0.714964 0.115919 0.031720
Si Si5 0.189484 0.266300 0.901463
Si Si6 0.321641 0.376552 0.719179
Si Si7 0.057827 0.119507 0.709879
O O1 0.858044 0.500000 0.507333
O O2 0.726691 0.620246 0.477340
O O3 0.880884 0.712529 0.505397
O O4 0.693659 0.623757 0.625728
O O5 0.551081 0.500000 0.881814
O O6 0.362562 0.383427 0.957047
O O7 0.586542 0.309372 0.911246
O O8 0.539769 0.340784 0.797052
O O9 0.500000 0.373937 0.500000
O O10 0.302304 0.331261 0.647327
O O11 0.653821 0.162336 0.983535
O O12 0.676511 0.000000 0.060567
O O13 0.706859 0.191244 0.103151
O O14 0.237440 0.334284 0.816626
O O15 0.312774 0.500000 0.717824
O O16 0.458936 0.342556 0.690741
O O17 0.025262 0.000000 0.730812
#
# Coordination Sequence:
#
# PCOD9187498 Si02
#       7
#     8   8   8   8   8   8   8
#     4  10  21  37  57  87 120 152 188 231 278 333
#     4  10  19  35  59  87 114 146 189 236 279 329
#     4  11  22  36  60  90 115 149 190 233 282 334
#     4  10  21  38  58  84 114 145 188 237 280 333
#     4  11  21  33  58  87 110 147 187 231 287 335
#     4  11  21  36  58  85 114 147 187 239 285 329
#     4   9  17  32  56  81 110 146 188 231 271 321
#
# _framework density 21.269485
#
# number of rings (size 3 to 8) (size 9 to 14) (size 15 to 20)
#    0.000    1.714    2.857    2.571    0.000    2.000 
#    0.000    0.714    0.000   18.000    0.000    0.000 
#    0.000    0.000    0.000    0.000    0.000    0.000 
#
# Total GULP energy -156277.715475 kJ/mol
# GULP energy per Si atom -5581.346981 kJ/mol
# Density = 2.122107 g / cm^3
# Si number density = 21.269485 Si / 1000 Ang^3
#
#
#
# Elastic Constant Matrix: (Units=GPa)
#
#
# Indices 1 2 3 4 5 6 
#
# 1 77.9892 29.6479 23.6952 0.0000 25.6596 0.0000
# 2 29.6479 127.0856 14.3252 0.0000 20.2778 0.0000
# 3 23.6952 14.3252 85.4171 0.0000 39.4938 0.0000
# 4 0.0000 0.0000 0.0000 23.0290 0.0000 2.0253
# 5 25.6596 20.2778 39.4938 0.0000 32.1055 0.0000
# 6 0.0000 0.0000 0.0000 2.0253 0.0000 22.3835
#
#
#
# Elastic Compliance Matrix: (Units=1/GPa)
#
#
# Indices 1 2 3 4 5 6 
#
# 1 0.018289 -0.001837 0.003378 0.000000 -0.017611 0.000000
# 2 -0.001837 0.009176 0.002253 0.000000 -0.007098 0.000000
# 3 0.003378 0.002253 0.028519 0.000000 -0.039205 0.000000
# 4 0.000000 0.000000 0.000000 0.043772 0.000000 -0.003960
# 5 -0.017611 -0.007098 -0.039205 0.000000 0.097933 0.000000
# 6 0.000000 0.000000 0.000000 -0.003960 0.000000 0.045034
#
#
# Mechanical properties :
#
#
# Convention : Reuss Voigt Hill
#
# Bulk Modulus (GPa) = 15.73057 47.31429 31.52243
# Shear Modulus (GPa) = 19.50634 30.35852 24.93243
#
# Velocity S-wave (km/s) = 3.03166 3.78210 3.42748
# Velocity P-wave (km/s) = 4.43469 6.43162 5.52414
#
# Compressibility (1/GPa) = 0.06357048
#
# Stress axis : x y z
#
# Youngs Moduli (GPa) = 54.67778 108.97976 35.06398
#
# Poissons Ratio (x) = 0.20023 -0.11843
# Poissons Ratio (y) = 0.10046 -0.07899
# Poissons Ratio (z) = -0.18468 -0.24551
#
# Static dielectric constant tensor:
#      x y z
#    x 1.785680 0.000000 0.018740 
#    y 0.000000 1.804020 0.000000 
#    z 0.018740 0.000000 1.796980 
# 
# From -- ./inp_files/263224.got.cif
#   From: 2010.05.17/outbox.cif.g08.bks.cpg/sg12_132_cif.got.tgz:263224.got - 2010.06.03 13:09:07.
