data_PCOD9187779
_publ_section_title
;
Structure prediction by ZEFSAII (Michael W. Deem and Ramdas Pophale) SiO2 
 PCOD9187779
Probable space group: C 2/M
;
_chemical_formula_sum "Si O2"
_cell_formula_units_Z 60
_cell_length_a 23.507886
_cell_length_b 7.387702
_cell_length_c 20.734262
_cell_angle_alpha 90.000000
_cell_angle_beta 138.152871
_cell_angle_gamma 90.000000
_cell_volume 2402.326595
_symmetry_space_group_name_H-M "C 2/M"
_symmetry_group_IT_number 12
_symmetry_cell_setting 'monoclinic'
loop_
_space_group_symop_operation_xyz
x,y,z
-x,y,-z
-x,-y,-z
x,-y,z
1/2+x,1/2+y,z
1/2-x,1/2+y,-z
1/2-x,1/2-y,-z
1/2+x,1/2-y,z
loop_
_atom_site_type_symbol
_atom_site_label
_atom_site_fract_x
_atom_site_fract_y
_atom_site_fract_z
Si Si1 0.750000 0.250000 0.500000
Si Si2 0.308147 0.221008 0.936974
Si Si3 0.379168 0.708203 0.227386
Si Si4 0.110366 0.291860 0.127427
Si Si5 0.556479 0.289141 0.324597
Si Si6 0.907371 0.718736 0.398919
Si Si7 0.750041 0.218619 0.648487
Si Si8 0.486806 0.781236 0.128285
O O1 0.646070 0.207666 0.421414
O O2 0.759836 0.285105 0.584821
O O3 0.212642 0.286299 0.870822
O O4 0.341345 0.283718 0.894370
O O5 0.302462 0.000000 0.930847
O O6 0.387314 0.270238 0.049641
O O7 0.381793 0.500000 0.206917
O O8 0.469071 0.789387 0.280202
O O9 0.380967 0.711464 0.306521
O O10 0.092046 0.500000 0.094670
O O11 0.178185 0.285969 0.242439
O O12 0.026385 0.218308 0.093129
O O13 0.565901 0.500000 0.351571
O O14 0.540612 0.284311 0.234379
O O15 0.907691 0.500000 0.394274
O O16 0.838956 0.770210 0.394614
O O17 0.000000 0.778820 0.500000
O O18 0.756366 0.000000 0.650224
O O19 0.491249 0.000000 0.131815
#
# Coordination Sequence:
#
# PCOD9187779 Si02
#       8
#     4   8   8   8   8   8   8   8
#     4  12  24  40  60  80 118 164 194 236 304 362
#     4   9  18  36  62  91 123 157 197 249 303 356
#     4  10  21  39  62  88 119 157 202 250 298 354
#     4  10  19  35  61  89 117 153 198 244 292 351
#     4  11  25  42  61  88 122 159 204 254 299 355
#     4  10  21  38  59  85 117 153 196 247 305 361
#     4  11  23  38  60  87 117 153 196 246 297 356
#     4  10  21  37  61  91 122 160 204 247 298 361
#
# _framework density 24.975787
#
# number of rings (size 3 to 8) (size 9 to 14) (size 15 to 20)
#    0.000    1.733    2.667    1.600    0.000    5.067 
#    0.000    1.333    0.000    1.600    0.000    0.000 
#    0.000    0.000    0.000    0.000    0.000    0.000 
#
# Total GULP energy -167284.038061 kJ/mol
# GULP energy per Si atom -5576.134602 kJ/mol
# Density = 2.491894 g / cm^3
# Si number density = 24.975787 Si / 1000 Ang^3
#
#
#
# Elastic Constant Matrix: (Units=GPa)
#
#
# Indices 1 2 3 4 5 6 
#
# 1 113.6665 5.5163 27.6029 0.0000 35.3904 0.0000
# 2 5.5163 92.5000 0.8639 -0.0001 11.1332 0.0000
# 3 27.6029 0.8639 157.5008 0.0000 43.0992 0.0000
# 4 0.0000 -0.0001 0.0000 -2.7069 0.0000 -15.2542
# 5 35.3904 11.1332 43.0992 0.0000 62.9846 0.0000
# 6 0.0000 0.0000 0.0000 -15.2542 0.0000 -11.0447
#
#
#
# Elastic Compliance Matrix: (Units=1/GPa)
#
#
# Indices 1 2 3 4 5 6 
#
# 1 0.010674 0.000066 -0.000279 0.000000 -0.005818 0.000000
# 2 0.000066 0.011090 0.000583 0.000000 -0.002397 0.000000
# 3 -0.000279 0.000583 0.007850 0.000000 -0.005318 0.000000
# 4 0.000000 0.000000 0.000000 0.054463 0.000000 -0.075220
# 5 -0.005818 -0.002397 -0.005318 0.000000 0.023209 0.000000
# 6 0.000000 0.000000 0.000000 -0.075220 0.000000 0.013348
#
#
# Mechanical properties :
#
#
# Convention : Reuss Voigt Hill
#
# Bulk Modulus (GPa) = 32.94288 47.95929 40.45108
# Shear Modulus (GPa) = 38.45845 31.82554 35.14199
#
# Velocity S-wave (km/s) = 3.92832 3.57354 3.75513
# Velocity P-wave (km/s) = 5.81328 6.02254 5.91883
#
# Compressibility (1/GPa) = 0.03035558
#
# Stress axis : x y z
#
# Youngs Moduli (GPa) = 93.68795 90.17238 127.38661
#
# Poissons Ratio (x) = -0.00598 0.03552
# Poissons Ratio (y) = -0.00622 -0.07432
# Poissons Ratio (z) = 0.02612 -0.05261
#
# Static dielectric constant tensor:
#      x y z
#    x 1.963460 0.000000 0.050060 
#    y 0.000000 2.002750 0.000000 
#    z 0.050060 0.000000 1.932860 
# 
# From -- ./inp_files/348857.got.cif
#   From: 2010.05.17/outbox.cif.g08.bks.cpg/sg12_175_cif.got.tgz:348857.got - 2010.06.03 13:09:07.
