data_PCOD9187969
_publ_section_title
;
Structure prediction by ZEFSAII (Michael W. Deem and Ramdas Pophale) SiO2 
 PCOD9187969
Probable space group: C 2/M
;
_chemical_formula_sum "Si O2"
_cell_formula_units_Z 56
_cell_length_a 17.900697
_cell_length_b 19.589599
_cell_length_c 9.864259
_cell_angle_alpha 90.000000
_cell_angle_beta 57.795546
_cell_angle_gamma 90.000000
_cell_volume 2926.902164
_symmetry_space_group_name_H-M "C 2/M"
_symmetry_group_IT_number 12
_symmetry_cell_setting 'monoclinic'
loop_
_space_group_symop_operation_xyz
x,y,z
-x,y,-z
-x,-y,-z
x,-y,z
1/2+x,1/2+y,z
1/2-x,1/2+y,-z
1/2-x,1/2-y,-z
1/2+x,1/2-y,z
loop_
_atom_site_type_symbol
_atom_site_label
_atom_site_fract_x
_atom_site_fract_y
_atom_site_fract_z
Si Si1 0.755402 0.190289 0.333132
Si Si2 0.357793 0.419267 0.419844
Si Si3 0.240107 0.923057 0.220261
Si Si4 0.277221 0.326718 0.010549
Si Si5 0.984597 0.156728 0.852318
Si Si6 0.427877 0.925896 0.188480
Si Si7 0.604682 0.780831 0.677186
O O1 0.796050 0.129962 0.387565
O O2 0.666758 0.218875 0.485707
O O3 0.828023 0.251704 0.270990
O O4 0.741571 0.162715 0.196700
O O5 0.339395 0.500000 0.419354
O O6 0.334757 0.402044 0.598340
O O7 0.457086 0.401286 0.277753
O O8 0.254044 0.875101 0.079336
O O9 0.330640 0.925122 0.217337
O O10 0.219593 0.000000 0.193944
O O11 0.381764 0.341049 0.921381
O O12 0.250000 0.250000 0.000000
O O13 0.026584 0.226972 0.757102
O O14 0.000000 0.151862 0.000000
O O15 0.431212 0.856609 0.268933
O O16 0.439260 0.000000 0.246998
O O17 0.500000 0.922161 0.000000
#
# Coordination Sequence:
#
# PCOD9187969 Si02
#       7
#     8   8   8   8   8   8   8
#     4  10  21  38  60  91 116 163 204 242 301 361
#     4  10  21  40  67  91 120 162 209 253 297 368
#     4  10  23  42  62  91 129 162 197 254 319 367
#     4  12  26  40  60  92 127 163 199 253 315 366
#     4  11  23  40  61  93 118 163 211 251 302 359
#     4  10  20  34  62  92 113 155 208 249 294 355
#     4  10  19  35  64  82 120 149 203 258 282 345
#
# _framework density 19.132857999999999
#
# number of rings (size 3 to 8) (size 9 to 14) (size 15 to 20)
#    0.000    1.571    4.286    1.286    6.000    2.000 
#    0.000    1.429    0.000    0.000    0.000    3.000 
#    0.000    0.000    0.000    0.000    0.000    0.000 
#
# Total GULP energy -156215.395551 kJ/mol
# GULP energy per Si atom -5579.121270 kJ/mol
# Density = 1.908931 g / cm^3
# Si number density = 19.132858 Si / 1000 Ang^3
#
#
#
# Elastic Constant Matrix: (Units=GPa)
#
#
# Indices 1 2 3 4 5 6 
#
# 1 5.7787 -16.2417 -2.6621 0.0000 -4.1626 0.0000
# 2 -16.2417 104.6802 22.8716 0.0000 16.8073 0.0000
# 3 -2.6621 22.8716 88.2801 0.0000 3.9154 0.0000
# 4 0.0000 0.0000 0.0000 55.5044 0.0000 -21.4318
# 5 -4.1626 16.8073 3.9154 0.0000 32.2473 0.0000
# 6 0.0000 0.0000 0.0000 -21.4318 0.0000 36.1535
#
#
#
# Elastic Compliance Matrix: (Units=1/GPa)
#
#
# Indices 1 2 3 4 5 6 
#
# 1 0.315742 0.047062 -0.003410 0.000000 0.016642 0.000000
# 2 0.047062 0.018006 -0.003116 0.000000 -0.002932 0.000000
# 3 -0.003410 -0.003116 0.012044 0.000000 -0.000279 0.000000
# 4 0.000000 0.000000 0.000000 0.023365 0.000000 0.013851
# 5 0.016642 -0.002932 -0.000279 0.000000 0.034720 0.000000
# 6 0.000000 0.000000 0.000000 0.013851 0.000000 0.035870
#
#
# Mechanical properties :
#
#
# Convention : Reuss Voigt Hill
#
# Bulk Modulus (GPa) = 2.34266 22.96383 12.65325
# Shear Modulus (GPa) = 9.98076 37.76581 23.87329
#
# Velocity S-wave (km/s) = 2.28646 4.44765 3.53620
# Velocity P-wave (km/s) = 2.86314 6.19708 4.82708
#
# Compressibility (1/GPa) = 0.42686591
#
# Stress axis : x y z
#
# Youngs Moduli (GPa) = 3.16714 55.53595 83.02628
#
# Poissons Ratio (x) = -2.61364 0.28309
# Poissons Ratio (y) = -0.14905 0.25870
# Poissons Ratio (z) = 0.01080 0.17304
#
# Static dielectric constant tensor:
#      x y z
#    x 1.676010 0.000000 -0.009000 
#    y 0.000000 1.699130 0.000000 
#    z -0.009000 0.000000 1.676410 
# 
# From -- ./inp_files/77397.got.cif
#   From: 2010.05.17/outbox.cif.g08.bks.cpg/sg12_39_cif.got.tgz:77397.got - 2010.06.03 13:09:07.
