data_PCOD9187923
_publ_section_title
;
Structure prediction by ZEFSAII (Michael W. Deem and Ramdas Pophale) SiO2 
 PCOD9187923
Probable space group: C 2/M
;
_chemical_formula_sum "Si O2"
_cell_formula_units_Z 58
_cell_length_a 17.439313
_cell_length_b 20.123111
_cell_length_c 14.155562
_cell_angle_alpha 90.000000
_cell_angle_beta 33.053050
_cell_angle_gamma 90.000000
_cell_volume 2709.436315
_symmetry_space_group_name_H-M "C 2/M"
_symmetry_group_IT_number 12
_symmetry_cell_setting 'monoclinic'
loop_
_space_group_symop_operation_xyz
x,y,z
-x,y,-z
-x,-y,-z
x,-y,z
1/2+x,1/2+y,z
1/2-x,1/2+y,-z
1/2-x,1/2-y,-z
1/2+x,1/2-y,z
loop_
_atom_site_type_symbol
_atom_site_label
_atom_site_fract_x
_atom_site_fract_y
_atom_site_fract_z
Si Si1 0.000000 0.500000 0.000000
Si Si2 0.385857 0.774740 0.272150
Si Si3 0.743054 0.423031 0.968949
Si Si4 0.944428 0.927247 0.383537
Si Si5 0.872686 0.627635 0.016596
Si Si6 0.222712 0.143642 0.590582
Si Si7 0.332373 0.419936 0.162392
Si Si8 0.640616 0.688525 0.387775
O O1 0.923304 0.559813 0.015046
O O2 0.510598 0.815140 0.097022
O O3 0.340987 0.815859 0.411717
O O4 0.405548 0.697596 0.275124
O O5 0.252811 0.774625 0.338171
O O6 0.788535 0.500000 0.915728
O O7 0.844776 0.385261 0.934922
O O8 0.721807 0.398066 0.884414
O O9 0.591935 0.423141 0.177389
O O10 0.825485 0.916103 0.427033
O O11 0.919362 0.871210 0.486115
O O12 0.930185 0.000000 0.442070
O O13 0.732276 0.655675 0.210324
O O14 0.245358 0.115895 0.671040
O O15 0.316776 0.500000 0.185178
O O16 0.500000 0.406528 0.000000
O O17 0.500000 0.726248 0.500000
#
# Coordination Sequence:
#
# PCOD9187923 Si02
#       8
#     2   8   8   8   8   8   8   8
#     4  12  24  40  62  92 136 184 198 260 326 398
#     4  10  24  43  62  88 126 171 217 259 317 386
#     4  10  20  35  57  93 132 160 203 270 317 382
#     4  10  20  34  61  96 122 156 206 261 320 364
#     4  12  23  41  62  94 132 173 213 256 331 392
#     4  10  21  42  65  84 123 167 215 267 310 380
#     4  10  19  35  62  96 124 155 207 267 328 376
#     4  11  22  37  62  94 128 161 209 262 315 384
#
# _framework density 21.406666999999999
#
# number of rings (size 3 to 8) (size 9 to 14) (size 15 to 20)
#    0.000    1.517    4.828    0.414    0.966    1.379 
#    1.241    5.517    0.000    1.655    0.000    0.000 
#    0.000    0.000    0.000    0.000    0.000    0.000 
#
# Total GULP energy -161651.690171 kJ/mol
# GULP energy per Si atom -5574.196213 kJ/mol
# Density = 2.135794 g / cm^3
# Si number density = 21.406667 Si / 1000 Ang^3
#
#
#
# Elastic Constant Matrix: (Units=GPa)
#
#
# Indices 1 2 3 4 5 6 
#
# 1 140.9246 0.8792 38.8781 0.0001 10.9210 -0.0005
# 2 0.8792 33.3030 14.6480 -0.0006 -3.7555 0.0001
# 3 38.8781 14.6480 68.5109 -0.0001 7.2277 -0.0005
# 4 0.0001 -0.0006 -0.0001 16.4776 0.0001 8.1272
# 5 10.9210 -3.7555 7.2277 0.0001 30.1091 0.0002
# 6 -0.0005 0.0001 -0.0005 8.1272 0.0002 13.9419
#
#
#
# Elastic Compliance Matrix: (Units=1/GPa)
#
#
# Indices 1 2 3 4 5 6 
#
# 1 0.008624 0.001831 -0.005109 0.000000 -0.001673 0.000000
# 2 0.001831 0.034619 -0.009055 0.000002 0.005828 -0.000002
# 3 -0.005109 -0.009055 0.019858 -0.000001 -0.004043 0.000001
# 4 0.000000 0.000002 -0.000001 0.085179 0.000001 -0.049653
# 5 -0.001673 0.005828 -0.004043 0.000001 0.035517 -0.000001
# 6 0.000000 -0.000002 0.000001 -0.049653 -0.000001 0.100671
#
#
# Mechanical properties :
#
#
# Convention : Reuss Voigt Hill
#
# Bulk Modulus (GPa) = 26.01872 39.06101 32.53987
# Shear Modulus (GPa) = 15.53062 24.66128 20.09595
#
# Velocity S-wave (km/s) = 2.69644 3.39785 3.06726
# Velocity P-wave (km/s) = 4.67710 5.80350 5.27048
#
# Compressibility (1/GPa) = 0.03843387
#
# Stress axis : x y z
#
# Youngs Moduli (GPa) = 115.96119 28.88583 50.35800
#
# Poissons Ratio (x) = -0.05288 0.25725
# Poissons Ratio (y) = -0.21228 0.45601
# Poissons Ratio (z) = 0.59239 0.26157
#
# Static dielectric constant tensor:
#      x y z
#    x 1.836840 0.000000 -0.005600 
#    y 0.000000 1.760360 0.000000 
#    z -0.005600 0.000000 1.790630 
# 
# From -- ./inp_files/227993.got.cif
#   From: 2010.05.17/outbox.cif.g08.bks.cpg/sg12_114_cif.got.tgz:227993.got - 2010.06.03 13:09:07.
