data_PCOD9187789
_publ_section_title
;
Structure prediction by ZEFSAII (Michael W. Deem and Ramdas Pophale) SiO2 
 PCOD9187789
Probable space group: C 2/M
;
_chemical_formula_sum "Si O2"
_cell_formula_units_Z 58
_cell_length_a 30.588178
_cell_length_b 7.538148
_cell_length_c 24.277764
_cell_angle_alpha 90.000000
_cell_angle_beta 151.387878
_cell_angle_gamma 90.000000
_cell_volume 2680.720145
_symmetry_space_group_name_H-M "C 2/M"
_symmetry_group_IT_number 12
_symmetry_cell_setting 'monoclinic'
loop_
_space_group_symop_operation_xyz
x,y,z
-x,y,-z
-x,-y,-z
x,-y,z
1/2+x,1/2+y,z
1/2-x,1/2+y,-z
1/2-x,1/2-y,-z
1/2+x,1/2-y,z
loop_
_atom_site_type_symbol
_atom_site_label
_atom_site_fract_x
_atom_site_fract_y
_atom_site_fract_z
Si Si1 0.500000 0.500000 0.500000
Si Si2 0.682941 0.284425 0.095801
Si Si3 0.011442 0.214871 0.075730
Si Si4 0.969435 0.287036 0.718544
Si Si5 0.681426 0.290981 0.973421
Si Si6 0.842289 0.718195 0.355850
Si Si7 0.649883 0.796950 0.509169
Si Si8 0.340349 0.795260 0.673958
O O1 0.421795 0.341570 0.420229
O O2 0.681201 0.500000 0.093737
O O3 0.751519 0.238641 0.220544
O O4 0.579483 0.227210 0.992952
O O5 0.710137 0.218198 0.065154
O O6 0.100287 0.283289 0.204840
O O7 0.016895 0.000000 0.082891
O O8 0.000000 0.269251 0.000000
O O9 0.958462 0.500000 0.706575
O O10 0.928915 0.215405 0.616229
O O11 0.905617 0.220318 0.698060
O O12 0.076321 0.255117 0.844786
O O13 0.683549 0.500000 0.981732
O O14 0.750000 0.250000 0.000000
O O15 0.856272 0.500000 0.366849
O O16 0.833775 0.769723 0.411080
O O17 0.743153 0.792245 0.577423
O O18 0.622515 0.000000 0.487628
O O19 0.320601 0.000000 0.639490
#
# Coordination Sequence:
#
# PCOD9187789 Si02
#       8
#     2   8   8   8   8   8   8   8
#     4  12  26  44  68 102 130 168 222 276 338 400
#     4   9  19  39  64  89 124 166 211 259 317 388
#     4  10  19  35  61  89 122 167 215 251 307 388
#     4  10  22  41  61  92 129 168 212 264 321 389
#     4  11  23  41  64  91 123 165 213 265 322 384
#     4  10  23  46  70  96 132 172 218 277 335 393
#     4  10  22  41  66  89 125 174 219 258 320 396
#     4  11  22  35  58  94 134 165 204 266 325 382
#
# _framework density 21.635977
#
# number of rings (size 3 to 8) (size 9 to 14) (size 15 to 20)
#    0.000    1.793    1.379    2.276    0.966    4.690 
#    6.207    4.138    0.000    0.000    0.000    0.000 
#    0.000    0.000    0.000    0.000    0.000    0.000 
#
# Total GULP energy -161651.245178 kJ/mol
# GULP energy per Si atom -5574.180868 kJ/mol
# Density = 2.158673 g / cm^3
# Si number density = 21.635977 Si / 1000 Ang^3
#
#
#
# Elastic Constant Matrix: (Units=GPa)
#
#
# Indices 1 2 3 4 5 6 
#
# 1 38.4200 -2.4348 37.3947 0.0000 -23.3394 0.0000
# 2 -2.4348 67.7035 2.5730 0.0000 -1.7893 0.0000
# 3 37.3947 2.5730 104.9732 0.0000 -19.6340 0.0000
# 4 0.0000 0.0000 0.0000 18.6183 0.0000 13.0146
# 5 -23.3394 -1.7893 -19.6340 0.0000 37.9292 0.0000
# 6 0.0000 0.0000 0.0000 13.0146 0.0000 19.4946
#
#
#
# Elastic Compliance Matrix: (Units=1/GPa)
#
#
# Indices 1 2 3 4 5 6 
#
# 1 0.058596 0.003446 -0.015704 0.000000 0.028090 0.000000
# 2 0.003446 0.014998 -0.001181 0.000000 0.002217 0.000000
# 3 -0.015704 -0.001181 0.014761 0.000000 -0.002078 0.000000
# 4 0.000000 0.000000 0.000000 0.100707 0.000000 -0.067232
# 5 0.028090 0.002217 -0.002078 0.000000 0.042678 0.000000
# 6 0.000000 0.000000 0.000000 -0.067232 0.000000 0.096180
#
#
# Mechanical properties :
#
#
# Convention : Reuss Voigt Hill
#
# Bulk Modulus (GPa) = 16.26620 31.79584 24.03102
# Shear Modulus (GPa) = 13.32307 26.77934 20.05120
#
# Velocity S-wave (km/s) = 2.48419 3.52194 3.04756
# Velocity P-wave (km/s) = 3.97023 5.59165 4.84919
#
# Compressibility (1/GPa) = 0.06147719
#
# Stress axis : x y z
#
# Youngs Moduli (GPa) = 17.06614 66.67689 67.74704
#
# Poissons Ratio (x) = -0.22980 1.06391
# Poissons Ratio (y) = -0.05882 0.07999
# Poissons Ratio (z) = 0.26801 0.07872
#
# Static dielectric constant tensor:
#      x y z
#    x 1.780690 0.000000 -0.055100 
#    y 0.000000 1.891990 0.000000 
#    z -0.055100 0.000000 1.763110 
# 
# From -- ./inp_files/353069.got.cif
#   From: 2010.05.17/outbox.cif.g08.bks.cpg/sg12_177_cif.got.tgz:353069.got - 2010.06.03 13:09:07.
