data_PCOD9187848
_publ_section_title
;
Structure prediction by ZEFSAII (Michael W. Deem and Ramdas Pophale) SiO2 
 PCOD9187848
Probable space group: C 2/M
;
_chemical_formula_sum "Si O2"
_cell_formula_units_Z 40
_cell_length_a 17.117036
_cell_length_b 18.288624
_cell_length_c 12.291981
_cell_angle_alpha 90.000000
_cell_angle_beta 29.032822
_cell_angle_gamma 90.000000
_cell_volume 1867.459639
_symmetry_space_group_name_H-M "C 2/M"
_symmetry_group_IT_number 12
_symmetry_cell_setting 'monoclinic'
loop_
_space_group_symop_operation_xyz
x,y,z
-x,y,-z
-x,-y,-z
x,-y,z
1/2+x,1/2+y,z
1/2-x,1/2+y,-z
1/2-x,1/2-y,-z
1/2+x,1/2-y,z
loop_
_atom_site_type_symbol
_atom_site_label
_atom_site_fract_x
_atom_site_fract_y
_atom_site_fract_z
Si Si1 0.507283 0.414260 0.117508
Si Si2 0.378582 0.085755 0.733909
Si Si3 0.812012 0.194060 0.514854
Si Si4 0.500000 0.685060 0.500000
Si Si5 0.213830 0.417966 0.929182
Si Si6 0.500000 0.120958 0.000000
O O1 0.455880 0.500000 0.183391
O O2 0.408564 0.367654 0.326829
O O3 0.500000 0.389088 0.000000
O O4 0.695813 0.410760 0.916775
O O5 0.500000 0.119500 0.500000
O O6 0.426156 0.000000 0.688063
O O7 0.375528 0.116430 0.858351
O O8 0.750000 0.250000 0.500000
O O9 0.922351 0.220136 0.484031
O O10 0.647165 0.165623 0.769452
O O11 0.640885 0.632877 0.283201
O O12 0.274613 0.500000 0.882068
O O13 0.084762 0.422919 0.991876
#
# Coordination Sequence:
#
# PCOD9187848 Si02
#       6
#     8   8   8   4   8   4
#     4  10  22  40  67 100 136 179 227 279 337 397
#     4   9  18  33  56  91 133 169 211 262 321 388
#     4  11  25  46  69  96 137 180 229 284 340 416
#     4  10  21  42  66  94 123 172 230 268 338 410
#     4  10  19  35  61  94 132 169 206 269 332 393
#     4  10  25  40  58  96 131 172 226 266 330 408
#
# _framework density 21.419473
#
# number of rings (size 3 to 8) (size 9 to 14) (size 15 to 20)
#    0.000    2.000    2.000    0.600    4.200    4.000 
#    0.000    6.000    0.000    0.000    0.000    0.000 
#    0.000    0.000    0.000    0.000    0.000    0.000 
#
# Total GULP energy -111512.371141 kJ/mol
# GULP energy per Si atom -5575.618557 kJ/mol
# Density = 2.137072 g / cm^3
# Si number density = 21.419473 Si / 1000 Ang^3
#
#
#
# Elastic Constant Matrix: (Units=GPa)
#
#
# Indices 1 2 3 4 5 6 
#
# 1 166.6746 38.9570 54.2974 0.0078 27.5399 -0.0013
# 2 38.9570 45.2355 34.4533 0.0092 8.2430 -0.0014
# 3 54.2974 34.4533 162.8187 0.0071 27.0038 -0.0013
# 4 0.0078 0.0092 0.0071 -45.1090 -0.0060 3.7146
# 5 27.5399 8.2430 27.0038 -0.0060 39.6571 0.0011
# 6 -0.0013 -0.0014 -0.0013 3.7146 0.0011 26.7194
#
#
#
# Elastic Compliance Matrix: (Units=1/GPa)
#
#
# Indices 1 2 3 4 5 6 
#
# 1 0.008284 -0.005733 -0.000894 0.000001 -0.003952 0.000000
# 2 -0.005733 0.030449 -0.004669 0.000004 0.000832 0.000000
# 3 -0.000894 -0.004669 0.008076 0.000001 -0.003908 0.000000
# 4 0.000001 0.000004 0.000001 -0.021918 -0.000005 0.003047
# 5 -0.003952 0.000832 -0.003908 -0.000005 0.030449 -0.000001
# 6 0.000000 0.000000 0.000000 0.003047 -0.000001 0.037002
#
#
# Mechanical properties :
#
#
# Convention : Reuss Voigt Hill
#
# Bulk Modulus (GPa) = 41.29451 70.01602 55.65526
# Shear Modulus (GPa) = 40.64813 20.72159 30.68486
#
# Velocity S-wave (km/s) = 4.36101 3.11371 3.78903
# Velocity P-wave (km/s) = 6.68421 6.75913 6.72178
#
# Compressibility (1/GPa) = 0.02421629
#
# Stress axis : x y z
#
# Youngs Moduli (GPa) = 120.71457 32.84230 123.82287
#
# Poissons Ratio (x) = 0.18829 0.11068
# Poissons Ratio (y) = 0.69207 0.57814
# Poissons Ratio (z) = 0.10791 0.15334
#
# Static dielectric constant tensor:
#      x y z
#    x 1.994340 0.000000 -0.036940 
#    y 0.000000 1.811710 0.000000 
#    z -0.036940 0.000000 1.747620 
# 
# From -- ./inp_files/159414.got.cif
#   From: 2010.05.17/outbox.cif.g08.bks.cpg/sg12_80_cif.got.tgz:159414.got - 2010.06.03 13:09:07.
