data_PCOD9187715
_publ_section_title
;
Structure prediction by ZEFSAII (Michael W. Deem and Ramdas Pophale) SiO2 
 PCOD9187715
Probable space group: C 2/M
;
_chemical_formula_sum "Si O2"
_cell_formula_units_Z 58
_cell_length_a 15.035668
_cell_length_b 13.563124
_cell_length_c 14.610881
_cell_angle_alpha 90.000000
_cell_angle_beta 124.337394
_cell_angle_gamma 90.000000
_cell_volume 2460.351190
_symmetry_space_group_name_H-M "C 2/M"
_symmetry_group_IT_number 12
_symmetry_cell_setting 'monoclinic'
loop_
_space_group_symop_operation_xyz
x,y,z
-x,y,-z
-x,-y,-z
x,-y,z
1/2+x,1/2+y,z
1/2-x,1/2+y,-z
1/2-x,1/2-y,-z
1/2+x,1/2-y,z
loop_
_atom_site_type_symbol
_atom_site_label
_atom_site_fract_x
_atom_site_fract_y
_atom_site_fract_z
Si Si1 0.385012 0.116538 0.111690
Si Si2 0.711882 0.890533 0.125636
Si Si3 0.461595 0.788528 0.331039
Si Si4 0.000000 0.000000 0.500000
Si Si5 0.685814 0.886157 0.436007
Si Si6 0.400401 0.615267 0.677195
Si Si7 0.330923 0.660715 0.365170
Si Si8 0.055850 0.231199 0.119648
O O1 0.381005 0.161450 0.210601
O O2 0.475845 0.186951 0.118790
O O3 0.414074 0.000000 0.133718
O O4 0.284152 0.122814 0.982003
O O5 0.810114 0.887523 0.253100
O O6 0.645965 0.799803 0.127107
O O7 0.660926 0.000000 0.107902
O O8 0.568450 0.854169 0.400789
O O9 0.515045 0.687472 0.323613
O O10 0.392532 0.761158 0.379396
O O11 0.091509 0.085691 0.538286
O O12 0.781910 0.872487 0.564224
O O13 0.724728 0.832188 0.365506
O O14 0.679604 0.000000 0.407163
O O15 0.430665 0.500000 0.685914
O O16 0.404941 0.652829 0.784014
O O17 0.000000 0.181085 0.000000
#
# Coordination Sequence:
#
# PCOD9187715 Si02
#       8
#     8   8   8   2   8   8   8   8
#     4   9  18  35  60  92 130 169 221 277 337 410
#     4  10  19  35  60  93 128 168 215 283 346 393
#     4  11  24  38  64 101 134 176 226 281 348 406
#     4  12  24  40  60 100 128 170 222 284 328 390
#     4  11  23  44  68  97 136 178 230 286 341 405
#     4  10  22  36  57  87 128 175 221 275 337 406
#     4  12  24  38  66  97 138 171 222 284 343 399
#     4   9  18  34  60  95 131 169 225 283 337 404
#
# _framework density 23.573869999999999
#
# number of rings (size 3 to 8) (size 9 to 14) (size 15 to 20)
#    0.000    1.655    1.379    3.724    2.897    3.586 
#    0.000    0.000    0.000    6.621    0.000   33.793 
#    0.000    0.000    0.000    0.000    0.000    0.000 
#
# Total GULP energy -161759.100316 kJ/mol
# GULP energy per Si atom -5577.900011 kJ/mol
# Density = 2.352021 g / cm^3
# Si number density = 23.573870 Si / 1000 Ang^3
#
#
#
# Elastic Constant Matrix: (Units=GPa)
#
#
# Indices 1 2 3 4 5 6 
#
# 1 63.1172 17.1195 17.5805 0.0000 -6.1033 0.0000
# 2 17.1195 96.3092 37.3556 0.0000 -6.7593 0.0000
# 3 17.5805 37.3556 127.3467 0.0000 -15.1173 0.0000
# 4 0.0000 0.0000 0.0000 36.8522 0.0000 5.1274
# 5 -6.1033 -6.7593 -15.1173 0.0000 15.2936 0.0000
# 6 0.0000 0.0000 0.0000 5.1274 0.0000 13.8066
#
#
#
# Elastic Compliance Matrix: (Units=1/GPa)
#
#
# Indices 1 2 3 4 5 6 
#
# 1 0.017241 -0.002287 -0.001147 0.000000 0.004736 0.000000
# 2 -0.002287 0.012075 -0.003060 0.000000 0.001399 0.000000
# 3 -0.001147 -0.003060 0.009849 0.000000 0.007926 0.000000
# 4 0.000000 0.000000 0.000000 0.028614 0.000000 -0.010626
# 5 0.004736 0.001399 0.007926 0.000000 0.075729 0.000000
# 6 0.000000 0.000000 0.000000 -0.010626 0.000000 0.076376
#
#
# Mechanical properties :
#
#
# Convention : Reuss Voigt Hill
#
# Bulk Modulus (GPa) = 38.20222 47.87603 43.03912
# Shear Modulus (GPa) = 20.69540 27.50497 24.10018
#
# Velocity S-wave (km/s) = 2.96614 3.41949 3.20085
# Velocity P-wave (km/s) = 5.28878 5.99529 5.65309
#
# Compressibility (1/GPa) = 0.02617649
#
# Stress axis : x y z
#
# Youngs Moduli (GPa) = 57.99983 82.81582 101.52854
#
# Poissons Ratio (x) = 0.18944 0.11646
# Poissons Ratio (y) = 0.13267 0.31070
# Poissons Ratio (z) = 0.06653 0.25343
#
# Static dielectric constant tensor:
#      x y z
#    x 1.897750 0.000000 0.014730 
#    y 0.000000 1.877980 0.000000 
#    z 0.014730 0.000000 2.034350 
# 
# From -- ./inp_files/215250.got.cif
#   From: 2010.05.17/outbox.cif.g08.bks.cpg/sg12_108_cif.got.tgz:215250.got - 2010.06.03 13:09:07.
