data_PCOD9187844
_publ_section_title
;
Structure prediction by ZEFSAII (Michael W. Deem and Ramdas Pophale) SiO2 
 PCOD9187844
Probable space group: C 2/M
;
_chemical_formula_sum "Si O2"
_cell_formula_units_Z 40
_cell_length_a 14.417322
_cell_length_b 23.016407
_cell_length_c 13.769555
_cell_angle_alpha 90.000000
_cell_angle_beta 154.480719
_cell_angle_gamma 90.000000
_cell_volume 1968.487467
_symmetry_space_group_name_H-M "C 2/M"
_symmetry_group_IT_number 12
_symmetry_cell_setting 'monoclinic'
loop_
_space_group_symop_operation_xyz
x,y,z
-x,y,-z
-x,-y,-z
x,-y,z
1/2+x,1/2+y,z
1/2-x,1/2+y,-z
1/2-x,1/2-y,-z
1/2+x,1/2-y,z
loop_
_atom_site_type_symbol
_atom_site_label
_atom_site_fract_x
_atom_site_fract_y
_atom_site_fract_z
Si Si1 0.953909 0.602749 0.059509
Si Si2 0.633669 0.708649 0.726876
Si Si3 0.656864 0.566058 0.953510
Si Si4 0.702593 0.643629 0.468141
Si Si5 0.910102 0.662462 0.307859
O O1 0.174247 0.617956 0.322275
O O2 0.825125 0.662391 0.913867
O O3 0.803844 0.569754 0.994894
O O4 0.000000 0.573441 0.000000
O O5 0.500000 0.704010 0.500000
O O6 0.707300 0.775176 0.805661
O O7 0.029672 0.809647 0.341558
O O8 0.645851 0.500000 0.976946
O O9 0.426950 0.592527 0.707652
O O10 0.765723 0.610056 0.132431
O O11 0.885735 0.667767 0.570888
O O12 0.000000 0.651943 0.500000
#
# Coordination Sequence:
#
# PCOD9187844 Si02
#       5
#     8   8   8   8   8
#     4  10  20  37  63  93 123 156 189 236 303 367
#     4  10  19  35  61  94 126 153 185 236 301 372
#     4  10  24  42  59  84 119 159 210 252 287 338
#     4  10  21  37  60  86 125 157 196 241 299 347
#     4  10  23  40  60  90 118 156 202 244 297 351
#
# _framework density 20.320170000000001
#
# number of rings (size 3 to 8) (size 9 to 14) (size 15 to 20)
#    0.000    2.000    2.000    0.600    0.000   13.600 
#    0.000    2.000    0.000    0.000    0.000    0.000 
#    0.000    0.000    0.000    0.000    0.000    0.000 
#
# Total GULP energy -111743.393442 kJ/mol
# GULP energy per Si atom -5587.169672 kJ/mol
# Density = 2.027392 g / cm^3
# Si number density = 20.320170 Si / 1000 Ang^3
#
#
#
# Elastic Constant Matrix: (Units=GPa)
#
#
# Indices 1 2 3 4 5 6 
#
# 1 24.8174 -6.4994 4.7913 0.0001 -17.6495 0.0001
# 2 -6.4994 150.4032 52.6414 0.0000 -4.2256 0.0001
# 3 4.7913 52.6414 92.6694 0.0002 -6.7724 -0.0001
# 4 0.0001 0.0000 0.0002 7.8156 0.0001 0.6029
# 5 -17.6495 -4.2256 -6.7724 0.0001 27.9434 -0.0001
# 6 0.0001 0.0001 -0.0001 0.6029 -0.0001 -3.2124
#
#
#
# Elastic Compliance Matrix: (Units=1/GPa)
#
#
# Indices 1 2 3 4 5 6 
#
# 1 0.077375 0.006075 -0.003881 -0.000002 0.048850 0.000001
# 2 0.006075 0.008776 -0.005011 0.000000 0.003949 0.000000
# 3 -0.003881 -0.005011 0.013849 0.000000 0.000147 -0.000001
# 4 -0.000002 0.000000 0.000000 0.126123 -0.000002 0.023670
# 5 0.048850 0.003949 0.000147 -0.000002 0.067274 0.000000
# 6 0.000001 0.000000 -0.000001 0.023670 0.000000 -0.306852
#
#
# Mechanical properties :
#
#
# Convention : Reuss Voigt Hill
#
# Bulk Modulus (GPa) = 10.59710 41.08405 25.84058
# Shear Modulus (GPa) = 211.55174 20.97311 116.26243
#
# Velocity S-wave (km/s) = 10.21446 3.21617 7.57228
# Velocity P-wave (km/s) = 12.01416 5.83557 9.44442
#
# Compressibility (1/GPa) = 0.09436542
#
# Stress axis : x y z
#
# Youngs Moduli (GPa) = 12.92402 113.94707 72.20829
#
# Poissons Ratio (x) = -0.69217 0.28025
# Poissons Ratio (y) = -0.07851 0.36181
# Poissons Ratio (z) = 0.05016 0.57095
#
# Static dielectric constant tensor:
#      x y z
#    x 1.737720 0.000000 -0.011960 
#    y 0.000000 1.697360 0.000000 
#    z -0.011960 0.000000 1.691820 
# 
# From -- ./inp_files/228013.got.cif
#   From: 2010.05.17/outbox.cif.g08.bks.cpg/sg12_115_cif.got.tgz:228013.got - 2010.06.03 13:09:07.
