data_PCOD9187696
_publ_section_title
;
Structure prediction by ZEFSAII (Michael W. Deem and Ramdas Pophale) SiO2 
 PCOD9187696
Probable space group: C 2/M
;
_chemical_formula_sum "Si O2"
_cell_formula_units_Z 64
_cell_length_a 24.846691
_cell_length_b 11.262029
_cell_length_c 19.912973
_cell_angle_alpha 90.000000
_cell_angle_beta 35.843122
_cell_angle_gamma 90.000000
_cell_volume 3262.861135
_symmetry_space_group_name_H-M "C 2/M"
_symmetry_group_IT_number 12
_symmetry_cell_setting 'monoclinic'
loop_
_space_group_symop_operation_xyz
x,y,z
-x,y,-z
-x,-y,-z
x,-y,z
1/2+x,1/2+y,z
1/2-x,1/2+y,-z
1/2-x,1/2-y,-z
1/2+x,1/2-y,z
loop_
_atom_site_type_symbol
_atom_site_label
_atom_site_fract_x
_atom_site_fract_y
_atom_site_fract_z
Si Si1 0.436908 0.861838 0.830193
Si Si2 0.889737 0.369568 0.615743
Si Si3 0.328970 0.627894 0.450885
Si Si4 0.699411 0.139843 0.916554
Si Si5 0.601832 0.267569 0.268253
Si Si6 0.392992 0.857140 0.125918
Si Si7 0.909222 0.857361 0.508202
Si Si8 0.132658 0.690997 0.694770
O O1 0.431172 0.781100 0.769945
O O2 0.536546 0.858074 0.764598
O O3 0.416667 0.000000 0.833938
O O4 0.364725 0.814770 0.958466
O O5 0.853126 0.500000 0.630394
O O6 0.871180 0.344322 0.712337
O O7 0.869908 0.243694 0.598224
O O8 0.000000 0.378421 0.500000
O O9 0.372750 0.500000 0.408258
O O10 0.368808 0.686041 0.477583
O O11 0.220452 0.623957 0.574830
O O12 0.352849 0.683889 0.356191
O O13 0.805137 0.157864 0.827764
O O14 0.668408 0.186359 0.874632
O O15 0.678845 0.000000 0.933690
O O16 0.518962 0.338860 0.388691
O O17 0.367177 0.807807 0.225158
O O18 0.382301 0.000000 0.143703
O O19 0.500000 0.834403 0.000000
O O20 0.888875 0.000000 0.541939
#
# Coordination Sequence:
#
# PCOD9187696 Si02
#       8
#     8   8   8   8   8   8   8   8
#     4  11  21  37  59  87 118 154 201 255 306 360
#     4   9  20  37  55  80 115 156 199 246 296 352
#     4  10  22  39  59  88 121 155 201 250 305 364
#     4  10  22  36  57  88 120 154 202 255 304 361
#     4  11  21  36  57  83 118 164 199 245 298 370
#     4  10  19  35  60  90 119 148 192 254 308 351
#     4  10  21  38  58  85 121 159 199 247 300 365
#     4  11  21  38  63  88 117 156 195 250 310 363
#
# _framework density 19.614688000000001
#
# number of rings (size 3 to 8) (size 9 to 14) (size 15 to 20)
#    0.000    1.750    2.500    2.250    1.750    3.250 
#    0.000    0.625    0.000    1.125    0.000    0.000 
#    0.000    0.000    0.000    0.000    0.000    0.000 
#
# Total GULP energy -178225.242058 kJ/mol
# GULP energy per Si atom -5569.538814 kJ/mol
# Density = 1.957004 g / cm^3
# Si number density = 19.614688 Si / 1000 Ang^3
#
#
#
# Elastic Constant Matrix: (Units=GPa)
#
#
# Indices 1 2 3 4 5 6 
#
# 1 88.6409 26.2788 23.7561 0.0000 16.4219 0.0000
# 2 26.2788 52.2789 12.8215 0.0000 23.2950 0.0000
# 3 23.7561 12.8215 77.3853 0.0000 10.7846 0.0000
# 4 0.0000 0.0000 0.0000 35.6192 0.0000 -4.5843
# 5 16.4219 23.2950 10.7846 0.0000 39.7844 0.0000
# 6 0.0000 0.0000 0.0000 -4.5843 0.0000 29.0745
#
#
#
# Elastic Compliance Matrix: (Units=1/GPa)
#
#
# Indices 1 2 3 4 5 6 
#
# 1 0.014091 -0.005543 -0.003169 0.000000 -0.001712 0.000000
# 2 -0.005543 0.028448 -0.001049 0.000000 -0.014085 0.000000
# 3 -0.003169 -0.001049 0.014343 0.000000 -0.001966 0.000000
# 4 0.000000 0.000000 0.000000 0.028656 0.000000 0.004518
# 5 -0.001712 -0.014085 -0.001966 0.000000 0.034622 0.000000
# 6 0.000000 0.000000 0.000000 0.004518 0.000000 0.035107
#
#
# Mechanical properties :
#
#
# Convention : Reuss Voigt Hill
#
# Bulk Modulus (GPa) = 26.76647 38.22422 32.49535
# Shear Modulus (GPa) = 26.70340 31.25887 28.98114
#
# Velocity S-wave (km/s) = 3.69372 3.99638 3.84803
# Velocity P-wave (km/s) = 5.64510 6.38941 6.02875
#
# Compressibility (1/GPa) = 0.03736017
#
# Stress axis : x y z
#
# Youngs Moduli (GPa) = 70.96616 35.15207 69.72104
#
# Poissons Ratio (x) = 0.19486 0.22093
# Poissons Ratio (y) = 0.39338 0.07312
# Poissons Ratio (z) = 0.22488 0.03687
#
# Static dielectric constant tensor:
#      x y z
#    x 1.712350 0.000000 -0.002660 
#    y 0.000000 1.743010 0.000000 
#    z -0.002660 0.000000 1.709020 
# 
# From -- ./inp_files/327814.got.cif
#   From: 2010.05.17/outbox.cif.g08.bks.cpg/sg12_164_cif.got.tgz:327814.got - 2010.06.03 13:09:07.
