data_PCOD9187579
_publ_section_title
;
Structure prediction by ZEFSAII (Michael W. Deem and Ramdas Pophale) SiO2 
 PCOD9187579
Probable space group: C 2/M
;
_chemical_formula_sum "Si O2"
_cell_formula_units_Z 40
_cell_length_a 11.282604
_cell_length_b 14.986976
_cell_length_c 17.537021
_cell_angle_alpha 90.000000
_cell_angle_beta 144.341663
_cell_angle_gamma 90.000000
_cell_volume 1728.665212
_symmetry_space_group_name_H-M "C 2/M"
_symmetry_group_IT_number 12
_symmetry_cell_setting 'monoclinic'
loop_
_space_group_symop_operation_xyz
x,y,z
-x,y,-z
-x,-y,-z
x,-y,z
1/2+x,1/2+y,z
1/2-x,1/2+y,-z
1/2-x,1/2-y,-z
1/2+x,1/2-y,z
loop_
_atom_site_type_symbol
_atom_site_label
_atom_site_fract_x
_atom_site_fract_y
_atom_site_fract_z
Si Si1 0.598112 0.102717 0.975481
Si Si2 0.614525 0.140468 0.642024
Si Si3 0.964084 0.898566 0.067207
Si Si4 0.273017 0.648194 0.480486
Si Si5 0.697731 0.350042 0.685430
O O1 0.403587 0.106498 0.819826
O O2 0.654039 0.000000 0.024635
O O3 0.500000 0.145898 0.000000
O O4 0.789855 0.143212 0.030466
O O5 0.500000 0.133339 0.500000
O O6 0.437004 0.105705 0.604233
O O7 0.672529 0.244259 0.686492
O O8 0.829129 0.097490 0.775346
O O9 0.890880 0.000000 0.014305
O O10 0.000000 0.860724 0.000000
O O11 0.250000 0.750000 0.500000
O O12 0.293124 0.644866 0.400777
O O13 0.494468 0.611417 0.619785
#
# Coordination Sequence:
#
# PCOD9187579 Si02
#       5
#     8   8   8   8   8
#     4  10  23  40  58  82 117 156 196 242 286 341
#     4  11  21  34  60  87 116 146 187 241 292 347
#     4  10  23  42  59  81 117 156 196 241 289 346
#     4   9  17  34  53  84 115 146 176 231 291 340
#     4  10  19  35  60  82 114 152 186 236 290 342
#
# _framework density 23.139240999999998
#
# number of rings (size 3 to 8) (size 9 to 14) (size 15 to 20)
#    0.000    2.000    4.000    1.200    2.800    2.000 
#    0.000    3.000    0.000    0.000    0.000    0.000 
#    0.000    0.000    0.000    0.000    0.000    0.000 
#
# Total GULP energy -111338.543998 kJ/mol
# GULP energy per Si atom -5566.927200 kJ/mol
# Density = 2.308658 g / cm^3
# Si number density = 23.139241 Si / 1000 Ang^3
#
#
#
# Elastic Constant Matrix: (Units=GPa)
#
#
# Indices 1 2 3 4 5 6 
#
# 1 194.4776 12.7217 63.7574 0.0002 43.0513 0.0001
# 2 12.7217 58.8477 3.1422 0.0002 1.4222 0.0001
# 3 63.7574 3.1422 125.5672 0.0006 33.6173 0.0002
# 4 0.0002 0.0002 0.0006 15.1812 0.0001 1.7536
# 5 43.0513 1.4222 33.6173 0.0001 52.4130 0.0000
# 6 0.0001 0.0001 0.0002 1.7536 0.0000 -12.8375
#
#
#
# Elastic Compliance Matrix: (Units=1/GPa)
#
#
# Indices 1 2 3 4 5 6 
#
# 1 0.006917 -0.001269 -0.002377 0.000000 -0.004123 0.000000
# 2 -0.001269 0.017251 0.000071 0.000000 0.000528 0.000000
# 3 -0.002377 0.000071 0.010439 0.000000 -0.004746 0.000000
# 4 0.000000 0.000000 0.000000 0.064848 0.000000 0.008858
# 5 -0.004123 0.000528 -0.004746 0.000000 0.025495 0.000000
# 6 0.000000 0.000000 0.000000 0.008858 0.000000 -0.076687
#
#
# Mechanical properties :
#
#
# Convention : Reuss Voigt Hill
#
# Bulk Modulus (GPa) = 36.41891 59.79279 48.10585
# Shear Modulus (GPa) = 77.44261 30.90275 54.17268
#
# Velocity S-wave (km/s) = 5.79144 3.65843 4.84380
# Velocity P-wave (km/s) = 7.77780 6.61377 7.21929
#
# Compressibility (1/GPa) = 0.02745826
#
# Stress axis : x y z
#
# Youngs Moduli (GPa) = 144.57757 57.96856 95.79212
#
# Poissons Ratio (x) = 0.07355 0.22765
# Poissons Ratio (y) = 0.18343 -0.00680
# Poissons Ratio (z) = 0.34359 -0.00412
#
# Static dielectric constant tensor:
#      x y z
#    x 1.931830 0.000000 -0.006730 
#    y 0.000000 1.851280 0.000000 
#    z -0.006730 0.000000 1.928220 
# 
# From -- ./inp_files/159396.got.cif
#   From: 2010.05.17/outbox.cif.g08.bks.cpg/sg12_80_cif.got.tgz:159396.got - 2010.06.03 13:09:07.
