data_PCOD9187571
_publ_section_title
;
Structure prediction by ZEFSAII (Michael W. Deem and Ramdas Pophale) SiO2 
 PCOD9187571
Probable space group: C 2/M
;
_chemical_formula_sum "Si O2"
_cell_formula_units_Z 56
_cell_length_a 11.590806
_cell_length_b 18.609834
_cell_length_c 16.110995
_cell_angle_alpha 90.000000
_cell_angle_beta 127.717207
_cell_angle_gamma 90.000000
_cell_volume 2749.013409
_symmetry_space_group_name_H-M "C 2/M"
_symmetry_group_IT_number 12
_symmetry_cell_setting 'monoclinic'
loop_
_space_group_symop_operation_xyz
x,y,z
-x,y,-z
-x,-y,-z
x,-y,z
1/2+x,1/2+y,z
1/2-x,1/2+y,-z
1/2-x,1/2-y,-z
1/2+x,1/2-y,z
loop_
_atom_site_type_symbol
_atom_site_label
_atom_site_fract_x
_atom_site_fract_y
_atom_site_fract_z
Si Si1 0.141937 0.421652 0.004331
Si Si2 0.823256 0.271320 0.944142
Si Si3 0.227880 0.000000 0.659053
Si Si4 0.050275 0.368356 0.228773
Si Si5 0.197226 0.849755 0.390417
Si Si6 0.224791 0.228485 0.249888
Si Si7 0.541189 0.208216 0.396276
Si Si8 0.089373 0.000000 0.414056
O O1 0.212591 0.500000 0.030178
O O2 0.080511 0.395178 0.888032
O O3 0.224166 0.354954 0.082126
O O4 0.000000 0.428787 0.000000
O O5 0.761652 0.223817 0.842666
O O6 0.750000 0.250000 0.000000
O O7 0.000000 0.268307 0.000000
O O8 0.328547 0.069309 0.717901
O O9 0.164742 0.000000 0.538037
O O10 0.085221 0.000000 0.653415
O O11 0.121439 0.296232 0.221880
O O12 0.016429 0.346149 0.308131
O O13 0.173661 0.838755 0.281598
O O14 0.360974 0.836842 0.496782
O O15 0.119755 0.780244 0.397712
O O16 0.139325 0.926369 0.393072
O O17 0.386407 0.239231 0.357012
#
# Coordination Sequence:
#
# PCOD9187571 Si02
#       8
#     8   8   4   8   8   8   8   4
#     4  10  19  35  59  92 130 158 211 275 332 383
#     4  11  23  42  68  98 130 176 220 276 331 397
#     4  11  22  34  62  92 126 168 210 266 328 390
#     4  11  19  36  59  90 126 162 209 265 320 380
#     4  10  22  39  60  87 128 163 214 265 317 386
#     4  11  22  37  63  88 124 166 217 258 322 387
#     4  10  21  37  59  89 122 168 212 264 315 387
#     4  11  22  42  58  89 130 172 211 267 328 394
#
# _framework density 20.370946
#
# number of rings (size 3 to 8) (size 9 to 14) (size 15 to 20)
#    0.000    1.429    5.000    2.143    2.000    0.000 
#    0.000    2.143    1.571    0.429    0.000    0.000 
#    0.000    0.000    0.000    0.000    0.000    0.000 
#
# Total GULP energy -155980.578483 kJ/mol
# GULP energy per Si atom -5570.734946 kJ/mol
# Density = 2.032458 g / cm^3
# Si number density = 20.370946 Si / 1000 Ang^3
#
#
#
# Elastic Constant Matrix: (Units=GPa)
#
#
# Indices 1 2 3 4 5 6 
#
# 1 54.9871 32.8449 26.3985 0.0000 -10.0666 0.0000
# 2 32.8449 118.1844 44.5638 0.0000 -13.3660 0.0000
# 3 26.3985 44.5638 89.3245 0.0000 -25.8789 0.0000
# 4 0.0000 0.0000 0.0000 12.5742 0.0000 2.4655
# 5 -10.0666 -13.3660 -25.8789 0.0000 37.3564 0.0000
# 6 0.0000 0.0000 0.0000 2.4655 0.0000 8.8986
#
#
#
# Elastic Compliance Matrix: (Units=1/GPa)
#
#
# Indices 1 2 3 4 5 6 
#
# 1 0.023272 -0.004763 -0.003976 0.000000 0.001812 0.000000
# 2 -0.004763 0.011398 -0.004340 0.000000 -0.000212 0.000000
# 3 -0.003976 -0.004340 0.017234 0.000000 0.009315 0.000000
# 4 0.000000 0.000000 0.000000 0.084096 0.000000 -0.023300
# 5 0.001812 -0.000212 0.009315 0.000000 0.033635 0.000000
# 6 0.000000 0.000000 0.000000 -0.023300 0.000000 0.118833
#
#
# Mechanical properties :
#
#
# Convention : Reuss Voigt Hill
#
# Bulk Modulus (GPa) = 38.84287 52.23449 45.53868
# Shear Modulus (GPa) = 15.46991 22.34509 18.90750
#
# Velocity S-wave (km/s) = 2.75873 3.31556 3.04988
# Velocity P-wave (km/s) = 5.40894 6.35252 5.89963
#
# Compressibility (1/GPa) = 0.02574475
#
# Stress axis : x y z
#
# Youngs Moduli (GPa) = 42.97003 87.73753 58.02441
#
# Poissons Ratio (x) = 0.41792 0.23072
# Poissons Ratio (y) = 0.20468 0.25183
# Poissons Ratio (z) = 0.17086 0.38078
#
# Static dielectric constant tensor:
#      x y z
#    x 1.795380 0.000000 -0.005590 
#    y 0.000000 1.691860 0.000000 
#    z -0.005590 0.000000 1.821970 
# 
# From -- ./inp_files/206801.got.cif
#   From: 2010.05.17/outbox.cif.g08.bks.cpg/sg12_104_cif.got.tgz:206801.got - 2010.06.03 13:09:07.
