data_PCOD9187453
_publ_section_title
;
Structure prediction by ZEFSAII (Michael W. Deem and Ramdas Pophale) SiO2 
 PCOD9187453
Probable space group: C 2/M
;
_chemical_formula_sum "Si O2"
_cell_formula_units_Z 56
_cell_length_a 19.483584
_cell_length_b 8.953559
_cell_length_c 25.491722
_cell_angle_alpha 90.000000
_cell_angle_beta 44.513391
_cell_angle_gamma 90.000000
_cell_volume 3117.660259
_symmetry_space_group_name_H-M "C 2/M"
_symmetry_group_IT_number 12
_symmetry_cell_setting 'monoclinic'
loop_
_space_group_symop_operation_xyz
x,y,z
-x,y,-z
-x,-y,-z
x,-y,z
1/2+x,1/2+y,z
1/2-x,1/2+y,-z
1/2-x,1/2-y,-z
1/2+x,1/2-y,z
loop_
_atom_site_type_symbol
_atom_site_label
_atom_site_fract_x
_atom_site_fract_y
_atom_site_fract_z
Si Si1 0.747504 0.819213 0.246230
Si Si2 0.888266 0.182185 0.072885
Si Si3 0.660135 0.821543 0.580248
Si Si4 0.342979 0.323865 0.303727
Si Si5 0.246400 0.326523 0.057684
Si Si6 0.936206 0.835660 0.810087
Si Si7 0.542592 0.329963 0.326712
O O1 0.830268 0.773059 0.157860
O O2 0.779719 0.779857 0.287831
O O3 0.641889 0.748296 0.291808
O O4 0.740377 0.000000 0.246906
O O5 0.821605 0.232655 0.060292
O O6 0.889656 0.000000 0.073323
O O7 0.000000 0.230174 0.000000
O O8 0.750000 0.750000 0.500000
O O9 0.668223 0.767864 0.636569
O O10 0.558169 0.760559 0.611200
O O11 0.662048 0.000000 0.576747
O O12 0.325453 0.500000 0.325236
O O13 0.456668 0.312814 0.224802
O O14 0.266407 0.500000 0.041093
O O15 0.138003 0.294420 0.137155
O O16 0.250000 0.250000 0.000000
O O17 0.948590 0.840193 0.741030
O O18 0.898821 0.000000 0.847639
O O19 0.534573 0.500000 0.351476
#
# Coordination Sequence:
#
# PCOD9187453 Si02
#       7
#     8   8   8   8   8   8   8
#     4  10  19  35  59  85 115 152 196 239 285 344
#     4   9  19  34  54  78 107 147 194 240 287 340
#     4  11  22  39  64  90 120 151 189 232 280 339
#     4   9  20  36  58  87 118 151 189 232 283 341
#     4  11  22  34  52  75 104 139 188 240 289 346
#     4   9  18  34  54  76 105 143 185 231 281 332
#     4  10  20  36  59  85 116 150 188 232 283 337
#
# _framework density 17.962188999999999
#
# number of rings (size 3 to 8) (size 9 to 14) (size 15 to 20)
#    0.000    2.143    1.429    3.000    2.000    2.857 
#    0.000    0.714    0.000    6.429    0.000    0.000 
#    0.000    0.000    0.000    0.000    0.000    0.000 
#
# Total GULP energy -156069.487186 kJ/mol
# GULP energy per Si atom -5573.910257 kJ/mol
# Density = 1.792131 g / cm^3
# Si number density = 17.962189 Si / 1000 Ang^3
#
#
#
# Elastic Constant Matrix: (Units=GPa)
#
#
# Indices 1 2 3 4 5 6 
#
# 1 140.4211 47.9380 56.6050 0.0000 -13.4010 0.0001
# 2 47.9380 65.8354 41.3973 0.0000 -5.0984 0.0002
# 3 56.6050 41.3973 90.8503 0.0000 -15.9216 0.0000
# 4 0.0000 0.0000 0.0000 29.0030 0.0000 -2.0803
# 5 -13.4010 -5.0984 -15.9216 0.0000 21.9006 0.0000
# 6 0.0001 0.0002 0.0000 -2.0803 0.0000 24.2085
#
#
#
# Elastic Compliance Matrix: (Units=1/GPa)
#
#
# Indices 1 2 3 4 5 6 
#
# 1 0.010678 -0.005150 -0.003864 0.000000 0.002526 0.000000
# 2 -0.005150 0.023884 -0.008311 0.000000 -0.003633 0.000000
# 3 -0.003864 -0.008311 0.018850 0.000000 0.009405 0.000000
# 4 0.000000 0.000000 0.000000 0.034693 0.000000 0.002981
# 5 0.002526 -0.003633 0.009405 0.000000 0.053198 0.000000
# 6 0.000000 0.000000 0.000000 0.002981 0.000000 0.041564
#
#
# Mechanical properties :
#
#
# Convention : Reuss Voigt Hill
#
# Bulk Modulus (GPa) = 53.29881 65.44304 59.37093
# Shear Modulus (GPa) = 22.34430 25.10019 23.72224
#
# Velocity S-wave (km/s) = 3.53081 3.74222 3.63805
# Velocity P-wave (km/s) = 6.80877 7.42867 7.12547
#
# Compressibility (1/GPa) = 0.01876215
#
# Stress axis : x y z
#
# Youngs Moduli (GPa) = 93.64847 41.86876 53.05150
#
# Poissons Ratio (x) = 0.21563 0.20497
# Poissons Ratio (y) = 0.48231 0.44091
# Poissons Ratio (z) = 0.36183 0.34797
#
# Static dielectric constant tensor:
#      x y z
#    x 1.620400 0.000000 0.054170 
#    y 0.000000 1.631150 0.000000 
#    z 0.054170 0.000000 1.913320 
# 
# From -- ./inp_files/342237.got.cif
#   From: 2010.05.17/outbox.cif.g08.bks.cpg/sg12_172_cif.got.tgz:342237.got - 2010.06.03 13:09:07.
