data_PCOD9187741
_publ_section_title
;
Structure prediction by ZEFSAII (Michael W. Deem and Ramdas Pophale) SiO2 
 PCOD9187741
Probable space group: C 2/M
;
_chemical_formula_sum "Si O2"
_cell_formula_units_Z 60
_cell_length_a 10.590674
_cell_length_b 14.346486
_cell_length_c 24.126189
_cell_angle_alpha 90.000000
_cell_angle_beta 114.898540
_cell_angle_gamma 90.000000
_cell_volume 3324.997805
_symmetry_space_group_name_H-M "C 2/M"
_symmetry_group_IT_number 12
_symmetry_cell_setting 'monoclinic'
loop_
_space_group_symop_operation_xyz
x,y,z
-x,y,-z
-x,-y,-z
x,-y,z
1/2+x,1/2+y,z
1/2-x,1/2+y,-z
1/2-x,1/2-y,-z
1/2+x,1/2-y,z
loop_
_atom_site_type_symbol
_atom_site_label
_atom_site_fract_x
_atom_site_fract_y
_atom_site_fract_z
Si Si1 0.500000 0.748750 0.500000
Si Si2 0.782466 0.106157 0.131831
Si Si3 0.811725 0.745938 0.302905
Si Si4 0.485336 0.258973 0.222358
Si Si5 0.009161 0.390729 0.402264
Si Si6 0.004302 0.392309 0.139381
Si Si7 0.802274 0.109331 0.397633
Si Si8 0.356262 0.170062 0.002925
O O1 0.544000 0.820524 0.459455
O O2 0.383537 0.677682 0.455125
O O3 0.655265 0.143127 0.146308
O O4 0.723443 0.111113 0.058585
O O5 0.918335 0.165250 0.168891
O O6 0.808129 0.000000 0.151662
O O7 0.649330 0.728581 0.261568
O O8 0.878370 0.658820 0.348528
O O9 0.821677 0.839243 0.342452
O O10 0.902413 0.759993 0.264535
O O11 0.460157 0.163067 0.185066
O O12 0.985615 0.500000 0.413529
O O13 0.140627 0.389351 0.385224
O O14 0.018083 0.500000 0.154653
O O15 0.903325 0.380209 0.067926
O O16 0.847475 0.000000 0.406831
O O17 0.500000 0.202885 0.000000
O O18 0.250000 0.250000 0.000000
#
# Coordination Sequence:
#
# PCOD9187741 Si02
#       8
#     4   8   8   8   8   8   8   8
#     4  10  20  36  64  98 124 148 198 246 284 338
#     4  10  21  37  60  87 116 152 197 247 299 358
#     4  11  24  39  61  86 120 155 208 244 287 342
#     4  12  22  39  61  86 116 157 198 254 293 344
#     4  10  21  39  62  89 124 162 194 236 295 345
#     4  10  21  37  61  87 113 154 200 241 299 370
#     4  10  21  39  63  89 121 162 198 237 288 346
#     4  10  19  35  61  85 114 149 192 244 303 364
#
# _framework density 18.045124000000001
#
# number of rings (size 3 to 8) (size 9 to 14) (size 15 to 20)
#    0.000    1.600    4.000    1.200    0.000    3.733 
#    0.000    0.000    0.000    0.800    0.000    0.000 
#    0.000    0.000    0.000    0.000    0.000    0.000 
#
# Total GULP energy -167236.918885 kJ/mol
# GULP energy per Si atom -5574.563963 kJ/mol
# Density = 1.800405 g / cm^3
# Si number density = 18.045124 Si / 1000 Ang^3
#
#
#
# Elastic Constant Matrix: (Units=GPa)
#
#
# Indices 1 2 3 4 5 6 
#
# 1 88.3163 45.8633 54.0096 0.0000 0.8497 0.0000
# 2 45.8633 124.6721 50.1554 0.0000 3.8901 0.0000
# 3 54.0096 50.1554 103.8837 0.0000 4.2323 0.0000
# 4 0.0000 0.0000 0.0000 83.0597 0.0000 16.0909
# 5 0.8497 3.8901 4.2323 0.0000 32.9439 0.0000
# 6 0.0000 0.0000 0.0000 16.0909 0.0000 33.7899
#
#
#
# Elastic Compliance Matrix: (Units=1/GPa)
#
#
# Indices 1 2 3 4 5 6 
#
# 1 0.017778 -0.003519 -0.007582 0.000000 0.000931 0.000000
# 2 -0.003519 0.010661 -0.003287 0.000000 -0.000746 0.000000
# 3 -0.007582 -0.003287 0.015211 0.000000 -0.001370 0.000000
# 4 0.000000 0.000000 0.000000 0.013263 0.000000 -0.006316
# 5 0.000931 -0.000746 -0.001370 0.000000 0.030595 0.000000
# 6 0.000000 0.000000 0.000000 -0.006316 0.000000 0.032602
#
#
# Mechanical properties :
#
#
# Convention : Reuss Voigt Hill
#
# Bulk Modulus (GPa) = 67.23166 68.54765 67.88966
# Shear Modulus (GPa) = 32.50024 41.08163 36.79094
#
# Velocity S-wave (km/s) = 4.24849 4.77656 4.52024
# Velocity P-wave (km/s) = 7.83611 8.27586 8.05899
#
# Compressibility (1/GPa) = 0.01487394
#
# Stress axis : x y z
#
# Youngs Moduli (GPa) = 56.24917 93.79669 65.74181
#
# Poissons Ratio (x) = 0.33006 0.49845
# Poissons Ratio (y) = 0.19794 0.21612
# Poissons Ratio (z) = 0.42647 0.30835
#
# Static dielectric constant tensor:
#      x y z
#    x 1.609720 0.000000 -0.002870 
#    y 0.000000 1.599810 0.000000 
#    z -0.002870 0.000000 1.661650 
# 
# From -- ./inp_files/332973.got.cif
#   From: 2010.05.17/outbox.cif.g08.bks.cpg/sg12_167_cif.got.tgz:332973.got - 2010.06.03 13:09:07.
