data_PCOD9187010
_publ_section_title
;
Structure prediction by ZEFSAII (Michael W. Deem and Ramdas Pophale) SiO2 
 PCOD9187010
Probable space group: C 2/M
;
_chemical_formula_sum "Si O2"
_cell_formula_units_Z 58
_cell_length_a 25.186878
_cell_length_b 8.329691
_cell_length_c 23.519616
_cell_angle_alpha 90.000000
_cell_angle_beta 149.738024
_cell_angle_gamma 90.000000
_cell_volume 2486.708082
_symmetry_space_group_name_H-M "C 2/M"
_symmetry_group_IT_number 12
_symmetry_cell_setting 'monoclinic'
loop_
_space_group_symop_operation_xyz
x,y,z
-x,y,-z
-x,-y,-z
x,-y,z
1/2+x,1/2+y,z
1/2-x,1/2+y,-z
1/2-x,1/2-y,-z
1/2+x,1/2-y,z
loop_
_atom_site_type_symbol
_atom_site_label
_atom_site_fract_x
_atom_site_fract_y
_atom_site_fract_z
Si Si1 0.259613 0.693453 0.659013
Si Si2 0.312017 0.760230 0.290759
Si Si3 0.632604 0.318470 0.783772
Si Si4 0.563504 0.308984 0.258155
Si Si5 0.085832 0.820069 0.033865
Si Si6 0.350650 0.186429 0.024718
Si Si7 0.000000 0.500000 0.500000
Si Si8 0.103472 0.196383 0.418180
O O1 0.258754 0.500000 0.672410
O O2 0.219990 0.797475 0.675671
O O3 0.372827 0.744042 0.738827
O O4 0.179177 0.720995 0.533050
O O5 0.339873 0.671976 0.257813
O O6 0.199157 0.834064 0.168446
O O7 0.415117 0.864038 0.399437
O O8 0.623765 0.500000 0.797747
O O9 0.516676 0.248150 0.681027
O O10 0.732516 0.241976 0.909211
O O11 0.570455 0.500000 0.264246
O O12 0.440830 0.264220 0.146181
O O13 0.620891 0.254781 0.368819
O O14 0.053892 0.000000 0.984532
O O15 0.102356 0.708011 0.995286
O O16 0.000000 0.765147 0.000000
O O17 0.342343 0.000000 0.031255
O O18 0.110778 0.000000 0.430289
#
# Coordination Sequence:
#
# PCOD9187010 Si02
#       8
#     8   8   8   8   8   8   2   8
#     4  11  22  38  58  88 119 151 190 243 290 338
#     4  11  21  34  56  83 118 152 185 236 282 339
#     4   9  21  40  59  84 119 151 190 237 291 347
#     4  10  22  40  62  84 115 151 196 242 292 346
#     4  10  19  35  57  82 114 154 196 235 289 345
#     4  10  21  36  57  84 116 150 189 242 293 343
#     4  12  20  32  48  80 112 148 184 224 264 330
#     4  10  22  41  61  83 112 156 197 239 288 347
#
# _framework density 23.324007999999999
#
# number of rings (size 3 to 8) (size 9 to 14) (size 15 to 20)
#    0.000    1.793    1.379    2.483    0.000    4.690 
#    0.000    4.483    0.000    0.000    0.000    0.000 
#    0.000    0.000    0.000    0.000    0.000    0.000 
#
# Total GULP energy -161468.859671 kJ/mol
# GULP energy per Si atom -5567.891713 kJ/mol
# Density = 2.327092 g / cm^3
# Si number density = 23.324008 Si / 1000 Ang^3
#
#
#
# Elastic Constant Matrix: (Units=GPa)
#
#
# Indices 1 2 3 4 5 6 
#
# 1 71.6977 2.6801 11.0590 0.0000 0.8695 0.0000
# 2 2.6801 12.5375 0.2153 0.0001 -0.1373 0.0000
# 3 11.0590 0.2153 138.0786 0.0000 8.8675 0.0000
# 4 0.0000 0.0001 0.0000 467.7168 0.0000 -240.0422
# 5 0.8695 -0.1373 8.8675 0.0000 42.0595 0.0000
# 6 0.0000 0.0000 0.0000 -240.0422 0.0000 141.6538
#
#
#
# Elastic Compliance Matrix: (Units=1/GPa)
#
#
# Indices 1 2 3 4 5 6 
#
# 1 0.014236 -0.003024 -0.001131 0.000000 -0.000066 0.000000
# 2 -0.003024 0.080409 0.000097 0.000000 0.000304 0.000000
# 3 -0.001131 0.000097 0.007432 0.000000 -0.001543 0.000000
# 4 0.000000 0.000000 0.000000 0.016407 0.000000 0.027803
# 5 -0.000066 0.000304 -0.001543 0.000000 0.024104 0.000000
# 6 0.000000 0.000000 0.000000 0.027803 0.000000 0.054174
#
#
# Mechanical properties :
#
#
# Convention : Reuss Voigt Hill
#
# Bulk Modulus (GPa) = 10.64289 27.80252 19.22270
# Shear Modulus (GPa) = 21.16872 144.17665 82.67269
#
# Velocity S-wave (km/s) = 3.01590 7.87076 5.96006
# Velocity P-wave (km/s) = 4.08662 9.72340 7.45805
#
# Compressibility (1/GPa) = 0.09395947
#
# Stress axis : x y z
#
# Youngs Moduli (GPa) = 70.24553 12.43648 134.55673
#
# Poissons Ratio (x) = 0.03761 0.15222
# Poissons Ratio (y) = 0.21245 -0.01309
# Poissons Ratio (z) = 0.07946 -0.00121
#
# Static dielectric constant tensor:
#      x y z
#    x 1.931590 0.000000 -0.002420 
#    y 0.000000 1.831650 0.000000 
#    z -0.002420 0.000000 1.882110 
# 
# From -- ./inp_files/351489.got.cif
#   From: 2010.05.17/outbox.cif.g08.bks.cpg/sg12_176_cif.got.tgz:351489.got - 2010.06.03 13:09:07.
