data_PCOD9187921
_publ_section_title
;
Structure prediction by ZEFSAII (Michael W. Deem and Ramdas Pophale) SiO2 
 PCOD9187921
Probable space group: C 2/M
;
_chemical_formula_sum "Si O2"
_cell_formula_units_Z 48
_cell_length_a 28.621006
_cell_length_b 13.846557
_cell_length_c 9.540698
_cell_angle_alpha 90.000000
_cell_angle_beta 36.363982
_cell_angle_gamma 90.000000
_cell_volume 2241.804094
_symmetry_space_group_name_H-M "C 2/M"
_symmetry_group_IT_number 12
_symmetry_cell_setting 'monoclinic'
loop_
_space_group_symop_operation_xyz
x,y,z
-x,y,-z
-x,-y,-z
x,-y,z
1/2+x,1/2+y,z
1/2-x,1/2+y,-z
1/2-x,1/2-y,-z
1/2+x,1/2-y,z
loop_
_atom_site_type_symbol
_atom_site_label
_atom_site_fract_x
_atom_site_fract_y
_atom_site_fract_z
Si Si1 0.609595 0.387946 0.717227
Si Si2 0.306951 0.312504 0.055641
Si Si3 0.457167 0.113105 0.450809
Si Si4 0.225509 0.606511 0.518843
Si Si5 0.655729 0.707301 0.325380
Si Si6 0.916425 0.272444 0.017205
O O1 0.587496 0.500000 0.774524
O O2 0.700426 0.383449 0.555576
O O3 0.610601 0.345466 0.558886
O O4 0.563307 0.320543 0.938662
O O5 0.261523 0.378085 0.277571
O O6 0.243048 0.231271 0.169506
O O7 0.380021 0.267193 0.961020
O O8 0.336110 0.353154 0.837304
O O9 0.500000 0.119460 0.500000
O O10 0.386259 0.190606 0.611795
O O11 0.435581 0.000000 0.482442
O O12 0.517078 0.151331 0.185624
O O13 0.192424 0.500000 0.612718
O O14 0.155949 0.678745 0.724471
#
# Coordination Sequence:
#
# PCOD9187921 Si02
#       6
#     8   8   8   8   8   8
#     4  10  21  38  64  92 121 164 217 263 311 366
#     4  10  20  36  63  86 126 168 208 257 306 360
#     4  11  25  43  65  95 130 171 207 251 327 394
#     4  10  19  35  62  95 126 164 209 258 317 379
#     4  11  21  40  61  91 127 165 209 266 310 362
#     4  11  19  42  63  92 131 171 206 255 316 379
#
# _framework density 21.411325999999999
#
# number of rings (size 3 to 8) (size 9 to 14) (size 15 to 20)
#    0.000    1.500    5.000    1.500    0.000    2.000 
#    0.000    5.000    0.000    1.000    0.000    0.000 
#    0.000    0.000    0.000    0.000    0.000    0.000 
#
# Total GULP energy -134029.170206 kJ/mol
# GULP energy per Si atom -5584.548759 kJ/mol
# Density = 2.136259 g / cm^3
# Si number density = 21.411326 Si / 1000 Ang^3
#
#
#
# Elastic Constant Matrix: (Units=GPa)
#
#
# Indices 1 2 3 4 5 6 
#
# 1 90.1504 32.5411 37.0244 0.0000 21.6618 0.0000
# 2 32.5411 121.9866 37.0640 0.0000 21.6778 0.0000
# 3 37.0244 37.0640 118.1418 0.0000 24.8509 0.0000
# 4 0.0000 0.0000 0.0000 20.5401 0.0000 4.1177
# 5 21.6618 21.6778 24.8509 0.0000 41.0171 0.0000
# 6 0.0000 0.0000 0.0000 4.1177 0.0000 13.7946
#
#
#
# Elastic Compliance Matrix: (Units=1/GPa)
#
#
# Indices 1 2 3 4 5 6 
#
# 1 0.014111 -0.002090 -0.002787 0.000000 -0.004660 0.000000
# 2 -0.002090 0.009836 -0.001799 0.000000 -0.003005 0.000000
# 3 -0.002787 -0.001799 0.010764 0.000000 -0.004099 0.000000
# 4 0.000000 0.000000 0.000000 0.051784 0.000000 -0.015457
# 5 -0.004660 -0.003005 -0.004099 0.000000 0.030913 0.000000
# 6 0.000000 0.000000 0.000000 -0.015457 0.000000 0.077106
#
#
# Mechanical properties :
#
#
# Convention : Reuss Voigt Hill
#
# Bulk Modulus (GPa) = 46.81411 60.39309 53.60360
# Shear Modulus (GPa) = 23.25764 29.98033 26.61898
#
# Velocity S-wave (km/s) = 3.29938 3.74600 3.52976
# Velocity P-wave (km/s) = 6.03541 6.85400 6.45769
#
# Compressibility (1/GPa) = 0.02136108
#
# Stress axis : x y z
#
# Youngs Moduli (GPa) = 70.86736 101.67228 92.89963
#
# Poissons Ratio (x) = 0.21245 0.25887
# Poissons Ratio (y) = 0.14808 0.16710
# Poissons Ratio (z) = 0.19747 0.18288
#
# Static dielectric constant tensor:
#      x y z
#    x 1.798620 0.000000 0.003900 
#    y 0.000000 1.744040 0.000000 
#    z 0.003900 0.000000 1.779860 
# 
# From -- ./inp_files/111473.got.cif
#   From: 2010.05.17/outbox.cif.g08.bks.cpg/sg12_56_cif.got.tgz:111473.got - 2010.06.03 13:09:07.
