data_PCOD9187763
_publ_section_title
;
Structure prediction by ZEFSAII (Michael W. Deem and Ramdas Pophale) SiO2 
 PCOD9187763
Probable space group: C 2/M
;
_chemical_formula_sum "Si O2"
_cell_formula_units_Z 56
_cell_length_a 12.962487
_cell_length_b 13.388799
_cell_length_c 17.646567
_cell_angle_alpha 90.000000
_cell_angle_beta 48.314273
_cell_angle_gamma 90.000000
_cell_volume 2287.161057
_symmetry_space_group_name_H-M "C 2/M"
_symmetry_group_IT_number 12
_symmetry_cell_setting 'monoclinic'
loop_
_space_group_symop_operation_xyz
x,y,z
-x,y,-z
-x,-y,-z
x,-y,z
1/2+x,1/2+y,z
1/2-x,1/2+y,-z
1/2-x,1/2-y,-z
1/2+x,1/2-y,z
loop_
_atom_site_type_symbol
_atom_site_label
_atom_site_fract_x
_atom_site_fract_y
_atom_site_fract_z
Si Si1 0.565244 0.175268 0.327098
Si Si2 0.252337 0.388371 0.527142
Si Si3 0.685082 0.610241 0.889934
Si Si4 0.567074 0.216773 0.846113
Si Si5 0.668209 0.385351 0.229088
Si Si6 0.777874 0.386044 0.011198
Si Si7 0.755607 0.202847 0.371365
O O1 0.412704 0.132749 0.397107
O O2 0.658785 0.124539 0.216786
O O3 0.580680 0.294985 0.307587
O O4 0.644244 0.157097 0.368055
O O5 0.281757 0.500000 0.538737
O O6 0.304815 0.301429 0.557147
O O7 0.297000 0.370506 0.418630
O O8 0.636804 0.500000 0.890716
O O9 0.603553 0.696703 0.887921
O O10 0.690076 0.617512 0.977569
O O11 0.678722 0.129675 0.809406
O O12 0.413505 0.179137 0.931825
O O13 0.614706 0.260993 0.742151
O O14 0.878034 0.000000 0.738590
O O15 0.691776 0.362202 0.128408
O O16 0.825396 0.500000 0.998684
#
# Coordination Sequence:
#
# PCOD9187763 Si02
#       7
#     8   8   8   8   8   8   8
#     4  10  21  36  60  89 121 153 195 244 292 346
#     4  11  22  40  66  89 114 154 198 240 293 356
#     4   9  19  34  54  82 115 153 196 239 287 342
#     4  10  20  33  57  86 120 152 192 244 292 343
#     4   9  19  35  56  85 120 155 194 241 291 341
#     4  10  19  35  61  88 114 153 202 243 282 337
#     4   9  22  38  55  91 123 144 191 249 293 344
#
# _framework density 24.484503
#
# number of rings (size 3 to 8) (size 9 to 14) (size 15 to 20)
#    0.000    2.571    0.000    2.571    0.000   10.857 
#    0.000    5.714    0.000   25.714    0.000    0.000 
#    0.000    0.000    0.000    0.000    0.000    0.000 
#
# Total GULP energy -156839.210287 kJ/mol
# GULP energy per Si atom -5601.400367 kJ/mol
# Density = 2.442877 g / cm^3
# Si number density = 24.484503 Si / 1000 Ang^3
#
#
#
# Elastic Constant Matrix: (Units=GPa)
#
#
# Indices 1 2 3 4 5 6 
#
# 1 42.7568 -8.9748 8.3133 0.0000 -1.3205 0.0000
# 2 -8.9748 104.1503 -3.6692 0.0000 -11.2533 0.0000
# 3 8.3133 -3.6692 86.4020 0.0000 1.1489 0.0000
# 4 0.0000 0.0000 0.0000 23.5531 0.0000 -0.1199
# 5 -1.3205 -11.2533 1.1489 0.0000 25.8196 0.0000
# 6 0.0000 0.0000 0.0000 -0.1199 0.0000 21.7558
#
#
#
# Elastic Compliance Matrix: (Units=1/GPa)
#
#
# Indices 1 2 3 4 5 6 
#
# 1 0.024381 0.002273 -0.002280 0.000000 0.002339 0.000000
# 2 0.002273 0.010300 0.000158 0.000000 0.004598 0.000000
# 3 -0.002280 0.000158 0.011808 0.000000 -0.000573 0.000000
# 4 0.000000 0.000000 0.000000 0.042458 0.000000 0.000234
# 5 0.002339 0.004598 -0.000573 0.000000 0.040880 0.000000
# 6 0.000000 0.000000 0.000000 0.000234 0.000000 0.045966
#
#
# Mechanical properties :
#
#
# Convention : Reuss Voigt Hill
#
# Bulk Modulus (GPa) = 21.37246 24.96085 23.16666
# Shear Modulus (GPa) = 26.16599 30.06836 28.11717
#
# Velocity S-wave (km/s) = 3.27261 3.50817 3.39243
# Velocity P-wave (km/s) = 4.79874 5.16007 4.98268
#
# Compressibility (1/GPa) = 0.04678919
#
# Stress axis : x y z
#
# Youngs Moduli (GPa) = 41.01567 97.08926 84.69167
#
# Poissons Ratio (x) = -0.22072 0.19313
# Poissons Ratio (y) = -0.09324 -0.01334
# Poissons Ratio (z) = 0.09353 -0.01529
#
# Static dielectric constant tensor:
#      x y z
#    x 1.951110 0.000000 -0.030210 
#    y 0.000000 1.946890 0.000000 
#    z -0.030210 0.000000 1.996220 
# 
# From -- ./inp_files/315276.got.cif
#   From: 2010.05.17/outbox.cif.g08.bks.cpg/sg12_158_cif.got.tgz:315276.got - 2010.06.03 13:09:07.
