data_PCOD9187297
_publ_section_title
;
Structure prediction by ZEFSAII (Michael W. Deem and Ramdas Pophale) SiO2 
 PCOD9187297
Probable space group: C 2/M
;
_chemical_formula_sum "Si O2"
_cell_formula_units_Z 48
_cell_length_a 27.851795
_cell_length_b 7.535558
_cell_length_c 20.994778
_cell_angle_alpha 90.000000
_cell_angle_beta 29.137802
_cell_angle_gamma 90.000000
_cell_volume 2145.508107
_symmetry_space_group_name_H-M "C 2/M"
_symmetry_group_IT_number 12
_symmetry_cell_setting 'monoclinic'
loop_
_space_group_symop_operation_xyz
x,y,z
-x,y,-z
-x,-y,-z
x,-y,z
1/2+x,1/2+y,z
1/2-x,1/2+y,-z
1/2-x,1/2-y,-z
1/2+x,1/2-y,z
loop_
_atom_site_type_symbol
_atom_site_label
_atom_site_fract_x
_atom_site_fract_y
_atom_site_fract_z
Si Si1 0.216820 0.215902 0.855437
Si Si2 0.044265 0.799295 0.627825
Si Si3 0.174232 0.709839 0.142518
Si Si4 0.863334 0.212959 0.349529
Si Si5 0.502131 0.282895 0.923016
Si Si6 0.405567 0.795659 0.570166
O O1 0.272912 0.268371 0.854433
O O2 0.296332 0.276461 0.710812
O O3 0.208709 0.000000 0.863250
O O4 0.104464 0.275618 0.980454
O O5 0.075006 0.721997 0.660340
O O6 0.078574 0.707694 0.523377
O O7 0.927289 0.801467 0.756603
O O8 0.083614 0.000000 0.579646
O O9 0.153784 0.500000 0.171835
O O10 0.250000 0.750000 0.000000
O O11 0.750000 0.250000 0.500000
O O12 0.911009 0.275878 0.226853
O O13 0.873816 0.000000 0.334526
O O14 0.506642 0.500000 0.918867
O O15 0.500000 0.227918 0.000000
O O16 0.500000 0.717668 0.500000
O O17 0.401720 0.000000 0.596908
#
# Coordination Sequence:
#
# PCOD9187297 Si02
#       6
#     8   8   8   8   8   8
#     4   9  18  33  54  81 117 150 187 242 294 345
#     4  11  23  38  56  84 122 157 191 243 306 367
#     4  11  21  36  57  83 115 154 196 244 300 362
#     4  10  23  41  61  87 119 154 199 253 307 360
#     4   9  18  34  58  87 112 145 196 247 294 348
#     4  10  19  35  58  87 116 151 199 245 291 352
#
# _framework density 22.372323000000002
#
# number of rings (size 3 to 8) (size 9 to 14) (size 15 to 20)
#    0.000    2.000    1.667    2.000    2.333    4.333 
#    0.000    0.000    0.000    1.500    0.000    0.000 
#    0.000    0.000    0.000    0.000    0.000    0.000 
#
# Total GULP energy -133872.702600 kJ/mol
# GULP energy per Si atom -5578.029275 kJ/mol
# Density = 2.232140 g / cm^3
# Si number density = 22.372323 Si / 1000 Ang^3
#
#
#
# Elastic Constant Matrix: (Units=GPa)
#
#
# Indices 1 2 3 4 5 6 
#
# 1 146.9416 2.7274 86.1585 0.0008 9.9707 -0.0004
# 2 2.7274 53.2592 -5.9812 -0.0085 0.2950 0.0026
# 3 86.1585 -5.9812 202.7535 -0.0026 18.0687 -0.0004
# 4 0.0008 -0.0085 -0.0026 16.7420 0.0008 6.8258
# 5 9.9707 0.2950 18.0687 0.0008 40.6372 0.0000
# 6 -0.0004 0.0026 -0.0004 6.8258 0.0000 -1.5106
#
#
#
# Elastic Compliance Matrix: (Units=1/GPa)
#
#
# Indices 1 2 3 4 5 6 
#
# 1 0.009117 -0.000897 -0.003855 0.000000 -0.000517 -0.000003
# 2 -0.000897 0.018933 0.000971 -0.000001 -0.000349 0.000027
# 3 -0.003855 0.000971 0.006784 0.000001 -0.002078 0.000003
# 4 0.000000 -0.000001 0.000001 0.021015 -0.000001 0.094958
# 5 -0.000517 -0.000349 -0.002078 -0.000001 0.025661 -0.000003
# 6 -0.000003 0.000027 0.000003 0.094958 -0.000003 -0.232907
#
#
# Mechanical properties :
#
#
# Convention : Reuss Voigt Hill
#
# Bulk Modulus (GPa) = 36.66712 63.19595 49.93154
# Shear Modulus (GPa) = -37.10758 32.51036 -2.29861
#
# Velocity S-wave (km/s) = -4.07706 3.81616 -1.01472
# Velocity P-wave (km/s) = 2.39543 6.90841 4.58192
#
# Compressibility (1/GPa) = 0.02727239
#
# Stress axis : x y z
#
# Youngs Moduli (GPa) = 109.68107 52.81790 147.40700
#
# Poissons Ratio (x) = 0.04737 0.56822
# Poissons Ratio (y) = 0.09838 -0.14310
# Poissons Ratio (z) = 0.42280 -0.05127
#
# Static dielectric constant tensor:
#      x y z
#    x 1.638650 0.000030 0.046860 
#    y 0.000030 1.821960 0.000010 
#    z 0.046860 0.000010 1.843280 
# 
# From -- ./inp_files/327164.got.cif
#   From: 2010.05.17/outbox.cif.g08.bks.cpg/sg12_164_cif.got.tgz:327164.got - 2010.06.03 13:09:07.
