data_PCOD9187827
_publ_section_title
;
Structure prediction by ZEFSAII (Michael W. Deem and Ramdas Pophale) SiO2 
 PCOD9187827
Probable space group: C 2/M
;
_chemical_formula_sum "Si O2"
_cell_formula_units_Z 52
_cell_length_a 16.599624
_cell_length_b 28.802146
_cell_length_c 8.400882
_cell_angle_alpha 90.000000
_cell_angle_beta 39.602546
_cell_angle_gamma 90.000000
_cell_volume 2560.352220
_symmetry_space_group_name_H-M "C 2/M"
_symmetry_group_IT_number 12
_symmetry_cell_setting 'monoclinic'
loop_
_space_group_symop_operation_xyz
x,y,z
-x,y,-z
-x,-y,-z
x,-y,z
1/2+x,1/2+y,z
1/2-x,1/2+y,-z
1/2-x,1/2-y,-z
1/2+x,1/2-y,z
loop_
_atom_site_type_symbol
_atom_site_label
_atom_site_fract_x
_atom_site_fract_y
_atom_site_fract_z
Si Si1 0.312158 0.052794 0.565480
Si Si2 0.199715 0.638110 0.632081
Si Si3 0.460794 0.833186 0.830265
Si Si4 0.100962 0.238715 0.198626
Si Si5 0.045637 0.949582 0.114837
Si Si6 0.479954 0.651990 0.221593
Si Si7 0.000000 0.606574 0.500000
O O1 0.278332 0.086479 0.470134
O O2 0.428939 0.074329 0.482598
O O3 0.333315 0.000000 0.481634
O O4 0.196283 0.053171 0.865574
O O5 0.331644 0.662816 0.466483
O O6 0.110605 0.660866 0.632861
O O7 0.115661 0.640608 0.916826
O O8 0.435324 0.779011 0.869901
O O9 0.419951 0.857552 0.728617
O O10 0.070672 0.188492 0.169775
O O11 0.000000 0.243852 0.500000
O O12 0.250000 0.250000 0.000000
O O13 0.000255 0.900717 0.252899
O O14 0.009615 0.000000 0.240656
O O15 0.000000 0.950840 0.000000
O O16 0.500000 0.652013 0.000000
#
# Coordination Sequence:
#
# PCOD9187827 Si02
#       7
#     8   8   8   8   8   8   4
#     4  10  19  35  61  92 124 159 209 257 309 373
#     4  10  21  40  61  94 119 160 204 266 313 357
#     4  10  23  41  62  84 124 164 206 256 313 376
#     4  12  28  44  63  93 127 172 211 263 322 382
#     4   9  17  33  60  91 120 155 197 247 305 362
#     4  11  23  38  66  96 123 159 212 258 305 380
#     4  10  21  38  62  84 120 170 209 240 316 380
#
# _framework density 20.309705000000001
#
# number of rings (size 3 to 8) (size 9 to 14) (size 15 to 20)
#    0.000    1.692    3.846    1.154    6.462    0.615 
#    0.000    6.923    0.000    0.462    0.000    0.000 
#    0.000    0.000    0.000    0.000    0.000    0.000 
#
# Total GULP energy -144845.042943 kJ/mol
# GULP energy per Si atom -5570.963190 kJ/mol
# Density = 2.026348 g / cm^3
# Si number density = 20.309705 Si / 1000 Ang^3
#
#
#
# Elastic Constant Matrix: (Units=GPa)
#
#
# Indices 1 2 3 4 5 6 
#
# 1 49.2976 47.7007 25.1233 0.0000 -10.2507 0.0000
# 2 47.7007 132.3451 18.4702 0.0000 -25.9839 0.0000
# 3 25.1233 18.4702 73.6380 0.0000 -14.0314 0.0000
# 4 0.0000 0.0000 0.0000 25.0695 0.0000 -9.1015
# 5 -10.2507 -25.9839 -14.0314 0.0000 33.3607 0.0000
# 6 0.0000 0.0000 0.0000 -9.1015 0.0000 29.2460
#
#
#
# Elastic Compliance Matrix: (Units=1/GPa)
#
#
# Indices 1 2 3 4 5 6 
#
# 1 0.036788 -0.012365 -0.009926 0.000000 -0.002502 0.000000
# 2 -0.012365 0.013144 0.002336 0.000000 0.007420 0.000000
# 3 -0.009926 0.002336 0.017553 0.000000 0.006152 0.000000
# 4 0.000000 0.000000 0.000000 0.044970 0.000000 0.013995
# 5 -0.002502 0.007420 0.006152 0.000000 0.037574 0.000000
# 6 0.000000 0.000000 0.000000 0.013995 0.000000 0.038548
#
#
# Mechanical properties :
#
#
# Convention : Reuss Voigt Hill
#
# Bulk Modulus (GPa) = 36.26740 48.65212 42.45976
# Shear Modulus (GPa) = 21.03675 28.46766 24.75220
#
# Velocity S-wave (km/s) = 3.22187 3.74796 3.49483
# Velocity P-wave (km/s) = 5.63352 6.53733 6.10218
#
# Compressibility (1/GPa) = 0.02757297
#
# Stress axis : x y z
#
# Youngs Moduli (GPa) = 27.18258 76.08214 56.97059
#
# Poissons Ratio (x) = 0.94079 0.56551
# Poissons Ratio (y) = 0.33612 -0.13308
# Poissons Ratio (z) = 0.26983 -0.17772
#
# Static dielectric constant tensor:
#      x y z
#    x 1.737400 0.000000 -0.035520 
#    y 0.000000 1.755960 0.000000 
#    z -0.035520 0.000000 1.753710 
# 
# From -- ./inp_files/68527.got.cif
#   From: 2010.05.17/outbox.cif.g08.bks.cpg/sg12_35_cif.got.tgz:68527.got - 2010.06.03 13:09:07.
