data_PCOD9187162
_publ_section_title
;
Structure prediction by ZEFSAII (Michael W. Deem and Ramdas Pophale) SiO2 
 PCOD9187162
Probable space group: C 2/M
;
_chemical_formula_sum "Si O2"
_cell_formula_units_Z 56
_cell_length_a 30.934343
_cell_length_b 9.021840
_cell_length_c 11.926623
_cell_angle_alpha 90.000000
_cell_angle_beta 115.270507
_cell_angle_gamma 90.000000
_cell_volume 3010.004870
_symmetry_space_group_name_H-M "C 2/M"
_symmetry_group_IT_number 12
_symmetry_cell_setting 'monoclinic'
loop_
_space_group_symop_operation_xyz
x,y,z
-x,y,-z
-x,-y,-z
x,-y,z
1/2+x,1/2+y,z
1/2-x,1/2+y,-z
1/2-x,1/2-y,-z
1/2+x,1/2-y,z
loop_
_atom_site_type_symbol
_atom_site_label
_atom_site_fract_x
_atom_site_fract_y
_atom_site_fract_z
Si Si1 0.017663 0.324387 0.816594
Si Si2 0.360368 0.676558 0.427816
Si Si3 0.815647 0.323376 0.980567
Si Si4 0.717785 0.176203 0.805301
Si Si5 0.595564 0.324297 0.043707
Si Si6 0.414616 0.323585 0.709578
Si Si7 0.547734 0.674014 0.626790
O O1 0.017889 0.500000 0.828790
O O2 0.044514 0.274262 0.732782
O O3 0.964105 0.262476 0.748942
O O4 0.046112 0.248853 0.949710
O O5 0.350594 0.500000 0.413525
O O6 0.315506 0.764523 0.330403
O O7 0.377126 0.717128 0.571453
O O8 0.406056 0.704000 0.397861
O O9 0.818399 0.500000 0.969100
O O10 0.808798 0.292295 0.105495
O O11 0.768426 0.258581 0.868887
O O12 0.862125 0.246649 0.981546
O O13 0.725279 0.000000 0.806193
O O14 0.593354 0.500000 0.021852
O O15 0.603402 0.298535 0.184446
O O16 0.424602 0.500000 0.707066
O O17 0.500000 0.696300 0.500000
O O18 0.548675 0.500000 0.661232
#
# Coordination Sequence:
#
# PCOD9187162 Si02
#       7
#     8   8   8   8   8   8   8
#     4  12  24  36  55  84 118 152 191 239 288 339
#     4  10  20  36  59  84 113 149 190 234 284 336
#     4  10  21  39  62  88 117 145 182 234 286 336
#     4  10  21  37  60  89 118 147 182 226 282 344
#     4  11  23  39  61  83 110 150 196 240 283 337
#     4  10  22  41  59  79 111 154 199 238 279 335
#     4  10  19  35  58  81 111 150 190 232 279 336
#
# _framework density 18.604621000000002
#
# number of rings (size 3 to 8) (size 9 to 14) (size 15 to 20)
#    0.000    1.571    1.429    3.857    0.000    8.286 
#    0.000    0.714    0.000    0.000    0.000    0.000 
#    0.000    0.000    0.000    0.000    0.000    0.000 
#
# Total GULP energy -156539.478770 kJ/mol
# GULP energy per Si atom -5590.695670 kJ/mol
# Density = 1.856228 g / cm^3
# Si number density = 18.604621 Si / 1000 Ang^3
#
#
#
# Elastic Constant Matrix: (Units=GPa)
#
#
# Indices 1 2 3 4 5 6 
#
# 1 34.5097 29.6478 32.3337 0.0000 3.9765 0.0000
# 2 29.6478 66.4917 57.9727 0.0000 0.6425 0.0000
# 3 32.3337 57.9727 131.6949 0.0000 16.1859 0.0000
# 4 0.0000 0.0000 0.0000 26.2077 0.0000 9.7996
# 5 3.9765 0.6425 16.1859 0.0000 21.7031 0.0000
# 6 0.0000 0.0000 0.0000 9.7996 0.0000 19.8754
#
#
#
# Elastic Compliance Matrix: (Units=1/GPa)
#
#
# Indices 1 2 3 4 5 6 
#
# 1 0.048893 -0.019405 -0.002677 0.000000 -0.006387 0.000000
# 2 -0.019405 0.033448 -0.011312 0.000000 0.011001 0.000000
# 3 -0.002677 -0.011312 0.014453 0.000000 -0.009954 0.000000
# 4 0.000000 0.000000 0.000000 0.046782 0.000000 -0.023066
# 5 -0.006387 0.011001 -0.009954 0.000000 0.054344 0.000000
# 6 0.000000 0.000000 0.000000 -0.023066 0.000000 0.061686
#
#
# Mechanical properties :
#
#
# Convention : Reuss Voigt Hill
#
# Bulk Modulus (GPa) = 33.32584 52.51165 42.91874
# Shear Modulus (GPa) = 14.86345 21.07339 17.96842
#
# Velocity S-wave (km/s) = 2.82957 3.36921 3.11111
# Velocity P-wave (km/s) = 5.35041 6.58952 6.00202
#
# Compressibility (1/GPa) = 0.03000675
#
# Stress axis : x y z
#
# Youngs Moduli (GPa) = 20.45301 29.89708 69.18773
#
# Poissons Ratio (x) = 0.58015 0.18521
# Poissons Ratio (y) = 0.39689 0.78264
# Poissons Ratio (z) = 0.05475 0.33819
#
# Static dielectric constant tensor:
#      x y z
#    x 1.617260 0.000000 -0.012230 
#    y 0.000000 1.617020 0.000000 
#    z -0.012230 0.000000 1.644430 
# 
# From -- ./inp_files/181117.got.cif
#   From: 2010.05.17/outbox.cif.g08.bks.cpg/sg12_91_cif.got.tgz:181117.got - 2010.06.03 13:09:07.
