data_PCOD9187784
_publ_section_title
;
Structure prediction by ZEFSAII (Michael W. Deem and Ramdas Pophale) SiO2 
 PCOD9187784
Probable space group: C 2/M
;
_chemical_formula_sum "Si O2"
_cell_formula_units_Z 56
_cell_length_a 9.592100
_cell_length_b 17.803939
_cell_length_c 25.786522
_cell_angle_alpha 90.000000
_cell_angle_beta 40.183859
_cell_angle_gamma 90.000000
_cell_volume 2841.486022
_symmetry_space_group_name_H-M "C 2/M"
_symmetry_group_IT_number 12
_symmetry_cell_setting 'monoclinic'
loop_
_space_group_symop_operation_xyz
x,y,z
-x,y,-z
-x,-y,-z
x,-y,z
1/2+x,1/2+y,z
1/2-x,1/2+y,-z
1/2-x,1/2-y,-z
1/2+x,1/2-y,z
loop_
_atom_site_type_symbol
_atom_site_label
_atom_site_fract_x
_atom_site_fract_y
_atom_site_fract_z
Si Si1 0.313455 0.910016 0.670143
Si Si2 0.661384 0.172883 0.502252
Si Si3 0.663385 0.087917 0.912371
Si Si4 0.051254 0.590422 0.829488
Si Si5 0.053281 0.172717 0.827223
Si Si6 0.496724 0.411444 0.662085
Si Si7 0.303624 0.298818 0.096716
O O1 0.527116 0.878454 0.580853
O O2 0.251452 0.853331 0.734551
O O3 0.119399 0.903126 0.682699
O O4 0.331319 0.000000 0.677627
O O5 0.500000 0.187916 0.500000
O O6 0.750000 0.250000 0.500000
O O7 0.863212 0.128827 0.420822
O O8 0.617154 0.117415 0.868300
O O9 0.900579 0.099711 0.866796
O O10 0.620150 0.000000 0.920421
O O11 0.500000 0.122162 0.000000
O O12 0.047456 0.500000 0.829202
O O13 0.822984 0.624461 0.880067
O O14 0.250834 0.615948 0.736844
O O15 0.114869 0.195284 0.867612
O O16 0.885551 0.236072 0.854385
O O17 0.493579 0.500000 0.652327
O O18 0.500000 0.289010 0.000000
#
# Coordination Sequence:
#
# PCOD9187784 Si02
#       7
#     8   8   8   8   8   8   8
#     4  10  21  39  66  97 124 161 210 255 301 367
#     4  10  22  38  64  94 130 163 203 249 304 362
#     4  10  19  35  61  89 118 156 201 250 305 365
#     4  10  21  39  63  89 122 162 207 254 310 375
#     4  12  24  39  63  86 123 160 207 258 314 373
#     4   9  18  38  66  91 122 163 209 251 297 365
#     4  12  27  43  61  87 123 164 212 264 320 376
#
# _framework density 19.707999000000001
#
# number of rings (size 3 to 8) (size 9 to 14) (size 15 to 20)
#    0.000    1.571    1.429    3.429    2.000    4.286 
#    0.000    0.000    0.000    0.857    0.000    0.000 
#    0.000    0.000    0.000    0.000    0.000    0.000 
#
# Total GULP energy -156226.375828 kJ/mol
# GULP energy per Si atom -5579.513422 kJ/mol
# Density = 1.966314 g / cm^3
# Si number density = 19.707999 Si / 1000 Ang^3
#
#
#
# Elastic Constant Matrix: (Units=GPa)
#
#
# Indices 1 2 3 4 5 6 
#
# 1 93.8357 27.9338 45.7202 -0.0025 10.9927 0.0002
# 2 27.9338 58.5422 46.9861 -0.0038 4.3112 -0.0016
# 3 45.7202 46.9861 142.1999 -0.0031 13.7313 0.0012
# 4 -0.0025 -0.0038 -0.0031 22.7830 -0.0013 -13.1991
# 5 10.9927 4.3112 13.7313 -0.0013 26.8004 -0.0012
# 6 0.0002 -0.0016 0.0012 -13.1991 -0.0012 23.7320
#
#
#
# Elastic Compliance Matrix: (Units=1/GPa)
#
#
# Indices 1 2 3 4 5 6 
#
# 1 0.013591 -0.004071 -0.002682 0.000000 -0.003545 0.000000
# 2 -0.004071 0.024467 -0.006898 0.000006 0.001268 0.000005
# 3 -0.002682 -0.006898 0.010479 -0.000001 -0.003159 -0.000002
# 4 0.000000 0.000006 -0.000001 0.064758 0.000005 0.036017
# 5 -0.003545 0.001268 -0.003159 0.000005 0.040182 0.000005
# 6 0.000000 0.000005 -0.000002 0.036017 0.000005 0.062169
#
#
# Mechanical properties :
#
#
# Convention : Reuss Voigt Hill
#
# Bulk Modulus (GPa) = 47.09321 59.53978 53.31650
# Shear Modulus (GPa) = 19.99777 26.25892 23.12835
#
# Velocity S-wave (km/s) = 3.18890 3.65416 3.42943
# Velocity P-wave (km/s) = 6.12422 6.93401 6.54166
#
# Compressibility (1/GPa) = 0.02123448
#
# Stress axis : x y z
#
# Youngs Moduli (GPa) = 73.57748 40.87087 95.42830
#
# Poissons Ratio (x) = 0.16640 0.25596
# Poissons Ratio (y) = 0.29955 0.65827
# Poissons Ratio (z) = 0.19735 0.28193
#
# Static dielectric constant tensor:
#      x y z
#    x 1.676810 0.000000 0.008010 
#    y 0.000000 1.746880 0.000000 
#    z 0.008010 0.000000 1.742060 
# 
# From -- ./inp_files/356639.got.cif
#   From: 2010.05.17/outbox.cif.g08.bks.cpg/sg12_179_cif.got.tgz:356639.got - 2010.06.03 13:09:07.
