data_PCOD9187124
_publ_section_title
;
Structure prediction by ZEFSAII (Michael W. Deem and Ramdas Pophale) SiO2 
 PCOD9187124
Probable space group: C 2/M
;
_chemical_formula_sum "Si O2"
_cell_formula_units_Z 56
_cell_length_a 15.649019
_cell_length_b 7.501426
_cell_length_c 19.956878
_cell_angle_alpha 90.000000
_cell_angle_beta 88.341442
_cell_angle_gamma 90.000000
_cell_volume 2341.755595
_symmetry_space_group_name_H-M "C 2/M"
_symmetry_group_IT_number 12
_symmetry_cell_setting 'monoclinic'
loop_
_space_group_symop_operation_xyz
x,y,z
-x,y,-z
-x,-y,-z
x,-y,z
1/2+x,1/2+y,z
1/2-x,1/2+y,-z
1/2-x,1/2-y,-z
1/2+x,1/2-y,z
loop_
_atom_site_type_symbol
_atom_site_label
_atom_site_fract_x
_atom_site_fract_y
_atom_site_fract_z
Si Si1 0.071402 0.203328 0.190482
Si Si2 0.309352 0.285021 0.083148
Si Si3 0.617602 0.297998 0.049338
Si Si4 0.294265 0.213338 0.364414
Si Si5 0.535958 0.287215 0.569375
Si Si6 0.887661 0.218846 0.668443
Si Si7 0.118207 0.710663 0.774079
O O1 0.077370 0.288071 0.116651
O O2 0.118800 0.280987 0.254262
O O3 0.973246 0.199942 0.214505
O O4 0.103686 0.000000 0.181737
O O5 0.303367 0.500000 0.077342
O O6 0.218367 0.203260 0.065779
O O7 0.331273 0.238929 0.158318
O O8 0.380046 0.224303 0.026428
O O9 0.583544 0.500000 0.045278
O O10 0.364527 0.255414 0.418663
O O11 0.196283 0.274164 0.370972
O O12 0.332938 0.277655 0.292646
O O13 0.289837 0.000000 0.361002
O O14 0.500000 0.217261 0.500000
O O15 0.524975 0.500000 0.568627
O O16 0.474730 0.220615 0.630721
O O17 0.890000 0.000000 0.671291
O O18 0.103578 0.500000 0.765787
#
# Coordination Sequence:
#
# PCOD9187124 Si02
#       7
#     8   8   8   8   8   8   8
#     4  10  19  35  58  78 105 147 191 232 283 343
#     4  10  20  34  53  77 107 144 186 233 287 343
#     4   9  19  35  54  77 105 141 188 237 283 340
#     4  10  21  38  60  84 113 152 194 233 277 337
#     4  10  21  38  60  88 120 149 184 232 281 336
#     4   9  18  35  59  83 112 152 189 224 281 341
#     4  11  22  35  53  79 111 143 188 243 287 331
#
# _framework density 23.913682000000001
#
# number of rings (size 3 to 8) (size 9 to 14) (size 15 to 20)
#    0.000    2.143    1.429    1.714    0.000    5.429 
#    0.000    4.286    0.000    0.000    0.000    0.000 
#    0.000    0.000    0.000    0.000    0.000    0.000 
#
# Total GULP energy -156380.876885 kJ/mol
# GULP energy per Si atom -5585.031317 kJ/mol
# Density = 2.385925 g / cm^3
# Si number density = 23.913682 Si / 1000 Ang^3
#
#
#
# Elastic Constant Matrix: (Units=GPa)
#
#
# Indices 1 2 3 4 5 6 
#
# 1 65.5945 -4.9544 -6.0820 0.0000 19.5094 0.0000
# 2 -4.9544 78.8811 -0.4486 0.0000 -6.1081 0.0000
# 3 -6.0820 -0.4486 55.6694 0.0000 25.4891 0.0000
# 4 0.0000 0.0000 0.0000 3.9650 0.0000 4.9675
# 5 19.5094 -6.1081 25.4891 0.0000 38.8933 0.0000
# 6 0.0000 0.0000 0.0000 4.9675 0.0000 15.6910
#
#
#
# Elastic Compliance Matrix: (Units=1/GPa)
#
#
# Indices 1 2 3 4 5 6 
#
# 1 0.021426 0.000047 0.010371 0.000000 -0.017537 0.000000
# 2 0.000047 0.012887 -0.001153 0.000000 0.002756 0.000000
# 3 0.010371 -0.001153 0.030791 0.000000 -0.025563 0.000000
# 4 0.000000 0.000000 0.000000 0.417988 0.000000 -0.132328
# 5 -0.017537 0.002756 -0.025563 0.000000 0.051694 0.000000
# 6 0.000000 0.000000 0.000000 -0.132328 0.000000 0.105623
#
#
# Mechanical properties :
#
#
# Convention : Reuss Voigt Hill
#
# Bulk Modulus (GPa) = 11.95687 19.68609 15.82148
# Shear Modulus (GPa) = 7.69517 25.81855 16.75686
#
# Velocity S-wave (km/s) = 1.79580 3.28938 2.64999
# Velocity P-wave (km/s) = 3.05135 4.76200 3.99921
#
# Compressibility (1/GPa) = 0.08363396
#
# Stress axis : x y z
#
# Youngs Moduli (GPa) = 46.67168 77.59701 32.47682
#
# Poissons Ratio (x) = -0.00363 -0.33681
# Poissons Ratio (y) = -0.00218 0.03744
# Poissons Ratio (z) = -0.48403 0.08946
#
# Static dielectric constant tensor:
#      x y z
#    x 1.890060 0.000000 0.000110 
#    y 0.000000 1.931960 0.000000 
#    z 0.000110 0.000000 1.958120 
# 
# From -- ./inp_files/308951.got.cif
#   From: 2010.05.17/outbox.cif.g08.bks.cpg/sg12_155_cif.got.tgz:308951.got - 2010.06.03 13:09:07.
