data_PCOD9187681
_publ_section_title
;
Structure prediction by ZEFSAII (Michael W. Deem and Ramdas Pophale) SiO2 
 PCOD9187681
Probable space group: C 2/M
;
_chemical_formula_sum "Si O2"
_cell_formula_units_Z 64
_cell_length_a 20.650019
_cell_length_b 8.688478
_cell_length_c 21.742759
_cell_angle_alpha 90.000000
_cell_angle_beta 49.284758
_cell_angle_gamma 90.000000
_cell_volume 2956.824715
_symmetry_space_group_name_H-M "C 2/M"
_symmetry_group_IT_number 12
_symmetry_cell_setting 'monoclinic'
loop_
_space_group_symop_operation_xyz
x,y,z
-x,y,-z
-x,-y,-z
x,-y,z
1/2+x,1/2+y,z
1/2-x,1/2+y,-z
1/2-x,1/2-y,-z
1/2+x,1/2-y,z
loop_
_atom_site_type_symbol
_atom_site_label
_atom_site_fract_x
_atom_site_fract_y
_atom_site_fract_z
Si Si1 0.420357 0.322733 0.262316
Si Si2 0.153511 0.815297 0.193821
Si Si3 0.176630 0.316054 0.854127
Si Si4 0.344614 0.317571 0.946268
Si Si5 0.259478 0.177182 0.681574
Si Si6 0.496294 0.181708 0.093016
Si Si7 0.414601 0.324482 0.512610
Si Si8 0.489564 0.182242 0.344314
O O1 0.449446 0.500000 0.234004
O O2 0.318386 0.321564 0.318518
O O3 0.455351 0.218620 0.185089
O O4 0.448024 0.263421 0.311063
O O5 0.251894 0.762390 0.141317
O O6 0.122037 0.783976 0.143984
O O7 0.088343 0.738037 0.281617
O O8 0.151512 0.000000 0.204031
O O9 0.168915 0.500000 0.865723
O O10 0.225135 0.274793 0.760516
O O11 0.078427 0.258676 0.907259
O O12 0.339720 0.500000 0.956978
O O13 0.409138 0.250841 0.957212
O O14 0.250000 0.250000 0.000000
O O15 0.341957 0.244834 0.597968
O O16 0.272760 0.000000 0.693177
O O17 0.505687 0.000000 0.077195
O O18 0.500000 0.328824 0.500000
O O19 0.389348 0.500000 0.513351
O O20 0.439386 0.234789 0.435640
O O21 0.487212 0.000000 0.339157
#
# Coordination Sequence:
#
# PCOD9187681 Si02
#       8
#     8   8   8   8   8   8   8   8
#     4  10  20  36  57  82 113 150 189 232 285 345
#     4  10  21  39  61  86 117 153 194 236 286 347
#     4   9  19  36  60  87 116 155 196 236 284 346
#     4  11  23  39  62  88 119 156 193 237 289 345
#     4  10  21  36  56  83 114 148 191 241 291 339
#     4  10  19  35  60  89 119 150 192 237 283 342
#     4  11  24  40  56  75 107 152 194 236 292 352
#     4  12  24  36  57  85 113 147 191 243 292 338
#
# _framework density 21.644841
#
# number of rings (size 3 to 8) (size 9 to 14) (size 15 to 20)
#    0.000    1.625    1.250    3.750    0.000    7.500 
#    0.000    0.625    0.000    3.750    0.000    0.000 
#    0.000    0.000    0.000    0.000    0.000    0.000 
#
# Total GULP energy -178811.292981 kJ/mol
# GULP energy per Si atom -5587.852906 kJ/mol
# Density = 2.159558 g / cm^3
# Si number density = 21.644841 Si / 1000 Ang^3
#
#
#
# Elastic Constant Matrix: (Units=GPa)
#
#
# Indices 1 2 3 4 5 6 
#
# 1 145.3517 19.9205 19.7601 0.0000 -12.2226 0.0000
# 2 19.9205 42.6949 5.0498 -0.0001 -3.3100 0.0001
# 3 19.7601 5.0498 75.7820 0.0001 -14.3124 0.0000
# 4 0.0000 -0.0001 0.0001 15.0325 0.0000 0.2010
# 5 -12.2226 -3.3100 -14.3124 0.0000 35.4920 0.0000
# 6 0.0000 0.0001 0.0000 0.2010 0.0000 10.0775
#
#
#
# Elastic Compliance Matrix: (Units=1/GPa)
#
#
# Indices 1 2 3 4 5 6 
#
# 1 0.007673 -0.003273 -0.001452 0.000000 0.001752 0.000000
# 2 -0.003273 0.025099 -0.000639 0.000000 0.000956 0.000000
# 3 -0.001452 -0.000639 0.014625 0.000000 0.005338 0.000000
# 4 0.000000 0.000000 0.000000 0.066540 0.000000 -0.001327
# 5 0.001752 0.000956 0.005338 0.000000 0.031020 0.000000
# 6 0.000000 0.000000 0.000000 -0.001327 0.000000 0.099258
#
#
# Mechanical properties :
#
#
# Convention : Reuss Voigt Hill
#
# Bulk Modulus (GPa) = 27.26971 39.25439 33.26205
# Shear Modulus (GPa) = 18.71505 26.72693 22.72099
#
# Velocity S-wave (km/s) = 2.94367 3.51778 3.24345
# Velocity P-wave (km/s) = 4.91728 5.88852 5.42468
#
# Compressibility (1/GPa) = 0.03667073
#
# Stress axis : x y z
#
# Youngs Moduli (GPa) = 130.32633 39.84297 68.37588
#
# Poissons Ratio (x) = 0.13039 0.09927
# Poissons Ratio (y) = 0.42650 0.04366
# Poissons Ratio (z) = 0.18921 0.02544
#
# Static dielectric constant tensor:
#      x y z
#    x 1.838720 0.000000 -0.017630 
#    y 0.000000 1.746690 0.000000 
#    z -0.017630 0.000000 1.788460 
# 
# From -- ./inp_files/345994.got.cif
#   From: 2010.05.17/outbox.cif.g08.bks.cpg/sg12_173_cif.got.tgz:345994.got - 2010.06.03 13:09:07.
