data_PCOD9187178
_publ_section_title
;
Structure prediction by ZEFSAII (Michael W. Deem and Ramdas Pophale) SiO2 
 PCOD9187178
Probable space group: C 2/M
;
_chemical_formula_sum "Si O2"
_cell_formula_units_Z 24
_cell_length_a 8.435064
_cell_length_b 18.065148
_cell_length_c 6.433416
_cell_angle_alpha 90.000000
_cell_angle_beta 101.211252
_cell_angle_gamma 90.000000
_cell_volume 961.620689
_symmetry_space_group_name_H-M "C 2/M"
_symmetry_group_IT_number 12
_symmetry_cell_setting 'monoclinic'
loop_
_space_group_symop_operation_xyz
x,y,z
-x,y,-z
-x,-y,-z
x,-y,z
1/2+x,1/2+y,z
1/2-x,1/2+y,-z
1/2-x,1/2-y,-z
1/2+x,1/2-y,z
loop_
_atom_site_type_symbol
_atom_site_label
_atom_site_fract_x
_atom_site_fract_y
_atom_site_fract_z
Si Si1 0.659829 0.917906 0.900788
Si Si2 0.272896 0.277373 0.764609
Si Si3 0.592565 0.641413 0.709861
O O1 0.812782 0.905995 0.096155
O O2 0.667287 0.000000 0.811023
O O3 0.500000 0.911683 0.000000
O O4 0.665371 0.851682 0.737858
O O5 0.452587 0.306162 0.769122
O O6 0.217540 0.201221 0.642615
O O7 0.250000 0.250000 0.000000
O O8 0.500000 0.599762 0.500000
#
# Coordination Sequence:
#
# PCOD9187178 Si02
#       3
#     8   8   8
#     4  10  21  38  58  80 110 149 190 228 272 331
#     4  10  19  35  58  82 109 145 189 225 267 330
#     4  11  22  36  58  86 115 143 180 235 285 326
#
# _framework density 24.957868000000001
#
# number of rings (size 3 to 8) (size 9 to 14) (size 15 to 20)
#    0.000    1.667    0.000    9.000    0.000    3.333 
#    0.000    0.000    0.000    5.000    0.000    0.000 
#    0.000    0.000    0.000    0.000    0.000    0.000 
#
# Total GULP energy -66987.000154 kJ/mol
# GULP energy per Si atom -5582.250013 kJ/mol
# Density = 2.490106 g / cm^3
# Si number density = 24.957868 Si / 1000 Ang^3
#
#
#
# Elastic Constant Matrix: (Units=GPa)
#
#
# Indices 1 2 3 4 5 6 
#
# 1 109.5392 20.0201 4.5590 0.0000 5.0586 0.0000
# 2 20.0201 146.1905 -7.5043 0.0000 -7.3483 0.0000
# 3 4.5590 -7.5043 72.9449 0.0000 22.5959 0.0000
# 4 0.0000 0.0000 0.0000 28.0770 0.0000 -3.3082
# 5 5.0586 -7.3483 22.5959 0.0000 28.3392 0.0000
# 6 0.0000 0.0000 0.0000 -3.3082 0.0000 24.4231
#
#
#
# Elastic Compliance Matrix: (Units=1/GPa)
#
#
# Indices 1 2 3 4 5 6 
#
# 1 0.009481 -0.001403 -0.000133 0.000000 -0.001950 0.000000
# 2 -0.001403 0.007141 0.000227 0.000000 0.001921 0.000000
# 3 -0.000133 0.000227 0.018214 0.000000 -0.014440 0.000000
# 4 0.000000 0.000000 0.000000 0.036194 0.000000 0.004903
# 5 -0.001950 0.001921 -0.014440 0.000000 0.047646 0.000000
# 6 0.000000 0.000000 0.000000 0.004903 0.000000 0.041609
#
#
# Mechanical properties :
#
#
# Convention : Reuss Voigt Hill
#
# Bulk Modulus (GPa) = 31.03835 40.31381 35.67608
# Shear Modulus (GPa) = 28.79491 36.94117 32.86804
#
# Velocity S-wave (km/s) = 3.40036 3.85143 3.63291
# Velocity P-wave (km/s) = 5.28014 5.99716 5.65003
#
# Compressibility (1/GPa) = 0.03221820
#
# Stress axis : x y z
#
# Youngs Moduli (GPa) = 105.47167 140.04081 54.90395
#
# Poissons Ratio (x) = 0.19651 0.00729
# Poissons Ratio (y) = 0.14800 -0.01248
# Poissons Ratio (z) = 0.01400 -0.03183
#
# Static dielectric constant tensor:
#      x y z
#    x 2.040300 0.000000 -0.065740 
#    y 0.000000 1.987030 0.000000 
#    z -0.065740 0.000000 2.398350 
# 
# From -- ./inp_files/36310.got.cif
#   From: 2010.05.17/outbox.cif.g08.bks.cpg/sg12_19_cif.got.tgz:36310.got - 2010.06.03 13:09:07.
