data_PCOD9187722
_publ_section_title
;
Structure prediction by ZEFSAII (Michael W. Deem and Ramdas Pophale) SiO2 
 PCOD9187722
Probable space group: C 2/M
;
_chemical_formula_sum "Si O2"
_cell_formula_units_Z 30
_cell_length_a 13.388667
_cell_length_b 14.740282
_cell_length_c 11.744039
_cell_angle_alpha 90.000000
_cell_angle_beta 31.658496
_cell_angle_gamma 90.000000
_cell_volume 1216.466413
_symmetry_space_group_name_H-M "C 2/M"
_symmetry_group_IT_number 12
_symmetry_cell_setting 'monoclinic'
loop_
_space_group_symop_operation_xyz
x,y,z
-x,y,-z
-x,-y,-z
x,-y,z
1/2+x,1/2+y,z
1/2-x,1/2+y,-z
1/2-x,1/2-y,-z
1/2+x,1/2-y,z
loop_
_atom_site_type_symbol
_atom_site_label
_atom_site_fract_x
_atom_site_fract_y
_atom_site_fract_z
Si Si1 0.500000 0.803639 0.000000
Si Si2 0.628505 0.300117 0.262520
Si Si3 0.500000 0.500000 0.000000
Si Si4 0.125714 0.845848 0.702528
Si Si5 0.545449 0.897819 0.320891
O O1 0.672655 0.849086 0.901594
O O2 0.607962 0.743308 0.799219
O O3 0.500000 0.299852 0.500000
O O4 0.501772 0.339211 0.285146
O O5 0.671185 0.193339 0.189708
O O6 0.554552 0.423017 0.854321
O O7 0.344117 0.870718 0.461086
O O8 0.500000 0.904858 0.500000
O O9 0.614702 0.000000 0.222359
#
# Coordination Sequence:
#
# PCOD9187722 Si02
#       5
#     4   8   2   8   8
#     4  11  22  39  60  95 127 174 227 264 319 384
#     4  11  23  40  63  93 133 176 221 267 325 391
#     4  10  24  40  68 102 120 160 224 278 326 396
#     4  11  21  40  64  92 132 170 218 277 325 383
#     4  10  19  35  60  95 128 165 218 266 319 376
#
# _framework density 24.661594000000001
#
# number of rings (size 3 to 8) (size 9 to 14) (size 15 to 20)
#    0.000    1.333    6.667    1.600    0.000    0.000 
#    0.000    0.667    0.000    0.800    0.000    2.800 
#    0.000    0.000    0.000    0.000    0.000    0.000 
#
# Total GULP energy -83684.144096 kJ/mol
# GULP energy per Si atom -5578.942940 kJ/mol
# Density = 2.460546 g / cm^3
# Si number density = 24.661594 Si / 1000 Ang^3
#
#
#
# Elastic Constant Matrix: (Units=GPa)
#
#
# Indices 1 2 3 4 5 6 
#
# 1 155.3622 6.0120 46.5585 -0.0014 -27.9737 -0.0001
# 2 6.0120 43.4547 23.5349 -0.0019 9.0560 0.0008
# 3 46.5585 23.5349 80.6478 -0.0023 -11.5878 0.0013
# 4 -0.0014 -0.0019 -0.0023 17.6787 0.0010 16.0829
# 5 -27.9737 9.0560 -11.5878 0.0010 50.0859 -0.0003
# 6 -0.0001 0.0008 0.0013 16.0829 -0.0003 9.0711
#
#
#
# Elastic Compliance Matrix: (Units=1/GPa)
#
#
# Indices 1 2 3 4 5 6 
#
# 1 0.008404 0.000530 -0.004495 0.000001 0.003558 -0.000001
# 2 0.000530 0.029981 -0.010128 -0.000006 -0.007468 0.000009
# 3 -0.004495 -0.010128 0.018467 -0.000004 0.003593 0.000005
# 4 0.000001 -0.000006 -0.000004 -0.092286 0.000004 0.163620
# 5 0.003558 -0.007468 0.003593 0.000004 0.024134 -0.000006
# 6 -0.000001 0.000009 0.000005 0.163620 -0.000006 -0.179855
#
#
# Mechanical properties :
#
#
# Convention : Reuss Voigt Hill
#
# Bulk Modulus (GPa) = 34.88556 47.96393 41.42474
# Shear Modulus (GPa) = -32.59152 28.92445 -1.83354
#
# Velocity S-wave (km/s) = -3.63926 3.42841 -0.86319
# Velocity P-wave (km/s) = 1.86615 5.92984 3.97998
#
# Compressibility (1/GPa) = 0.02866516
#
# Stress axis : x y z
#
# Youngs Moduli (GPa) = 118.99502 33.35461 54.15179
#
# Poissons Ratio (x) = -0.01769 0.24342
# Poissons Ratio (y) = -0.06312 0.54847
# Poissons Ratio (z) = 0.53490 0.33783
#
# Static dielectric constant tensor:
#      x y z
#    x 2.019850 0.000000 -0.072590 
#    y 0.000000 1.934480 0.000000 
#    z -0.072590 0.000000 2.039990 
# 
# From -- ./inp_files/74288.got.cif
#   From: 2010.05.17/outbox.cif.g08.bks.cpg/sg12_38_cif.got.tgz:74288.got - 2010.06.03 13:09:07.
