data_PCOD9187901
_publ_section_title
;
Structure prediction by ZEFSAII (Michael W. Deem and Ramdas Pophale) SiO2 
 PCOD9187901
Probable space group: C 2/M
;
_chemical_formula_sum "Si O2"
_cell_formula_units_Z 58
_cell_length_a 21.993321
_cell_length_b 12.398635
_cell_length_c 20.114452
_cell_angle_alpha 90.000000
_cell_angle_beta 146.842211
_cell_angle_gamma 90.000000
_cell_volume 2999.976347
_symmetry_space_group_name_H-M "C 2/M"
_symmetry_group_IT_number 12
_symmetry_cell_setting 'monoclinic'
loop_
_space_group_symop_operation_xyz
x,y,z
-x,y,-z
-x,-y,-z
x,-y,z
1/2+x,1/2+y,z
1/2-x,1/2+y,-z
1/2-x,1/2-y,-z
1/2+x,1/2-y,z
loop_
_atom_site_type_symbol
_atom_site_label
_atom_site_fract_x
_atom_site_fract_y
_atom_site_fract_z
Si Si1 0.000000 0.000000 0.500000
Si Si2 0.333099 0.872465 0.215736
Si Si3 0.321388 0.125081 0.354569
Si Si4 0.999442 0.739127 0.723675
Si Si5 0.375631 0.876154 0.729820
Si Si6 0.379316 0.377491 0.059920
Si Si7 0.616401 0.328941 0.505946
Si Si8 0.563680 0.318836 0.127790
O O1 0.951059 0.905820 0.506446
O O2 0.348366 0.832993 0.304884
O O3 0.434923 0.844984 0.261874
O O4 0.318091 0.000000 0.209387
O O5 0.221082 0.832300 0.076998
O O6 0.372973 0.208163 0.453837
O O7 0.187115 0.132526 0.236816
O O8 0.356170 0.000000 0.395290
O O9 0.089678 0.804127 0.849575
O O10 0.917538 0.680539 0.700414
O O11 0.937597 0.818448 0.616179
O O12 0.242751 0.869897 0.614047
O O13 0.423373 0.803506 0.833591
O O14 0.412317 0.000000 0.765705
O O15 0.351970 0.500000 0.055106
O O16 0.488120 0.377434 0.113108
O O17 0.500000 0.325217 0.000000
#
# Coordination Sequence:
#
# PCOD9187901 Si02
#       8
#     2   8   8   8   8   8   8   8
#     4  12  24  44  70  84 126 172 210 268 316 372
#     4  10  20  36  58  85 119 156 194 251 306 366
#     4  10  21  37  62  94 127 156 203 261 318 372
#     4  11  23  39  60  85 120 163 207 251 308 371
#     4  10  22  41  61  86 124 163 207 261 312 374
#     4  10  21  35  57  87 119 156 202 248 304 369
#     4  11  24  42  63  93 121 166 213 259 320 379
#     4  10  19  35  62  91 121 160 202 254 312 374
#
# _framework density 19.333485
#
# number of rings (size 3 to 8) (size 9 to 14) (size 15 to 20)
#    0.000    1.655    2.069    2.483    0.966    1.931 
#    0.000    1.724    0.000    0.000    0.000    0.000 
#    0.000    0.000    0.000    0.000    0.000    0.000 
#
# Total GULP energy -161663.814575 kJ/mol
# GULP energy per Si atom -5574.614296 kJ/mol
# Density = 1.928948 g / cm^3
# Si number density = 19.333485 Si / 1000 Ang^3
#
#
#
# Elastic Constant Matrix: (Units=GPa)
#
#
# Indices 1 2 3 4 5 6 
#
# 1 76.3041 8.1586 -2.9335 0.0000 -5.3840 0.0000
# 2 8.1586 85.7688 2.4583 0.0000 -6.8826 0.0000
# 3 -2.9335 2.4583 31.2982 0.0000 -3.2329 0.0000
# 4 0.0000 0.0000 0.0000 6.2170 0.0000 0.9738
# 5 -5.3840 -6.8826 -3.2329 0.0000 23.3947 0.0000
# 6 0.0000 0.0000 0.0000 0.9738 0.0000 24.9082
#
#
#
# Elastic Compliance Matrix: (Units=1/GPa)
#
#
# Indices 1 2 3 4 5 6 
#
# 1 0.013499 -0.001090 0.001662 0.000000 0.003016 0.000000
# 2 -0.001090 0.012040 -0.000718 0.000000 0.003192 0.000000
# 3 0.001662 -0.000718 0.032647 0.000000 0.004683 0.000000
# 4 0.000000 0.000000 0.000000 0.161841 0.000000 -0.006327
# 5 0.003016 0.003192 0.004683 0.000000 0.045025 0.000000
# 6 0.000000 0.000000 0.000000 -0.006327 0.000000 0.040395
#
#
# Mechanical properties :
#
#
# Convention : Reuss Voigt Hill
#
# Bulk Modulus (GPa) = 17.27295 23.19311 20.23303
# Shear Modulus (GPa) = 15.38297 23.28315 19.33306
#
# Velocity S-wave (km/s) = 2.82381 3.47405 3.16567
# Velocity P-wave (km/s) = 4.42555 5.30231 4.88364
#
# Compressibility (1/GPa) = 0.05789398
#
# Stress axis : x y z
#
# Youngs Moduli (GPa) = 74.08145 83.05902 30.63100
#
# Poissons Ratio (x) = 0.09051 -0.05092
# Poissons Ratio (y) = 0.08073 0.02200
# Poissons Ratio (z) = -0.12314 0.05964
#
# Static dielectric constant tensor:
#      x y z
#    x 1.656180 0.000000 0.012140 
#    y 0.000000 1.673510 0.000000 
#    z 0.012140 0.000000 1.674230 
# 
# From -- ./inp_files/283561.got.cif
#   From: 2010.05.17/outbox.cif.g08.bks.cpg/sg12_142_cif.got.tgz:283561.got - 2010.06.03 13:09:07.
