data_PCOD9187035
_publ_section_title
;
Structure prediction by ZEFSAII (Michael W. Deem and Ramdas Pophale) SiO2 
 PCOD9187035
Probable space group: C 2/M
;
_chemical_formula_sum "Si O2"
_cell_formula_units_Z 64
_cell_length_a 14.503015
_cell_length_b 14.591956
_cell_length_c 18.179770
_cell_angle_alpha 90.000000
_cell_angle_beta 116.308172
_cell_angle_gamma 90.000000
_cell_volume 3448.841953
_symmetry_space_group_name_H-M "C 2/M"
_symmetry_group_IT_number 12
_symmetry_cell_setting 'monoclinic'
loop_
_space_group_symop_operation_xyz
x,y,z
-x,y,-z
-x,-y,-z
x,-y,z
1/2+x,1/2+y,z
1/2-x,1/2+y,-z
1/2-x,1/2-y,-z
1/2+x,1/2-y,z
loop_
_atom_site_type_symbol
_atom_site_label
_atom_site_fract_x
_atom_site_fract_y
_atom_site_fract_z
Si Si1 0.454561 0.318909 0.658221
Si Si2 0.484261 0.745579 0.168512
Si Si3 0.722609 0.314048 0.921855
Si Si4 0.156637 0.108648 0.647599
Si Si5 0.719936 0.748374 0.216920
Si Si6 0.923247 0.396162 0.036158
Si Si7 0.748417 0.394155 0.349717
Si Si8 0.115509 0.742150 0.513833
O O1 0.500761 0.255150 0.738586
O O2 0.548029 0.371040 0.650912
O O3 0.370976 0.383040 0.668506
O O4 0.393365 0.261124 0.575462
O O5 0.399305 0.667323 0.120582
O O6 0.597482 0.735129 0.175363
O O7 0.437771 0.835652 0.113962
O O8 0.742747 0.261276 0.852633
O O9 0.750000 0.250000 0.000000
O O10 0.808432 0.391561 0.961929
O O11 0.244078 0.160067 0.726459
O O12 0.150053 0.164937 0.568749
O O13 0.171513 0.000000 0.644706
O O14 0.764497 0.664110 0.280444
O O15 0.952481 0.500000 0.062188
O O16 0.000000 0.359561 0.000000
O O17 0.775436 0.500000 0.352107
O O18 0.814003 0.340683 0.434423
O O19 0.000000 0.722716 0.500000
#
# Coordination Sequence:
#
# PCOD9187035 Si02
#       8
#     8   8   8   8   8   8   8   8
#     4  10  19  35  57  83 113 146 193 234 284 343
#     4  10  20  36  57  81 114 153 183 224 290 340
#     4  10  20  36  59  79 109 150 186 220 286 341
#     4  10  20  34  57  86 117 148 184 241 298 338
#     4  10  20  37  55  86 117 149 190 235 281 340
#     4  10  20  35  58  88 115 142 182 237 292 346
#     4  10  21  36  56  80 113 158 197 231 275 333
#     4   9  20  36  56  80 113 151 194 237 285 334
#
# _framework density 18.556953
#
# number of rings (size 3 to 8) (size 9 to 14) (size 15 to 20)
#    0.000    2.125    2.500    0.750    0.000    4.000 
#    0.000    3.750    0.000    0.000    0.000    7.000 
#    0.000    0.000    0.000    0.000    0.000    0.000 
#
# Total GULP energy -178286.673874 kJ/mol
# GULP energy per Si atom -5571.458559 kJ/mol
# Density = 1.851472 g / cm^3
# Si number density = 18.556953 Si / 1000 Ang^3
#
#
#
# Elastic Constant Matrix: (Units=GPa)
#
#
# Indices 1 2 3 4 5 6 
#
# 1 55.8892 18.3834 24.5549 0.0000 21.1458 0.0000
# 2 18.3834 115.0232 51.3976 0.0000 0.8174 0.0000
# 3 24.5549 51.3976 134.1476 0.0000 -0.9731 0.0000
# 4 0.0000 0.0000 0.0000 8.7587 0.0000 6.2072
# 5 21.1458 0.8174 -0.9731 0.0000 31.0223 0.0000
# 6 0.0000 0.0000 0.0000 6.2072 0.0000 4.6238
#
#
#
# Elastic Compliance Matrix: (Units=1/GPa)
#
#
# Indices 1 2 3 4 5 6 
#
# 1 0.027750 -0.002376 -0.004307 0.000000 -0.018988 0.000000
# 2 -0.002376 0.010698 -0.003655 0.000000 0.001223 0.000000
# 3 -0.004307 -0.003655 0.009668 0.000000 0.003335 0.000000
# 4 0.000000 0.000000 0.000000 2.347712 0.000000 -3.151656
# 5 -0.018988 0.001223 0.003335 0.000000 0.045250 0.000000
# 6 0.000000 0.000000 0.000000 -3.151656 0.000000 4.447173
#
#
# Mechanical properties :
#
#
# Convention : Reuss Voigt Hill
#
# Bulk Modulus (GPa) = 36.44272 54.85909 45.65090
# Shear Modulus (GPa) = 0.72274 22.92923 11.82599
#
# Velocity S-wave (km/s) = 0.62476 3.51894 2.52718
# Velocity P-wave (km/s) = 4.49459 6.79245 5.75928
#
# Compressibility (1/GPa) = 0.02744032
#
# Stress axis : x y z
#
# Youngs Moduli (GPa) = 36.03542 93.47363 103.43910
#
# Poissons Ratio (x) = 0.22206 0.44552
# Poissons Ratio (y) = 0.08561 0.37809
# Poissons Ratio (z) = 0.15521 0.34167
#
# Static dielectric constant tensor:
#      x y z
#    x 1.711820 0.000000 0.020270 
#    y 0.000000 1.610610 0.000000 
#    z 0.020270 0.000000 1.656260 
# 
# From -- ./inp_files/270321.got.cif
#   From: 2010.05.17/outbox.cif.g08.bks.cpg/sg12_136_cif.got.tgz:270321.got - 2010.06.03 13:09:07.
