data_PCOD9187551
_publ_section_title
;
Structure prediction by ZEFSAII (Michael W. Deem and Ramdas Pophale) SiO2 
 PCOD9187551
Probable space group: C 2/M
;
_chemical_formula_sum "Si O2"
_cell_formula_units_Z 56
_cell_length_a 20.835368
_cell_length_b 8.755909
_cell_length_c 31.623781
_cell_angle_alpha 90.000000
_cell_angle_beta 147.277842
_cell_angle_gamma 90.000000
_cell_volume 3118.636145
_symmetry_space_group_name_H-M "C 2/M"
_symmetry_group_IT_number 12
_symmetry_cell_setting 'monoclinic'
loop_
_space_group_symop_operation_xyz
x,y,z
-x,y,-z
-x,-y,-z
x,-y,z
1/2+x,1/2+y,z
1/2-x,1/2+y,-z
1/2-x,1/2-y,-z
1/2+x,1/2-y,z
loop_
_atom_site_type_symbol
_atom_site_label
_atom_site_fract_x
_atom_site_fract_y
_atom_site_fract_z
Si Si1 0.063671 0.318426 0.742246
Si Si2 0.913050 0.817703 0.338306
Si Si3 0.478593 0.814759 0.920821
Si Si4 0.424611 0.183889 0.500083
Si Si5 0.807485 0.315278 0.903879
Si Si6 0.344617 0.317112 0.671505
Si Si7 0.843958 0.684302 0.764251
O O1 0.061256 0.500000 0.741417
O O2 0.075896 0.258932 0.701138
O O3 0.178979 0.258269 0.831296
O O4 0.945168 0.253158 0.697678
O O5 0.786719 0.778834 0.289876
O O6 0.015816 0.762478 0.426698
O O7 0.916472 0.000000 0.334775
O O8 0.379385 0.773125 0.900847
O O9 0.438091 0.764539 0.852123
O O10 0.479218 0.000000 0.920788
O O11 0.606268 0.767665 0.009841
O O12 0.500000 0.224759 0.500000
O O13 0.287841 0.226875 0.417031
O O14 0.431686 0.000000 0.508949
O O15 0.796402 0.500000 0.898068
O O16 0.352202 0.500000 0.674592
O O17 0.360975 0.259777 0.728434
O O18 0.851039 0.500000 0.763878
#
# Coordination Sequence:
#
# PCOD9187551 Si02
#       7
#     8   8   8   8   8   8   8
#     4  12  25  40  58  84 121 157 194 243 292 342
#     4  11  22  37  63  90 117 153 195 237 284 349
#     4   8  15  30  58  89 117 149 190 238 284 340
#     4  10  21  39  61  88 119 149 190 243 293 340
#     4   9  16  33  59  86 116 153 193 234 288 345
#     4  11  24  41  61  83 116 158 194 236 293 352
#     4  10  19  35  59  90 119 149 192 238 284 341
#
# _framework density 17.956568000000001
#
# number of rings (size 3 to 8) (size 9 to 14) (size 15 to 20)
#    0.000    1.857    2.857    3.000    0.000    2.571 
#    0.000    2.857    0.000    0.000    0.000    0.000 
#    0.000    0.000    0.000    0.000    0.000    0.000 
#
# Total GULP energy -156359.570405 kJ/mol
# GULP energy per Si atom -5584.270372 kJ/mol
# Density = 1.791570 g / cm^3
# Si number density = 17.956568 Si / 1000 Ang^3
#
#
#
# Elastic Constant Matrix: (Units=GPa)
#
#
# Indices 1 2 3 4 5 6 
#
# 1 83.9585 33.4769 37.5964 0.0000 9.8394 -0.0001
# 2 33.4769 39.5645 31.7797 0.0001 2.9261 -0.0003
# 3 37.5964 31.7797 123.6772 -0.0001 2.1322 0.0000
# 4 0.0000 0.0001 -0.0001 12.8028 0.0000 -9.1278
# 5 9.8394 2.9261 2.1322 0.0000 30.2032 0.0000
# 6 -0.0001 -0.0003 0.0000 -9.1278 0.0000 26.2464
#
#
#
# Elastic Compliance Matrix: (Units=1/GPa)
#
#
# Indices 1 2 3 4 5 6 
#
# 1 0.018995 -0.014054 -0.002082 0.000000 -0.004680 0.000000
# 2 -0.014054 0.042438 -0.006649 0.000000 0.000936 0.000000
# 3 -0.002082 -0.006649 0.010417 0.000000 0.000587 0.000000
# 4 0.000000 0.000000 0.000000 0.103860 0.000000 0.036120
# 5 -0.004680 0.000936 0.000587 0.000000 0.034501 0.000000
# 6 0.000000 0.000000 0.000000 0.036120 0.000000 0.050662
#
#
# Mechanical properties :
#
#
# Convention : Reuss Voigt Hill
#
# Bulk Modulus (GPa) = 38.05143 50.32292 44.18718
# Shear Modulus (GPa) = 15.86277 23.47363 19.66820
#
# Velocity S-wave (km/s) = 2.97542 3.61951 3.31315
# Velocity P-wave (km/s) = 5.74813 6.74933 6.26875
#
# Compressibility (1/GPa) = 0.02628022
#
# Stress axis : x y z
#
# Youngs Moduli (GPa) = 52.64470 23.56389 95.99792
#
# Poissons Ratio (x) = 0.33116 0.19991
# Poissons Ratio (y) = 0.73986 0.63826
# Poissons Ratio (z) = 0.10963 0.15667
#
# Static dielectric constant tensor:
#      x y z
#    x 1.580620 0.000000 0.001420 
#    y 0.000000 1.599410 0.000000 
#    z 0.001420 0.000000 1.619090 
# 
# From -- ./inp_files/363250.got.cif
#   From: 2010.05.17/outbox.cif.g08.bks.cpg/sg12_182_cif.got.tgz:363250.got - 2010.06.03 13:09:07.
