data_PCOD9187991
_publ_section_title
;
Structure prediction by ZEFSAII (Michael W. Deem and Ramdas Pophale) SiO2 
 PCOD9187991
Probable space group: C 2/M
;
_chemical_formula_sum "Si O2"
_cell_formula_units_Z 50
_cell_length_a 8.493717
_cell_length_b 17.421215
_cell_length_c 17.211112
_cell_angle_alpha 90.000000
_cell_angle_beta 119.075347
_cell_angle_gamma 90.000000
_cell_volume 2225.806203
_symmetry_space_group_name_H-M "C 2/M"
_symmetry_group_IT_number 12
_symmetry_cell_setting 'monoclinic'
loop_
_space_group_symop_operation_xyz
x,y,z
-x,y,-z
-x,-y,-z
x,-y,z
1/2+x,1/2+y,z
1/2-x,1/2+y,-z
1/2-x,1/2-y,-z
1/2+x,1/2-y,z
loop_
_atom_site_type_symbol
_atom_site_label
_atom_site_fract_x
_atom_site_fract_y
_atom_site_fract_z
Si Si1 0.293225 0.164554 0.478583
Si Si2 0.125548 0.800085 0.863632
Si Si3 0.230040 0.366816 0.940011
Si Si4 0.500000 0.500000 0.000000
Si Si5 0.642063 0.142975 0.344332
Si Si6 0.840967 0.582762 0.817999
Si Si7 0.253467 0.695867 0.694146
O O1 0.500000 0.162695 0.500000
O O2 0.250000 0.250000 0.500000
O O3 0.276558 0.115483 0.553560
O O4 0.195226 0.149225 0.373218
O O5 0.189456 0.712011 0.884583
O O6 0.223950 0.847260 0.820455
O O7 0.915923 0.806030 0.793544
O O8 0.184348 0.839168 0.958178
O O9 0.358926 0.431949 0.937743
O O10 0.035578 0.405347 0.903473
O O11 0.636619 0.087855 0.269434
O O12 0.752235 0.217145 0.339899
O O13 0.437443 0.170022 0.316409
O O14 0.764639 0.500000 0.822753
#
# Coordination Sequence:
#
# PCOD9187991 Si02
#       7
#     8   8   8   2   8   8   8
#     4   8  16  31  54  92 129 165 210 271 328 387
#     4  11  26  43  68  94 130 177 223 274 331 401
#     4  11  27  43  67  92 134 169 221 272 335 397
#     4  12  28  44  66 104 126 174 214 280 332 408
#     4  10  20  35  61  95 134 169 218 273 333 395
#     4  12  26  45  64  95 135 182 224 279 341 393
#     4  10  19  35  65  96 129 169 221 276 328 402
#
# _framework density 22.463768000000002
#
# number of rings (size 3 to 8) (size 9 to 14) (size 15 to 20)
#    0.000    1.600    2.400    1.440    7.840    1.920 
#    0.000    0.800    0.000    6.240    0.000    0.000 
#    0.000    0.000    0.000    0.000    0.000    0.000 
#
# Total GULP energy -139288.920997 kJ/mol
# GULP energy per Si atom -5571.556840 kJ/mol
# Density = 2.241264 g / cm^3
# Si number density = 22.463768 Si / 1000 Ang^3
#
#
#
# Elastic Constant Matrix: (Units=GPa)
#
#
# Indices 1 2 3 4 5 6 
#
# 1 62.7733 32.3717 11.4322 0.0000 -8.6166 0.0000
# 2 32.3717 100.6381 24.8707 0.0000 -13.1099 0.0000
# 3 11.4322 24.8707 139.2031 0.0000 -20.5893 0.0000
# 4 0.0000 0.0000 0.0000 -5.8380 0.0000 4.5842
# 5 -8.6166 -13.1099 -20.5893 0.0000 24.2056 0.0000
# 6 0.0000 0.0000 0.0000 4.5842 0.0000 5.6355
#
#
#
# Elastic Compliance Matrix: (Units=1/GPa)
#
#
# Indices 1 2 3 4 5 6 
#
# 1 0.019417 -0.005750 -0.000006 0.000000 0.003792 0.000000
# 2 -0.005750 0.012574 -0.001224 0.000000 0.003722 0.000000
# 3 -0.000006 -0.001224 0.008356 0.000000 0.006442 0.000000
# 4 0.000000 0.000000 0.000000 -0.104525 0.000000 0.085026
# 5 0.003792 0.003722 0.006442 0.000000 0.050158 0.000000
# 6 0.000000 0.000000 0.000000 0.085026 0.000000 0.108282
#
#
# Mechanical properties :
#
#
# Convention : Reuss Voigt Hill
#
# Bulk Modulus (GPa) = 37.89885 48.88486 43.39186
# Shear Modulus (GPa) = 42.72845 20.39661 31.56253
#
# Velocity S-wave (km/s) = 4.36604 3.01654 3.75246
# Velocity P-wave (km/s) = 6.50570 5.82594 6.17518
#
# Compressibility (1/GPa) = 0.02638603
#
# Stress axis : x y z
#
# Youngs Moduli (GPa) = 51.50013 79.53219 119.67751
#
# Poissons Ratio (x) = 0.45733 0.00077
# Poissons Ratio (y) = 0.29614 0.14645
# Poissons Ratio (z) = 0.00033 0.09732
#
# Static dielectric constant tensor:
#      x y z
#    x 1.863620 0.000000 -0.026820 
#    y 0.000000 1.790660 0.000000 
#    z -0.026820 0.000000 1.935560 
# 
# From -- ./inp_files/257279.got.cif
#   From: 2010.05.17/outbox.cif.g08.bks.cpg/sg12_129_cif.got.tgz:257279.got - 2010.06.03 13:09:07.
