data_PCOD9187836
_publ_section_title
;
Structure prediction by ZEFSAII (Michael W. Deem and Ramdas Pophale) SiO2 
 PCOD9187836
Probable space group: C 2/M
;
_chemical_formula_sum "Si O2"
_cell_formula_units_Z 40
_cell_length_a 10.793529
_cell_length_b 18.949655
_cell_length_c 12.250407
_cell_angle_alpha 90.000000
_cell_angle_beta 132.872083
_cell_angle_gamma 90.000000
_cell_volume 1836.305319
_symmetry_space_group_name_H-M "C 2/M"
_symmetry_group_IT_number 12
_symmetry_cell_setting 'monoclinic'
loop_
_space_group_symop_operation_xyz
x,y,z
-x,y,-z
-x,-y,-z
x,-y,z
1/2+x,1/2+y,z
1/2-x,1/2+y,-z
1/2-x,1/2-y,-z
1/2+x,1/2-y,z
loop_
_atom_site_type_symbol
_atom_site_label
_atom_site_fract_x
_atom_site_fract_y
_atom_site_fract_z
Si Si1 0.645793 0.582091 0.220923
Si Si2 0.376014 0.082598 0.145700
Si Si3 0.574846 0.283261 0.438779
Si Si4 0.660598 0.681686 0.897314
Si Si5 0.733213 0.918071 0.463669
O O1 0.580958 0.500000 0.180458
O O2 0.750700 0.593223 0.173858
O O3 0.499206 0.640408 0.143957
O O4 0.759096 0.587287 0.399114
O O5 0.557698 0.103307 0.302497
O O6 0.380510 0.000000 0.124424
O O7 0.308238 0.123877 0.000004
O O8 0.500000 0.246076 0.500000
O O9 0.750000 0.250000 0.500000
O O10 0.422120 0.290512 0.262919
O O11 0.629831 0.363479 0.496213
O O12 0.750000 0.750000 0.000000
O O13 0.766247 0.000000 0.457908
#
# Coordination Sequence:
#
# PCOD9187836 Si02
#       5
#     8   8   8   8   8
#     4   9  18  34  59  90 124 164 207 252 304 364
#     4  10  19  35  61  93 126 159 202 257 311 361
#     4  11  26  46  66  88 121 167 212 253 303 369
#     4  11  23  36  55  87 124 158 199 253 311 363
#     4   9  19  37  61  90 123 161 204 248 301 370
#
# _framework density 21.782869000000002
#
# number of rings (size 3 to 8) (size 9 to 14) (size 15 to 20)
#    0.000    2.000    0.000    3.000    0.000   13.200 
#    0.000    3.000    0.000    2.400    0.000    0.000 
#    0.000    0.000    0.000    0.000    0.000    0.000 
#
# Total GULP energy -111573.184150 kJ/mol
# GULP energy per Si atom -5578.659207 kJ/mol
# Density = 2.173329 g / cm^3
# Si number density = 21.782869 Si / 1000 Ang^3
#
#
#
# Elastic Constant Matrix: (Units=GPa)
#
#
# Indices 1 2 3 4 5 6 
#
# 1 63.0981 27.0293 44.1116 0.0000 -8.8708 0.0000
# 2 27.0293 75.0466 64.8123 0.0000 5.5312 0.0000
# 3 44.1116 64.8123 212.3041 0.0000 10.6981 0.0000
# 4 0.0000 0.0000 0.0000 48.5765 0.0000 16.3543
# 5 -8.8708 5.5312 10.6981 0.0000 8.8351 0.0000
# 6 0.0000 0.0000 0.0000 16.3543 0.0000 7.8176
#
#
#
# Elastic Compliance Matrix: (Units=1/GPa)
#
#
# Indices 1 2 3 4 5 6 
#
# 1 0.029360 -0.008915 -0.005480 0.000000 0.041695 0.000000
# 2 -0.008915 0.021008 -0.003671 0.000000 -0.017658 0.000000
# 3 -0.005480 -0.003671 0.007594 0.000000 -0.012399 0.000000
# 4 0.000000 0.000000 0.000000 0.069620 0.000000 -0.145644
# 5 0.041695 -0.017658 -0.012399 0.000000 0.181116 0.000000
# 6 0.000000 0.000000 0.000000 -0.145644 0.000000 0.432599
#
#
# Mechanical properties :
#
#
# Convention : Reuss Voigt Hill
#
# Bulk Modulus (GPa) = 45.80814 69.15057 57.47935
# Shear Modulus (GPa) = 6.37181 27.34556 16.85869
#
# Velocity S-wave (km/s) = 1.71216 3.54696 2.78500
# Velocity P-wave (km/s) = 4.99837 6.97057 6.06517
#
# Compressibility (1/GPa) = 0.02183018
#
# Stress axis : x y z
#
# Youngs Moduli (GPa) = 34.06009 47.60102 131.67770
#
# Poissons Ratio (x) = 0.42437 0.72155
# Poissons Ratio (y) = 0.30365 0.48341
# Poissons Ratio (z) = 0.18664 0.17475
#
# Static dielectric constant tensor:
#      x y z
#    x 1.807730 0.000000 -0.046950 
#    y 0.000000 1.845430 0.000000 
#    z -0.046950 0.000000 1.857880 
# 
# From -- ./inp_files/207402.got.cif
#   From: 2010.05.17/outbox.cif.g08.bks.cpg/sg12_104_cif.got.tgz:207402.got - 2010.06.03 13:09:07.
