data_PCOD9187118
_publ_section_title
;
Structure prediction by ZEFSAII (Michael W. Deem and Ramdas Pophale) SiO2 
 PCOD9187118
Probable space group: C 2/M
;
_chemical_formula_sum "Si O2"
_cell_formula_units_Z 64
_cell_length_a 20.756226
_cell_length_b 7.441936
_cell_length_c 20.470954
_cell_angle_alpha 90.000000
_cell_angle_beta 114.553587
_cell_angle_gamma 90.000000
_cell_volume 2876.139689
_symmetry_space_group_name_H-M "C 2/M"
_symmetry_group_IT_number 12
_symmetry_cell_setting 'monoclinic'
loop_
_space_group_symop_operation_xyz
x,y,z
-x,y,-z
-x,-y,-z
x,-y,z
1/2+x,1/2+y,z
1/2-x,1/2+y,-z
1/2-x,1/2-y,-z
1/2+x,1/2-y,z
loop_
_atom_site_type_symbol
_atom_site_label
_atom_site_fract_x
_atom_site_fract_y
_atom_site_fract_z
Si Si1 0.084852 0.281223 0.210108
Si Si2 0.933914 0.705974 0.577538
Si Si3 0.577947 0.780705 0.058346
Si Si4 0.332449 0.785298 0.025509
Si Si5 0.681779 0.220036 0.368604
Si Si6 0.838993 0.207505 0.424738
Si Si7 0.590016 0.217453 0.674851
Si Si8 0.572450 0.780784 0.813836
O O1 0.084626 0.500000 0.209400
O O2 0.090789 0.220567 0.137819
O O3 0.147291 0.226554 0.285057
O O4 0.008718 0.226450 0.207391
O O5 0.941738 0.500000 0.603217
O O6 0.872305 0.781501 0.598072
O O7 0.903362 0.706941 0.491855
O O8 0.012099 0.782743 0.618892
O O9 0.578526 0.000000 0.060202
O O10 0.500000 0.728828 0.000000
O O11 0.635247 0.719512 0.029311
O O12 0.378262 0.718127 0.106180
O O13 0.342255 0.000000 0.028963
O O14 0.250000 0.750000 0.000000
O O15 0.762137 0.283719 0.410403
O O16 0.684974 0.000000 0.371217
O O17 0.852918 0.220532 0.353636
O O18 0.840442 0.000000 0.444457
O O19 0.598648 0.274994 0.753399
O O20 0.591897 0.000000 0.673732
O O21 0.572675 0.000000 0.814153
#
# Coordination Sequence:
#
# PCOD9187118 Si02
#       8
#     8   8   8   8   8   8   8   8
#     4   9  14  26  50  77 101 126 169 225 261 287
#     4  10  19  35  58  77  95 130 181 223 251 295
#     4   9  15  25  47  78 104 126 164 216 256 287
#     4  10  20  33  51  80 112 140 170 208 258 310
#     4   9  18  32  50  74 101 132 171 214 261 304
#     4  11  23  35  49  76 113 140 160 203 269 326
#     4  10  20  35  56  78  98 132 181 222 252 295
#     4   9  16  30  53  77 101 132 174 220 257 293
#
# _framework density 22.252047000000001
#
# number of rings (size 3 to 8) (size 9 to 14) (size 15 to 20)
#    0.000    2.375    2.500    1.125    0.000    3.000 
#    0.000    2.500    0.000    0.375    0.000    0.875 
#    0.000    0.000    0.000    0.000    0.000    0.000 
#
# Total GULP energy -178793.402148 kJ/mol
# GULP energy per Si atom -5587.293817 kJ/mol
# Density = 2.220140 g / cm^3
# Si number density = 22.252047 Si / 1000 Ang^3
#
#
#
# Elastic Constant Matrix: (Units=GPa)
#
#
# Indices 1 2 3 4 5 6 
#
# 1 80.8562 -2.8434 -6.3545 0.0000 -14.8768 0.0000
# 2 -2.8434 67.8610 -3.5101 0.0000 2.2686 0.0000
# 3 -6.3545 -3.5101 70.6614 0.0000 -19.1386 0.0000
# 4 0.0000 0.0000 0.0000 -6.9640 0.0000 0.1730
# 5 -14.8768 2.2686 -19.1386 0.0000 39.6564 0.0000
# 6 0.0000 0.0000 0.0000 0.1730 0.0000 11.0323
#
#
#
# Elastic Compliance Matrix: (Units=1/GPa)
#
#
# Indices 1 2 3 4 5 6 
#
# 1 0.013851 0.000517 0.003072 0.000000 0.006649 0.000000
# 2 0.000517 0.014804 0.000696 0.000000 -0.000317 0.000000
# 3 0.003072 0.000696 0.016984 0.000000 0.009310 0.000000
# 4 0.000000 0.000000 0.000000 -0.143540 0.000000 0.002250
# 5 0.006649 -0.000317 0.009310 0.000000 0.032222 0.000000
# 6 0.000000 0.000000 0.000000 0.002250 0.000000 0.090607
#
#
# Mechanical properties :
#
#
# Convention : Reuss Voigt Hill
#
# Bulk Modulus (GPa) = 18.44694 21.55138 19.99916
# Shear Modulus (GPa) = 145.23130 24.21739 84.72434
#
# Velocity S-wave (km/s) = 8.08753 3.30255 6.17718
# Velocity P-wave (km/s) = 9.77338 4.92429 7.73846
#
# Compressibility (1/GPa) = 0.05420954
#
# Stress axis : x y z
#
# Youngs Moduli (GPa) = 72.19886 67.54812 58.87785
#
# Poissons Ratio (x) = -0.03492 -0.18088
# Poissons Ratio (y) = -0.03733 -0.04098
# Poissons Ratio (z) = -0.22181 -0.04702
#
# Static dielectric constant tensor:
#      x y z
#    x 1.782240 0.000000 -0.013640 
#    y 0.000000 1.884360 0.000000 
#    z -0.013640 0.000000 1.786590 
# 
# From -- ./inp_files/320003.got.cif
#   From: 2010.05.17/outbox.cif.g08.bks.cpg/sg12_161_cif.got.tgz:320003.got - 2010.06.03 13:09:07.
