data_PCOD9187978
_publ_section_title
;
Structure prediction by ZEFSAII (Michael W. Deem and Ramdas Pophale) SiO2 
 PCOD9187978
Probable space group: C 2/M
;
_chemical_formula_sum "Si O2"
_cell_formula_units_Z 44
_cell_length_a 11.945650
_cell_length_b 21.254087
_cell_length_c 11.398143
_cell_angle_alpha 90.000000
_cell_angle_beta 38.789382
_cell_angle_gamma 90.000000
_cell_volume 1812.922562
_symmetry_space_group_name_H-M "C 2/M"
_symmetry_group_IT_number 12
_symmetry_cell_setting 'monoclinic'
loop_
_space_group_symop_operation_xyz
x,y,z
-x,y,-z
-x,-y,-z
x,-y,z
1/2+x,1/2+y,z
1/2-x,1/2+y,-z
1/2-x,1/2-y,-z
1/2+x,1/2-y,z
loop_
_atom_site_type_symbol
_atom_site_label
_atom_site_fract_x
_atom_site_fract_y
_atom_site_fract_z
Si Si1 0.273008 0.000000 0.953739
Si Si2 0.642243 0.500000 0.641917
Si Si3 0.786373 0.869721 0.675888
Si Si4 0.800539 0.264319 0.707496
Si Si5 0.347118 0.000000 0.231449
Si Si6 0.335848 0.362342 0.368119
Si Si7 0.158731 0.870369 0.969390
O O1 0.452780 0.000000 0.882103
O O2 0.267432 0.065082 0.885636
O O3 0.073540 0.000000 0.174730
O O4 0.709793 0.500000 0.453734
O O5 0.709451 0.433590 0.638595
O O6 0.726524 0.805411 0.786201
O O7 0.753068 0.857910 0.564019
O O8 0.000000 0.880024 0.500000
O O9 0.696047 0.933545 0.793065
O O10 0.719829 0.304597 0.666490
O O11 0.774214 0.310293 0.838880
O O12 0.000000 0.254130 0.500000
O O13 0.551945 0.361419 0.178897
O O14 0.000000 0.875454 0.000000
#
# Coordination Sequence:
#
# PCOD9187978 Si02
#       7
#     4   4   8   8   4   8   8
#     4  10  19  35  64  98 120 157 202 253 308 366
#     4   8  18  34  59  90 123 150 205 244 303 363
#     4  10  21  39  61  87 117 162 209 254 300 356
#     4  10  21  34  57  90 125 154 198 247 300 376
#     4  10  21  37  69  86 114 163 214 252 309 355
#     4   9  18  37  61  82 120 165 191 247 308 353
#     4   9  19  36  60  88 130 161 188 245 315 373
#
# _framework density 24.270204
#
# number of rings (size 3 to 8) (size 9 to 14) (size 15 to 20)
#    0.000    2.545    0.000    1.091    5.091    2.182 
#    0.000    4.545   64.000    9.818    0.000    0.000 
#    0.000    0.000    0.000    0.000    0.000    0.000 
#
# Total GULP energy -122790.050480 kJ/mol
# GULP energy per Si atom -5581.365931 kJ/mol
# Density = 2.421496 g / cm^3
# Si number density = 24.270204 Si / 1000 Ang^3
#
#
#
# Elastic Constant Matrix: (Units=GPa)
#
#
# Indices 1 2 3 4 5 6 
#
# 1 55.5673 55.3015 -13.4445 0.0006 -17.7997 0.0002
# 2 55.3015 260.1716 46.6700 -0.0001 -12.7999 -0.0001
# 3 -13.4445 46.6700 68.3609 0.0004 7.8944 0.0002
# 4 0.0006 -0.0001 0.0004 -2.6900 -0.0004 -4.6901
# 5 -17.7997 -12.7999 7.8944 -0.0004 26.0766 -0.0002
# 6 0.0002 -0.0001 0.0002 -4.6901 -0.0002 13.2226
#
#
#
# Elastic Compliance Matrix: (Units=1/GPa)
#
#
# Indices 1 2 3 4 5 6 
#
# 1 0.033889 -0.008306 0.010502 0.000004 0.015876 0.000001
# 2 -0.008306 0.006684 -0.006135 -0.000002 -0.000532 0.000000
# 3 0.010502 -0.006135 0.021141 0.000004 -0.002243 0.000001
# 4 0.000004 -0.000002 0.000004 -0.229695 -0.000004 -0.081474
# 5 0.015876 -0.000532 -0.002243 -0.000004 0.049603 -0.000001
# 6 0.000001 0.000000 0.000001 -0.081474 -0.000001 0.046729
#
#
# Mechanical properties :
#
#
# Convention : Reuss Voigt Hill
#
# Bulk Modulus (GPa) = 18.57493 62.35043 40.46268
# Shear Modulus (GPa) = -109.10830 27.02671 -41.04080
#
# Velocity S-wave (km/s) = -6.71217 3.34065 -4.11663
# Velocity P-wave (km/s) = 7.23885 6.37384 2.42644
#
# Compressibility (1/GPa) = 0.05383600
#
# Stress axis : x y z
#
# Youngs Moduli (GPa) = 29.50784 149.62135 47.30116
#
# Poissons Ratio (x) = 1.24280 -0.49677
# Poissons Ratio (y) = 0.24510 0.29019
# Poissons Ratio (z) = -0.30990 0.91793
#
# Static dielectric constant tensor:
#      x y z
#    x 1.993850 0.000000 0.036070 
#    y 0.000000 1.980660 0.000000 
#    z 0.036070 0.000000 1.991270 
# 
# From -- ./inp_files/63284.got.cif
#   From: 2010.05.17/outbox.cif.g08.bks.cpg/sg12_32_cif.got.tgz:63284.got - 2010.06.03 13:09:07.
