data_PCOD9187967
_publ_section_title
;
Structure prediction by ZEFSAII (Michael W. Deem and Ramdas Pophale) SiO2 
 PCOD9187967
Probable space group: C 2/M
;
_chemical_formula_sum "Si O2"
_cell_formula_units_Z 64
_cell_length_a 28.887381
_cell_length_b 13.351759
_cell_length_c 9.542336
_cell_angle_alpha 90.000000
_cell_angle_beta 123.676079
_cell_angle_gamma 90.000000
_cell_volume 3062.820929
_symmetry_space_group_name_H-M "C 2/M"
_symmetry_group_IT_number 12
_symmetry_cell_setting 'monoclinic'
loop_
_space_group_symop_operation_xyz
x,y,z
-x,y,-z
-x,-y,-z
x,-y,z
1/2+x,1/2+y,z
1/2-x,1/2+y,-z
1/2-x,1/2-y,-z
1/2+x,1/2-y,z
loop_
_atom_site_type_symbol
_atom_site_label
_atom_site_fract_x
_atom_site_fract_y
_atom_site_fract_z
Si Si1 0.286272 0.757522 0.421456
Si Si2 0.510254 0.820152 0.350668
Si Si3 0.782448 0.618731 0.857652
Si Si4 0.749865 0.112916 0.896267
Si Si5 0.894981 0.383386 0.679016
Si Si6 0.118321 0.886121 0.863569
Si Si7 0.052006 0.888421 0.484355
Si Si8 0.904840 0.698302 0.993616
O O1 0.250000 0.750000 0.500000
O O2 0.272378 0.653227 0.319782
O O3 0.260756 0.831566 0.264477
O O4 0.345542 0.806086 0.555374
O O5 0.500000 0.829350 0.500000
O O6 0.559767 0.884213 0.368450
O O7 0.532238 0.705239 0.358417
O O8 0.452416 0.844116 0.176111
O O9 0.783629 0.500000 0.859490
O O10 0.778177 0.655177 0.010927
O O11 0.841449 0.658131 0.900642
O O12 0.728695 0.000000 0.845084
O O13 0.815559 0.110917 0.028969
O O14 0.876916 0.500000 0.674394
O O15 0.920666 0.334062 0.863091
O O16 0.098895 0.854225 0.674841
O O17 0.099164 0.812613 0.955600
O O18 0.097404 0.000000 0.849485
O O19 0.000000 0.901201 0.500000
O O20 0.064935 0.000000 0.446652
#
# Coordination Sequence:
#
# PCOD9187967 Si02
#       8
#     8   8   8   8   8   8   8   8
#     4  12  24  43  69  97 134 174 222 280 345 411
#     4  11  25  43  72 103 134 180 239 289 332 400
#     4  11  25  42  67  99 134 176 226 281 345 413
#     4  10  22  38  63  98 132 172 220 281 344 407
#     4  12  29  49  68  96 138 186 229 281 350 411
#     4  10  19  35  63  99 135 173 217 271 341 404
#     4   9  17  34  63  98 134 169 210 274 343 395
#     4  12  23  44  68  94 135 186 225 277 340 404
#
# _framework density 20.895768
#
# number of rings (size 3 to 8) (size 9 to 14) (size 15 to 20)
#    0.000    1.125    5.000    1.500    3.500    2.250 
#    0.000    1.250    0.000    1.500    0.000    0.000 
#    0.000    0.000    0.000    0.000    0.000    0.000 
#
# Total GULP energy -178367.379876 kJ/mol
# GULP energy per Si atom -5573.980621 kJ/mol
# Density = 2.084821 g / cm^3
# Si number density = 20.895768 Si / 1000 Ang^3
#
#
#
# Elastic Constant Matrix: (Units=GPa)
#
#
# Indices 1 2 3 4 5 6 
#
# 1 87.3138 16.0156 34.5030 0.0000 -13.3306 0.0000
# 2 16.0156 94.3296 15.7186 0.0000 -2.1784 0.0000
# 3 34.5030 15.7186 126.5813 0.0000 5.9981 0.0000
# 4 0.0000 0.0000 0.0000 -2.4050 0.0000 -12.2868
# 5 -13.3306 -2.1784 5.9981 0.0000 33.0284 0.0000
# 6 0.0000 0.0000 0.0000 -12.2868 0.0000 25.5516
#
#
#
# Elastic Compliance Matrix: (Units=1/GPa)
#
#
# Indices 1 2 3 4 5 6 
#
# 1 0.014307 -0.001614 -0.004002 0.000000 0.006395 0.000000
# 2 -0.001614 0.011038 -0.000942 0.000000 0.000248 0.000000
# 3 -0.004002 -0.000942 0.009267 0.000000 -0.003360 0.000000
# 4 0.000000 0.000000 0.000000 -0.120290 0.000000 -0.057843
# 5 0.006395 0.000248 -0.003360 0.000000 0.033485 0.000000
# 6 0.000000 0.000000 0.000000 -0.057843 0.000000 0.011322
#
#
# Mechanical properties :
#
#
# Convention : Reuss Voigt Hill
#
# Bulk Modulus (GPa) = 46.52462 48.96655 47.74558
# Shear Modulus (GPa) = -242.86233 27.36749 -107.74742
#
# Velocity S-wave (km/s) = -10.79249 3.62292 -7.18861
# Velocity P-wave (km/s) = 11.53215 6.40198 6.78252
#
# Compressibility (1/GPa) = 0.02149400
#
# Stress axis : x y z
#
# Youngs Moduli (GPa) = 69.89617 90.59625 107.90703
#
# Poissons Ratio (x) = 0.14627 0.43187
# Poissons Ratio (y) = 0.11285 0.10168
# Poissons Ratio (z) = 0.27974 0.08537
#
# Static dielectric constant tensor:
#      x y z
#    x 1.783130 0.000000 0.037660 
#    y 0.000000 1.833720 0.000000 
#    z 0.037660 0.000000 1.773540 
# 
# From -- ./inp_files/112037.got.cif
#   From: 2010.05.17/outbox.cif.g08.bks.cpg/sg12_57_cif.got.tgz:112037.got - 2010.06.03 13:09:07.
