data_PCOD9187094
_publ_section_title
;
Structure prediction by ZEFSAII (Michael W. Deem and Ramdas Pophale) SiO2 
 PCOD9187094
Probable space group: C 2/M
;
_chemical_formula_sum "Si O2"
_cell_formula_units_Z 58
_cell_length_a 24.282268
_cell_length_b 11.865197
_cell_length_c 10.449938
_cell_angle_alpha 90.000000
_cell_angle_beta 116.904349
_cell_angle_gamma 90.000000
_cell_volume 2684.895917
_symmetry_space_group_name_H-M "C 2/M"
_symmetry_group_IT_number 12
_symmetry_cell_setting 'monoclinic'
loop_
_space_group_symop_operation_xyz
x,y,z
-x,y,-z
-x,-y,-z
x,-y,z
1/2+x,1/2+y,z
1/2-x,1/2+y,-z
1/2-x,1/2-y,-z
1/2+x,1/2-y,z
loop_
_atom_site_type_symbol
_atom_site_label
_atom_site_fract_x
_atom_site_fract_y
_atom_site_fract_z
Si Si1 0.037279 0.628570 0.348554
Si Si2 0.055591 0.219435 0.914353
Si Si3 0.067395 0.170018 0.534644
Si Si4 0.253780 0.369912 0.258479
Si Si5 0.338244 0.370323 0.136734
Si Si6 0.337889 0.374272 0.573215
Si Si7 0.000000 0.000000 0.000000
Si Si8 0.877657 0.315671 0.790917
O O1 0.017397 0.500000 0.349981
O O2 0.061732 0.696047 0.498460
O O3 0.092931 0.627843 0.303228
O O4 0.985202 0.710559 0.230692
O O5 0.124669 0.194585 0.933489
O O6 0.068493 0.295742 0.051713
O O7 0.025059 0.101618 0.927341
O O8 0.112379 0.136238 0.695246
O O9 0.097855 0.123157 0.437539
O O10 0.000000 0.129092 0.500000
O O11 0.275470 0.500000 0.279190
O O12 0.277625 0.323888 0.147436
O O13 0.289446 0.321026 0.420625
O O14 0.181564 0.370934 0.207404
O O15 0.328152 0.500000 0.084863
O O16 0.317911 0.500000 0.585874
O O17 0.351304 0.303294 0.712221
#
# Coordination Sequence:
#
# PCOD9187094 Si02
#       8
#     8   8   8   8   8   8   2   8
#     4  11  24  41  58  86 121 159 203 242 294 358
#     4  12  24  39  62  90 123 162 192 253 301 354
#     4  10  19  35  57  86 111 154 196 241 306 348
#     4   9  19  38  59  82 111 154 200 251 295 348
#     4  10  21  38  60  88 122 153 197 249 305 364
#     4   9  20  34  56  87 118 147 194 250 307 355
#     4  12  24  44  58  94 132 152 200 246 310 356
#     4  11  22  36  60  86 115 160 200 243 290 354
#
# _framework density 21.602326999999999
#
# number of rings (size 3 to 8) (size 9 to 14) (size 15 to 20)
#    0.000    1.655    3.448    2.069    0.966    3.586 
#    1.241    0.000    0.000    0.828    0.000    0.000 
#    0.000    0.000    0.000    0.000    0.000    0.000 
#
# Total GULP energy -161480.326141 kJ/mol
# GULP energy per Si atom -5568.287108 kJ/mol
# Density = 2.155316 g / cm^3
# Si number density = 21.602327 Si / 1000 Ang^3
#
#
#
# Elastic Constant Matrix: (Units=GPa)
#
#
# Indices 1 2 3 4 5 6 
#
# 1 121.8223 5.1080 -0.3488 0.0000 -1.1527 0.0000
# 2 5.1080 88.0623 10.2665 0.0000 0.6120 0.0000
# 3 -0.3488 10.2665 49.5492 0.0000 2.1809 0.0000
# 4 0.0000 0.0000 0.0000 19.1020 0.0000 13.5341
# 5 -1.1527 0.6120 2.1809 0.0000 29.2231 0.0000
# 6 0.0000 0.0000 0.0000 13.5341 0.0000 53.7021
#
#
#
# Elastic Compliance Matrix: (Units=1/GPa)
#
#
# Indices 1 2 3 4 5 6 
#
# 1 0.008233 -0.000497 0.000147 0.000000 0.000324 0.000000
# 2 -0.000497 0.011667 -0.002417 0.000000 -0.000084 0.000000
# 3 0.000147 -0.002417 0.020749 0.000000 -0.001492 0.000000
# 4 0.000000 0.000000 0.000000 0.063730 0.000000 -0.016061
# 5 0.000324 -0.000084 -0.001492 0.000000 0.034345 0.000000
# 6 0.000000 0.000000 0.000000 -0.016061 0.000000 0.022669
#
#
# Mechanical properties :
#
#
# Convention : Reuss Voigt Hill
#
# Bulk Modulus (GPa) = 28.47830 32.16502 30.32166
# Shear Modulus (GPa) = 27.99022 36.69932 32.34477
#
# Velocity S-wave (km/s) = 3.60349 4.12619 3.87367
# Velocity P-wave (km/s) = 5.52496 6.13372 5.83728
#
# Compressibility (1/GPa) = 0.03511445
#
# Stress axis : x y z
#
# Youngs Moduli (GPa) = 121.46243 85.71330 48.19395
#
# Poissons Ratio (x) = 0.04259 -0.00707
# Poissons Ratio (y) = 0.06035 0.11649
# Poissons Ratio (z) = -0.01781 0.20718
#
# Static dielectric constant tensor:
#      x y z
#    x 1.850020 0.000000 -0.027600 
#    y 0.000000 1.820530 0.000000 
#    z -0.027600 0.000000 1.798100 
# 
# From -- ./inp_files/174758.got.cif
#   From: 2010.05.17/outbox.cif.g08.bks.cpg/sg12_88_cif.got.tgz:174758.got - 2010.06.03 13:09:07.
