data_PCOD9187445
_publ_section_title
;
Structure prediction by ZEFSAII (Michael W. Deem and Ramdas Pophale) SiO2 
 PCOD9187445
Probable space group: C 2/M
;
_chemical_formula_sum "Si O2"
_cell_formula_units_Z 52
_cell_length_a 25.521360
_cell_length_b 18.411136
_cell_length_c 11.022553
_cell_angle_alpha 90.000000
_cell_angle_beta 146.449670
_cell_angle_gamma 90.000000
_cell_volume 2862.410516
_symmetry_space_group_name_H-M "C 2/M"
_symmetry_group_IT_number 12
_symmetry_cell_setting 'monoclinic'
loop_
_space_group_symop_operation_xyz
x,y,z
-x,y,-z
-x,-y,-z
x,-y,z
1/2+x,1/2+y,z
1/2-x,1/2+y,-z
1/2-x,1/2-y,-z
1/2+x,1/2-y,z
loop_
_atom_site_type_symbol
_atom_site_label
_atom_site_fract_x
_atom_site_fract_y
_atom_site_fract_z
Si Si1 0.199168 0.581964 0.659481
Si Si2 0.612662 0.915898 0.220835
Si Si3 0.878757 0.733583 0.444302
Si Si4 0.926012 0.083598 0.130108
Si Si5 0.474519 0.284052 0.089608
Si Si6 0.500000 0.326732 0.500000
Si Si7 0.218817 0.284867 0.310836
O O1 0.172299 0.500000 0.649684
O O2 0.157348 0.590005 0.442222
O O3 0.158893 0.652389 0.651514
O O4 0.313550 0.584978 0.883979
O O5 0.673574 0.862613 0.254058
O O6 0.620665 0.000000 0.198863
O O7 0.500000 0.897676 0.000000
O O8 0.800181 0.779352 0.367627
O O9 0.964043 0.732959 0.706079
O O10 0.921135 0.776058 0.411881
O O11 0.983726 0.132039 0.144819
O O12 0.949908 0.123369 0.302491
O O13 0.955760 0.000000 0.189717
O O14 0.500000 0.273116 0.000000
O O15 0.366232 0.264248 0.901024
O O16 0.250000 0.250000 0.500000
#
# Coordination Sequence:
#
# PCOD9187445 Si02
#       7
#     8   8   8   8   8   4   8
#     4  10  19  35  59  85 113 150 188 234 295 344
#     4  10  20  34  55  88 128 160 186 229 291 356
#     4  11  22  38  58  87 114 153 198 243 287 348
#     4  10  21  39  59  80 112 153 193 239 291 342
#     4  11  20  33  56  89 120 146 189 235 290 351
#     4  10  25  42  59  82 108 154 206 246 295 340
#     4  12  19  33  58  86 120 154 191 236 291 350
#
# _framework density 18.166506999999999
#
# number of rings (size 3 to 8) (size 9 to 14) (size 15 to 20)
#    0.000    1.385    4.615    1.615    0.000    0.923 
#    0.000    4.231    0.000    0.000    0.000    0.000 
#    0.000    0.000    0.000    0.000    0.000    0.000 
#
# Total GULP energy -145009.975294 kJ/mol
# GULP energy per Si atom -5577.306742 kJ/mol
# Density = 1.812516 g / cm^3
# Si number density = 18.166507 Si / 1000 Ang^3
#
#
#
# Elastic Constant Matrix: (Units=GPa)
#
#
# Indices 1 2 3 4 5 6 
#
# 1 57.4272 28.2165 0.9504 0.0000 15.0917 0.0000
# 2 28.2165 150.0435 9.6469 0.0000 10.4685 0.0000
# 3 0.9504 9.6469 62.3311 0.0000 8.7045 0.0000
# 4 0.0000 0.0000 0.0000 6.1337 0.0000 27.9143
# 5 15.0917 10.4685 8.7045 0.0000 23.9537 0.0000
# 6 0.0000 0.0000 0.0000 27.9143 0.0000 4.6267
#
#
#
# Elastic Compliance Matrix: (Units=1/GPa)
#
#
# Indices 1 2 3 4 5 6 
#
# 1 0.022619 -0.003445 0.002073 0.000000 -0.013499 0.000000
# 2 -0.003445 0.007426 -0.000997 0.000000 -0.000713 0.000000
# 3 0.002073 -0.000997 0.017158 0.000000 -0.007106 0.000000
# 4 0.000000 0.000000 0.000000 -0.006162 0.000000 0.037178
# 5 -0.013499 -0.000713 -0.007106 0.000000 0.053145 0.000000
# 6 0.000000 0.000000 0.000000 0.037178 0.000000 -0.008169
#
#
# Mechanical properties :
#
#
# Convention : Reuss Voigt Hill
#
# Bulk Modulus (GPa) = 23.54835 38.60327 31.07581
# Shear Modulus (GPa) = 47.65912 22.34201 35.00057
#
# Velocity S-wave (km/s) = 5.12753 3.51072 4.39413
# Velocity P-wave (km/s) = 6.93153 6.14242 6.54887
#
# Compressibility (1/GPa) = 0.04246582
#
# Stress axis : x y z
#
# Youngs Moduli (GPa) = 44.21018 134.65373 58.28059
#
# Poissons Ratio (x) = 0.46390 -0.12084
# Poissons Ratio (y) = 0.15231 0.05813
# Poissons Ratio (z) = -0.09166 0.13429
#
# Static dielectric constant tensor:
#      x y z
#    x 1.598470 0.000000 0.001320 
#    y 0.000000 1.659900 0.000000 
#    z 0.001320 0.000000 1.637080 
# 
# From -- ./inp_files/184367.got.cif
#   From: 2010.05.17/outbox.cif.g08.bks.cpg/sg12_93_cif.got.tgz:184367.got - 2010.06.03 13:09:07.
