data_PCOD9187816
_publ_section_title
;
Structure prediction by ZEFSAII (Michael W. Deem and Ramdas Pophale) SiO2 
 PCOD9187816
Probable space group: C 2/M
;
_chemical_formula_sum "Si O2"
_cell_formula_units_Z 64
_cell_length_a 15.839524
_cell_length_b 8.479938
_cell_length_c 28.346168
_cell_angle_alpha 90.000000
_cell_angle_beta 121.269306
_cell_angle_gamma 90.000000
_cell_volume 3254.330633
_symmetry_space_group_name_H-M "C 2/M"
_symmetry_group_IT_number 12
_symmetry_cell_setting 'monoclinic'
loop_
_space_group_symop_operation_xyz
x,y,z
-x,y,-z
-x,-y,-z
x,-y,z
1/2+x,1/2+y,z
1/2-x,1/2+y,-z
1/2-x,1/2-y,-z
1/2+x,1/2-y,z
loop_
_atom_site_type_symbol
_atom_site_label
_atom_site_fract_x
_atom_site_fract_y
_atom_site_fract_z
Si Si1 0.179425 0.310985 0.438436
Si Si2 0.452508 0.689312 0.876569
Si Si3 0.404894 0.690280 0.252684
Si Si4 0.760574 0.308793 0.362539
Si Si5 0.455365 0.810158 0.370731
Si Si6 0.408451 0.691431 0.757733
Si Si7 0.737649 0.811048 0.132875
Si Si8 0.173422 0.687707 0.939127
O O1 0.178260 0.500000 0.439272
O O2 0.250000 0.250000 0.500000
O O3 0.219001 0.255460 0.399286
O O4 0.066515 0.252583 0.411681
O O5 0.449370 0.500000 0.876466
O O6 0.419556 0.746068 0.814606
O O7 0.373568 0.754860 0.890741
O O8 0.564364 0.743970 0.916472
O O9 0.406275 0.500000 0.257000
O O10 0.420717 0.761636 0.308545
O O11 0.496142 0.737377 0.245383
O O12 0.304457 0.738037 0.197230
O O13 0.757993 0.500000 0.363854
O O14 0.871836 0.256851 0.383224
O O15 0.688929 0.258339 0.298782
O O16 0.457472 0.000000 0.373263
O O17 0.407531 0.500000 0.758941
O O18 0.787547 0.741815 0.100682
O O19 0.741261 0.000000 0.130592
O O20 0.168914 0.500000 0.939629
O O21 0.250000 0.750000 0.000000
#
# Coordination Sequence:
#
# PCOD9187816 Si02
#       8
#     8   8   8   8   8   8   8   8
#     4  11  24  41  59  83 114 151 198 249 299 352
#     4  11  22  41  66  95 129 165 207 255 307 366
#     4  10  19  35  61  91 124 161 197 241 297 356
#     4  10  20  38  62  86 117 156 194 236 294 354
#     4  10  22  38  59  89 120 152 195 247 298 356
#     4   9  17  33  60  90 122 159 193 235 298 362
#     4  11  23  41  63  94 131 166 206 252 302 366
#     4  12  26  45  67  92 122 164 211 260 314 367
#
# _framework density 19.666101999999999
#
# number of rings (size 3 to 8) (size 9 to 14) (size 15 to 20)
#    0.000    1.500    2.500    3.000    0.000    4.000 
#    0.000    6.250    0.000    0.000    0.000    0.000 
#    0.000    0.000    0.000    0.000    0.000    0.000 
#
# Total GULP energy -178872.147266 kJ/mol
# GULP energy per Si atom -5589.754602 kJ/mol
# Density = 1.962134 g / cm^3
# Si number density = 19.666102 Si / 1000 Ang^3
#
#
#
# Elastic Constant Matrix: (Units=GPa)
#
#
# Indices 1 2 3 4 5 6 
#
# 1 145.2870 10.9957 29.1129 0.0000 25.0812 0.0000
# 2 10.9957 28.5254 7.0670 0.0000 3.8438 0.0000
# 3 29.1129 7.0670 82.1079 0.0000 36.3711 0.0000
# 4 0.0000 0.0000 0.0000 31.3012 0.0000 -3.0650
# 5 25.0812 3.8438 36.3711 0.0000 14.4025 0.0000
# 6 0.0000 0.0000 0.0000 -3.0650 0.0000 28.0417
#
#
#
# Elastic Compliance Matrix: (Units=1/GPa)
#
#
# Indices 1 2 3 4 5 6 
#
# 1 0.004644 -0.002235 -0.015711 0.000000 0.032185 0.000000
# 2 -0.002235 0.036518 -0.002044 0.000000 -0.000692 0.000000
# 3 -0.015711 -0.002044 -0.046900 0.000000 0.146344 0.000000
# 4 0.000000 0.000000 0.000000 0.032293 0.000000 0.003530
# 5 0.032185 -0.000692 0.146344 0.000000 -0.355999 0.000000
# 6 0.000000 0.000000 0.000000 0.003530 0.000000 0.036047
#
#
# Mechanical properties :
#
#
# Convention : Reuss Voigt Hill
#
# Bulk Modulus (GPa) = -21.87303 38.91905 8.52301
# Shear Modulus (GPa) = -18.61115 28.66538 5.02711
#
# Velocity S-wave (km/s) = -3.07963 3.82200 1.60056
# Velocity P-wave (km/s) = 4.87769 6.26975 2.78549
#
# Compressibility (1/GPa) = -0.04571840
#
# Stress axis : x y z
#
# Youngs Moduli (GPa) = 215.32370 27.38409 -21.32202
#
# Poissons Ratio (x) = 0.06120 -0.33499
# Poissons Ratio (y) = 0.48118 -0.04359
# Poissons Ratio (z) = 3.38297 0.05598
#
# Static dielectric constant tensor:
#      x y z
#    x 1.688350 0.000000 0.015230 
#    y 0.000000 1.669110 0.000000 
#    z 0.015230 0.000000 1.662670 
# 
# From -- ./inp_files/359961.got.cif
#   From: 2010.05.17/outbox.cif.g08.bks.cpg/sg12_180_cif.got.tgz:359961.got - 2010.06.03 13:09:07.
