data_PCOD9187887
_publ_section_title
;
Structure prediction by ZEFSAII (Michael W. Deem and Ramdas Pophale) SiO2 
 PCOD9187887
Probable space group: C 2/M
;
_chemical_formula_sum "Si O2"
_cell_formula_units_Z 64
_cell_length_a 14.887321
_cell_length_b 25.017572
_cell_length_c 7.837144
_cell_angle_alpha 90.000000
_cell_angle_beta 110.497754
_cell_angle_gamma 90.000000
_cell_volume 2734.094544
_symmetry_space_group_name_H-M "C 2/M"
_symmetry_group_IT_number 12
_symmetry_cell_setting 'monoclinic'
loop_
_space_group_symop_operation_xyz
x,y,z
-x,y,-z
-x,-y,-z
x,-y,z
1/2+x,1/2+y,z
1/2-x,1/2+y,-z
1/2-x,1/2-y,-z
1/2+x,1/2-y,z
loop_
_atom_site_type_symbol
_atom_site_label
_atom_site_fract_x
_atom_site_fract_y
_atom_site_fract_z
Si Si1 0.394759 0.351249 0.995485
Si Si2 0.409524 0.059931 0.530600
Si Si3 0.380844 0.796377 0.161949
Si Si4 0.280513 0.937024 0.740221
Si Si5 0.799485 0.589437 0.142442
Si Si6 0.432668 0.753538 0.606630
Si Si7 0.207213 0.252242 0.220515
Si Si8 0.600125 0.640261 0.599782
O O1 0.398113 0.341467 0.201247
O O2 0.500000 0.365525 0.000000
O O3 0.311961 0.394727 0.913364
O O4 0.355024 0.300121 0.867383
O O5 0.500000 0.086158 0.500000
O O6 0.364972 0.083390 0.671984
O O7 0.330467 0.057494 0.329587
O O8 0.441079 0.000000 0.601919
O O9 0.367479 0.858132 0.195024
O O10 0.483209 0.768418 0.198959
O O11 0.316848 0.765208 0.263074
O O12 0.317874 0.792273 0.947465
O O13 0.190433 0.898440 0.640717
O O14 0.261285 0.000000 0.687481
O O15 0.308246 0.934017 0.958187
O O16 0.500000 0.777835 0.500000
O O17 0.335658 0.773844 0.631880
O O18 0.409453 0.692318 0.530865
O O19 0.500000 0.610197 0.500000
#
# Coordination Sequence:
#
# PCOD9187887 Si02
#       8
#     8   8   8   8   8   8   8   8
#     4  10  19  35  62  90 124 179 226 263 327 397
#     4  10  23  45  72  99 128 170 221 279 353 412
#     4  10  22  38  57  87 122 171 221 264 323 384
#     4  10  23  44  70 101 134 168 222 288 346 406
#     4  10  23  42  67  96 136 172 219 282 341 401
#     4  11  22  37  57  88 126 175 217 268 324 389
#     4  10  20  37  58  78 121 167 219 272 313 380
#     4  10  21  34  63  95 131 177 221 266 337 403
#
# _framework density 23.408114000000001
#
# number of rings (size 3 to 8) (size 9 to 14) (size 15 to 20)
#    0.000    1.875    0.000    4.500    5.250    3.750 
#    6.750    1.875    0.000    1.875    0.000    0.000 
#    0.000    0.000    0.000    0.000    0.000    0.000 
#
# Total GULP energy -178505.945006 kJ/mol
# GULP energy per Si atom -5578.310781 kJ/mol
# Density = 2.335484 g / cm^3
# Si number density = 23.408114 Si / 1000 Ang^3
#
#
#
# Elastic Constant Matrix: (Units=GPa)
#
#
# Indices 1 2 3 4 5 6 
#
# 1 164.8209 27.7917 32.5860 0.0000 -12.3957 0.0000
# 2 27.7917 74.9083 6.3328 0.0000 -2.6222 0.0000
# 3 32.5860 6.3328 74.8701 0.0000 -15.3373 0.0000
# 4 0.0000 0.0000 0.0000 23.9050 0.0000 3.8953
# 5 -12.3957 -2.6222 -15.3373 0.0000 43.8491 0.0000
# 6 0.0000 0.0000 0.0000 3.8953 0.0000 20.7541
#
#
#
# Elastic Compliance Matrix: (Units=1/GPa)
#
#
# Indices 1 2 3 4 5 6 
#
# 1 0.007066 -0.002362 -0.002688 0.000000 0.000916 0.000000
# 2 -0.002362 0.014243 -0.000150 0.000000 0.000132 0.000000
# 3 -0.002688 -0.000150 0.015491 0.000000 0.004650 0.000000
# 4 0.000000 0.000000 0.000000 0.043152 0.000000 -0.008099
# 5 0.000916 0.000132 0.004650 0.000000 0.024699 0.000000
# 6 0.000000 0.000000 0.000000 -0.008099 0.000000 0.049703
#
#
# Mechanical properties :
#
#
# Convention : Reuss Voigt Hill
#
# Bulk Modulus (GPa) = 37.87706 49.78003 43.82855
# Shear Modulus (GPa) = 28.80941 34.22755 31.51848
#
# Velocity S-wave (km/s) = 3.51200 3.82803 3.67342
# Velocity P-wave (km/s) = 5.71505 6.39146 6.06270
#
# Compressibility (1/GPa) = 0.02640121
#
# Stress axis : x y z
#
# Youngs Moduli (GPa) = 141.52703 70.20838 64.55164
#
# Poissons Ratio (x) = 0.16585 0.17350
# Poissons Ratio (y) = 0.33431 0.00966
# Poissons Ratio (z) = 0.38040 0.01051
#
# Static dielectric constant tensor:
#      x y z
#    x 1.932720 0.000000 0.024120 
#    y 0.000000 1.890440 0.000000 
#    z 0.024120 0.000000 2.021850 
# 
# From -- ./inp_files/66985.got.cif
#   From: 2010.05.17/outbox.cif.g08.bks.cpg/sg12_34_cif.got.tgz:66985.got - 2010.06.03 13:09:07.
