data_PCOD9187854
_publ_section_title
;
Structure prediction by ZEFSAII (Michael W. Deem and Ramdas Pophale) SiO2 
 PCOD9187854
Probable space group: C 2/M
;
_chemical_formula_sum "Si O2"
_cell_formula_units_Z 44
_cell_length_a 25.560602
_cell_length_b 11.254968
_cell_length_c 9.824512
_cell_angle_alpha 90.000000
_cell_angle_beta 53.123350
_cell_angle_gamma 90.000000
_cell_volume 2260.882154
_symmetry_space_group_name_H-M "C 2/M"
_symmetry_group_IT_number 12
_symmetry_cell_setting 'monoclinic'
loop_
_space_group_symop_operation_xyz
x,y,z
-x,y,-z
-x,-y,-z
x,-y,z
1/2+x,1/2+y,z
1/2-x,1/2+y,-z
1/2-x,1/2-y,-z
1/2+x,1/2-y,z
loop_
_atom_site_type_symbol
_atom_site_label
_atom_site_fract_x
_atom_site_fract_y
_atom_site_fract_z
Si Si1 0.931840 0.754825 0.044006
Si Si2 0.158255 0.753449 0.057728
Si Si3 0.177186 0.253834 0.554800
Si Si4 0.285736 0.364057 0.766245
Si Si5 0.522502 0.000000 0.136353
Si Si6 0.377728 0.000000 0.454126
Si Si7 0.609752 0.000000 0.245125
O O1 0.876810 0.767611 0.245111
O O2 0.898790 0.797968 0.954030
O O3 0.947996 0.617365 0.978996
O O4 0.000000 0.803454 0.000000
O O5 0.174328 0.839352 0.157910
O O6 0.143137 0.623341 0.145824
O O7 0.224249 0.726341 0.869399
O O8 0.250000 0.250000 0.500000
O O9 0.173865 0.165140 0.432141
O O10 0.162608 0.383939 0.519599
O O11 0.262898 0.500000 0.796984
O O12 0.444589 0.000000 0.263552
O O13 0.543694 0.000000 0.261021
O O14 0.394290 0.000000 0.587450
#
# Coordination Sequence:
#
# PCOD9187854 Si02
#       7
#     8   8   8   8   4   4   4
#     4  11  21  39  63  95 129 163 207 259 335 383
#     4  10  21  39  64  94 125 167 212 261 321 383
#     4  12  25  38  61  98 131 170 207 269 322 377
#     4  11  23  41  62  89 131 171 215 260 317 381
#     4  10  21  36  67  98 132 163 196 273 345 373
#     4  12  22  40  62 101 138 158 216 261 330 389
#     4  10  19  35  62 102 127 157 200 270 323 393
#
# _framework density 19.461431000000001
#
# number of rings (size 3 to 8) (size 9 to 14) (size 15 to 20)
#    0.000    1.091    6.364    1.091    1.273    0.000 
#    0.000    1.818    0.000    3.273    0.000    0.000 
#    0.000    0.000    0.000    0.000    0.000    0.000 
#
# Total GULP energy -122762.626731 kJ/mol
# GULP energy per Si atom -5580.119397 kJ/mol
# Density = 1.941714 g / cm^3
# Si number density = 19.461431 Si / 1000 Ang^3
#
#
#
# Elastic Constant Matrix: (Units=GPa)
#
#
# Indices 1 2 3 4 5 6 
#
# 1 139.7149 4.5251 60.3157 0.0000 2.8422 0.0000
# 2 4.5251 26.2247 16.3009 0.0000 -1.1824 0.0000
# 3 60.3157 16.3009 131.4450 0.0000 6.8739 0.0000
# 4 0.0000 0.0000 0.0000 21.1917 0.0000 -0.4218
# 5 2.8422 -1.1824 6.8739 0.0000 34.2635 0.0000
# 6 0.0000 0.0000 0.0000 -0.4218 0.0000 17.4619
#
#
#
# Elastic Compliance Matrix: (Units=1/GPa)
#
#
# Indices 1 2 3 4 5 6 
#
# 1 0.008955 0.001106 -0.004254 0.000000 0.000149 0.000000
# 2 0.001106 0.041663 -0.005805 0.000000 0.002511 0.000000
# 3 -0.004254 -0.005805 0.010381 0.000000 -0.001930 0.000000
# 4 0.000000 0.000000 0.000000 0.047211 0.000000 0.001140
# 5 0.000149 0.002511 -0.001930 0.000000 0.029647 0.000000
# 6 0.000000 0.000000 0.000000 0.001140 0.000000 0.057295
#
#
# Mechanical properties :
#
#
# Convention : Reuss Voigt Hill
#
# Bulk Modulus (GPa) = 23.20662 51.07425 37.14043
# Shear Modulus (GPa) = 21.98544 28.99961 25.49252
#
# Velocity S-wave (km/s) = 3.36474 3.86438 3.62318
# Velocity P-wave (km/s) = 5.20054 6.79794 6.05217
#
# Compressibility (1/GPa) = 0.04309116
#
# Stress axis : x y z
#
# Youngs Moduli (GPa) = 111.66800 24.00215 96.33262
#
# Poissons Ratio (x) = -0.02654 0.40981
# Poissons Ratio (y) = -0.12348 0.55926
# Poissons Ratio (z) = 0.47505 0.13934
#
# Static dielectric constant tensor:
#      x y z
#    x 1.719900 0.000000 0.011130 
#    y 0.000000 1.647130 0.000000 
#    z 0.011130 0.000000 1.687850 
# 
# From -- ./inp_files/103036.got.cif
#   From: 2010.05.17/outbox.cif.g08.bks.cpg/sg12_52_cif.got.tgz:103036.got - 2010.06.03 13:09:07.
