data_PCOD9187244
_publ_section_title
;
Structure prediction by ZEFSAII (Michael W. Deem and Ramdas Pophale) SiO2 
 PCOD9187244
Probable space group: C 2/M
;
_chemical_formula_sum "Si O2"
_cell_formula_units_Z 40
_cell_length_a 19.979866
_cell_length_b 7.556349
_cell_length_c 25.816816
_cell_angle_alpha 90.000000
_cell_angle_beta 26.904282
_cell_angle_gamma 90.000000
_cell_volume 1763.709866
_symmetry_space_group_name_H-M "C 2/M"
_symmetry_group_IT_number 12
_symmetry_cell_setting 'monoclinic'
loop_
_space_group_symop_operation_xyz
x,y,z
-x,y,-z
-x,-y,-z
x,-y,z
1/2+x,1/2+y,z
1/2-x,1/2+y,-z
1/2-x,1/2-y,-z
1/2+x,1/2-y,z
loop_
_atom_site_type_symbol
_atom_site_label
_atom_site_fract_x
_atom_site_fract_y
_atom_site_fract_z
Si Si1 0.364928 0.282860 0.844471
Si Si2 0.447903 0.794381 0.980958
Si Si3 0.428573 0.709169 0.207877
Si Si4 0.394780 0.286478 0.527088
Si Si5 0.080311 0.788397 0.604228
O O1 0.365214 0.500000 0.846655
O O2 0.201703 0.220351 0.941658
O O3 0.437273 0.221950 0.848565
O O4 0.473541 0.224529 0.723185
O O5 0.413176 0.000000 0.015731
O O6 0.500000 0.717060 0.000000
O O7 0.567900 0.785936 0.852354
O O8 0.445922 0.500000 0.190168
O O9 0.274989 0.742290 0.343311
O O10 0.500000 0.220306 0.500000
O O11 0.404274 0.500000 0.519553
O O12 0.445295 0.219974 0.436056
O O13 0.250000 0.750000 0.500000
O O14 0.060840 0.000000 0.616551
#
# Coordination Sequence:
#
# PCOD9187244 Si02
#       5
#     8   8   8   8   8
#     4   9  19  36  58  84 113 149 188 231 281 330
#     4  10  22  39  62  85 110 147 192 238 282 332
#     4  11  22  38  59  82 117 152 186 233 283 341
#     4  10  22  37  59  87 115 149 191 236 277 331
#     4  10  19  35  58  84 116 146 184 231 279 335
#
# _framework density 22.679466999999999
#
# number of rings (size 3 to 8) (size 9 to 14) (size 15 to 20)
#    0.000    2.000    2.000    1.200    2.800    0.800 
#    0.000    2.000    0.000    0.000    0.000    0.000 
#    0.000    0.000    0.000    0.000    0.000    0.000 
#
# Total GULP energy -111757.839547 kJ/mol
# GULP energy per Si atom -5587.891977 kJ/mol
# Density = 2.262785 g / cm^3
# Si number density = 22.679467 Si / 1000 Ang^3
#
#
#
# Elastic Constant Matrix: (Units=GPa)
#
#
# Indices 1 2 3 4 5 6 
#
# 1 176.2433 9.0987 23.8358 0.0003 23.0473 0.0002
# 2 9.0987 55.9099 -8.8700 0.0003 -1.7913 0.0010
# 3 23.8358 -8.8700 60.9437 0.0018 18.7410 0.0005
# 4 0.0003 0.0003 0.0018 20.3788 -0.0004 0.5383
# 5 23.0473 -1.7913 18.7410 -0.0004 42.0760 -0.0002
# 6 0.0002 0.0010 0.0005 0.5383 -0.0002 0.7885
#
#
#
# Elastic Compliance Matrix: (Units=1/GPa)
#
#
# Indices 1 2 3 4 5 6 
#
# 1 0.006353 -0.001415 -0.001856 0.000000 -0.002713 0.000001
# 2 -0.001415 0.018632 0.003225 0.000000 0.000132 -0.000026
# 3 -0.001856 0.003225 0.019987 -0.000001 -0.007748 -0.000018
# 4 0.000000 0.000000 -0.000001 0.049972 0.000001 -0.034117
# 5 -0.002713 0.000132 -0.007748 0.000001 0.028709 0.000012
# 6 0.000001 -0.000026 -0.000018 -0.034117 0.000012 1.291545
#
#
# Mechanical properties :
#
#
# Convention : Reuss Voigt Hill
#
# Bulk Modulus (GPa) = 22.28276 37.91399 30.09837
# Shear Modulus (GPa) = 3.49589 30.58414 17.04002
#
# Velocity S-wave (km/s) = 1.24289 3.67623 2.74403
# Velocity P-wave (km/s) = 3.45052 5.89688 4.83111
#
# Compressibility (1/GPa) = 0.04487775
#
# Stress axis : x y z
#
# Youngs Moduli (GPa) = 157.40819 53.67088 50.03350
#
# Poissons Ratio (x) = 0.07596 0.09288
# Poissons Ratio (y) = 0.22278 -0.16134
# Poissons Ratio (z) = 0.29220 -0.17307
#
# Static dielectric constant tensor:
#      x y z
#    x 1.854780 0.000000 0.011140 
#    y 0.000000 1.868890 0.000000 
#    z 0.011140 0.000000 1.800620 
# 
# From -- ./inp_files/83357.got.cif
#   From: 2010.05.17/outbox.cif.g08.bks.cpg/sg12_42_cif.got.tgz:83357.got - 2010.06.03 13:09:07.
