data_PCOD9187437
_publ_section_title
;
Structure prediction by ZEFSAII (Michael W. Deem and Ramdas Pophale) SiO2 
 PCOD9187437
Probable space group: C 2/M
;
_chemical_formula_sum "Si O2"
_cell_formula_units_Z 64
_cell_length_a 13.127429
_cell_length_b 14.449589
_cell_length_c 31.004274
_cell_angle_alpha 90.000000
_cell_angle_beta 34.738600
_cell_angle_gamma 90.000000
_cell_volume 3351.232360
_symmetry_space_group_name_H-M "C 2/M"
_symmetry_group_IT_number 12
_symmetry_cell_setting 'monoclinic'
loop_
_space_group_symop_operation_xyz
x,y,z
-x,y,-z
-x,-y,-z
x,-y,z
1/2+x,1/2+y,z
1/2-x,1/2+y,-z
1/2-x,1/2-y,-z
1/2+x,1/2-y,z
loop_
_atom_site_type_symbol
_atom_site_label
_atom_site_fract_x
_atom_site_fract_y
_atom_site_fract_z
Si Si1 0.832367 0.741207 0.424397
Si Si2 0.168249 0.394709 0.210996
Si Si3 0.295941 0.755270 0.670102
Si Si4 0.750651 0.105752 0.618015
Si Si5 0.653126 0.610667 0.981688
Si Si6 0.955635 0.892233 0.882635
Si Si7 0.408933 0.773076 0.841619
Si Si8 0.700893 0.892051 0.410596
O O1 0.750000 0.750000 0.500000
O O2 0.728323 0.664635 0.432762
O O3 0.820026 0.837520 0.403403
O O4 0.039015 0.717796 0.357914
O O5 0.197279 0.500000 0.182156
O O6 0.327637 0.383601 0.189752
O O7 0.178281 0.313790 0.171843
O O8 0.964998 0.393507 0.298553
O O9 0.336504 0.664478 0.626834
O O10 0.273789 0.837654 0.643028
O O11 0.118352 0.730455 0.757804
O O12 0.809382 0.000000 0.595223
O O13 0.663795 0.500000 0.976040
O O14 0.837553 0.656369 0.902431
O O15 0.500000 0.639125 0.000000
O O16 0.605866 0.634886 0.047482
O O17 0.872793 0.827512 0.874660
O O18 0.913385 0.000000 0.890414
O O19 0.500000 0.882492 0.500000
O O20 0.740100 0.000000 0.392515
#
# Coordination Sequence:
#
# PCOD9187437 Si02
#       8
#     8   8   8   8   8   8   8   8
#     4  11  21  36  57  80 112 142 186 233 274 329
#     4   9  17  34  56  81 110 143 186 232 273 327
#     4  10  22  37  56  84 114 144 180 236 280 328
#     4   9  20  35  54  80 112 145 180 226 284 336
#     4  10  19  35  59  85 111 145 190 234 272 323
#     4  10  20  33  54  83 113 144 186 232 270 324
#     4  11  20  33  58  86 112 144 185 228 286 329
#     4  10  21  39  60  80 108 149 190 226 273 331
#
# _framework density 19.097452000000001
#
# number of rings (size 3 to 8) (size 9 to 14) (size 15 to 20)
#    0.000    2.000    2.500    1.500    0.000    2.500 
#    0.000    0.625    0.000    1.875    0.000    0.000 
#    0.000    0.000    0.000    0.000    0.000    0.000 
#
# Total GULP energy -178426.588110 kJ/mol
# GULP energy per Si atom -5575.830878 kJ/mol
# Density = 1.905399 g / cm^3
# Si number density = 19.097452 Si / 1000 Ang^3
#
#
#
# Elastic Constant Matrix: (Units=GPa)
#
#
# Indices 1 2 3 4 5 6 
#
# 1 60.5982 41.8496 6.2450 -0.0001 9.4948 0.0000
# 2 41.8496 107.6093 16.1799 0.0001 16.5982 0.0001
# 3 6.2450 16.1799 75.5277 0.0003 4.9173 0.0004
# 4 -0.0001 0.0001 0.0003 23.2392 -0.0001 -4.1446
# 5 9.4948 16.5982 4.9173 -0.0001 12.0684 0.0000
# 6 0.0000 0.0001 0.0004 -4.1446 0.0000 13.5350
#
#
#
# Elastic Compliance Matrix: (Units=1/GPa)
#
#
# Indices 1 2 3 4 5 6 
#
# 1 0.023072 -0.007864 0.000262 0.000000 -0.007443 0.000000
# 2 -0.007864 0.014646 -0.001622 0.000000 -0.013295 0.000000
# 3 0.000262 -0.001622 0.013800 0.000000 -0.003598 0.000000
# 4 0.000000 0.000000 0.000000 0.045517 0.000001 0.013938
# 5 -0.007443 -0.013295 -0.003598 0.000001 0.108468 0.000001
# 6 0.000000 0.000000 0.000000 0.013938 0.000001 0.078151
#
#
# Mechanical properties :
#
#
# Convention : Reuss Voigt Hill
#
# Bulk Modulus (GPa) = 30.23912 41.36489 35.80200
# Shear Modulus (GPa) = 15.96802 21.73256 18.85029
#
# Velocity S-wave (km/s) = 2.89473 3.37706 3.14516
# Velocity P-wave (km/s) = 5.20011 6.07560 5.65482
#
# Compressibility (1/GPa) = 0.03306975
#
# Stress axis : x y z
#
# Youngs Moduli (GPa) = 43.34169 68.27867 72.46261
#
# Poissons Ratio (x) = 0.53696 -0.01895
# Poissons Ratio (y) = 0.34085 0.11751
# Poissons Ratio (z) = -0.01134 0.11072
#
# Static dielectric constant tensor:
#      x y z
#    x 1.639990 0.000000 0.005600 
#    y 0.000000 1.660010 0.000000 
#    z 0.005600 0.000000 1.722480 
# 
# From -- ./inp_files/269868.got.cif
#   From: 2010.05.17/outbox.cif.g08.bks.cpg/sg12_135_cif.got.tgz:269868.got - 2010.06.03 13:09:07.
