data_PCOD9187701
_publ_section_title
;
Structure prediction by ZEFSAII (Michael W. Deem and Ramdas Pophale) SiO2 
 PCOD9187701
Probable space group: C 2/M
;
_chemical_formula_sum "Si O2"
_cell_formula_units_Z 58
_cell_length_a 19.517037
_cell_length_b 8.810397
_cell_length_c 17.217952
_cell_angle_alpha 90.000000
_cell_angle_beta 105.117335
_cell_angle_gamma 90.000000
_cell_volume 2858.217991
_symmetry_space_group_name_H-M "C 2/M"
_symmetry_group_IT_number 12
_symmetry_cell_setting 'monoclinic'
loop_
_space_group_symop_operation_xyz
x,y,z
-x,y,-z
-x,-y,-z
x,-y,z
1/2+x,1/2+y,z
1/2-x,1/2+y,-z
1/2-x,1/2-y,-z
1/2+x,1/2-y,z
loop_
_atom_site_type_symbol
_atom_site_label
_atom_site_fract_x
_atom_site_fract_y
_atom_site_fract_z
Si Si1 0.853008 0.667504 0.982584
Si Si2 0.487085 0.678705 0.780473
Si Si3 0.105749 0.319262 0.566253
Si Si4 0.138569 0.319735 0.841199
Si Si5 0.655438 0.677857 0.178277
Si Si6 0.462286 0.320028 0.595512
Si Si7 0.000000 0.500000 0.000000
Si Si8 0.786758 0.821342 0.286542
O O1 0.818848 0.500000 0.961343
O O2 0.831210 0.775693 0.906441
O O3 0.837787 0.723610 0.064836
O O4 0.937516 0.629368 0.999692
O O5 0.507622 0.500000 0.791626
O O6 0.555179 0.782437 0.811492
O O7 0.425870 0.710435 0.824097
O O8 0.455312 0.702882 0.685109
O O9 0.100734 0.500000 0.566737
O O10 0.096055 0.258935 0.475896
O O11 0.175295 0.262746 0.631025
O O12 0.038220 0.248400 0.592016
O O13 0.150083 0.500000 0.835557
O O14 0.175041 0.232647 0.781518
O O15 0.668846 0.500000 0.194156
O O16 0.705973 0.772859 0.249485
O O17 0.462411 0.500000 0.580091
O O18 0.794977 0.000000 0.298684
#
# Coordination Sequence:
#
# PCOD9187701 Si02
#       8
#     8   8   8   8   8   8   2   8
#     4   9  20  37  59  86 118 161 197 248 299 358
#     4  10  22  38  60  91 124 157 199 250 301 359
#     4  11  21  36  59  90 122 154 199 251 302 360
#     4  11  22  37  63  91 119 155 205 259 298 357
#     4  11  24  41  61  88 124 164 206 252 305 360
#     4  10  19  35  60  90 123 158 194 245 304 363
#     4   8  16  36  62  84 124 148 204 232 300 360
#     4  12  25  42  61  86 121 165 205 251 311 370
#
# _framework density 20.292363000000002
#
# number of rings (size 3 to 8) (size 9 to 14) (size 15 to 20)
#    0.414    1.103    1.379    5.379    0.000    2.759 
#    0.000    2.414    0.000    0.000    0.000    0.000 
#    0.000    0.000    0.000    0.000    0.000    0.000 
#
# Total GULP energy -161788.601244 kJ/mol
# GULP energy per Si atom -5578.917284 kJ/mol
# Density = 2.024618 g / cm^3
# Si number density = 20.292363 Si / 1000 Ang^3
#
#
#
# Elastic Constant Matrix: (Units=GPa)
#
#
# Indices 1 2 3 4 5 6 
#
# 1 22.4186 11.6878 -3.0737 0.0000 5.1292 0.0000
# 2 11.6878 80.5418 17.2623 0.0000 -0.0343 0.0000
# 3 -3.0737 17.2623 64.4028 0.0000 -3.0996 0.0000
# 4 0.0000 0.0000 0.0000 32.9640 0.0000 4.2033
# 5 5.1292 -0.0343 -3.0996 0.0000 22.6030 0.0000
# 6 0.0000 0.0000 0.0000 4.2033 0.0000 24.8684
#
#
#
# Elastic Compliance Matrix: (Units=1/GPa)
#
#
# Indices 1 2 3 4 5 6 
#
# 1 0.052187 -0.008483 0.004222 0.000000 -0.011277 0.000000
# 2 -0.008483 0.014556 -0.004241 0.000000 0.001365 0.000000
# 3 0.004222 -0.004241 0.016931 0.000000 0.001357 0.000000
# 4 0.000000 0.000000 0.000000 0.031004 0.000000 -0.005240
# 5 -0.011277 0.001365 0.001357 0.000000 0.046989 0.000000
# 6 0.000000 0.000000 0.000000 -0.005240 0.000000 0.041097
#
#
# Mechanical properties :
#
#
# Convention : Reuss Voigt Hill
#
# Bulk Modulus (GPa) = 14.99914 24.34621 19.67268
# Shear Modulus (GPa) = 20.66184 25.51954 23.09069
#
# Velocity S-wave (km/s) = 3.19440 3.55010 3.37694
# Velocity P-wave (km/s) = 4.58401 5.36918 4.99205
#
# Compressibility (1/GPa) = 0.06667050
#
# Stress axis : x y z
#
# Youngs Moduli (GPa) = 19.16186 68.69848 59.06409
#
# Poissons Ratio (x) = 0.58275 -0.24935
# Poissons Ratio (y) = 0.16254 0.25048
# Poissons Ratio (z) = -0.08089 0.29133
#
# Static dielectric constant tensor:
#      x y z
#    x 1.728170 0.000000 0.009870 
#    y 0.000000 1.685060 0.000000 
#    z 0.009870 0.000000 1.728100 
# 
# From -- ./inp_files/281561.got.cif
#   From: 2010.05.17/outbox.cif.g08.bks.cpg/sg12_141_cif.got.tgz:281561.got - 2010.06.03 13:09:07.
