data_PCOD9187703
_publ_section_title
;
Structure prediction by ZEFSAII (Michael W. Deem and Ramdas Pophale) SiO2 
 PCOD9187703
Probable space group: C 2/M
;
_chemical_formula_sum "Si O2"
_cell_formula_units_Z 40
_cell_length_a 10.716236
_cell_length_b 22.287000
_cell_length_c 11.911105
_cell_angle_alpha 90.000000
_cell_angle_beta 37.177210
_cell_angle_gamma 90.000000
_cell_volume 1719.039140
_symmetry_space_group_name_H-M "C 2/M"
_symmetry_group_IT_number 12
_symmetry_cell_setting 'monoclinic'
loop_
_space_group_symop_operation_xyz
x,y,z
-x,y,-z
-x,-y,-z
x,-y,z
1/2+x,1/2+y,z
1/2-x,1/2+y,-z
1/2-x,1/2-y,-z
1/2+x,1/2-y,z
loop_
_atom_site_type_symbol
_atom_site_label
_atom_site_fract_x
_atom_site_fract_y
_atom_site_fract_z
Si Si1 0.168506 0.569646 0.293142
Si Si2 0.842731 0.429429 0.953644
Si Si3 0.938254 0.874696 0.264259
Si Si4 0.231585 0.744238 0.378453
Si Si5 0.269979 0.380724 0.629670
O O1 0.117191 0.500000 0.314514
O O2 0.170904 0.593773 0.166378
O O3 0.378287 0.577407 0.211941
O O4 0.000000 0.595805 0.500000
O O5 0.791821 0.500000 0.000630
O O6 0.082666 0.420055 0.809233
O O7 0.671175 0.388146 0.135096
O O8 0.887832 0.810422 0.244050
O O9 0.792519 0.882830 0.477471
O O10 0.250000 0.750000 0.500000
O O11 0.274283 0.811490 0.304932
O O12 0.000000 0.730662 0.500000
O O13 0.500000 0.398584 0.500000
#
# Coordination Sequence:
#
# PCOD9187703 Si02
#       5
#     8   8   8   8   8
#     4  10  19  35  60  90 124 158 198 258 318 368
#     4  11  24  39  62  96 127 162 210 258 315 379
#     4  11  21  37  64  90 123 161 206 259 319 373
#     4   9  20  38  64  92 123 166 213 260 317 376
#     4  10  23  43  62  86 125 167 212 263 307 365
#
# _framework density 23.268812
#
# number of rings (size 3 to 8) (size 9 to 14) (size 15 to 20)
#    0.000    1.800    2.000    1.800    2.800    4.400 
#    0.000    1.000    4.400    0.000    0.000    0.000 
#    0.000    0.000    0.000    0.000    0.000    0.000 
#
# Total GULP energy -111602.549507 kJ/mol
# GULP energy per Si atom -5580.127475 kJ/mol
# Density = 2.321585 g / cm^3
# Si number density = 23.268812 Si / 1000 Ang^3
#
#
#
# Elastic Constant Matrix: (Units=GPa)
#
#
# Indices 1 2 3 4 5 6 
#
# 1 88.6975 4.5054 12.4049 0.0000 -22.4154 0.0000
# 2 4.5054 82.1689 40.0642 0.0000 -10.6782 0.0000
# 3 12.4049 40.0642 119.7395 0.0000 -24.7340 0.0000
# 4 0.0000 0.0000 0.0000 30.0522 0.0000 -14.0636
# 5 -22.4154 -10.6782 -24.7340 0.0000 41.7378 0.0000
# 6 0.0000 0.0000 0.0000 -14.0636 0.0000 23.9965
#
#
#
# Elastic Compliance Matrix: (Units=1/GPa)
#
#
# Indices 1 2 3 4 5 6 
#
# 1 0.013048 0.000180 0.000051 0.000000 0.007084 0.000000
# 2 0.000180 0.014578 -0.004679 0.000000 0.001054 0.000000
# 3 0.000051 -0.004679 0.011019 0.000000 0.005360 0.000000
# 4 0.000000 0.000000 0.000000 0.045851 0.000000 0.026871
# 5 0.007084 0.001054 0.005360 0.000000 0.031210 0.000000
# 6 0.000000 0.000000 0.000000 0.026871 0.000000 0.057421
#
#
# Mechanical properties :
#
#
# Convention : Reuss Voigt Hill
#
# Bulk Modulus (GPa) = 33.61263 44.95055 39.28159
# Shear Modulus (GPa) = 26.04996 34.73274 30.39135
#
# Velocity S-wave (km/s) = 3.34956 3.86770 3.61792
# Velocity P-wave (km/s) = 5.42550 6.26940 5.86266
#
# Compressibility (1/GPa) = 0.02975072
#
# Stress axis : x y z
#
# Youngs Moduli (GPa) = 76.63882 68.59442 90.75291
#
# Poissons Ratio (x) = -0.01236 -0.00465
# Poissons Ratio (y) = -0.01381 0.42462
# Poissons Ratio (z) = -0.00393 0.32094
#
# Static dielectric constant tensor:
#      x y z
#    x 1.901440 0.000000 -0.031370 
#    y 0.000000 1.884950 0.000000 
#    z -0.031370 0.000000 1.925970 
# 
# From -- ./inp_files/208525.got.cif
#   From: 2010.05.17/outbox.cif.g08.bks.cpg/sg12_105_cif.got.tgz:208525.got - 2010.06.03 13:09:07.
