data_PCOD9187257
_publ_section_title
;
Structure prediction by ZEFSAII (Michael W. Deem and Ramdas Pophale) SiO2 
 PCOD9187257
Probable space group: C 2/M
;
_chemical_formula_sum "Si O2"
_cell_formula_units_Z 56
_cell_length_a 30.721594
_cell_length_b 14.286429
_cell_length_c 6.960408
_cell_angle_alpha 90.000000
_cell_angle_beta 81.731645
_cell_angle_gamma 90.000000
_cell_volume 3023.181159
_symmetry_space_group_name_H-M "C 2/M"
_symmetry_group_IT_number 12
_symmetry_cell_setting 'monoclinic'
loop_
_space_group_symop_operation_xyz
x,y,z
-x,y,-z
-x,-y,-z
x,-y,z
1/2+x,1/2+y,z
1/2-x,1/2+y,-z
1/2-x,1/2-y,-z
1/2+x,1/2-y,z
loop_
_atom_site_type_symbol
_atom_site_label
_atom_site_fract_x
_atom_site_fract_y
_atom_site_fract_z
Si Si1 0.245149 0.891735 0.381203
Si Si2 0.071477 0.891514 0.340450
Si Si3 0.447998 0.109461 0.578765
Si Si4 0.169795 0.893773 0.105848
Si Si5 0.095709 0.761544 0.657149
Si Si6 0.806949 0.222251 0.279540
Si Si7 0.545429 0.239069 0.076856
O O1 0.205656 0.887521 0.251635
O O2 0.226085 0.848054 0.589845
O O3 0.283792 0.823126 0.287420
O O4 0.258184 0.000000 0.395148
O O5 0.120960 0.881741 0.222852
O O6 0.074146 0.845818 0.549109
O O7 0.041493 0.828231 0.221036
O O8 0.059319 0.000000 0.351542
O O9 0.500000 0.121630 0.500000
O O10 0.420463 0.168520 0.442000
O O11 0.440274 0.155231 0.792174
O O12 0.437826 0.000000 0.580476
O O13 0.171613 0.000000 0.023822
O O14 0.181130 0.819885 0.934524
O O15 0.148056 0.771014 0.628498
O O16 0.079250 0.759869 0.885543
O O17 0.500000 0.216862 0.000000
#
# Coordination Sequence:
#
# PCOD9187257 Si02
#       7
#     8   8   8   8   8   8   8
#     4  10  22  38  56  84 117 149 192 240 290 349
#     4  10  22  37  58  86 118 156 197 243 288 342
#     4  10  22  40  62  88 117 152 195 241 290 345
#     4  10  19  35  58  85 113 147 197 238 281 346
#     4  11  22  38  60  87 120 152 195 243 289 345
#     4  11  21  36  61  84 114 155 191 239 294 344
#     4  11  22  39  61  88 120 154 194 243 289 344
#
# _framework density 18.523534000000001
#
# number of rings (size 3 to 8) (size 9 to 14) (size 15 to 20)
#    0.000    1.571    4.286    0.857    0.000    2.857 
#    0.000    0.714    0.000    0.000    0.000    0.000 
#    0.000    0.000    0.000    0.000    0.000    0.000 
#
# Total GULP energy -156362.013200 kJ/mol
# GULP energy per Si atom -5584.357614 kJ/mol
# Density = 1.848137 g / cm^3
# Si number density = 18.523534 Si / 1000 Ang^3
#
#
#
# Elastic Constant Matrix: (Units=GPa)
#
#
# Indices 1 2 3 4 5 6 
#
# 1 13.5029 -2.7350 -1.7164 0.0000 -2.0590 0.0000
# 2 -2.7350 123.4114 39.2374 0.0000 -2.6917 0.0000
# 3 -1.7164 39.2374 79.1945 0.0000 -4.7595 0.0000
# 4 0.0000 0.0000 0.0000 16.0116 0.0000 -3.4955
# 5 -2.0590 -2.6917 -4.7595 0.0000 27.8757 0.0000
# 6 0.0000 0.0000 0.0000 -3.4955 0.0000 25.1112
#
#
#
# Elastic Compliance Matrix: (Units=1/GPa)
#
#
# Indices 1 2 3 4 5 6 
#
# 1 0.075408 0.001386 0.001304 0.000000 0.005926 0.000000
# 2 0.001386 0.009644 -0.004735 0.000000 0.000225 0.000000
# 3 0.001304 -0.004735 0.015135 0.000000 0.002223 0.000000
# 4 0.000000 0.000000 0.000000 0.064412 0.000000 0.008966
# 5 0.005926 0.000225 0.002223 0.000000 0.036713 0.000000
# 6 0.000000 0.000000 0.000000 0.008966 0.000000 0.041071
#
#
# Mechanical properties :
#
#
# Convention : Reuss Voigt Hill
#
# Bulk Modulus (GPa) = 10.40614 31.74232 21.07423
# Shear Modulus (GPa) = 17.95302 25.88788 21.92045
#
# Velocity S-wave (km/s) = 3.11658 3.74246 3.44377
# Velocity P-wave (km/s) = 4.31054 5.98733 5.21674
#
# Compressibility (1/GPa) = 0.09609709
#
# Stress axis : x y z
#
# Youngs Moduli (GPa) = 13.26118 103.69235 66.07293
#
# Poissons Ratio (x) = -0.14371 -0.08615
# Poissons Ratio (y) = -0.01838 0.31283
# Poissons Ratio (z) = -0.01729 0.49094
#
# Static dielectric constant tensor:
#      x y z
#    x 1.636820 0.000000 -0.019020 
#    y 0.000000 1.621870 0.000000 
#    z -0.019020 0.000000 1.625200 
# 
# From -- ./inp_files/31514.got.cif
#   From: 2010.05.17/outbox.cif.g08.bks.cpg/sg12_16_cif.got.tgz:31514.got - 2010.06.03 13:09:07.
