data_PCOD9187602
_publ_section_title
;
Structure prediction by ZEFSAII (Michael W. Deem and Ramdas Pophale) SiO2 
 PCOD9187602
Probable space group: C 2/M
;
_chemical_formula_sum "Si O2"
_cell_formula_units_Z 40
_cell_length_a 18.056325
_cell_length_b 14.602736
_cell_length_c 7.256755
_cell_angle_alpha 90.000000
_cell_angle_beta 66.399190
_cell_angle_gamma 90.000000
_cell_volume 1753.358780
_symmetry_space_group_name_H-M "C 2/M"
_symmetry_group_IT_number 12
_symmetry_cell_setting 'monoclinic'
loop_
_space_group_symop_operation_xyz
x,y,z
-x,y,-z
-x,-y,-z
x,-y,z
1/2+x,1/2+y,z
1/2-x,1/2+y,-z
1/2-x,1/2-y,-z
1/2+x,1/2-y,z
loop_
_atom_site_type_symbol
_atom_site_label
_atom_site_fract_x
_atom_site_fract_y
_atom_site_fract_z
Si Si1 0.987090 0.606410 0.235747
Si Si2 0.318006 0.397413 0.671673
Si Si3 0.177257 0.695781 0.673168
Si Si4 0.896800 0.761159 0.878675
Si Si5 0.529483 0.600905 0.684729
O O1 0.985429 0.500000 0.294764
O O2 0.902116 0.659513 0.353898
O O3 0.063170 0.666213 0.232378
O O4 0.000000 0.607630 0.000000
O O5 0.336824 0.500000 0.724199
O O6 0.225771 0.391389 0.705568
O O7 0.341281 0.317684 0.791799
O O8 0.375782 0.382928 0.435982
O O9 0.250000 0.750000 0.500000
O O10 0.147727 0.747793 0.885022
O O11 0.975184 0.824341 0.831963
O O12 0.500000 0.602155 0.500000
O O13 0.516043 0.500000 0.772979
#
# Coordination Sequence:
#
# PCOD9187602 Si02
#       5
#     8   8   8   8   8
#     4   9  19  36  57  79 107 148 193 232 279 343
#     4  10  20  37  62  88 115 150 194 246 298 345
#     4  11  22  36  56  84 122 159 190 233 293 354
#     4  10  19  35  60  85 109 149 199 241 284 342
#     4   8  15  30  54  81 108 140 180 229 282 334
#
# _framework density 22.813358999999998
#
# number of rings (size 3 to 8) (size 9 to 14) (size 15 to 20)
#    0.000    2.400    0.000    4.200    0.000    0.800 
#    0.000    4.000    0.000   40.200    0.000    0.000 
#    0.000    0.000    0.000    0.000    0.000    0.000 
#
# Total GULP energy -111646.984906 kJ/mol
# GULP energy per Si atom -5582.349245 kJ/mol
# Density = 2.276143 g / cm^3
# Si number density = 22.813359 Si / 1000 Ang^3
#
#
#
# Elastic Constant Matrix: (Units=GPa)
#
#
# Indices 1 2 3 4 5 6 
#
# 1 78.4577 30.0739 36.9293 0.0000 -4.8260 0.0000
# 2 30.0739 146.5929 62.4249 0.0000 -18.4318 0.0000
# 3 36.9293 62.4249 119.0414 0.0000 -27.0944 0.0000
# 4 0.0000 0.0000 0.0000 21.0082 0.0000 -10.2293
# 5 -4.8260 -18.4318 -27.0944 0.0000 23.7162 0.0000
# 6 0.0000 0.0000 0.0000 -10.2293 0.0000 28.8040
#
#
#
# Elastic Compliance Matrix: (Units=1/GPa)
#
#
# Indices 1 2 3 4 5 6 
#
# 1 0.015364 -0.001575 -0.004740 0.000000 -0.003513 0.000000
# 2 -0.001575 0.009024 -0.003676 0.000000 0.002493 0.000000
# 3 -0.004740 -0.003676 0.014769 0.000000 0.013051 0.000000
# 4 0.000000 0.000000 0.000000 0.057553 0.000000 0.020439
# 5 -0.003513 0.002493 0.013051 0.000000 0.058299 0.000000
# 6 0.000000 0.000000 0.000000 0.020439 0.000000 0.041976
#
#
# Mechanical properties :
#
#
# Convention : Reuss Voigt Hill
#
# Bulk Modulus (GPa) = 52.15098 66.99426 59.57262
# Shear Modulus (GPa) = 22.38560 29.01660 25.70110
#
# Velocity S-wave (km/s) = 3.13589 3.57026 3.36010
# Velocity P-wave (km/s) = 6.00177 6.81364 6.42055
#
# Compressibility (1/GPa) = 0.01917509
#
# Stress axis : x y z
#
# Youngs Moduli (GPa) = 65.08512 110.82106 67.70951
#
# Poissons Ratio (x) = 0.17458 0.32093
# Poissons Ratio (y) = 0.10253 0.24889
# Poissons Ratio (z) = 0.30849 0.40736
#
# Static dielectric constant tensor:
#      x y z
#    x 1.921910 0.000000 -0.003810 
#    y 0.000000 1.910530 0.000000 
#    z -0.003810 0.000000 1.873080 
# 
# From -- ./inp_files/85513.got.cif
#   From: 2010.05.17/outbox.cif.g08.bks.cpg/sg12_43_cif.got.tgz:85513.got - 2010.06.03 13:09:07.
