data_PCOD9187055
_publ_section_title
;
Structure prediction by ZEFSAII (Michael W. Deem and Ramdas Pophale) SiO2 
 PCOD9187055
Probable space group: C 2/M
;
_chemical_formula_sum "Si O2"
_cell_formula_units_Z 64
_cell_length_a 24.557541
_cell_length_b 7.796485
_cell_length_c 29.576552
_cell_angle_alpha 90.000000
_cell_angle_beta 149.217146
_cell_angle_gamma 90.000000
_cell_volume 2898.140899
_symmetry_space_group_name_H-M "C 2/M"
_symmetry_group_IT_number 12
_symmetry_cell_setting 'monoclinic'
loop_
_space_group_symop_operation_xyz
x,y,z
-x,y,-z
-x,-y,-z
x,-y,z
1/2+x,1/2+y,z
1/2-x,1/2+y,-z
1/2-x,1/2-y,-z
1/2+x,1/2-y,z
loop_
_atom_site_type_symbol
_atom_site_label
_atom_site_fract_x
_atom_site_fract_y
_atom_site_fract_z
Si Si1 0.368282 0.708659 0.024116
Si Si2 0.940779 0.197448 0.339779
Si Si3 0.735151 0.797764 0.719322
Si Si4 0.449598 0.290811 0.916935
Si Si5 0.670319 0.695991 0.482800
Si Si6 0.212779 0.792382 0.342900
Si Si7 0.032663 0.793101 0.814323
Si Si8 0.161505 0.698960 0.823540
O O1 0.362566 0.500000 0.021865
O O2 0.263086 0.769012 0.923378
O O3 0.470305 0.752194 0.066526
O O4 0.388299 0.767646 0.089484
O O5 0.876392 0.277034 0.335276
O O6 0.867038 0.208901 0.242938
O O7 0.053890 0.279713 0.406374
O O8 0.957896 0.000000 0.364689
O O9 0.831784 0.729440 0.819545
O O10 0.742643 0.730454 0.673541
O O11 0.756791 0.000000 0.730227
O O12 0.446153 0.500000 0.917681
O O13 0.500000 0.229299 0.000000
O O14 0.646615 0.500000 0.454468
O O15 0.750000 0.750000 0.500000
O O16 0.728899 0.714673 0.572383
O O17 0.087360 0.753916 0.256694
O O18 0.224165 0.000000 0.354209
O O19 0.064598 0.713867 0.789494
O O20 0.040790 0.000000 0.816022
O O21 0.182637 0.500000 0.827230
#
# Coordination Sequence:
#
# PCOD9187055 Si02
#       8
#     8   8   8   8   8   8   8   8
#     4   9  17  31  52  82 117 154 195 238 287 344
#     4  11  25  43  60  83 118 156 191 237 300 356
#     4  10  20  37  62  91 118 152 200 245 286 342
#     4   9  15  27  52  83 114 152 199 243 279 327
#     4  11  25  44  66  90 117 153 196 241 297 358
#     4  10  21  38  63  92 121 154 195 244 297 349
#     4  10  19  35  57  83 120 158 191 235 295 353
#     4  11  22  35  56  86 116 153 201 246 289 343
#
# _framework density 22.083123000000001
#
# number of rings (size 3 to 8) (size 9 to 14) (size 15 to 20)
#    0.000    1.875    1.250    3.000    0.000    8.500 
#    0.000    3.125    0.000    4.125    0.000    0.000 
#    0.000    0.000    0.000    0.000    0.000    0.000 
#
# Total GULP energy -178796.713523 kJ/mol
# GULP energy per Si atom -5587.397298 kJ/mol
# Density = 2.203286 g / cm^3
# Si number density = 22.083123 Si / 1000 Ang^3
#
#
#
# Elastic Constant Matrix: (Units=GPa)
#
#
# Indices 1 2 3 4 5 6 
#
# 1 134.9132 -5.0757 40.6018 0.0007 5.3620 0.0005
# 2 -5.0757 18.8867 -6.7307 0.0016 4.5428 0.0006
# 3 40.6018 -6.7307 73.9930 0.0002 3.5790 -0.0001
# 4 0.0007 0.0016 0.0002 -18.0902 0.0001 -29.1732
# 5 5.3620 4.5428 3.5790 0.0001 33.3468 0.0000
# 6 0.0005 0.0006 -0.0001 -29.1732 0.0000 -1.1065
#
#
#
# Elastic Compliance Matrix: (Units=1/GPa)
#
#
# Indices 1 2 3 4 5 6 
#
# 1 0.008922 0.000956 -0.004758 0.000000 -0.001054 0.000000
# 2 0.000956 0.057050 0.005075 0.000001 -0.008470 0.000002
# 3 -0.004758 0.005075 0.016670 0.000000 -0.001715 0.000000
# 4 0.000000 0.000001 0.000000 0.001331 0.000000 -0.035104
# 5 -0.001054 -0.008470 -0.001715 0.000000 0.031495 0.000000
# 6 0.000000 0.000002 0.000000 -0.035104 0.000000 0.021768
#
#
# Mechanical properties :
#
#
# Convention : Reuss Voigt Hill
#
# Bulk Modulus (GPa) = 11.73882 31.70929 21.72405
# Shear Modulus (GPa) = 30.65854 16.09652 23.37753
#
# Velocity S-wave (km/s) = 3.73007 2.70275 3.25717
# Velocity P-wave (km/s) = 4.88656 4.91224 4.89942
#
# Compressibility (1/GPa) = 0.08518744
#
# Stress axis : x y z
#
# Youngs Moduli (GPa) = 112.08438 17.52849 59.98778
#
# Poissons Ratio (x) = -0.01675 0.28540
# Poissons Ratio (y) = -0.10713 -0.30442
# Poissons Ratio (z) = 0.53326 -0.08895
#
# Static dielectric constant tensor:
#      x y z
#    x 1.791580 0.000000 0.030830 
#    y 0.000000 1.825040 0.000000 
#    z 0.030830 0.000000 1.821950 
# 
# From -- ./inp_files/382431.got.cif
#   From: 2010.05.17/outbox.cif.g08.bks.cpg/sg12_192_cif.got.tgz:382431.got - 2010.06.03 13:09:07.
