data_PCOD9187808
_publ_section_title
;
Structure prediction by ZEFSAII (Michael W. Deem and Ramdas Pophale) SiO2 
 PCOD9187808
Probable space group: C 2/M
;
_chemical_formula_sum "Si O2"
_cell_formula_units_Z 40
_cell_length_a 13.533868
_cell_length_b 13.663303
_cell_length_c 12.301136
_cell_angle_alpha 90.000000
_cell_angle_beta 62.435639
_cell_angle_gamma 90.000000
_cell_volume 2016.496506
_symmetry_space_group_name_H-M "C 2/M"
_symmetry_group_IT_number 12
_symmetry_cell_setting 'monoclinic'
loop_
_space_group_symop_operation_xyz
x,y,z
-x,y,-z
-x,-y,-z
x,-y,z
1/2+x,1/2+y,z
1/2-x,1/2+y,-z
1/2-x,1/2-y,-z
1/2+x,1/2-y,z
loop_
_atom_site_type_symbol
_atom_site_label
_atom_site_fract_x
_atom_site_fract_y
_atom_site_fract_z
Si Si1 0.112872 0.888682 0.011480
Si Si2 0.922602 0.887433 0.712032
Si Si3 0.859990 0.221444 0.376875
Si Si4 0.733997 0.205915 0.224849
Si Si5 0.492081 0.111578 0.630385
O O1 0.196748 0.808469 0.920313
O O2 0.156661 0.000000 0.972283
O O3 0.086276 0.879134 0.152093
O O4 0.000000 0.880835 0.000000
O O5 0.829794 0.808937 0.721667
O O6 0.048914 0.853366 0.619095
O O7 0.902982 0.000000 0.690223
O O8 0.750000 0.250000 0.500000
O O9 0.816361 0.186001 0.283058
O O10 0.932030 0.320396 0.334096
O O11 0.635237 0.127207 0.273361
O O12 0.500000 0.144177 0.500000
O O13 0.527827 0.000000 0.617439
#
# Coordination Sequence:
#
# PCOD9187808 Si02
#       5
#     8   8   8   8   8
#     4  10  19  35  61  91 112 144 195 241 285 338
#     4  10  23  39  59  86 117 152 193 235 287 345
#     4  11  22  37  56  83 115 149 191 235 281 335
#     4  11  21  37  61  82 118 150 189 235 291 333
#     4  10  21  36  55  80 109 147 191 232 279 334
#
# _framework density 19.836383000000001
#
# number of rings (size 3 to 8) (size 9 to 14) (size 15 to 20)
#    0.000    1.600    4.000    1.200    0.000    2.400 
#    0.000    1.000    0.000    0.600    0.000    0.000 
#    0.000    0.000    0.000    0.000    0.000    0.000 
#
# Total GULP energy -111578.705415 kJ/mol
# GULP energy per Si atom -5578.935271 kJ/mol
# Density = 1.979123 g / cm^3
# Si number density = 19.836383 Si / 1000 Ang^3
#
#
#
# Elastic Constant Matrix: (Units=GPa)
#
#
# Indices 1 2 3 4 5 6 
#
# 1 71.7528 11.7645 -2.3063 0.0000 -16.7802 0.0000
# 2 11.7645 66.9659 -4.9279 0.0000 -19.1131 0.0000
# 3 -2.3063 -4.9279 45.6291 0.0000 -22.5173 0.0000
# 4 0.0000 0.0000 0.0000 24.8507 0.0000 -1.4658
# 5 -16.7802 -19.1131 -22.5173 0.0000 25.0846 0.0000
# 6 0.0000 0.0000 0.0000 -1.4658 0.0000 7.3865
#
#
#
# Elastic Compliance Matrix: (Units=1/GPa)
#
#
# Indices 1 2 3 4 5 6 
#
# 1 0.024486 0.011879 0.027055 0.000000 0.049717 0.000000
# 2 0.011879 0.035872 0.039288 0.000000 0.070547 0.000000
# 3 0.027055 0.039288 0.091973 0.000000 0.130594 0.000000
# 4 0.000000 0.000000 0.000000 0.040717 0.000000 0.008080
# 5 0.049717 0.070547 0.130594 0.000000 0.244104 0.000000
# 6 0.000000 0.000000 0.000000 0.008080 0.000000 0.136986
#
#
# Mechanical properties :
#
#
# Convention : Reuss Voigt Hill
#
# Bulk Modulus (GPa) = 3.23859 21.48982 12.36420
# Shear Modulus (GPa) = 9.60400 23.45217 16.52808
#
# Velocity S-wave (km/s) = 2.20275 3.44216 2.88969
# Velocity P-wave (km/s) = 2.84705 5.16285 4.16897
#
# Compressibility (1/GPa) = 0.30877675
#
# Stress axis : x y z
#
# Youngs Moduli (GPa) = 40.84036 27.87671 10.87280
#
# Poissons Ratio (x) = -0.33116 -0.29417
# Poissons Ratio (y) = -0.48516 -0.42717
# Poissons Ratio (z) = -1.10495 -1.09523
#
# Static dielectric constant tensor:
#      x y z
#    x 1.657590 0.000000 -0.038880 
#    y 0.000000 1.707230 0.000000 
#    z -0.038880 0.000000 1.699820 
# 
# From -- ./inp_files/129569.got.cif
#   From: 2010.05.17/outbox.cif.g08.bks.cpg/sg12_65_cif.got.tgz:129569.got - 2010.06.03 13:09:07.
