data_PCOD9187655
_publ_section_title
;
Structure prediction by ZEFSAII (Michael W. Deem and Ramdas Pophale) SiO2 
 PCOD9187655
Probable space group: C 2/M
;
_chemical_formula_sum "Si O2"
_cell_formula_units_Z 64
_cell_length_a 22.034588
_cell_length_b 9.401319
_cell_length_c 25.556956
_cell_angle_alpha 90.000000
_cell_angle_beta 41.993677
_cell_angle_gamma 90.000000
_cell_volume 3542.097483
_symmetry_space_group_name_H-M "C 2/M"
_symmetry_group_IT_number 12
_symmetry_cell_setting 'monoclinic'
loop_
_space_group_symop_operation_xyz
x,y,z
-x,y,-z
-x,-y,-z
x,-y,z
1/2+x,1/2+y,z
1/2-x,1/2+y,-z
1/2-x,1/2-y,-z
1/2+x,1/2-y,z
loop_
_atom_site_type_symbol
_atom_site_label
_atom_site_fract_x
_atom_site_fract_y
_atom_site_fract_z
Si Si1 0.981894 0.836263 0.374615
Si Si2 0.739411 0.170193 0.951078
Si Si3 0.445623 0.830742 0.194680
Si Si4 0.695000 0.164310 0.492583
Si Si5 0.448529 0.170591 0.980763
Si Si6 0.237836 0.834929 0.667666
Si Si7 0.910122 0.163130 0.591776
Si Si8 0.057226 0.831567 0.211838
O O1 0.903337 0.735571 0.446188
O O2 0.061847 0.832799 0.365654
O O3 0.015871 0.797450 0.295117
O O4 0.947916 0.000000 0.394547
O O5 0.834520 0.189677 0.860011
O O6 0.727769 0.000000 0.968539
O O7 0.750000 0.250000 0.000000
O O8 0.652447 0.219823 0.972513
O O9 0.488938 0.805520 0.109982
O O10 0.348175 0.757389 0.261103
O O11 0.509439 0.760353 0.197737
O O12 0.439425 0.000000 0.206846
O O13 0.750000 0.250000 0.500000
O O14 0.747006 0.173404 0.404412
O O15 0.686645 0.000000 0.512463
O O16 0.439019 0.000000 0.994510
O O17 0.500000 0.225899 0.000000
O O18 0.329228 0.769593 0.632680
O O19 0.225649 0.000000 0.689666
O O20 0.000000 0.195822 0.500000
O O21 0.883941 0.000000 0.594723
O O22 0.040149 0.000000 0.212974
#
# Coordination Sequence:
#
# PCOD9187655 Si02
#       8
#     8   8   8   8   8   8   8   8
#     4  10  21  37  57  84 115 146 188 238 290 342
#     4  10  19  35  60  87 116 155 197 238 291 352
#     4  11  22  37  60  88 117 152 197 247 293 346
#     4  11  23  37  55  79 109 149 192 235 285 341
#     4   9  19  36  60  90 121 155 198 246 294 351
#     4  11  24  39  57  82 116 156 194 234 292 355
#     4  10  20  37  61  85 110 147 195 243 284 339
#     4  10  21  36  58  87 120 155 190 241 301 355
#
# _framework density 18.068390999999998
#
# number of rings (size 3 to 8) (size 9 to 14) (size 15 to 20)
#    0.000    1.750    2.500    1.875    0.000    6.750 
#    0.000    3.750    0.000    4.875    0.000    0.000 
#    0.000    0.000    0.000    0.000    0.000    0.000 
#
# Total GULP energy -178615.576055 kJ/mol
# GULP energy per Si atom -5581.736752 kJ/mol
# Density = 1.802727 g / cm^3
# Si number density = 18.068391 Si / 1000 Ang^3
#
#
#
# Elastic Constant Matrix: (Units=GPa)
#
#
# Indices 1 2 3 4 5 6 
#
# 1 113.5801 46.8933 35.6787 0.0000 1.2822 -0.0001
# 2 46.8933 71.3114 45.3069 0.0002 -6.6730 -0.0005
# 3 35.6787 45.3069 62.1820 0.0000 -8.4978 0.0000
# 4 0.0000 0.0002 0.0000 22.4223 0.0000 1.5348
# 5 1.2822 -6.6730 -8.4978 0.0000 30.4892 0.0000
# 6 -0.0001 -0.0005 0.0000 1.5348 0.0000 27.3287
#
#
#
# Elastic Compliance Matrix: (Units=1/GPa)
#
#
# Indices 1 2 3 4 5 6 
#
# 1 0.012453 -0.006829 -0.002542 0.000000 -0.002727 0.000000
# 2 -0.006829 0.029860 -0.017575 0.000000 0.001924 0.000001
# 3 -0.002542 -0.017575 0.031016 0.000000 0.004905 0.000000
# 4 0.000000 0.000000 0.000000 0.044771 0.000000 -0.002514
# 5 -0.002727 0.001924 0.004905 0.000000 0.034701 0.000000
# 6 0.000000 0.000001 0.000000 -0.002514 0.000000 0.036733
#
#
# Mechanical properties :
#
#
# Convention : Reuss Voigt Hill
#
# Bulk Modulus (GPa) = 51.44937 55.87014 53.65976
# Shear Modulus (GPa) = 20.00751 23.99434 22.00092
#
# Velocity S-wave (km/s) = 3.33125 3.64809 3.49327
# Velocity P-wave (km/s) = 6.58278 6.98093 6.78477
#
# Compressibility (1/GPa) = 0.01943658
#
# Stress axis : x y z
#
# Youngs Moduli (GPa) = 80.30070 33.48982 32.24094
#
# Poissons Ratio (x) = 0.22870 0.08197
# Poissons Ratio (y) = 0.54837 0.56664
# Poissons Ratio (z) = 0.20415 0.58859
#
# Static dielectric constant tensor:
#      x y z
#    x 1.628120 0.000000 -0.007190 
#    y 0.000000 1.577370 0.000000 
#    z -0.007190 0.000000 1.612270 
# 
# From -- ./inp_files/346094.got.cif
#   From: 2010.05.17/outbox.cif.g08.bks.cpg/sg12_174_cif.got.tgz:346094.got - 2010.06.03 13:09:07.
