data_PCOD9187016
_publ_section_title
;
Structure prediction by ZEFSAII (Michael W. Deem and Ramdas Pophale) SiO2 
 PCOD9187016
Probable space group: C 2/M
;
_chemical_formula_sum "Si O2"
_cell_formula_units_Z 56
_cell_length_a 29.179687
_cell_length_b 7.754065
_cell_length_c 12.216656
_cell_angle_alpha 90.000000
_cell_angle_beta 111.998250
_cell_angle_gamma 90.000000
_cell_volume 2562.911625
_symmetry_space_group_name_H-M "C 2/M"
_symmetry_group_IT_number 12
_symmetry_cell_setting 'monoclinic'
loop_
_space_group_symop_operation_xyz
x,y,z
-x,y,-z
-x,-y,-z
x,-y,z
1/2+x,1/2+y,z
1/2-x,1/2+y,-z
1/2-x,1/2-y,-z
1/2+x,1/2-y,z
loop_
_atom_site_type_symbol
_atom_site_label
_atom_site_fract_x
_atom_site_fract_y
_atom_site_fract_z
Si Si1 0.152133 0.207985 0.569296
Si Si2 0.392200 0.198293 0.250358
Si Si3 0.500323 0.297560 0.375416
Si Si4 0.805707 0.801561 0.017730
Si Si5 0.759998 0.294238 0.634572
Si Si6 0.409327 0.711274 0.691338
Si Si7 0.145508 0.196605 0.154530
O O1 0.116725 0.284853 0.628218
O O2 0.208388 0.255567 0.645336
O O3 0.134237 0.259791 0.432743
O O4 0.148623 0.000000 0.571290
O O5 0.445573 0.279805 0.277245
O O6 0.344914 0.283148 0.150595
O O7 0.393441 0.000000 0.218590
O O8 0.500000 0.224681 0.500000
O O9 0.512729 0.500000 0.399171
O O10 0.541051 0.229559 0.326350
O O11 0.800092 0.000000 0.982048
O O12 0.750000 0.750000 0.000000
O O13 0.833726 0.717877 0.937967
O O14 0.767491 0.500000 0.653187
O O15 0.750000 0.250000 0.500000
O O16 0.805998 0.196392 0.725561
O O17 0.410007 0.500000 0.698438
O O18 0.396184 0.773711 0.801809
O O19 0.129429 0.000000 0.114577
#
# Coordination Sequence:
#
# PCOD9187016 Si02
#       7
#     8   8   8   8   8   8   8
#     4  10  19  35  57  82 116 156 197 242 293 355
#     4  12  25  39  59  88 124 159 201 251 300 359
#     4  10  19  36  63  90 118 157 201 245 302 362
#     4  11  24  43  67  90 119 158 206 253 299 357
#     4  11  21  32  52  82 118 155 190 235 291 357
#     4   9  17  34  59  86 116 149 190 242 297 355
#     4  10  21  39  60  85 116 153 199 251 299 351
#
# _framework density 21.850149999999999
#
# number of rings (size 3 to 8) (size 9 to 14) (size 15 to 20)
#    0.000    1.571    2.857    3.000    0.000    4.857 
#    0.000    1.429    0.000    4.286    0.000    0.000 
#    0.000    0.000    0.000    0.000    0.000    0.000 
#
# Total GULP energy -156234.682696 kJ/mol
# GULP energy per Si atom -5579.810096 kJ/mol
# Density = 2.180042 g / cm^3
# Si number density = 21.850150 Si / 1000 Ang^3
#
#
#
# Elastic Constant Matrix: (Units=GPa)
#
#
# Indices 1 2 3 4 5 6 
#
# 1 173.5989 7.2685 42.4354 0.0000 -23.1788 0.0000
# 2 7.2685 31.2024 -9.7709 0.0000 -9.2894 0.0000
# 3 42.4354 -9.7709 72.7548 0.0000 -21.6820 0.0000
# 4 0.0000 0.0000 0.0000 10.6129 0.0000 3.1974
# 5 -23.1788 -9.2894 -21.6820 0.0000 41.6112 0.0000
# 6 0.0000 0.0000 0.0000 3.1974 0.0000 19.5659
#
#
#
# Elastic Compliance Matrix: (Units=1/GPa)
#
#
# Indices 1 2 3 4 5 6 
#
# 1 0.007027 -0.002550 -0.004077 0.000000 0.001220 0.000000
# 2 -0.002550 0.039905 0.010747 0.000000 0.013088 0.000000
# 3 -0.004077 0.010747 0.020841 0.000000 0.010987 0.000000
# 4 0.000000 0.000000 0.000000 0.099104 0.000000 -0.016195
# 5 0.001220 0.013088 0.010987 0.000000 0.033358 0.000000
# 6 0.000000 0.000000 0.000000 -0.016195 0.000000 0.053756
#
#
# Mechanical properties :
#
#
# Convention : Reuss Voigt Hill
#
# Bulk Modulus (GPa) = 13.15601 39.71355 26.43478
# Shear Modulus (GPa) = 18.44411 30.19954 24.32182
#
# Velocity S-wave (km/s) = 2.90852 3.72172 3.33996
# Velocity P-wave (km/s) = 4.16094 6.05666 5.19599
#
# Compressibility (1/GPa) = 0.07601086
#
# Stress axis : x y z
#
# Youngs Moduli (GPa) = 142.31216 25.05966 47.98310
#
# Poissons Ratio (x) = 0.06391 0.19564
# Poissons Ratio (y) = 0.36295 -0.51568
# Poissons Ratio (z) = 0.58026 -0.26932
#
# Static dielectric constant tensor:
#      x y z
#    x 1.850660 0.000000 -0.056800 
#    y 0.000000 1.812420 0.000000 
#    z -0.056800 0.000000 1.802490 
# 
# From -- ./inp_files/181034.got.cif
#   From: 2010.05.17/outbox.cif.g08.bks.cpg/sg12_91_cif.got.tgz:181034.got - 2010.06.03 13:09:07.
