data_PCOD9187686
_publ_section_title
;
Structure prediction by ZEFSAII (Michael W. Deem and Ramdas Pophale) SiO2 
 PCOD9187686
Probable space group: C 2/M
;
_chemical_formula_sum "Si O2"
_cell_formula_units_Z 56
_cell_length_a 16.570036
_cell_length_b 17.439923
_cell_length_c 11.916311
_cell_angle_alpha 90.000000
_cell_angle_beta 123.200258
_cell_angle_gamma 90.000000
_cell_volume 2881.454158
_symmetry_space_group_name_H-M "C 2/M"
_symmetry_group_IT_number 12
_symmetry_cell_setting 'monoclinic'
loop_
_space_group_symop_operation_xyz
x,y,z
-x,y,-z
-x,-y,-z
x,-y,z
1/2+x,1/2+y,z
1/2-x,1/2+y,-z
1/2-x,1/2-y,-z
1/2+x,1/2-y,z
loop_
_atom_site_type_symbol
_atom_site_label
_atom_site_fract_x
_atom_site_fract_y
_atom_site_fract_z
Si Si1 0.897288 0.590841 0.042378
Si Si2 0.536646 0.413778 0.289049
Si Si3 0.892018 0.347879 0.785869
Si Si4 0.278172 0.186035 0.113248
Si Si5 0.200835 0.913967 0.601176
Si Si6 0.582022 0.296471 0.656100
Si Si7 0.098231 0.817332 0.138218
O O1 0.904777 0.500000 0.033357
O O2 0.818092 0.615042 0.072519
O O3 0.000409 0.625015 0.159259
O O4 0.876597 0.628740 0.905261
O O5 0.495389 0.500000 0.261205
O O6 0.628575 0.412955 0.441680
O O7 0.465394 0.348741 0.282538
O O8 0.572713 0.389725 0.194597
O O9 0.809632 0.391380 0.655004
O O10 0.879122 0.256743 0.767683
O O11 0.363342 0.223451 0.252684
O O12 0.185624 0.169858 0.119577
O O13 0.250000 0.250000 0.000000
O O14 0.159976 0.851457 0.655866
O O15 0.198469 0.000000 0.647762
O O16 0.500000 0.279275 0.500000
O O17 0.000000 0.794888 0.000000
#
# Coordination Sequence:
#
# PCOD9187686 Si02
#       7
#     8   8   8   8   8   8   8
#     4  11  22  36  59  89 117 149 192 248 300 345
#     4  10  23  39  58  88 124 157 194 241 296 356
#     4  11  19  37  60  88 114 149 197 250 292 343
#     4  12  22  41  61  86 118 156 199 244 293 354
#     4  10  19  35  60  89 121 154 195 247 295 345
#     4  10  20  38  61  90 119 156 201 243 293 350
#     4  12  23  40  63  85 118 158 197 245 291 350
#
# _framework density 19.434632000000001
#
# number of rings (size 3 to 8) (size 9 to 14) (size 15 to 20)
#    0.000    1.143    4.286    3.857    0.000    3.143 
#    2.571    3.571    0.000    0.429    0.000    0.000 
#    0.000    0.000    0.000    0.000    0.000    0.000 
#
# Total GULP energy -156458.806102 kJ/mol
# GULP energy per Si atom -5587.814504 kJ/mol
# Density = 1.939040 g / cm^3
# Si number density = 19.434632 Si / 1000 Ang^3
#
#
#
# Elastic Constant Matrix: (Units=GPa)
#
#
# Indices 1 2 3 4 5 6 
#
# 1 94.2093 7.3415 16.2455 0.0000 1.9652 0.0000
# 2 7.3415 38.4179 -2.6392 0.0000 -3.4201 0.0000
# 3 16.2455 -2.6392 19.8718 0.0000 5.0563 0.0000
# 4 0.0000 0.0000 0.0000 20.6989 0.0000 -8.3259
# 5 1.9652 -3.4201 5.0563 0.0000 27.9606 0.0000
# 6 0.0000 0.0000 0.0000 -8.3259 0.0000 14.6454
#
#
#
# Elastic Compliance Matrix: (Units=1/GPa)
#
#
# Indices 1 2 3 4 5 6 
#
# 1 0.012743 -0.003128 -0.011015 0.000000 0.000714 0.000000
# 2 -0.003128 0.027234 0.005525 0.000000 0.002552 0.000000
# 3 -0.011015 0.005525 0.062571 0.000000 -0.009865 0.000000
# 4 0.000000 0.000000 0.000000 0.062634 0.000000 0.035608
# 5 0.000714 0.002552 -0.009865 0.000000 0.037811 0.000000
# 6 0.000000 0.000000 0.000000 0.035608 0.000000 0.088524
#
#
# Mechanical properties :
#
#
# Convention : Reuss Voigt Hill
#
# Bulk Modulus (GPa) = 11.72162 21.59941 16.66051
# Shear Modulus (GPa) = 14.82844 21.43104 18.12974
#
# Velocity S-wave (km/s) = 2.76523 3.32433 3.05759
# Velocity P-wave (km/s) = 4.02985 5.08654 4.58871
#
# Compressibility (1/GPa) = 0.08531247
#
# Stress axis : x y z
#
# Youngs Moduli (GPa) = 78.47506 36.71868 15.98185
#
# Poissons Ratio (x) = 0.11487 0.17603
# Poissons Ratio (y) = 0.24549 -0.08830
# Poissons Ratio (z) = 0.86437 -0.20287
#
# Static dielectric constant tensor:
#      x y z
#    x 1.687700 0.000000 0.012240 
#    y 0.000000 1.687050 0.000000 
#    z 0.012240 0.000000 1.690700 
# 
# From -- ./inp_files/146248.got.cif
#   From: 2010.05.17/outbox.cif.g08.bks.cpg/sg12_74_cif.got.tgz:146248.got - 2010.06.03 13:09:07.
