data_PCOD9187603
_publ_section_title
;
Structure prediction by ZEFSAII (Michael W. Deem and Ramdas Pophale) SiO2 
 PCOD9187603
Probable space group: C 2/M
;
_chemical_formula_sum "Si O2"
_cell_formula_units_Z 52
_cell_length_a 20.339298
_cell_length_b 22.796860
_cell_length_c 11.361367
_cell_angle_alpha 90.000000
_cell_angle_beta 149.652561
_cell_angle_gamma 90.000000
_cell_volume 2661.590855
_symmetry_space_group_name_H-M "C 2/M"
_symmetry_group_IT_number 12
_symmetry_cell_setting 'monoclinic'
loop_
_space_group_symop_operation_xyz
x,y,z
-x,y,-z
-x,-y,-z
x,-y,z
1/2+x,1/2+y,z
1/2-x,1/2+y,-z
1/2-x,1/2-y,-z
1/2+x,1/2-y,z
loop_
_atom_site_type_symbol
_atom_site_label
_atom_site_fract_x
_atom_site_fract_y
_atom_site_fract_z
Si Si1 0.403112 0.434101 0.740659
Si Si2 0.500000 0.651702 0.500000
Si Si3 0.318941 0.842316 0.551064
Si Si4 0.621914 0.123964 0.608652
Si Si5 0.379178 0.431835 0.119045
Si Si6 0.786603 0.245630 0.193204
Si Si7 0.631547 0.242859 0.170927
O O1 0.347798 0.500000 0.656541
O O2 0.290766 0.387241 0.577291
O O3 0.495293 0.427586 0.770875
O O4 0.500000 0.428650 0.000000
O O5 0.583782 0.611016 0.716911
O O6 0.392185 0.695731 0.387419
O O7 0.394870 0.873627 0.559864
O O8 0.377423 0.814172 0.759686
O O9 0.250410 0.784656 0.390090
O O10 0.500000 0.104056 0.500000
O O11 0.651153 0.191320 0.685696
O O12 0.751723 0.088935 0.849447
O O13 0.362717 0.500000 0.128968
O O14 0.658749 0.233496 0.075422
O O15 0.750000 0.250000 0.000000
O O16 0.500000 0.276935 0.000000
#
# Coordination Sequence:
#
# PCOD9187603 Si02
#       7
#     8   4   8   8   8   8   8
#     4  10  19  35  60  85 110 144 197 251 296 341
#     4  12  23  40  66  86 127 162 208 254 306 378
#     4  10  21  37  57  86 118 153 198 246 306 356
#     4  11  23  38  59  87 124 161 205 251 302 380
#     4  11  24  40  61  91 122 162 208 260 310 359
#     4  11  23  37  59  89 120 163 203 246 313 367
#     4  10  23  35  57  86 123 156 192 248 302 367
#
# _framework density 19.537186999999999
#
# number of rings (size 3 to 8) (size 9 to 14) (size 15 to 20)
#    0.000    1.385    3.846    1.615    4.308    1.538 
#    0.000    0.000    0.000    0.462    0.000    0.000 
#    0.000    0.000    0.000    0.000    0.000    0.000 
#
# Total GULP energy -144936.390002 kJ/mol
# GULP energy per Si atom -5574.476539 kJ/mol
# Density = 1.949272 g / cm^3
# Si number density = 19.537187 Si / 1000 Ang^3
#
#
#
# Elastic Constant Matrix: (Units=GPa)
#
#
# Indices 1 2 3 4 5 6 
#
# 1 107.4077 12.3072 34.1770 0.0000 6.8720 0.0000
# 2 12.3072 90.5730 16.9269 0.0000 -0.7781 0.0000
# 3 34.1770 16.9269 44.8874 0.0000 -4.1613 0.0000
# 4 0.0000 0.0000 0.0000 -225.5327 0.0000 329.8849
# 5 6.8720 -0.7781 -4.1613 0.0000 23.6788 0.0000
# 6 0.0000 0.0000 0.0000 329.8849 0.0000 -391.5779
#
#
#
# Elastic Compliance Matrix: (Units=1/GPa)
#
#
# Indices 1 2 3 4 5 6 
#
# 1 0.012979 0.000142 -0.010455 0.000000 -0.005599 0.000000
# 2 0.000142 0.011883 -0.004632 0.000000 -0.000465 0.000000
# 3 -0.010455 -0.004632 0.032786 0.000000 0.008644 0.000000
# 4 0.000000 0.000000 0.000000 0.019092 0.000000 0.016084
# 5 -0.005599 -0.000465 0.008644 0.000000 0.045361 0.000000
# 6 0.000000 0.000000 0.000000 0.016084 0.000000 0.010996
#
#
# Mechanical properties :
#
#
# Convention : Reuss Voigt Hill
#
# Bulk Modulus (GPa) = 36.02514 41.07670 38.55092
# Shear Modulus (GPa) = 29.02926 -106.72254 -38.84664
#
# Velocity S-wave (km/s) = 3.85885 -7.39891 -4.46392
# Velocity P-wave (km/s) = 6.19141 7.20565 2.60651
#
# Compressibility (1/GPa) = 0.02775839
#
# Stress axis : x y z
#
# Youngs Moduli (GPa) = 77.04756 84.15206 30.50041
#
# Poissons Ratio (x) = -0.01196 0.31888
# Poissons Ratio (y) = -0.01095 0.14129
# Poissons Ratio (z) = 0.80552 0.38983
#
# Static dielectric constant tensor:
#      x y z
#    x 1.794890 0.000000 0.012350 
#    y 0.000000 1.672780 0.000000 
#    z 0.012350 0.000000 1.759810 
# 
# From -- ./inp_files/169888.got.cif
#   From: 2010.05.17/outbox.cif.g08.bks.cpg/sg12_85_cif.got.tgz:169888.got - 2010.06.03 13:09:07.
