data_PCOD9187560
_publ_section_title
;
Structure prediction by ZEFSAII (Michael W. Deem and Ramdas Pophale) SiO2 
 PCOD9187560
Probable space group: C 2/M
;
_chemical_formula_sum "Si O2"
_cell_formula_units_Z 56
_cell_length_a 26.325675
_cell_length_b 13.655187
_cell_length_c 7.156493
_cell_angle_alpha 90.000000
_cell_angle_beta 74.967227
_cell_angle_gamma 90.000000
_cell_volume 2484.588997
_symmetry_space_group_name_H-M "C 2/M"
_symmetry_group_IT_number 12
_symmetry_cell_setting 'monoclinic'
loop_
_space_group_symop_operation_xyz
x,y,z
-x,y,-z
-x,-y,-z
x,-y,z
1/2+x,1/2+y,z
1/2-x,1/2+y,-z
1/2-x,1/2-y,-z
1/2+x,1/2-y,z
loop_
_atom_site_type_symbol
_atom_site_label
_atom_site_fract_x
_atom_site_fract_y
_atom_site_fract_z
Si Si1 0.859924 0.611683 0.821678
Si Si2 0.946752 0.106977 0.933481
Si Si3 0.202657 0.887789 0.142417
Si Si4 0.374372 0.210133 0.411780
Si Si5 0.707298 0.758467 0.822959
Si Si6 0.085585 0.108216 0.430113
Si Si7 0.938292 0.674960 0.024593
O O1 0.842995 0.500000 0.833332
O O2 0.860214 0.656906 0.616456
O O3 0.824307 0.673937 0.997347
O O4 0.917590 0.620941 0.861149
O O5 0.921581 0.210270 0.012534
O O6 0.919890 0.000000 0.986087
O O7 0.955332 0.115867 0.701733
O O8 0.000000 0.103202 0.000000
O O9 0.209072 0.845752 0.926234
O O10 0.220334 0.000000 0.141004
O O11 0.237037 0.813855 0.235257
O O12 0.142184 0.885658 0.268230
O O13 0.323591 0.242243 0.341076
O O14 0.411287 0.302589 0.431643
O O15 0.407365 0.142219 0.238648
O O16 0.080941 0.000000 0.521061
O O17 0.000000 0.669204 0.000000
#
# Coordination Sequence:
#
# PCOD9187560 Si02
#       7
#     8   8   8   8   8   8   8
#     4  11  23  42  62  86 119 156 205 253 305 364
#     4   9  17  34  60  87 121 162 198 238 294 359
#     4  10  20  38  63  91 126 163 202 251 299 351
#     4  11  22  39  62  88 119 159 199 245 309 358
#     4  10  22  40  64  88 124 163 203 245 299 364
#     4  10  19  35  59  90 127 160 204 253 297 356
#     4  10  22  40  62  87 120 157 201 253 305 363
#
# _framework density 22.538938999999999
#
# number of rings (size 3 to 8) (size 9 to 14) (size 15 to 20)
#    0.000    1.857    2.857    1.286    0.000    5.429 
#    0.000    0.714    0.000    4.286    0.000    0.000 
#    0.000    0.000    0.000    0.000    0.000    0.000 
#
# Total GULP energy -156442.132343 kJ/mol
# GULP energy per Si atom -5587.219012 kJ/mol
# Density = 2.248764 g / cm^3
# Si number density = 22.538939 Si / 1000 Ang^3
#
#
#
# Elastic Constant Matrix: (Units=GPa)
#
#
# Indices 1 2 3 4 5 6 
#
# 1 71.8446 -11.9288 27.4031 0.0000 24.0748 0.0000
# 2 -11.9288 72.4604 17.5310 0.0000 -1.5053 0.0000
# 3 27.4031 17.5310 133.6181 0.0000 23.2617 0.0000
# 4 0.0000 0.0000 0.0000 -6.3326 0.0000 4.7764
# 5 24.0748 -1.5053 23.2617 0.0000 36.9059 0.0000
# 6 0.0000 0.0000 0.0000 4.7764 0.0000 27.3506
#
#
#
# Elastic Compliance Matrix: (Units=1/GPa)
#
#
# Indices 1 2 3 4 5 6 
#
# 1 0.019044 0.003519 -0.002504 0.000000 -0.010701 0.000000
# 2 0.003519 0.015033 -0.002697 0.000000 0.000018 0.000000
# 3 -0.002504 -0.002697 0.009083 0.000000 -0.004201 0.000000
# 4 0.000000 0.000000 0.000000 -0.139534 0.000000 0.024368
# 5 -0.010701 0.000018 -0.004201 0.000000 0.036725 0.000000
# 6 0.000000 0.000000 0.000000 0.024368 0.000000 0.032307
#
#
# Mechanical properties :
#
#
# Convention : Reuss Voigt Hill
#
# Bulk Modulus (GPa) = 25.12905 38.21487 31.67196
# Shear Modulus (GPa) = -466.78877 27.91264 -219.43807
#
# Velocity S-wave (km/s) = -14.40670 3.52294 -9.87780
# Velocity P-wave (km/s) = 16.29613 5.79137 10.77088
#
# Compressibility (1/GPa) = 0.03979457
#
# Stress axis : x y z
#
# Youngs Moduli (GPa) = 52.50914 66.52115 110.09708
#
# Poissons Ratio (x) = -0.23407 0.27573
# Poissons Ratio (y) = -0.18477 0.29694
# Poissons Ratio (z) = 0.13150 0.17941
#
# Static dielectric constant tensor:
#      x y z
#    x 1.907920 0.000000 -0.016140 
#    y 0.000000 1.841760 0.000000 
#    z -0.016140 0.000000 1.843430 
# 
# From -- ./inp_files/31504.got.cif
#   From: 2010.05.17/outbox.cif.g08.bks.cpg/sg12_16_cif.got.tgz:31504.got - 2010.06.03 13:09:07.
