data_PCOD9187374
_publ_section_title
;
Structure prediction by ZEFSAII (Michael W. Deem and Ramdas Pophale) SiO2 
 PCOD9187374
Probable space group: C 2/M
;
_chemical_formula_sum "Si O2"
_cell_formula_units_Z 56
_cell_length_a 16.641533
_cell_length_b 15.124724
_cell_length_c 17.374261
_cell_angle_alpha 90.000000
_cell_angle_beta 45.017423
_cell_angle_gamma 90.000000
_cell_volume 3093.172612
_symmetry_space_group_name_H-M "C 2/M"
_symmetry_group_IT_number 12
_symmetry_cell_setting 'monoclinic'
loop_
_space_group_symop_operation_xyz
x,y,z
-x,y,-z
-x,-y,-z
x,-y,z
1/2+x,1/2+y,z
1/2-x,1/2+y,-z
1/2-x,1/2-y,-z
1/2+x,1/2-y,z
loop_
_atom_site_type_symbol
_atom_site_label
_atom_site_fract_x
_atom_site_fract_y
_atom_site_fract_z
Si Si1 0.396036 0.399669 0.301888
Si Si2 0.534696 0.745826 0.304854
Si Si3 0.361411 0.189186 0.920060
Si Si4 0.233992 0.188087 0.281326
Si Si5 0.186267 0.290023 0.469194
Si Si6 0.655316 0.000000 0.818175
Si Si7 0.043939 0.802626 0.888527
Si Si8 0.612404 0.000000 0.030074
O O1 0.416342 0.500000 0.309640
O O2 0.465348 0.332687 0.309472
O O3 0.262525 0.374724 0.396562
O O4 0.437558 0.377621 0.187661
O O5 0.588700 0.803730 0.199901
O O6 0.631032 0.703647 0.292759
O O7 0.443976 0.799579 0.417660
O O8 0.454056 0.232985 0.914142
O O9 0.343175 0.089053 0.959694
O O10 0.250000 0.250000 0.000000
O O11 0.198418 0.222764 0.389677
O O12 0.279108 0.088143 0.251860
O O13 0.338687 0.249261 0.183122
O O14 0.250000 0.250000 0.500000
O O15 0.525823 0.000000 0.874454
O O16 0.646441 0.000000 0.917173
O O17 0.000000 0.834840 0.000000
#
# Coordination Sequence:
#
# PCOD9187374 Si02
#       8
#     8   8   8   8   8   4   8   4
#     4   9  20  37  57  85 115 152 198 242 290 348
#     4  10  21  38  61  85 120 156 194 240 299 353
#     4  11  22  39  59  87 122 160 197 242 295 353
#     4  11  21  37  62  87 122 153 193 242 301 358
#     4   9  20  40  59  81 114 158 197 236 295 349
#     4  11  22  34  59  96 123 150 190 245 304 359
#     4  10  19  35  59  82 113 160 195 237 294 346
#     4  11  22  38  60  90 127 155 200 242 296 365
#
# _framework density 18.104389000000001
#
# number of rings (size 3 to 8) (size 9 to 14) (size 15 to 20)
#    0.000    1.857    1.429    3.857    1.000    0.286 
#   11.571    0.714   12.571    3.429    0.000    0.000 
#    0.000    0.000    0.000    0.000    0.000    0.000 
#
# Total GULP energy -156284.472433 kJ/mol
# GULP energy per Si atom -5581.588301 kJ/mol
# Density = 1.806318 g / cm^3
# Si number density = 18.104389 Si / 1000 Ang^3
#
#
#
# Elastic Constant Matrix: (Units=GPa)
#
#
# Indices 1 2 3 4 5 6 
#
# 1 92.6197 26.5219 47.1312 0.0000 -3.5902 0.0000
# 2 26.5219 87.5324 27.9306 0.0000 2.6834 0.0000
# 3 47.1312 27.9306 125.7054 0.0000 5.5242 0.0000
# 4 0.0000 0.0000 0.0000 8.3258 0.0000 -3.4153
# 5 -3.5902 2.6834 5.5242 0.0000 34.2941 0.0000
# 6 0.0000 0.0000 0.0000 -3.4153 0.0000 18.3403
#
#
#
# Elastic Compliance Matrix: (Units=1/GPa)
#
#
# Indices 1 2 3 4 5 6 
#
# 1 0.014136 -0.002834 -0.004779 0.000000 0.002471 0.000000
# 2 -0.002834 0.012874 -0.001753 0.000000 -0.001022 0.000000
# 3 -0.004779 -0.001753 0.010225 0.000000 -0.002010 0.000000
# 4 0.000000 0.000000 0.000000 0.130042 0.000000 0.024216
# 5 0.002471 -0.001022 -0.002010 0.000000 0.029822 0.000000
# 6 0.000000 0.000000 0.000000 0.024216 0.000000 0.059034
#
#
# Mechanical properties :
#
#
# Convention : Reuss Voigt Hill
#
# Bulk Modulus (GPa) = 54.04653 56.55832 55.30242
# Shear Modulus (GPa) = 17.79155 25.81030 21.80092
#
# Velocity S-wave (km/s) = 3.13824 3.77986 3.47389
# Velocity P-wave (km/s) = 6.56117 7.09632 6.83398
#
# Compressibility (1/GPa) = 0.01850258
#
# Stress axis : x y z
#
# Youngs Moduli (GPa) = 70.74114 77.67774 97.80199
#
# Poissons Ratio (x) = 0.22014 0.46740
# Poissons Ratio (y) = 0.20048 0.17144
# Poissons Ratio (z) = 0.33807 0.13617
#
# Static dielectric constant tensor:
#      x y z
#    x 1.617000 0.000000 -0.011710 
#    y 0.000000 1.592090 0.000000 
#    z -0.011710 0.000000 1.647190 
# 
# From -- ./inp_files/277860.got.cif
#   From: 2010.05.17/outbox.cif.g08.bks.cpg/sg12_139_cif.got.tgz:277860.got - 2010.06.03 13:09:07.
