data_PCOD9187184
_publ_section_title
;
Structure prediction by ZEFSAII (Michael W. Deem and Ramdas Pophale) SiO2 
 PCOD9187184
Probable space group: C 2/M
;
_chemical_formula_sum "Si O2"
_cell_formula_units_Z 56
_cell_length_a 32.078289
_cell_length_b 8.007700
_cell_length_c 18.815096
_cell_angle_alpha 90.000000
_cell_angle_beta 144.802730
_cell_angle_gamma 90.000000
_cell_volume 2785.764587
_symmetry_space_group_name_H-M "C 2/M"
_symmetry_group_IT_number 12
_symmetry_cell_setting 'monoclinic'
loop_
_space_group_symop_operation_xyz
x,y,z
-x,y,-z
-x,-y,-z
x,-y,z
1/2+x,1/2+y,z
1/2-x,1/2+y,-z
1/2-x,1/2-y,-z
1/2+x,1/2-y,z
loop_
_atom_site_type_symbol
_atom_site_label
_atom_site_fract_x
_atom_site_fract_y
_atom_site_fract_z
Si Si1 0.368157 0.694485 0.190272
Si Si2 0.017067 0.305918 0.445923
Si Si3 0.665716 0.301314 0.390502
Si Si4 0.726787 0.197362 0.070657
Si Si5 0.357720 0.798188 0.482945
Si Si6 0.792946 0.201997 0.796389
Si Si7 0.419442 0.704386 0.867496
O O1 0.384276 0.500000 0.225442
O O2 0.442064 0.793578 0.299238
O O3 0.308168 0.753692 0.163867
O O4 0.328710 0.715083 0.059951
O O5 0.036697 0.500000 0.485677
O O6 0.000000 0.230542 0.500000
O O7 0.080838 0.234023 0.485718
O O8 0.665302 0.500000 0.384684
O O9 0.750000 0.250000 0.500000
O O10 0.635797 0.252410 0.426047
O O11 0.615158 0.237692 0.255539
O O12 0.709044 0.231432 0.126896
O O13 0.724117 0.000000 0.051422
O O14 0.279328 0.743827 0.345449
O O15 0.359781 0.000000 0.484497
O O16 0.863107 0.253678 0.850196
O O17 0.792120 0.000000 0.798173
O O18 0.421114 0.500000 0.867621
O O19 0.500000 0.760549 0.000000
#
# Coordination Sequence:
#
# PCOD9187184 Si02
#       7
#     8   8   8   8   8   8   8
#     4  10  21  37  56  79 111 150 191 236 286 345
#     4  10  21  37  58  83 117 155 191 238 291 347
#     4  11  21  37  61  86 116 154 198 247 297 355
#     4  10  21  36  56  82 111 145 189 238 288 345
#     4  10  21  37  58  87 117 151 196 240 291 352
#     4  10  19  35  58  82 111 148 190 234 285 350
#     4   9  19  36  58  84 113 147 189 238 290 346
#
# _framework density 20.102202999999999
#
# number of rings (size 3 to 8) (size 9 to 14) (size 15 to 20)
#    0.000    2.000    1.429    2.143    0.000    5.429 
#    0.000    1.429    0.000    3.000    0.000    0.000 
#    0.000    0.000    0.000    0.000    0.000    0.000 
#
# Total GULP energy -156350.970775 kJ/mol
# GULP energy per Si atom -5583.963242 kJ/mol
# Density = 2.005645 g / cm^3
# Si number density = 20.102203 Si / 1000 Ang^3
#
#
#
# Elastic Constant Matrix: (Units=GPa)
#
#
# Indices 1 2 3 4 5 6 
#
# 1 180.9227 11.8775 93.4835 0.0000 -3.5357 0.0000
# 2 11.8775 20.5314 6.7613 0.0000 2.5532 0.0000
# 3 93.4835 6.7613 125.9056 0.0000 14.9812 0.0000
# 4 0.0000 0.0000 0.0000 19.0883 0.0000 -8.5542
# 5 -3.5357 2.5532 14.9812 0.0000 32.5523 0.0000
# 6 0.0000 0.0000 0.0000 -8.5542 0.0000 17.7542
#
#
#
# Elastic Compliance Matrix: (Units=1/GPa)
#
#
# Indices 1 2 3 4 5 6 
#
# 1 0.009844 -0.003772 -0.007690 0.000000 0.004904 0.000000
# 2 -0.003772 0.051274 0.000608 0.000000 -0.004711 0.000000
# 3 -0.007690 0.000608 0.014520 0.000000 -0.007565 0.000000
# 4 0.000000 0.000000 0.000000 0.066815 0.000000 0.032192
# 5 0.004904 -0.004711 -0.007565 0.000000 0.035104 0.000000
# 6 0.000000 0.000000 0.000000 0.032192 0.000000 0.071835
#
#
# Mechanical properties :
#
#
# Convention : Reuss Voigt Hill
#
# Bulk Modulus (GPa) = 18.54298 61.28938 39.91618
# Shear Modulus (GPa) = 17.29643 28.22814 22.76229
#
# Velocity S-wave (km/s) = 2.93648 3.75137 3.36866
# Velocity P-wave (km/s) = 4.55430 7.02274 5.91863
#
# Compressibility (1/GPa) = 0.05392877
#
# Stress axis : x y z
#
# Youngs Moduli (GPa) = 101.58155 19.50317 68.87089
#
# Poissons Ratio (x) = 0.07357 0.52964
# Poissons Ratio (y) = 0.38320 -0.04187
# Poissons Ratio (z) = 0.78119 -0.01186
#
# Static dielectric constant tensor:
#      x y z
#    x 1.706560 0.000000 0.001090 
#    y 0.000000 1.729500 0.000000 
#    z 0.001090 0.000000 1.689970 
# 
# From -- ./inp_files/281024.got.cif
#   From: 2010.05.17/outbox.cif.g08.bks.cpg/sg12_141_cif.got.tgz:281024.got - 2010.06.03 13:09:07.
