data_PCOD9187939
_publ_section_title
;
Structure prediction by ZEFSAII (Michael W. Deem and Ramdas Pophale) SiO2 
 PCOD9187939
Probable space group: C 2/M
;
_chemical_formula_sum "Si O2"
_cell_formula_units_Z 48
_cell_length_a 13.489723
_cell_length_b 13.528458
_cell_length_c 12.706187
_cell_angle_alpha 90.000000
_cell_angle_beta 85.528193
_cell_angle_gamma 90.000000
_cell_volume 2311.758617
_symmetry_space_group_name_H-M "C 2/M"
_symmetry_group_IT_number 12
_symmetry_cell_setting 'monoclinic'
loop_
_space_group_symop_operation_xyz
x,y,z
-x,y,-z
-x,-y,-z
x,-y,z
1/2+x,1/2+y,z
1/2-x,1/2+y,-z
1/2-x,1/2-y,-z
1/2+x,1/2-y,z
loop_
_atom_site_type_symbol
_atom_site_label
_atom_site_fract_x
_atom_site_fract_y
_atom_site_fract_z
Si Si1 0.914479 0.298248 0.316086
Si Si2 0.115317 0.386405 0.250084
Si Si3 0.751398 0.617405 0.188632
Si Si4 0.886861 0.379785 0.981212
Si Si5 0.953051 0.115329 0.687375
Si Si6 0.855996 0.737425 0.544935
O O1 0.810141 0.323035 0.273312
O O2 0.914607 0.309329 0.441686
O O3 0.995771 0.371992 0.260624
O O4 0.955197 0.187242 0.293590
O O5 0.143345 0.500000 0.256547
O O6 0.146158 0.347400 0.132831
O O7 0.149240 0.329607 0.351011
O O8 0.770715 0.500000 0.202301
O O9 0.633730 0.628118 0.217620
O O10 0.804994 0.646058 0.075417
O O11 0.891931 0.500000 0.976615
O O12 0.000000 0.346051 0.000000
O O13 0.904382 0.161063 0.584698
O O14 0.977092 0.000000 0.675382
O O15 0.750000 0.750000 0.500000
#
# Coordination Sequence:
#
# PCOD9187939 Si02
#       6
#     8   8   8   8   8   8
#     4  11  21  36  59  83 122 149 192 246 292 349
#     4  10  20  34  57  89 117 148 186 237 301 347
#     4  10  19  35  63  90 116 152 193 241 297 352
#     4   9  16  30  55  87 119 147 187 238 292 356
#     4  10  22  39  59  83 113 158 202 236 290 354
#     4  11  23  38  55  82 120 154 196 246 286 350
#
# _framework density 20.763413
#
# number of rings (size 3 to 8) (size 9 to 14) (size 15 to 20)
#    0.000    1.833    3.333    2.500    0.000    4.000 
#    0.000    3.333    3.667    0.000    0.000    9.333 
#    0.000    0.000    0.000    0.000    0.000    0.000 
#
# Total GULP energy -133904.594749 kJ/mol
# GULP energy per Si atom -5579.358115 kJ/mol
# Density = 2.071615 g / cm^3
# Si number density = 20.763413 Si / 1000 Ang^3
#
#
#
# Elastic Constant Matrix: (Units=GPa)
#
#
# Indices 1 2 3 4 5 6 
#
# 1 39.8843 12.2984 24.5906 0.0000 -4.9373 0.0000
# 2 12.2984 98.2295 42.1923 0.0000 9.0591 0.0000
# 3 24.5906 42.1923 158.6302 0.0000 -25.3892 0.0000
# 4 0.0000 0.0000 0.0000 22.9815 0.0000 -7.1226
# 5 -4.9373 9.0591 -25.3892 0.0000 27.1429 0.0000
# 6 0.0000 0.0000 0.0000 -7.1226 0.0000 20.3053
#
#
#
# Elastic Compliance Matrix: (Units=1/GPa)
#
#
# Indices 1 2 3 4 5 6 
#
# 1 0.028182 -0.002384 -0.003277 0.000000 0.002856 0.000000
# 2 -0.002384 0.013330 -0.004654 0.000000 -0.009236 0.000000
# 3 -0.003277 -0.004654 0.009647 0.000000 0.009981 0.000000
# 4 0.000000 0.000000 0.000000 0.048821 0.000000 0.017125
# 5 0.002856 -0.009236 0.009981 0.000000 0.049780 0.000000
# 6 0.000000 0.000000 0.000000 0.017125 0.000000 0.055255
#
#
# Mechanical properties :
#
#
# Convention : Reuss Voigt Hill
#
# Bulk Modulus (GPa) = 32.75701 50.54519 41.65110
# Shear Modulus (GPa) = 21.20241 28.59681 24.89961
#
# Velocity S-wave (km/s) = 3.19900 3.71518 3.46671
# Velocity P-wave (km/s) = 5.42728 6.54215 6.01062
#
# Compressibility (1/GPa) = 0.03052781
#
# Stress axis : x y z
#
# Youngs Moduli (GPa) = 35.48374 75.02155 103.65460
#
# Poissons Ratio (x) = 0.17886 0.33972
# Poissons Ratio (y) = 0.08460 0.48241
# Poissons Ratio (z) = 0.11630 0.34915
#
# Static dielectric constant tensor:
#      x y z
#    x 1.817820 0.000000 -0.040980 
#    y 0.000000 1.754070 0.000000 
#    z -0.040980 0.000000 1.767940 
# 
# From -- ./inp_files/143094.got.cif
#   From: 2010.05.17/outbox.cif.g08.bks.cpg/sg12_72_cif.got.tgz:143094.got - 2010.06.03 13:09:07.
