data_PCOD9187638
_publ_section_title
;
Structure prediction by ZEFSAII (Michael W. Deem and Ramdas Pophale) SiO2 
 PCOD9187638
Probable space group: C 2/M
;
_chemical_formula_sum "Si O2"
_cell_formula_units_Z 64
_cell_length_a 30.998939
_cell_length_b 8.732368
_cell_length_c 15.232623
_cell_angle_alpha 90.000000
_cell_angle_beta 51.429885
_cell_angle_gamma 90.000000
_cell_volume 3223.848667
_symmetry_space_group_name_H-M "C 2/M"
_symmetry_group_IT_number 12
_symmetry_cell_setting 'monoclinic'
loop_
_space_group_symop_operation_xyz
x,y,z
-x,y,-z
-x,-y,-z
x,-y,z
1/2+x,1/2+y,z
1/2-x,1/2+y,-z
1/2-x,1/2-y,-z
1/2+x,1/2-y,z
loop_
_atom_site_type_symbol
_atom_site_label
_atom_site_fract_x
_atom_site_fract_y
_atom_site_fract_z
Si Si1 0.495695 0.183077 0.738920
Si Si2 0.620693 0.684101 0.177084
Si Si3 0.465687 0.673728 0.132055
Si Si4 0.321178 0.316254 0.717017
Si Si5 0.299192 0.686217 0.081215
Si Si6 0.308438 0.674591 0.414992
Si Si7 0.863324 0.822918 0.167331
Si Si8 0.882502 0.316499 0.468942
O O1 0.438459 0.248074 0.774311
O O2 0.504282 0.241584 0.827586
O O3 0.552562 0.229606 0.616415
O O4 0.493164 0.000000 0.740918
O O5 0.616516 0.500000 0.175175
O O6 0.638473 0.723785 0.253101
O O7 0.670741 0.730328 0.047725
O O8 0.451909 0.500000 0.181707
O O9 0.411776 0.754981 0.160999
O O10 0.500000 0.659773 0.000000
O O11 0.317365 0.500000 0.715298
O O12 0.260833 0.252360 0.820176
O O13 0.347329 0.251088 0.594350
O O14 0.295329 0.500000 0.089357
O O15 0.340939 0.739345 0.105290
O O16 0.309141 0.500000 0.445534
O O17 0.250000 0.750000 0.500000
O O18 0.316812 0.672051 0.299777
O O19 0.354283 0.761167 0.414218
O O20 0.881238 0.000000 0.126257
O O21 0.880117 0.500000 0.476458
#
# Coordination Sequence:
#
# PCOD9187638 Si02
#       8
#     8   8   8   8   8   8   8   8
#     4  11  24  40  61  90 125 163 209 263 314 363
#     4  10  23  42  65  91 123 163 208 256 316 385
#     4  10  19  35  60  86 117 159 201 241 294 364
#     4  11  24  41  63  93 122 159 209 264 322 374
#     4  10  20  39  65  93 126 162 201 250 308 380
#     4  11  21  35  57  86 121 160 200 247 299 360
#     4   9  18  32  54  85 115 150 193 230 280 351
#     4  11  24  42  61  86 123 168 212 259 314 373
#
# _framework density 19.852049000000001
#
# number of rings (size 3 to 8) (size 9 to 14) (size 15 to 20)
#    0.000    1.625    1.250    3.375    0.000    6.750 
#    0.000    3.750    0.000    0.000    0.000    0.000 
#    0.000    0.000    0.000    0.000    0.000    0.000 
#
# Total GULP energy -178510.808551 kJ/mol
# GULP energy per Si atom -5578.462767 kJ/mol
# Density = 1.980686 g / cm^3
# Si number density = 19.852049 Si / 1000 Ang^3
#
#
#
# Elastic Constant Matrix: (Units=GPa)
#
#
# Indices 1 2 3 4 5 6 
#
# 1 69.5818 10.1626 14.4513 0.0000 6.7378 0.0000
# 2 10.1626 31.5758 19.6794 0.0000 1.8712 0.0000
# 3 14.4513 19.6794 90.8733 0.0000 2.1694 0.0000
# 4 0.0000 0.0000 0.0000 20.6307 0.0000 -9.5944
# 5 6.7378 1.8712 2.1694 0.0000 35.5093 0.0000
# 6 0.0000 0.0000 0.0000 -9.5944 0.0000 25.5913
#
#
#
# Elastic Compliance Matrix: (Units=1/GPa)
#
#
# Indices 1 2 3 4 5 6 
#
# 1 0.015517 -0.003860 -0.001569 0.000000 -0.002645 0.000000
# 2 -0.003860 0.037646 -0.007520 0.000000 -0.000792 0.000000
# 3 -0.001569 -0.007520 0.012884 0.000000 -0.000093 0.000000
# 4 0.000000 0.000000 0.000000 0.058707 0.000000 0.022010
# 5 -0.002645 -0.000792 -0.000093 0.000000 0.028711 0.000000
# 6 0.000000 0.000000 0.000000 0.022010 0.000000 0.047328
#
#
# Mechanical properties :
#
#
# Convention : Reuss Voigt Hill
#
# Bulk Modulus (GPa) = 24.90602 31.17972 28.04287
# Shear Modulus (GPa) = 20.82699 26.19542 23.51121
#
# Velocity S-wave (km/s) = 3.24251 3.63648 3.44513
# Velocity P-wave (km/s) = 5.15670 5.77686 5.47557
#
# Compressibility (1/GPa) = 0.04015094
#
# Stress axis : x y z
#
# Youngs Moduli (GPa) = 64.44447 26.56352 77.61277
#
# Poissons Ratio (x) = 0.10253 0.12175
# Poissons Ratio (y) = 0.24874 0.58363
# Poissons Ratio (z) = 0.10109 0.19975
#
# Static dielectric constant tensor:
#      x y z
#    x 2.007670 0.000000 -0.620630 
#    y 0.000000 1.690080 0.000000 
#    z -0.620630 0.000000 2.840120 
# 
# From -- ./inp_files/249729.got.cif
#   From: 2010.05.17/outbox.cif.g08.bks.cpg/sg12_125_cif.got.tgz:249729.got - 2010.06.03 13:09:07.
