data_PCOD9187851
_publ_section_title
;
Structure prediction by ZEFSAII (Michael W. Deem and Ramdas Pophale) SiO2 
 PCOD9187851
Probable space group: C 2/M
;
_chemical_formula_sum "Si O2"
_cell_formula_units_Z 48
_cell_length_a 15.203949
_cell_length_b 23.560896
_cell_length_c 11.805904
_cell_angle_alpha 90.000000
_cell_angle_beta 150.713554
_cell_angle_gamma 90.000000
_cell_volume 2068.772427
_symmetry_space_group_name_H-M "C 2/M"
_symmetry_group_IT_number 12
_symmetry_cell_setting 'monoclinic'
loop_
_space_group_symop_operation_xyz
x,y,z
-x,y,-z
-x,-y,-z
x,-y,z
1/2+x,1/2+y,z
1/2-x,1/2+y,-z
1/2-x,1/2-y,-z
1/2+x,1/2-y,z
loop_
_atom_site_type_symbol
_atom_site_label
_atom_site_fract_x
_atom_site_fract_y
_atom_site_fract_z
Si Si1 0.500000 0.821591 0.500000
Si Si2 0.563231 0.564198 0.258045
Si Si3 0.595914 0.067387 0.220093
Si Si4 0.592774 0.672561 0.002421
Si Si5 0.738155 0.436224 0.904922
Si Si6 0.918565 0.765135 0.606324
Si Si7 0.000000 0.150492 0.500000
O O1 0.525169 0.787674 0.408839
O O2 0.701805 0.845711 0.744706
O O3 0.606457 0.500000 0.264360
O O4 0.709626 0.582146 0.516540
O O5 0.540512 0.618475 0.155549
O O6 0.371063 0.561493 0.103072
O O7 0.612693 0.000000 0.220464
O O8 0.500000 0.091231 0.000000
O O9 0.447993 0.076483 0.151432
O O10 0.567786 0.708661 0.859255
O O11 0.500000 0.707929 0.000000
O O12 0.721434 0.500000 0.834770
O O13 0.643869 0.390176 0.721137
O O14 0.750000 0.750000 0.500000
O O15 0.902218 0.811412 0.485915
#
# Coordination Sequence:
#
# PCOD9187851 Si02
#       7
#     4   8   8   8   8   8   4
#     4  11  26  48  78 100 138 176 228 315 346 408
#     4  10  22  41  64  99 145 184 228 280 333 421
#     4   9  18  32  55  90 137 184 216 261 330 397
#     4  12  25  47  73  99 135 186 236 285 356 414
#     4  10  19  35  61  98 144 181 214 274 344 416
#     4  11  24  48  73 103 135 175 234 294 363 418
#     4  11  21  38  71 106 141 182 229 285 358 424
#
# _framework density 23.202164
#
# number of rings (size 3 to 8) (size 9 to 14) (size 15 to 20)
#    0.000    1.500    3.333    1.750    0.000    4.333 
#    0.000    2.083    0.000    0.000    0.000    0.000 
#    0.000    0.000    0.000    0.000    0.000    0.000 
#
# Total GULP energy -133721.435588 kJ/mol
# GULP energy per Si atom -5571.726483 kJ/mol
# Density = 2.314935 g / cm^3
# Si number density = 23.202164 Si / 1000 Ang^3
#
#
#
# Elastic Constant Matrix: (Units=GPa)
#
#
# Indices 1 2 3 4 5 6 
#
# 1 119.2353 20.9160 17.0890 0.0000 5.8739 0.0000
# 2 20.9160 65.2374 24.4503 0.0000 -4.1414 0.0000
# 3 17.0890 24.4503 102.3289 0.0000 -0.5307 0.0000
# 4 0.0000 0.0000 0.0000 23.3162 0.0000 45.6054
# 5 5.8739 -4.1414 -0.5307 0.0000 42.4332 0.0000
# 6 0.0000 0.0000 0.0000 45.6054 0.0000 22.4866
#
#
#
# Elastic Compliance Matrix: (Units=1/GPa)
#
#
# Indices 1 2 3 4 5 6 
#
# 1 0.009057 -0.002670 -0.000882 0.000000 -0.001525 0.000000
# 2 -0.002670 0.017732 -0.003780 0.000000 0.002053 0.000000
# 3 -0.000882 -0.003780 0.010822 0.000000 -0.000111 0.000000
# 4 0.000000 0.000000 0.000000 -0.014456 0.000000 0.029318
# 5 -0.001525 0.002053 -0.000111 0.000000 0.023977 0.000000
# 6 0.000000 0.000000 0.000000 0.029318 0.000000 -0.014989
#
#
# Mechanical properties :
#
#
# Convention : Reuss Voigt Hill
#
# Bulk Modulus (GPa) = 43.58094 45.74579 44.66337
# Shear Modulus (GPa) = 91.81631 32.60361 62.20996
#
# Velocity S-wave (km/s) = 6.29748 3.75266 5.18366
# Velocity P-wave (km/s) = 8.46768 6.20771 7.42419
#
# Compressibility (1/GPa) = 0.02294581
#
# Stress axis : x y z
#
# Youngs Moduli (GPa) = 110.41514 56.39606 92.40037
#
# Poissons Ratio (x) = 0.15057 0.08154
# Poissons Ratio (y) = 0.29479 0.34930
# Poissons Ratio (z) = 0.09744 0.21319
#
# Static dielectric constant tensor:
#      x y z
#    x 1.997120 0.000000 -0.043380 
#    y 0.000000 1.956730 0.000000 
#    z -0.043380 0.000000 1.912680 
# 
# From -- ./inp_files/149904.got.cif
#   From: 2010.05.17/outbox.cif.g08.bks.cpg/sg12_75_cif.got.tgz:149904.got - 2010.06.03 13:09:07.
