data_PCOD9187414
_publ_section_title
;
Structure prediction by ZEFSAII (Michael W. Deem and Ramdas Pophale) SiO2 
 PCOD9187414
Probable space group: C 2/M
;
_chemical_formula_sum "Si O2"
_cell_formula_units_Z 60
_cell_length_a 23.721991
_cell_length_b 7.339632
_cell_length_c 21.328843
_cell_angle_alpha 90.000000
_cell_angle_beta 139.093159
_cell_angle_gamma 90.000000
_cell_volume 2431.767154
_symmetry_space_group_name_H-M "C 2/M"
_symmetry_group_IT_number 12
_symmetry_cell_setting 'monoclinic'
loop_
_space_group_symop_operation_xyz
x,y,z
-x,y,-z
-x,-y,-z
x,-y,z
1/2+x,1/2+y,z
1/2-x,1/2+y,-z
1/2-x,1/2-y,-z
1/2+x,1/2-y,z
loop_
_atom_site_type_symbol
_atom_site_label
_atom_site_fract_x
_atom_site_fract_y
_atom_site_fract_z
Si Si1 0.750000 0.250000 0.500000
Si Si2 0.305837 0.218918 0.929272
Si Si3 0.385665 0.786151 0.248114
Si Si4 0.114928 0.286734 0.134908
Si Si5 0.553459 0.222101 0.314129
Si Si6 0.903806 0.277943 0.403413
Si Si7 0.749926 0.219499 0.641348
Si Si8 0.483929 0.777944 0.122796
O O1 0.644386 0.279357 0.419474
O O2 0.766933 0.296697 0.587647
O O3 0.208242 0.271518 0.861927
O O4 0.337540 0.286285 0.886971
O O5 0.304914 0.000000 0.927024
O O6 0.383777 0.274989 0.040252
O O7 0.468979 0.715566 0.281607
O O8 0.377927 0.713241 0.312462
O O9 0.403275 0.000000 0.269576
O O10 0.100088 0.500000 0.109022
O O11 0.180201 0.265929 0.247719
O O12 0.027073 0.216717 0.093394
O O13 0.536082 0.281785 0.227788
O O14 0.555284 0.000000 0.316569
O O15 0.899672 0.500000 0.400121
O O16 0.838928 0.219842 0.402584
O O17 0.000000 0.224097 0.500000
O O18 0.747878 0.000000 0.628799
O O19 0.487311 0.000000 0.125365
#
# Coordination Sequence:
#
# PCOD9187414 Si02
#       8
#     4   8   8   8   8   8   8   8
#     4  12  22  36  58  84 114 148 186 240 284 342
#     4  10  20  35  60  88 116 151 195 244 292 343
#     4  10  20  36  59  84 114 153 196 238 287 347
#     4  10  19  35  59  84 112 150 193 234 282 343
#     4  10  21  37  58  84 113 153 200 238 283 353
#     4   9  17  32  54  80 109 145 189 234 277 333
#     4  11  22  35  57  87 115 145 186 236 290 339
#     4   9  18  35  58  84 114 152 198 241 285 347
#
# _framework density 24.673414000000001
#
# number of rings (size 3 to 8) (size 9 to 14) (size 15 to 20)
#    0.000    2.000    2.667    1.600    0.000    4.800 
#    0.000    2.000    0.000    4.800    0.000    0.000 
#    0.000    0.000    0.000    0.000    0.000    0.000 
#
# Total GULP energy -167205.616717 kJ/mol
# GULP energy per Si atom -5573.520557 kJ/mol
# Density = 2.461726 g / cm^3
# Si number density = 24.673414 Si / 1000 Ang^3
#
#
#
# Elastic Constant Matrix: (Units=GPa)
#
#
# Indices 1 2 3 4 5 6 
#
# 1 115.1817 3.1170 33.8289 0.0000 30.9859 0.0000
# 2 3.1170 95.8624 -13.6454 -0.0001 -3.8628 -0.0002
# 3 33.8289 -13.6454 140.5843 0.0000 24.4973 0.0000
# 4 0.0000 -0.0001 0.0000 12.3649 0.0000 -7.1812
# 5 30.9859 -3.8628 24.4973 0.0000 53.5736 0.0000
# 6 0.0000 -0.0002 0.0000 -7.1812 0.0000 -33.5307
#
#
#
# Elastic Compliance Matrix: (Units=1/GPa)
#
#
# Indices 1 2 3 4 5 6 
#
# 1 0.010669 -0.000808 -0.001695 0.000000 -0.005454 0.000000
# 2 -0.000808 0.010644 0.001100 0.000000 0.000732 0.000000
# 3 -0.001695 0.001100 0.008088 0.000000 -0.002638 0.000000
# 4 0.000000 0.000000 0.000000 0.071927 0.000000 -0.015405
# 5 -0.005454 0.000732 -0.002638 0.000000 0.023079 0.000000
# 6 0.000000 0.000000 0.000000 -0.015405 0.000000 -0.026524
#
#
# Mechanical properties :
#
#
# Convention : Reuss Voigt Hill
#
# Bulk Modulus (GPa) = 37.60267 44.24771 40.92519
# Shear Modulus (GPa) = 45.63947 28.37009 37.00478
#
# Velocity S-wave (km/s) = 4.30553 3.39458 3.87691
# Velocity P-wave (km/s) = 6.32377 5.77378 6.05502
#
# Compressibility (1/GPa) = 0.02659385
#
# Stress axis : x y z
#
# Youngs Moduli (GPa) = 93.73069 93.95003 123.64555
#
# Poissons Ratio (x) = 0.07591 0.20962
# Poissons Ratio (y) = 0.07573 -0.13601
# Poissons Ratio (z) = 0.15891 -0.10335
#
# Static dielectric constant tensor:
#      x y z
#    x 1.928150 0.000000 0.017960 
#    y 0.000000 2.036360 0.000000 
#    z 0.017960 0.000000 1.912550 
# 
# From -- ./inp_files/348858.got.cif
#   From: 2010.05.17/outbox.cif.g08.bks.cpg/sg12_175_cif.got.tgz:348858.got - 2010.06.03 13:09:07.
