data_PCOD9187209
_publ_section_title
;
Structure prediction by ZEFSAII (Michael W. Deem and Ramdas Pophale) SiO2 
 PCOD9187209
Probable space group: C 2/M
;
_chemical_formula_sum "Si O2"
_cell_formula_units_Z 56
_cell_length_a 21.153422
_cell_length_b 8.219291
_cell_length_c 18.113920
_cell_angle_alpha 90.000000
_cell_angle_beta 71.238224
_cell_angle_gamma 90.000000
_cell_volume 2982.050959
_symmetry_space_group_name_H-M "C 2/M"
_symmetry_group_IT_number 12
_symmetry_cell_setting 'monoclinic'
loop_
_space_group_symop_operation_xyz
x,y,z
-x,y,-z
-x,-y,-z
x,-y,z
1/2+x,1/2+y,z
1/2-x,1/2+y,-z
1/2-x,1/2-y,-z
1/2+x,1/2-y,z
loop_
_atom_site_type_symbol
_atom_site_label
_atom_site_fract_x
_atom_site_fract_y
_atom_site_fract_z
Si Si1 0.915360 0.310913 0.594634
Si Si2 0.668380 0.803631 0.826318
Si Si3 0.928375 0.196904 0.266576
Si Si4 0.820424 0.197129 0.754486
Si Si5 0.061183 0.190901 0.572346
Si Si6 0.924661 0.196173 0.840183
Si Si7 0.074476 0.696447 0.994272
O O1 0.929659 0.500000 0.601429
O O2 0.852559 0.257545 0.666312
O O3 0.908432 0.279138 0.510062
O O4 0.980915 0.212750 0.596419
O O5 0.627312 0.753483 0.769486
O O6 0.744715 0.746568 0.794685
O O7 0.627549 0.745480 0.913534
O O8 0.669583 0.000000 0.829002
O O9 0.917553 0.251294 0.354992
O O10 0.001390 0.253571 0.211355
O O11 0.929761 0.000000 0.267090
O O12 0.869463 0.251654 0.802071
O O13 0.820731 0.000000 0.753535
O O14 0.076486 0.000000 0.560325
O O15 0.925562 0.000000 0.837822
O O16 0.909987 0.249873 0.928757
O O17 0.073816 0.500000 0.992725
O O18 0.000000 0.753274 0.000000
#
# Coordination Sequence:
#
# PCOD9187209 Si02
#       7
#     8   8   8   8   8   8   8
#     4  11  21  33  54  87 117 143 182 236 281 321
#     4  10  22  38  58  80 111 152 186 227 280 338
#     4  10  20  35  57  84 110 142 187 231 272 324
#     4  10  21  40  58  78 112 153 190 222 278 343
#     4  10  19  35  58  83 113 151 187 225 275 332
#     4  10  20  35  57  82 107 144 189 230 269 327
#     4  10  20  35  54  82 114 143 181 230 283 330
#
# _framework density 18.779022999999999
#
# number of rings (size 3 to 8) (size 9 to 14) (size 15 to 20)
#    0.000    1.857    2.857    2.571    0.000    3.714 
#    0.000    0.714    0.000    0.000    0.000    0.000 
#    0.000    0.000    0.000    0.000    0.000    0.000 
#
# Total GULP energy -156357.878290 kJ/mol
# GULP energy per Si atom -5584.209939 kJ/mol
# Density = 1.873628 g / cm^3
# Si number density = 18.779023 Si / 1000 Ang^3
#
#
#
# Elastic Constant Matrix: (Units=GPa)
#
#
# Indices 1 2 3 4 5 6 
#
# 1 128.3480 7.3318 81.7567 0.0000 -4.5544 0.0000
# 2 7.3318 9.4742 6.9121 0.0000 -2.3045 0.0000
# 3 81.7567 6.9121 160.2340 0.0000 1.0579 0.0000
# 4 0.0000 0.0000 0.0000 63.2181 0.0000 20.1880
# 5 -4.5544 -2.3045 1.0579 0.0000 32.0425 0.0000
# 6 0.0000 0.0000 0.0000 20.1880 0.0000 22.9874
#
#
#
# Elastic Compliance Matrix: (Units=1/GPa)
#
#
# Indices 1 2 3 4 5 6 
#
# 1 0.011832 -0.004509 -0.005853 0.000000 0.001551 0.000000
# 2 -0.004509 0.112785 -0.002614 0.000000 0.007557 0.000000
# 3 -0.005853 -0.002614 0.009349 0.000000 -0.001329 0.000000
# 4 0.000000 0.000000 0.000000 0.021984 0.000000 -0.019306
# 5 0.001551 0.007557 -0.001329 0.000000 0.032016 0.000000
# 6 0.000000 0.000000 0.000000 -0.019306 0.000000 0.060457
#
#
# Mechanical properties :
#
#
# Convention : Reuss Voigt Hill
#
# Bulk Modulus (GPa) = 9.25817 54.45085 31.85451
# Shear Modulus (GPa) = 16.10927 37.11998 26.61462
#
# Velocity S-wave (km/s) = 2.93206 4.45080 3.76873
# Velocity P-wave (km/s) = 4.05011 7.44791 5.99478
#
# Compressibility (1/GPa) = 0.10801269
#
# Stress axis : x y z
#
# Youngs Moduli (GPa) = 84.51529 8.86643 106.96606
#
# Poissons Ratio (x) = 0.03998 0.62606
# Poissons Ratio (y) = 0.38111 0.27965
# Poissons Ratio (z) = 0.49466 0.02318
#
# Static dielectric constant tensor:
#      x y z
#    x 1.625380 0.000000 -0.000860 
#    y 0.000000 1.653140 0.000000 
#    z -0.000860 0.000000 1.644230 
# 
# From -- ./inp_files/313707.got.cif
#   From: 2010.05.17/outbox.cif.g08.bks.cpg/sg12_157_cif.got.tgz:313707.got - 2010.06.03 13:09:07.
