data_PCOD9187253
_publ_section_title
;
Structure prediction by ZEFSAII (Michael W. Deem and Ramdas Pophale) SiO2 
 PCOD9187253
Probable space group: C 2/M
;
_chemical_formula_sum "Si O2"
_cell_formula_units_Z 64
_cell_length_a 27.741082
_cell_length_b 18.577721
_cell_length_c 8.116271
_cell_angle_alpha 90.000000
_cell_angle_beta 137.604990
_cell_angle_gamma 90.000000
_cell_volume 2820.237245
_symmetry_space_group_name_H-M "C 2/M"
_symmetry_group_IT_number 12
_symmetry_cell_setting 'monoclinic'
loop_
_space_group_symop_operation_xyz
x,y,z
-x,y,-z
-x,-y,-z
x,-y,z
1/2+x,1/2+y,z
1/2-x,1/2+y,-z
1/2-x,1/2-y,-z
1/2+x,1/2-y,z
loop_
_atom_site_type_symbol
_atom_site_label
_atom_site_fract_x
_atom_site_fract_y
_atom_site_fract_z
Si Si1 0.523997 0.291341 0.873801
Si Si2 0.153237 0.583056 0.892818
Si Si3 0.792825 0.331981 0.435857
Si Si4 0.033688 0.351049 0.412401
Si Si5 0.831392 0.820121 0.624789
Si Si6 0.418563 0.415111 0.591325
Si Si7 0.912444 0.415853 0.912929
Si Si8 0.788651 0.917124 0.046597
O O1 0.488045 0.231461 0.669265
O O2 0.490609 0.369404 0.756859
O O3 0.500000 0.272157 0.000000
O O4 0.609593 0.291686 0.093132
O O5 0.132375 0.500000 0.803085
O O6 0.115479 0.633082 0.660793
O O7 0.237770 0.588107 0.079123
O O8 0.128617 0.597864 0.015822
O O9 0.812003 0.248216 0.462418
O O10 0.740299 0.340205 0.461338
O O11 0.866913 0.371977 0.665375
O O12 0.745899 0.365469 0.173156
O O13 0.000000 0.378048 0.500000
O O14 0.992996 0.392406 0.163320
O O15 0.873811 0.880577 0.630156
O O16 0.429596 0.500000 0.642277
O O17 0.368869 0.403260 0.306170
O O18 0.909857 0.500000 0.868819
O O19 0.783437 0.000000 0.974406
#
# Coordination Sequence:
#
# PCOD9187253 Si02
#       8
#     8   8   8   8   8   8   8   8
#     4  10  22  40  61  87 116 151 195 254 303 354
#     4   9  19  34  55  85 120 160 201 236 282 352
#     4  11  22  38  59  90 125 155 199 241 302 362
#     4  10  20  34  56  85 120 158 199 242 291 353
#     4  10  23  40  61  86 120 157 195 251 299 364
#     4  10  23  44  65  88 115 156 208 256 305 360
#     4  10  19  35  58  84 119 162 198 238 290 354
#     4  10  22  39  59  88 123 155 197 247 294 353
#
# _framework density 22.693127
#
# number of rings (size 3 to 8) (size 9 to 14) (size 15 to 20)
#    0.000    2.000    1.250    1.500    3.500    7.250 
#    2.250    0.000    0.000    4.875    0.000    0.000 
#    0.000    0.000    0.000    0.000    0.000    0.000 
#
# Total GULP energy -178845.724700 kJ/mol
# GULP energy per Si atom -5588.928897 kJ/mol
# Density = 2.264148 g / cm^3
# Si number density = 22.693127 Si / 1000 Ang^3
#
#
#
# Elastic Constant Matrix: (Units=GPa)
#
#
# Indices 1 2 3 4 5 6 
#
# 1 27.5235 1.5511 10.2317 0.0000 6.3295 0.0000
# 2 1.5511 62.8313 28.2682 0.0000 0.3404 0.0000
# 3 10.2317 28.2682 84.2134 0.0000 10.4842 0.0000
# 4 0.0000 0.0000 0.0000 39.8969 0.0000 -0.8806
# 5 6.3295 0.3404 10.4842 0.0000 34.7311 0.0000
# 6 0.0000 0.0000 0.0000 -0.8806 0.0000 15.4820
#
#
#
# Elastic Compliance Matrix: (Units=1/GPa)
#
#
# Indices 1 2 3 4 5 6 
#
# 1 0.039249 0.001038 -0.004390 0.000000 -0.005838 0.000000
# 2 0.001038 0.018881 -0.006668 0.000000 0.001639 0.000000
# 3 -0.004390 -0.006668 0.015106 0.000000 -0.003695 0.000000
# 4 0.000000 0.000000 0.000000 0.025096 0.000000 0.001427
# 5 -0.005838 0.001639 -0.003695 0.000000 0.030956 0.000000
# 6 0.000000 0.000000 0.000000 0.001427 0.000000 0.064672
#
#
# Mechanical properties :
#
#
# Convention : Reuss Voigt Hill
#
# Bulk Modulus (GPa) = 18.79864 28.29670 23.54767
# Shear Modulus (GPa) = 21.57659 26.98981 24.28320
#
# Velocity S-wave (km/s) = 3.08685 3.45242 3.27474
# Velocity P-wave (km/s) = 4.58330 5.32810 4.96967
#
# Compressibility (1/GPa) = 0.05319533
#
# Stress axis : x y z
#
# Youngs Moduli (GPa) = 25.47856 52.96299 66.19787
#
# Poissons Ratio (x) = -0.05497 0.29062
# Poissons Ratio (y) = -0.02644 0.44141
# Poissons Ratio (z) = 0.11186 0.35316
#
# Static dielectric constant tensor:
#      x y z
#    x 1.883830 0.000000 0.005650 
#    y 0.000000 1.821050 0.000000 
#    z 0.005650 0.000000 1.834380 
# 
# From -- ./inp_files/112816.got.cif
#   From: 2010.05.17/outbox.cif.g08.bks.cpg/sg12_57_cif.got.tgz:112816.got - 2010.06.03 13:09:07.
