data_PCOD9187292
_publ_section_title
;
Structure prediction by ZEFSAII (Michael W. Deem and Ramdas Pophale) SiO2 
 PCOD9187292
Probable space group: C 2/M
;
_chemical_formula_sum "Si O2"
_cell_formula_units_Z 32
_cell_length_a 7.849077
_cell_length_b 12.804473
_cell_length_c 13.148526
_cell_angle_alpha 90.000000
_cell_angle_beta 118.583952
_cell_angle_gamma 90.000000
_cell_volume 1160.405455
_symmetry_space_group_name_H-M "C 2/M"
_symmetry_group_IT_number 12
_symmetry_cell_setting 'monoclinic'
loop_
_space_group_symop_operation_xyz
x,y,z
-x,y,-z
-x,-y,-z
x,-y,z
1/2+x,1/2+y,z
1/2-x,1/2+y,-z
1/2-x,1/2-y,-z
1/2+x,1/2-y,z
loop_
_atom_site_type_symbol
_atom_site_label
_atom_site_fract_x
_atom_site_fract_y
_atom_site_fract_z
Si Si1 0.376039 0.384785 0.346879
Si Si2 0.385531 0.387103 0.073752
Si Si3 0.968074 0.657795 0.159907
Si Si4 0.462648 0.156874 0.605747
O O1 0.462108 0.500000 0.364958
O O2 0.505454 0.281793 0.379040
O O3 0.192804 0.374603 0.216363
O O4 0.248754 0.375547 0.414673
O O5 0.427228 0.500000 0.132086
O O6 0.910167 0.378579 0.258673
O O7 0.500000 0.381852 0.000000
O O8 0.166152 0.380694 0.968744
O O9 0.951362 0.782991 0.149347
O O10 0.500000 0.124718 0.500000
#
# Coordination Sequence:
#
# PCOD9187292 Si02
#       4
#     8   8   8   8
#     4  10  22  41  63  91 127 165 207 254 309 367
#     4  10  19  35  58  86 120 160 204 253 308 364
#     4   9  21  36  58  90 122 160 205 258 304 369
#     4  10  22  41  64  92 128 164 206 259 306 373
#
# _framework density 27.576567000000001
#
# number of rings (size 3 to 8) (size 9 to 14) (size 15 to 20)
#    1.500    0.750    0.000    3.000    0.000    2.000 
#    0.000    1.250    0.000    8.250    0.000    0.000 
#    0.000    0.000    0.000    0.000    0.000    0.000 
#
# Total GULP energy -89382.417489 kJ/mol
# GULP energy per Si atom -5586.401093 kJ/mol
# Density = 2.751380 g / cm^3
# Si number density = 27.576567 Si / 1000 Ang^3
#
#
#
# Elastic Constant Matrix: (Units=GPa)
#
#
# Indices 1 2 3 4 5 6 
#
# 1 42.3124 23.8210 16.2833 0.0000 -34.6354 0.0000
# 2 23.8210 229.2939 22.3126 0.0000 -5.3089 0.0000
# 3 16.2833 22.3126 146.8641 0.0000 -23.0491 0.0000
# 4 0.0000 0.0000 0.0000 -13.3090 0.0000 3.1235
# 5 -34.6354 -5.3089 -23.0491 0.0000 57.9315 0.0000
# 6 0.0000 0.0000 0.0000 3.1235 0.0000 54.1121
#
#
#
# Elastic Compliance Matrix: (Units=1/GPa)
#
#
# Indices 1 2 3 4 5 6 
#
# 1 0.050663 -0.004549 -0.000254 0.000000 0.029772 0.000000
# 2 -0.004549 0.004836 -0.000627 0.000000 -0.002526 0.000000
# 3 -0.000254 -0.000627 0.007359 0.000000 0.002719 0.000000
# 4 0.000000 0.000000 0.000000 -0.074133 0.000000 0.004279
# 5 0.029772 -0.002526 0.002719 0.000000 0.035912 0.000000
# 6 0.000000 0.000000 0.000000 0.004279 0.000000 0.018233
#
#
# Mechanical properties :
#
#
# Convention : Reuss Voigt Hill
#
# Bulk Modulus (GPa) = 19.23127 60.36715 39.79921
# Shear Modulus (GPa) = 70.36083 43.48381 56.92232
#
# Velocity S-wave (km/s) = 5.05669 3.97525 4.54823
# Velocity P-wave (km/s) = 6.40955 6.55808 6.48424
#
# Compressibility (1/GPa) = 0.05199865
#
# Stress axis : x y z
#
# Youngs Moduli (GPa) = 19.73846 206.76785 135.88681
#
# Poissons Ratio (x) = 0.94064 0.03445
# Poissons Ratio (y) = 0.08980 0.08518
# Poissons Ratio (z) = 0.00500 0.12961
#
# Static dielectric constant tensor:
#      x y z
#    x 2.183940 0.000000 -0.030580 
#    y 0.000000 2.078800 0.000000 
#    z -0.030580 0.000000 2.307780 
# 
# From -- ./inp_files/194274.got.cif
#   From: 2010.05.17/outbox.cif.g08.bks.cpg/sg12_98_cif.got.tgz:194274.got - 2010.06.03 13:09:07.
