data_PCOD9187672
_publ_section_title
;
Structure prediction by ZEFSAII (Michael W. Deem and Ramdas Pophale) SiO2 
 PCOD9187672
Probable space group: C 2/M
;
_chemical_formula_sum "Si O2"
_cell_formula_units_Z 64
_cell_length_a 27.715355
_cell_length_b 19.545615
_cell_length_c 18.429135
_cell_angle_alpha 90.000000
_cell_angle_beta 16.741376
_cell_angle_gamma 90.000000
_cell_volume 2875.714942
_symmetry_space_group_name_H-M "C 2/M"
_symmetry_group_IT_number 12
_symmetry_cell_setting 'monoclinic'
loop_
_space_group_symop_operation_xyz
x,y,z
-x,y,-z
-x,-y,-z
x,-y,z
1/2+x,1/2+y,z
1/2-x,1/2+y,-z
1/2-x,1/2-y,-z
1/2+x,1/2-y,z
loop_
_atom_site_type_symbol
_atom_site_label
_atom_site_fract_x
_atom_site_fract_y
_atom_site_fract_z
Si Si1 0.595589 0.309736 0.020680
Si Si2 0.273316 0.177225 0.428032
Si Si3 0.257824 0.803296 0.285376
Si Si4 0.907466 0.269281 0.820396
Si Si5 0.946421 0.426582 0.277708
Si Si6 0.178185 0.576654 0.063867
Si Si7 0.666131 0.579660 0.807475
Si Si8 0.943401 0.919680 0.500640
O O1 0.611690 0.247308 0.940576
O O2 0.694948 0.370406 0.834786
O O3 0.418751 0.347898 0.288044
O O4 0.627512 0.266932 0.050028
O O5 0.250000 0.250000 0.500000
O O6 0.312490 0.180167 0.287629
O O7 0.402137 0.132343 0.286943
O O8 0.195280 0.870908 0.333954
O O9 0.085024 0.760366 0.541177
O O10 0.910852 0.350650 0.797980
O O11 0.750000 0.250000 0.000000
O O12 0.913235 0.500000 0.290730
O O13 0.817284 0.419423 0.531445
O O14 0.131658 0.427996 0.044916
O O15 0.125318 0.500000 0.167500
O O16 0.373199 0.585167 0.802714
O O17 0.643352 0.500000 0.862374
O O18 0.500000 0.600911 0.000000
O O19 0.000000 0.897892 0.500000
O O20 0.900563 0.000000 0.561635
#
# Coordination Sequence:
#
# PCOD9187672 Si02
#       8
#     8   8   8   8   8   8   8   8
#     4  11  23  38  59  87 124 161 200 255 316 359
#     4  11  23  38  57  88 124 158 205 254 303 372
#     4  11  24  38  62  91 120 166 205 262 315 372
#     4  11  22  39  61  91 121 154 210 261 308 372
#     4  10  20  36  61  88 122 163 204 246 302 375
#     4  10  20  38  61  85 118 162 201 248 310 364
#     4  10  19  35  60  88 121 164 204 242 302 382
#     4  10  21  39  62  87 117 158 211 262 307 366
#
# _framework density 22.255337000000001
#
# number of rings (size 3 to 8) (size 9 to 14) (size 15 to 20)
#    0.000    1.500    2.500    3.750    0.000    0.500 
#    0.000    2.500    0.000    0.000    0.000   11.375 
#    0.000    0.000    0.000    0.000    0.000    0.000 
#
# Total GULP energy -178278.119170 kJ/mol
# GULP energy per Si atom -5571.191224 kJ/mol
# Density = 2.220468 g / cm^3
# Si number density = 22.255337 Si / 1000 Ang^3
#
#
#
# Elastic Constant Matrix: (Units=GPa)
#
#
# Indices 1 2 3 4 5 6 
#
# 1 69.6522 28.2087 23.6032 -0.0012 0.9213 -0.0011
# 2 28.2087 124.0377 23.8666 -0.0085 -6.8523 0.0019
# 3 23.6032 23.8666 76.7329 -0.0128 0.0232 0.0032
# 4 -0.0012 -0.0085 -0.0128 23.4813 0.0029 -7.5593
# 5 0.9213 -6.8523 0.0232 0.0029 31.2685 -0.0001
# 6 -0.0011 0.0019 0.0032 -7.5593 -0.0001 32.8177
#
#
#
# Elastic Compliance Matrix: (Units=1/GPa)
#
#
# Indices 1 2 3 4 5 6 
#
# 1 0.017091 -0.003128 -0.004284 -0.000002 -0.001186 0.000001
# 2 -0.003128 0.009260 -0.001919 0.000002 0.002123 0.000000
# 3 -0.004284 -0.001919 0.014947 0.000007 -0.000305 0.000000
# 4 -0.000002 0.000002 0.000007 0.045998 -0.000004 0.010595
# 5 -0.001186 0.002123 -0.000305 -0.000004 0.032481 -0.000001
# 6 0.000001 0.000000 0.000000 0.010595 -0.000001 0.032912
#
#
# Mechanical properties :
#
#
# Convention : Reuss Voigt Hill
#
# Bulk Modulus (GPa) = 44.17621 46.86445 45.52033
# Shear Modulus (GPa) = 27.94912 30.49644 29.22278
#
# Velocity S-wave (km/s) = 3.54763 3.70577 3.62756
# Velocity P-wave (km/s) = 6.05588 6.27803 6.16795
#
# Compressibility (1/GPa) = 0.02263662
#
# Stress axis : x y z
#
# Youngs Moduli (GPa) = 58.50915 107.99248 66.90378
#
# Poissons Ratio (x) = 0.33781 0.28662
# Poissons Ratio (y) = 0.18302 0.12836
# Poissons Ratio (z) = 0.25065 0.20719
#
# Static dielectric constant tensor:
#      x y z
#    x 1.865300 0.000000 0.115890 
#    y 0.000000 1.901110 0.000000 
#    z 0.115890 0.000000 2.126720 
# 
# From -- ./inp_files/294153.got.cif
#   From: 2010.05.17/outbox.cif.g08.bks.cpg/sg12_148_cif.got.tgz:294153.got - 2010.06.03 13:09:07.
