data_PCOD9187357
_publ_section_title
;
Structure prediction by ZEFSAII (Michael W. Deem and Ramdas Pophale) SiO2 
 PCOD9187357
Probable space group: C 2/M
;
_chemical_formula_sum "Si O2"
_cell_formula_units_Z 48
_cell_length_a 20.130506
_cell_length_b 15.851676
_cell_length_c 18.879604
_cell_angle_alpha 90.000000
_cell_angle_beta 151.917866
_cell_angle_gamma 90.000000
_cell_volume 2835.965240
_symmetry_space_group_name_H-M "C 2/M"
_symmetry_group_IT_number 12
_symmetry_cell_setting 'monoclinic'
loop_
_space_group_symop_operation_xyz
x,y,z
-x,y,-z
-x,-y,-z
x,-y,z
1/2+x,1/2+y,z
1/2-x,1/2+y,-z
1/2-x,1/2-y,-z
1/2+x,1/2-y,z
loop_
_atom_site_type_symbol
_atom_site_label
_atom_site_fract_x
_atom_site_fract_y
_atom_site_fract_z
Si Si1 0.886056 0.097225 0.956013
Si Si2 0.859249 0.295287 0.326635
Si Si3 0.725421 0.500000 0.683822
Si Si4 0.436608 0.253124 0.113262
Si Si5 0.446458 0.500000 0.330458
Si Si6 0.375319 0.177737 0.823882
Si Si7 0.127823 0.817948 0.798245
O O1 0.733086 0.124833 0.783664
O O2 0.890675 0.000000 0.982264
O O3 0.916468 0.161910 0.047970
O O4 0.000000 0.109144 0.000000
O O5 0.752527 0.237713 0.272266
O O6 0.899719 0.237928 0.297204
O O7 0.000000 0.317752 0.500000
O O8 0.606142 0.500000 0.510580
O O9 0.648124 0.500000 0.687288
O O10 0.819111 0.583261 0.768314
O O11 0.562539 0.205036 0.193050
O O12 0.451565 0.279956 0.208458
O O13 0.294712 0.196631 0.971289
O O14 0.411199 0.414537 0.254695
O O15 0.500000 0.185580 0.000000
#
# Coordination Sequence:
#
# PCOD9187357 Si02
#       7
#     8   8   4   8   4   8   8
#     4  10  19  35  59  81 103 138 190 237 269 322
#     4  11  20  36  57  81 113 148 183 227 284 342
#     4  11  23  32  60  84 118 149 187 236 277 340
#     4  10  20  37  57  85 109 145 190 234 286 326
#     4  11  20  38  52  88 119 153 184 223 294 350
#     4  12  19  37  59  87 110 147 193 236 276 332
#     4  10  21  35  57  84 114 146 185 231 282 343
#
# _framework density 16.925454999999999
#
# number of rings (size 3 to 8) (size 9 to 14) (size 15 to 20)
#    0.000    1.333    6.667    1.250    1.167    1.000 
#    0.000    3.333    1.833    0.000    0.000    0.000 
#    0.000    0.000    0.000    0.000    0.000    0.000 
#
# Total GULP energy -133962.584714 kJ/mol
# GULP energy per Si atom -5581.774363 kJ/mol
# Density = 1.688693 g / cm^3
# Si number density = 16.925455 Si / 1000 Ang^3
#
#
#
# Elastic Constant Matrix: (Units=GPa)
#
#
# Indices 1 2 3 4 5 6 
#
# 1 103.6112 9.2997 15.6466 -0.0004 6.4734 -0.0004
# 2 9.2997 72.0521 14.2092 -0.0009 10.7914 -0.0009
# 3 15.6466 14.2092 55.4168 -0.0005 8.2586 -0.0001
# 4 -0.0004 -0.0009 -0.0005 5.2428 0.0000 10.7104
# 5 6.4734 10.7914 8.2586 0.0000 16.4963 0.0002
# 6 -0.0004 -0.0009 -0.0001 10.7104 0.0002 15.2831
#
#
#
# Elastic Compliance Matrix: (Units=1/GPa)
#
#
# Indices 1 2 3 4 5 6 
#
# 1 0.010211 -0.000472 -0.002389 0.000000 -0.002502 0.000000
# 2 -0.000472 0.015775 -0.002595 -0.000001 -0.008835 0.000001
# 3 -0.002389 -0.002595 0.020523 -0.000003 -0.007640 0.000002
# 4 0.000000 -0.000001 -0.000003 -0.441872 -0.000003 0.309665
# 5 -0.002502 -0.008835 -0.007640 -0.000003 0.071206 0.000000
# 6 0.000000 0.000001 0.000002 0.309665 0.000000 -0.151582
#
#
# Mechanical properties :
#
#
# Convention : Reuss Voigt Hill
#
# Bulk Modulus (GPa) = 28.09198 34.37677 31.23437
# Shear Modulus (GPa) = -11.03846 20.19941 4.58047
#
# Velocity S-wave (km/s) = -2.55655 3.45836 1.64686
# Velocity P-wave (km/s) = 2.81405 6.02510 4.70216
#
# Compressibility (1/GPa) = 0.03559735
#
# Stress axis : x y z
#
# Youngs Moduli (GPa) = 97.93413 63.39243 48.72477
#
# Poissons Ratio (x) = 0.02992 0.11641
# Poissons Ratio (y) = 0.04623 0.12643
# Poissons Ratio (z) = 0.23397 0.16449
#
# Static dielectric constant tensor:
#      x y z
#    x 1.571540 0.000000 0.000310 
#    y 0.000000 1.554250 0.000000 
#    z 0.000310 0.000000 1.564350 
# 
# From -- ./inp_files/278265.got.cif
#   From: 2010.05.17/outbox.cif.g08.bks.cpg/sg12_140_cif.got.tgz:278265.got - 2010.06.03 13:09:07.
